MODEL 1
REMARK VINA RESULT:    -1.567      0.000      0.000
REMARK INTER + INTRA:          -4.549
REMARK INTER:                  -3.400
REMARK INTRA:                  -1.149
REMARK UNBOUND:                -1.149
REMARK SMILES CCCCCCCCCCCCCCCCCCCCCC(=O)[O-]
REMARK SMILES IDX 12 1 11 2 10 3 9 4 8 5 7 6 6 7 5 8 4 9 3 10 2 11 1 12 13 13
REMARK SMILES IDX 14 14 15 15 16 16 17 17 18 18 19 19 20 20 21 21 22 22 23 23
REMARK SMILES IDX 24 24
REMARK H PARENT
REMARK Flexibility Score: inf
ROOT
ATOM      1  C   UNL     1      15.416  15.723   7.066  1.00  0.00     0.000 C 
ENDROOT
BRANCH   1   2
ATOM      2  C   UNL     1      15.692  17.206   7.369  1.00  0.00     0.000 C 
BRANCH   2   3
ATOM      3  C   UNL     1      16.904  17.405   8.295  1.00  0.00     0.000 C 
BRANCH   3   4
ATOM      4  C   UNL     1      16.753  18.627   9.214  1.00  0.00    -0.000 C 
BRANCH   4   5
ATOM      5  C   UNL     1      17.110  18.269  10.664  1.00  0.00    -0.000 C 
BRANCH   5   6
ATOM      6  C   UNL     1      16.942  19.452  11.636  1.00  0.00    -0.000 C 
BRANCH   6   7
ATOM      7  C   UNL     1      16.410  19.080  13.033  1.00  0.00    -0.000 C 
BRANCH   7   8
ATOM      8  C   UNL     1      14.991  18.487  12.995  1.00  0.00    -0.000 C 
BRANCH   8   9
ATOM      9  C   UNL     1      13.901  19.567  12.903  1.00  0.00    -0.000 C 
BRANCH   9  10
ATOM     10  C   UNL     1      14.198  20.615  11.816  1.00  0.00    -0.000 C 
BRANCH  10  11
ATOM     11  C   UNL     1      13.078  21.662  11.687  1.00  0.00    -0.003 C 
ATOM     12  C   UNL     1      12.536  22.117  13.042  1.00  0.00     0.004 C 
ENDBRANCH  10  11
ENDBRANCH   9  10
ENDBRANCH   8   9
ENDBRANCH   7   8
ENDBRANCH   6   7
ENDBRANCH   5   6
ENDBRANCH   4   5
ENDBRANCH   3   4
ENDBRANCH   2   3
ENDBRANCH   1   2
BRANCH   1  13
ATOM     13  C   UNL     1      16.466  14.785   7.685  1.00  0.00     0.000 C 
BRANCH  13  14
ATOM     14  C   UNL     1      15.867  13.819   8.721  1.00  0.00     0.000 C 
BRANCH  14  15
ATOM     15  C   UNL     1      16.938  13.194   9.631  1.00  0.00     0.000 C 
BRANCH  15  16
ATOM     16  C   UNL     1      17.124  13.970  10.947  1.00  0.00     0.000 C 
BRANCH  16  17
ATOM     17  C   UNL     1      16.011  15.003  11.180  1.00  0.00     0.000 C 
BRANCH  17  18
ATOM     18  C   UNL     1      15.536  15.046  12.644  1.00  0.00     0.000 C 
BRANCH  18  19
ATOM     19  C   UNL     1      15.002  13.680  13.121  1.00  0.00     0.000 C 
BRANCH  19  20
ATOM     20  C   UNL     1      13.603  13.340  12.576  1.00  0.00     0.006 C 
BRANCH  20  21
ATOM     21  C   UNL     1      13.448  11.860  12.205  1.00  0.00     0.053 C 
BRANCH  21  22
ATOM     22  C   UNL     1      14.709  11.337  11.594  1.00  0.00     0.041 C 
ATOM     23  O   UNL     1      14.841  11.308  10.341  1.00  0.00    -0.550 OA
ATOM     24  O   UNL     1      15.726  10.845  12.405  1.00  0.00    -0.550 OA
ENDBRANCH  21  22
ENDBRANCH  20  21
ENDBRANCH  19  20
ENDBRANCH  18  19
ENDBRANCH  17  18
ENDBRANCH  16  17
ENDBRANCH  15  16
ENDBRANCH  14  15
ENDBRANCH  13  14
ENDBRANCH   1  13
TORSDOF 20
ENDMDL
MODEL 2
REMARK VINA RESULT:    -0.723      5.831      9.132
REMARK INTER + INTRA:          -2.717
REMARK INTER:                  -1.014
REMARK INTRA:                  -1.703
REMARK UNBOUND:                -1.149
REMARK SMILES CCCCCCCCCCCCCCCCCCCCCC(=O)[O-]
REMARK SMILES IDX 12 1 11 2 10 3 9 4 8 5 7 6 6 7 5 8 4 9 3 10 2 11 1 12 13 13
REMARK SMILES IDX 14 14 15 15 16 16 17 17 18 18 19 19 20 20 21 21 22 22 23 23
REMARK SMILES IDX 24 24
REMARK H PARENT
REMARK Flexibility Score: inf
ROOT
ATOM      1  C   UNL     1      15.787  16.165   7.659  1.00  0.00     0.000 C 
ENDROOT
BRANCH   1   2
ATOM      2  C   UNL     1      17.059  16.831   8.213  1.00  0.00     0.000 C 
BRANCH   2   3
ATOM      3  C   UNL     1      16.762  18.145   8.955  1.00  0.00     0.000 C 
BRANCH   3   4
ATOM      4  C   UNL     1      15.623  18.006   9.977  1.00  0.00    -0.000 C 
BRANCH   4   5
ATOM      5  C   UNL     1      16.084  18.444  11.375  1.00  0.00    -0.000 C 
BRANCH   5   6
ATOM      6  C   UNL     1      15.798  17.391  12.461  1.00  0.00    -0.000 C 
BRANCH   6   7
ATOM      7  C   UNL     1      16.804  16.225  12.522  1.00  0.00    -0.000 C 
BRANCH   7   8
ATOM      8  C   UNL     1      16.180  14.875  12.127  1.00  0.00    -0.000 C 
BRANCH   8   9
ATOM      9  C   UNL     1      16.540  14.455  10.693  1.00  0.00    -0.000 C 
BRANCH   9  10
ATOM     10  C   UNL     1      15.869  13.133  10.279  1.00  0.00    -0.000 C 
BRANCH  10  11
ATOM     11  C   UNL     1      14.396  13.322   9.880  1.00  0.00    -0.003 C 
ATOM     12  C   UNL     1      14.117  12.912   8.433  1.00  0.00     0.004 C 
ENDBRANCH  10  11
ENDBRANCH   9  10
ENDBRANCH   8   9
ENDBRANCH   7   8
ENDBRANCH   6   7
ENDBRANCH   5   6
ENDBRANCH   4   5
ENDBRANCH   3   4
ENDBRANCH   2   3
ENDBRANCH   1   2
BRANCH   1  13
ATOM     13  C   UNL     1      15.546  16.489   6.175  1.00  0.00     0.000 C 
BRANCH  13  14
ATOM     14  C   UNL     1      14.170  16.014   5.677  1.00  0.00     0.000 C 
BRANCH  14  15
ATOM     15  C   UNL     1      13.742  16.714   4.376  1.00  0.00     0.000 C 
BRANCH  15  16
ATOM     16  C   UNL     1      12.511  16.055   3.727  1.00  0.00     0.000 C 
BRANCH  16  17
ATOM     17  C   UNL     1      12.612  16.007   2.194  1.00  0.00     0.000 C 
BRANCH  17  18
ATOM     18  C   UNL     1      13.366  17.216   1.610  1.00  0.00     0.000 C 
BRANCH  18  19
ATOM     19  C   UNL     1      12.689  17.760   0.334  1.00  0.00     0.000 C 
BRANCH  19  20
ATOM     20  C   UNL     1      13.170  19.166  -0.069  1.00  0.00     0.006 C 
BRANCH  20  21
ATOM     21  C   UNL     1      14.620  19.444   0.345  1.00  0.00     0.053 C 
BRANCH  21  22
ATOM     22  C   UNL     1      15.163  20.620  -0.404  1.00  0.00     0.041 C 
ATOM     23  O   UNL     1      14.436  21.235  -1.230  1.00  0.00    -0.550 OA
ATOM     24  O   UNL     1      16.483  21.016  -0.220  1.00  0.00    -0.550 OA
ENDBRANCH  21  22
ENDBRANCH  20  21
ENDBRANCH  19  20
ENDBRANCH  18  19
ENDBRANCH  17  18
ENDBRANCH  16  17
ENDBRANCH  15  16
ENDBRANCH  14  15
ENDBRANCH  13  14
ENDBRANCH   1  13
TORSDOF 20
ENDMDL
MODEL 3
REMARK VINA RESULT:    -0.704      3.341      6.647
REMARK INTER + INTRA:          -2.677
REMARK INTER:                  -0.811
REMARK INTRA:                  -1.866
REMARK UNBOUND:                -1.149
REMARK SMILES CCCCCCCCCCCCCCCCCCCCCC(=O)[O-]
REMARK SMILES IDX 12 1 11 2 10 3 9 4 8 5 7 6 6 7 5 8 4 9 3 10 2 11 1 12 13 13
REMARK SMILES IDX 14 14 15 15 16 16 17 17 18 18 19 19 20 20 21 21 22 22 23 23
REMARK SMILES IDX 24 24
REMARK H PARENT
REMARK Flexibility Score: inf
ROOT
ATOM      1  C   UNL     1      15.599  14.415   6.077  1.00  0.00     0.000 C 
ENDROOT
BRANCH   1   2
ATOM      2  C   UNL     1      15.126  13.098   6.717  1.00  0.00     0.000 C 
BRANCH   2   3
ATOM      3  C   UNL     1      13.790  13.249   7.462  1.00  0.00     0.000 C 
BRANCH   3   4
ATOM      4  C   UNL     1      13.231  11.905   7.956  1.00  0.00    -0.000 C 
BRANCH   4   5
ATOM      5  C   UNL     1      13.156  11.872   9.489  1.00  0.00    -0.000 C 
BRANCH   5   6
ATOM      6  C   UNL     1      14.433  12.401  10.167  1.00  0.00    -0.000 C 
BRANCH   6   7
ATOM      7  C   UNL     1      14.722  11.818  11.564  1.00  0.00    -0.000 C 
BRANCH   7   8
ATOM      8  C   UNL     1      16.198  11.955  11.976  1.00  0.00    -0.000 C 
BRANCH   8   9
ATOM      9  C   UNL     1      16.877  13.182  11.345  1.00  0.00    -0.000 C 
BRANCH   9  10
ATOM     10  C   UNL     1      17.123  14.310  12.362  1.00  0.00    -0.000 C 
BRANCH  10  11
ATOM     11  C   UNL     1      15.815  14.891  12.923  1.00  0.00    -0.003 C 
ATOM     12  C   UNL     1      15.872  16.407  13.109  1.00  0.00     0.004 C 
ENDBRANCH  10  11
ENDBRANCH   9  10
ENDBRANCH   8   9
ENDBRANCH   7   8
ENDBRANCH   6   7
ENDBRANCH   5   6
ENDBRANCH   4   5
ENDBRANCH   3   4
ENDBRANCH   2   3
ENDBRANCH   1   2
BRANCH   1  13
ATOM     13  C   UNL     1      15.110  15.656   6.842  1.00  0.00     0.000 C 
BRANCH  13  14
ATOM     14  C   UNL     1      15.531  15.649   8.322  1.00  0.00     0.000 C 
BRANCH  14  15
ATOM     15  C   UNL     1      16.984  16.114   8.523  1.00  0.00     0.000 C 
BRANCH  15  16
ATOM     16  C   UNL     1      17.125  17.137   9.664  1.00  0.00     0.000 C 
BRANCH  16  17
ATOM     17  C   UNL     1      16.218  18.362   9.469  1.00  0.00     0.000 C 
BRANCH  17  18
ATOM     18  C   UNL     1      16.759  19.622  10.170  1.00  0.00     0.000 C 
BRANCH  18  19
ATOM     19  C   UNL     1      17.097  19.360  11.652  1.00  0.00     0.000 C 
BRANCH  19  20
ATOM     20  C   UNL     1      16.182  20.112  12.636  1.00  0.00     0.006 C 
BRANCH  20  21
ATOM     21  C   UNL     1      14.742  19.584  12.637  1.00  0.00     0.053 C 
BRANCH  21  22
ATOM     22  C   UNL     1      13.769  20.714  12.518  1.00  0.00     0.041 C 
ATOM     23  O   UNL     1      12.530  20.483  12.490  1.00  0.00    -0.550 OA
ATOM     24  O   UNL     1      14.229  22.021  12.399  1.00  0.00    -0.550 OA
ENDBRANCH  21  22
ENDBRANCH  20  21
ENDBRANCH  19  20
ENDBRANCH  18  19
ENDBRANCH  17  18
ENDBRANCH  16  17
ENDBRANCH  15  16
ENDBRANCH  14  15
ENDBRANCH  13  14
ENDBRANCH   1  13
TORSDOF 20
ENDMDL
MODEL 4
REMARK VINA RESULT:    -0.674      2.249      5.039
REMARK INTER + INTRA:          -2.610
REMARK INTER:                  -2.805
REMARK INTRA:                   0.195
REMARK UNBOUND:                -1.149
REMARK SMILES CCCCCCCCCCCCCCCCCCCCCC(=O)[O-]
REMARK SMILES IDX 12 1 11 2 10 3 9 4 8 5 7 6 6 7 5 8 4 9 3 10 2 11 1 12 13 13
REMARK SMILES IDX 14 14 15 15 16 16 17 17 18 18 19 19 20 20 21 21 22 22 23 23
REMARK SMILES IDX 24 24
REMARK H PARENT
REMARK Flexibility Score: inf
ROOT
ATOM      1  C   UNL     1      14.120  12.981  10.594  1.00  0.00     0.000 C 
ENDROOT
BRANCH   1   2
ATOM      2  C   UNL     1      13.865  12.600  12.063  1.00  0.00     0.000 C 
BRANCH   2   3
ATOM      3  C   UNL     1      15.167  12.378  12.851  1.00  0.00     0.000 C 
BRANCH   3   4
ATOM      4  C   UNL     1      16.395  12.973  12.145  1.00  0.00    -0.000 C 
BRANCH   4   5
ATOM      5  C   UNL     1      17.056  14.055  13.012  1.00  0.00    -0.000 C 
BRANCH   5   6
ATOM      6  C   UNL     1      16.210  15.337  13.124  1.00  0.00    -0.000 C 
BRANCH   6   7
ATOM      7  C   UNL     1      17.000  16.654  13.003  1.00  0.00    -0.000 C 
BRANCH   7   8
ATOM      8  C   UNL     1      16.182  17.785  12.357  1.00  0.00    -0.000 C 
BRANCH   8   9
ATOM      9  C   UNL     1      16.921  19.133  12.374  1.00  0.00    -0.000 C 
BRANCH   9  10
ATOM     10  C   UNL     1      16.500  20.053  11.214  1.00  0.00    -0.000 C 
BRANCH  10  11
ATOM     11  C   UNL     1      15.455  21.097  11.641  1.00  0.00    -0.003 C 
ATOM     12  C   UNL     1      14.124  20.468  12.055  1.00  0.00     0.004 C 
ENDBRANCH  10  11
ENDBRANCH   9  10
ENDBRANCH   8   9
ENDBRANCH   7   8
ENDBRANCH   6   7
ENDBRANCH   5   6
ENDBRANCH   4   5
ENDBRANCH   3   4
ENDBRANCH   2   3
ENDBRANCH   1   2
BRANCH   1  13
ATOM     13  C   UNL     1      13.338  12.099   9.607  1.00  0.00     0.000 C 
BRANCH  13  14
ATOM     14  C   UNL     1      13.325  12.670   8.179  1.00  0.00     0.000 C 
BRANCH  14  15
ATOM     15  C   UNL     1      14.726  12.703   7.545  1.00  0.00     0.000 C 
BRANCH  15  16
ATOM     16  C   UNL     1      15.851  12.716   8.596  1.00  0.00     0.000 C 
BRANCH  16  17
ATOM     17  C   UNL     1      17.114  13.431   8.094  1.00  0.00     0.000 C 
BRANCH  17  18
ATOM     18  C   UNL     1      16.903  14.131   6.738  1.00  0.00     0.000 C 
BRANCH  18  19
ATOM     19  C   UNL     1      16.034  15.399   6.870  1.00  0.00     0.000 C 
BRANCH  19  20
ATOM     20  C   UNL     1      16.851  16.697   7.005  1.00  0.00     0.006 C 
BRANCH  20  21
ATOM     21  C   UNL     1      17.094  17.102   8.464  1.00  0.00     0.053 C 
BRANCH  21  22
ATOM     22  C   UNL     1      15.825  17.012   9.253  1.00  0.00     0.041 C 
ATOM     23  O   UNL     1      15.487  15.920   9.784  1.00  0.00    -0.550 OA
ATOM     24  O   UNL     1      14.997  18.121   9.370  1.00  0.00    -0.550 OA
ENDBRANCH  21  22
ENDBRANCH  20  21
ENDBRANCH  19  20
ENDBRANCH  18  19
ENDBRANCH  17  18
ENDBRANCH  16  17
ENDBRANCH  15  16
ENDBRANCH  14  15
ENDBRANCH  13  14
ENDBRANCH   1  13
TORSDOF 20
ENDMDL
MODEL 5
REMARK VINA RESULT:    -0.579      4.720      7.571
REMARK INTER + INTRA:          -2.404
REMARK INTER:                  -0.943
REMARK INTRA:                  -1.461
REMARK UNBOUND:                -1.149
REMARK SMILES CCCCCCCCCCCCCCCCCCCCCC(=O)[O-]
REMARK SMILES IDX 12 1 11 2 10 3 9 4 8 5 7 6 6 7 5 8 4 9 3 10 2 11 1 12 13 13
REMARK SMILES IDX 14 14 15 15 16 16 17 17 18 18 19 19 20 20 21 21 22 22 23 23
REMARK SMILES IDX 24 24
REMARK H PARENT
REMARK Flexibility Score: inf
ROOT
ATOM      1  C   UNL     1      15.679  15.307   6.785  1.00  0.00     0.000 C 
ENDROOT
BRANCH   1   2
ATOM      2  C   UNL     1      14.912  16.490   6.169  1.00  0.00     0.000 C 
BRANCH   2   3
ATOM      3  C   UNL     1      13.788  16.037   5.221  1.00  0.00     0.000 C 
BRANCH   3   4
ATOM      4  C   UNL     1      13.684  16.914   3.964  1.00  0.00    -0.000 C 
BRANCH   4   5
ATOM      5  C   UNL     1      12.655  16.339   2.979  1.00  0.00    -0.000 C 
BRANCH   5   6
ATOM      6  C   UNL     1      13.043  16.561   1.505  1.00  0.00    -0.000 C 
BRANCH   6   7
ATOM      7  C   UNL     1      12.129  17.526   0.726  1.00  0.00    -0.000 C 
BRANCH   7   8
ATOM      8  C   UNL     1      12.911  18.622  -0.017  1.00  0.00    -0.000 C 
BRANCH   8   9
ATOM      9  C   UNL     1      14.323  18.831   0.554  1.00  0.00    -0.000 C 
BRANCH   9  10
ATOM     10  C   UNL     1      14.958  20.154   0.090  1.00  0.00    -0.000 C 
BRANCH  10  11
ATOM     11  C   UNL     1      14.137  20.847  -1.010  1.00  0.00    -0.003 C 
ATOM     12  C   UNL     1      14.975  21.799  -1.863  1.00  0.00     0.004 C 
ENDBRANCH  10  11
ENDBRANCH   9  10
ENDBRANCH   8   9
ENDBRANCH   7   8
ENDBRANCH   6   7
ENDBRANCH   5   6
ENDBRANCH   4   5
ENDBRANCH   3   4
ENDBRANCH   2   3
ENDBRANCH   1   2
BRANCH   1  13
ATOM     13  C   UNL     1      17.019  15.728   7.410  1.00  0.00     0.000 C 
BRANCH  13  14
ATOM     14  C   UNL     1      17.010  15.653   8.946  1.00  0.00     0.000 C 
BRANCH  14  15
ATOM     15  C   UNL     1      16.308  16.861   9.591  1.00  0.00     0.000 C 
BRANCH  15  16
ATOM     16  C   UNL     1      17.064  17.398  10.820  1.00  0.00     0.000 C 
BRANCH  16  17
ATOM     17  C   UNL     1      16.417  16.962  12.143  1.00  0.00     0.000 C 
BRANCH  17  18
ATOM     18  C   UNL     1      16.822  15.537  12.563  1.00  0.00     0.000 C 
BRANCH  18  19
ATOM     19  C   UNL     1      15.596  14.631  12.798  1.00  0.00     0.000 C 
BRANCH  19  20
ATOM     20  C   UNL     1      15.885  13.134  12.586  1.00  0.00     0.006 C 
BRANCH  20  21
ATOM     21  C   UNL     1      16.123  12.772  11.114  1.00  0.00     0.053 C 
BRANCH  21  22
ATOM     22  C   UNL     1      14.822  12.514  10.420  1.00  0.00     0.041 C 
ATOM     23  O   UNL     1      14.249  11.399  10.545  1.00  0.00    -0.550 OA
ATOM     24  O   UNL     1      14.261  13.490   9.605  1.00  0.00    -0.550 OA
ENDBRANCH  21  22
ENDBRANCH  20  21
ENDBRANCH  19  20
ENDBRANCH  18  19
ENDBRANCH  17  18
ENDBRANCH  16  17
ENDBRANCH  15  16
ENDBRANCH  14  15
ENDBRANCH  13  14
ENDBRANCH   1  13
TORSDOF 20
ENDMDL
MODEL 6
REMARK VINA RESULT:    -0.493      4.328      7.094
REMARK INTER + INTRA:          -2.218
REMARK INTER:                  -0.342
REMARK INTRA:                  -1.876
REMARK UNBOUND:                -1.149
REMARK SMILES CCCCCCCCCCCCCCCCCCCCCC(=O)[O-]
REMARK SMILES IDX 12 1 11 2 10 3 9 4 8 5 7 6 6 7 5 8 4 9 3 10 2 11 1 12 13 13
REMARK SMILES IDX 14 14 15 15 16 16 17 17 18 18 19 19 20 20 21 21 22 22 23 23
REMARK SMILES IDX 24 24
REMARK H PARENT
REMARK Flexibility Score: inf
ROOT
ATOM      1  C   UNL     1      14.080  12.387   9.459  1.00  0.00     0.000 C 
ENDROOT
BRANCH   1   2
ATOM      2  C   UNL     1      13.977  12.498  10.990  1.00  0.00     0.000 C 
BRANCH   2   3
ATOM      3  C   UNL     1      15.097  11.732  11.714  1.00  0.00     0.000 C 
BRANCH   3   4
ATOM      4  C   UNL     1      16.373  12.571  11.888  1.00  0.00    -0.000 C 
BRANCH   4   5
ATOM      5  C   UNL     1      16.034  13.995  12.351  1.00  0.00    -0.000 C 
BRANCH   5   6
ATOM      6  C   UNL     1      16.942  15.067  11.718  1.00  0.00    -0.000 C 
BRANCH   6   7
ATOM      7  C   UNL     1      16.231  16.047  10.766  1.00  0.00    -0.000 C 
BRANCH   7   8
ATOM      8  C   UNL     1      16.981  17.381  10.611  1.00  0.00    -0.000 C 
BRANCH   8   9
ATOM      9  C   UNL     1      16.576  18.415  11.674  1.00  0.00    -0.000 C 
BRANCH   9  10
ATOM     10  C   UNL     1      16.383  19.824  11.085  1.00  0.00    -0.000 C 
BRANCH  10  11
ATOM     11  C   UNL     1      15.150  20.539  11.663  1.00  0.00    -0.003 C 
ATOM     12  C   UNL     1      13.905  19.651  11.680  1.00  0.00     0.004 C 
ENDBRANCH  10  11
ENDBRANCH   9  10
ENDBRANCH   8   9
ENDBRANCH   7   8
ENDBRANCH   6   7
ENDBRANCH   5   6
ENDBRANCH   4   5
ENDBRANCH   3   4
ENDBRANCH   2   3
ENDBRANCH   1   2
BRANCH   1  13
ATOM     13  C   UNL     1      14.624  13.667   8.805  1.00  0.00     0.000 C 
BRANCH  13  14
ATOM     14  C   UNL     1      16.012  13.471   8.171  1.00  0.00     0.000 C 
BRANCH  14  15
ATOM     15  C   UNL     1      16.298  14.489   7.054  1.00  0.00     0.000 C 
BRANCH  15  16
ATOM     16  C   UNL     1      15.477  15.781   7.206  1.00  0.00     0.000 C 
BRANCH  16  17
ATOM     17  C   UNL     1      15.280  16.512   5.869  1.00  0.00     0.000 C 
BRANCH  17  18
ATOM     18  C   UNL     1      13.927  16.189   5.208  1.00  0.00     0.000 C 
BRANCH  18  19
ATOM     19  C   UNL     1      13.736  16.947   3.878  1.00  0.00     0.000 C 
BRANCH  19  20
ATOM     20  C   UNL     1      12.563  16.422   3.031  1.00  0.00     0.006 C 
BRANCH  20  21
ATOM     21  C   UNL     1      12.911  16.285   1.544  1.00  0.00     0.053 C 
BRANCH  21  22
ATOM     22  C   UNL     1      12.964  17.631   0.891  1.00  0.00     0.041 C 
ATOM     23  O   UNL     1      11.950  18.088   0.300  1.00  0.00    -0.550 OA
ATOM     24  O   UNL     1      14.144  18.365   0.904  1.00  0.00    -0.550 OA
ENDBRANCH  21  22
ENDBRANCH  20  21
ENDBRANCH  19  20
ENDBRANCH  18  19
ENDBRANCH  17  18
ENDBRANCH  16  17
ENDBRANCH  15  16
ENDBRANCH  14  15
ENDBRANCH  13  14
ENDBRANCH   1  13
TORSDOF 20
ENDMDL
MODEL 7
REMARK VINA RESULT:    -0.445      4.178      7.284
REMARK INTER + INTRA:          -2.114
REMARK INTER:                  -0.413
REMARK INTRA:                  -1.702
REMARK UNBOUND:                -1.149
REMARK SMILES CCCCCCCCCCCCCCCCCCCCCC(=O)[O-]
REMARK SMILES IDX 12 1 11 2 10 3 9 4 8 5 7 6 6 7 5 8 4 9 3 10 2 11 1 12 13 13
REMARK SMILES IDX 14 14 15 15 16 16 17 17 18 18 19 19 20 20 21 21 22 22 23 23
REMARK SMILES IDX 24 24
REMARK H PARENT
REMARK Flexibility Score: inf
ROOT
ATOM      1  C   UNL     1      14.062  12.793   8.489  1.00  0.00     0.000 C 
ENDROOT
BRANCH   1   2
ATOM      2  C   UNL     1      15.432  13.493   8.443  1.00  0.00     0.000 C 
BRANCH   2   3
ATOM      3  C   UNL     1      15.656  14.269   7.135  1.00  0.00     0.000 C 
BRANCH   3   4
ATOM      4  C   UNL     1      16.090  15.723   7.375  1.00  0.00    -0.000 C 
BRANCH   4   5
ATOM      5  C   UNL     1      15.384  16.675   6.398  1.00  0.00    -0.000 C 
BRANCH   5   6
ATOM      6  C   UNL     1      14.201  16.017   5.663  1.00  0.00    -0.000 C 
BRANCH   6   7
ATOM      7  C   UNL     1      13.787  16.701   4.347  1.00  0.00    -0.000 C 
BRANCH   7   8
ATOM      8  C   UNL     1      12.484  16.131   3.760  1.00  0.00    -0.000 C 
BRANCH   8   9
ATOM      9  C   UNL     1      12.532  15.999   2.229  1.00  0.00    -0.000 C 
BRANCH   9  10
ATOM     10  C   UNL     1      13.276  17.167   1.559  1.00  0.00    -0.000 C 
BRANCH  10  11
ATOM     11  C   UNL     1      12.630  17.590   0.229  1.00  0.00    -0.003 C 
ATOM     12  C   UNL     1      12.825  19.075  -0.078  1.00  0.00     0.004 C 
ENDBRANCH  10  11
ENDBRANCH   9  10
ENDBRANCH   8   9
ENDBRANCH   7   8
ENDBRANCH   6   7
ENDBRANCH   5   6
ENDBRANCH   4   5
ENDBRANCH   3   4
ENDBRANCH   2   3
ENDBRANCH   1   2
BRANCH   1  13
ATOM     13  C   UNL     1      13.756  12.174   9.862  1.00  0.00     0.000 C 
BRANCH  13  14
ATOM     14  C   UNL     1      14.970  12.188  10.807  1.00  0.00     0.000 C 
BRANCH  14  15
ATOM     15  C   UNL     1      14.577  12.469  12.267  1.00  0.00     0.000 C 
BRANCH  15  16
ATOM     16  C   UNL     1      15.048  13.852  12.751  1.00  0.00     0.000 C 
BRANCH  16  17
ATOM     17  C   UNL     1      16.324  14.320  12.035  1.00  0.00     0.000 C 
BRANCH  17  18
ATOM     18  C   UNL     1      16.541  15.841  12.140  1.00  0.00     0.000 C 
BRANCH  18  19
ATOM     19  C   UNL     1      16.338  16.550  10.784  1.00  0.00     0.000 C 
BRANCH  19  20
ATOM     20  C   UNL     1      15.888  18.017  10.916  1.00  0.00     0.006 C 
BRANCH  20  21
ATOM     21  C   UNL     1      15.372  18.361  12.319  1.00  0.00     0.053 C 
BRANCH  21  22
ATOM     22  C   UNL     1      14.474  19.557  12.268  1.00  0.00     0.041 C 
ATOM     23  O   UNL     1      13.248  19.417  12.011  1.00  0.00    -0.550 OA
ATOM     24  O   UNL     1      14.995  20.830  12.469  1.00  0.00    -0.550 OA
ENDBRANCH  21  22
ENDBRANCH  20  21
ENDBRANCH  19  20
ENDBRANCH  18  19
ENDBRANCH  17  18
ENDBRANCH  16  17
ENDBRANCH  15  16
ENDBRANCH  14  15
ENDBRANCH  13  14
ENDBRANCH   1  13
TORSDOF 20
ENDMDL
MODEL 8
REMARK VINA RESULT:    -0.440      2.921      7.326
REMARK INTER + INTRA:          -2.102
REMARK INTER:                  -3.475
REMARK INTRA:                   1.373
REMARK UNBOUND:                -1.149
REMARK SMILES CCCCCCCCCCCCCCCCCCCCCC(=O)[O-]
REMARK SMILES IDX 12 1 11 2 10 3 9 4 8 5 7 6 6 7 5 8 4 9 3 10 2 11 1 12 13 13
REMARK SMILES IDX 14 14 15 15 16 16 17 17 18 18 19 19 20 20 21 21 22 22 23 23
REMARK SMILES IDX 24 24
REMARK H PARENT
REMARK Flexibility Score: inf
ROOT
ATOM      1  C   UNL     1      16.572  15.178   8.509  1.00  0.00     0.000 C 
ENDROOT
BRANCH   1   2
ATOM      2  C   UNL     1      16.242  15.104  10.011  1.00  0.00     0.000 C 
BRANCH   2   3
ATOM      3  C   UNL     1      17.110  14.078  10.757  1.00  0.00     0.000 C 
BRANCH   3   4
ATOM      4  C   UNL     1      16.549  13.721  12.142  1.00  0.00    -0.000 C 
BRANCH   4   5
ATOM      5  C   UNL     1      15.935  12.314  12.138  1.00  0.00    -0.000 C 
BRANCH   5   6
ATOM      6  C   UNL     1      14.418  12.317  12.405  1.00  0.00    -0.000 C 
BRANCH   6   7
ATOM      7  C   UNL     1      13.541  12.673  11.191  1.00  0.00    -0.000 C 
BRANCH   7   8
ATOM      8  C   UNL     1      13.855  11.814   9.953  1.00  0.00    -0.000 C 
BRANCH   8   9
ATOM      9  C   UNL     1      14.979  12.411   9.090  1.00  0.00    -0.000 C 
BRANCH   9  10
ATOM     10  C   UNL     1      14.442  13.284   7.942  1.00  0.00    -0.000 C 
BRANCH  10  11
ATOM     11  C   UNL     1      14.740  12.682   6.558  1.00  0.00    -0.003 C 
ATOM     12  C   UNL     1      16.174  12.942   6.096  1.00  0.00     0.004 C 
ENDBRANCH  10  11
ENDBRANCH   9  10
ENDBRANCH   8   9
ENDBRANCH   7   8
ENDBRANCH   6   7
ENDBRANCH   5   6
ENDBRANCH   4   5
ENDBRANCH   3   4
ENDBRANCH   2   3
ENDBRANCH   1   2
BRANCH   1  13
ATOM     13  C   UNL     1      16.636  16.621   7.985  1.00  0.00     0.000 C 
BRANCH  13  14
ATOM     14  C   UNL     1      15.977  17.633   8.938  1.00  0.00     0.000 C 
BRANCH  14  15
ATOM     15  C   UNL     1      17.007  18.518   9.661  1.00  0.00     0.000 C 
BRANCH  15  16
ATOM     16  C   UNL     1      17.125  19.919   9.036  1.00  0.00     0.000 C 
BRANCH  16  17
ATOM     17  C   UNL     1      16.937  21.040  10.069  1.00  0.00     0.000 C 
BRANCH  17  18
ATOM     18  C   UNL     1      15.699  20.826  10.961  1.00  0.00     0.000 C 
BRANCH  18  19
ATOM     19  C   UNL     1      15.891  21.423  12.371  1.00  0.00     0.000 C 
BRANCH  19  20
ATOM     20  C   UNL     1      14.591  21.962  12.995  1.00  0.00     0.006 C 
BRANCH  20  21
ATOM     21  C   UNL     1      13.332  21.494  12.254  1.00  0.00     0.053 C 
BRANCH  21  22
ATOM     22  C   UNL     1      13.054  20.054  12.549  1.00  0.00     0.041 C 
ATOM     23  O   UNL     1      11.984  19.720  13.125  1.00  0.00    -0.550 OA
ATOM     24  O   UNL     1      13.992  19.082  12.221  1.00  0.00    -0.550 OA
ENDBRANCH  21  22
ENDBRANCH  20  21
ENDBRANCH  19  20
ENDBRANCH  18  19
ENDBRANCH  17  18
ENDBRANCH  16  17
ENDBRANCH  15  16
ENDBRANCH  14  15
ENDBRANCH  13  14
ENDBRANCH   1  13
TORSDOF 20
ENDMDL
MODEL 9
REMARK VINA RESULT:    -0.143      5.157      7.989
REMARK INTER + INTRA:          -1.460
REMARK INTER:                  -0.359
REMARK INTRA:                  -1.100
REMARK UNBOUND:                -1.149
REMARK SMILES CCCCCCCCCCCCCCCCCCCCCC(=O)[O-]
REMARK SMILES IDX 12 1 11 2 10 3 9 4 8 5 7 6 6 7 5 8 4 9 3 10 2 11 1 12 13 13
REMARK SMILES IDX 14 14 15 15 16 16 17 17 18 18 19 19 20 20 21 21 22 22 23 23
REMARK SMILES IDX 24 24
REMARK H PARENT
REMARK Flexibility Score: inf
ROOT
ATOM      1  C   UNL     1      15.369  16.144   6.475  1.00  0.00     0.000 C 
ENDROOT
BRANCH   1   2
ATOM      2  C   UNL     1      14.123  15.838   5.625  1.00  0.00     0.000 C 
BRANCH   2   3
ATOM      3  C   UNL     1      13.911  16.862   4.497  1.00  0.00     0.000 C 
BRANCH   3   4
ATOM      4  C   UNL     1      12.920  16.372   3.430  1.00  0.00    -0.000 C 
BRANCH   4   5
ATOM      5  C   UNL     1      13.381  16.782   2.024  1.00  0.00    -0.000 C 
BRANCH   5   6
ATOM      6  C   UNL     1      12.221  17.226   1.114  1.00  0.00    -0.000 C 
BRANCH   6   7
ATOM      7  C   UNL     1      12.618  18.163  -0.042  1.00  0.00    -0.000 C 
BRANCH   7   8
ATOM      8  C   UNL     1      13.902  18.960   0.248  1.00  0.00    -0.000 C 
BRANCH   8   9
ATOM      9  C   UNL     1      13.744  20.462  -0.041  1.00  0.00    -0.000 C 
BRANCH   9  10
ATOM     10  C   UNL     1      14.593  20.926  -1.238  1.00  0.00    -0.000 C 
BRANCH  10  11
ATOM     11  C   UNL     1      15.790  21.790  -0.809  1.00  0.00    -0.003 C 
ATOM     12  C   UNL     1      17.003  20.956  -0.393  1.00  0.00     0.004 C 
ENDBRANCH  10  11
ENDBRANCH   9  10
ENDBRANCH   8   9
ENDBRANCH   7   8
ENDBRANCH   6   7
ENDBRANCH   5   6
ENDBRANCH   4   5
ENDBRANCH   3   4
ENDBRANCH   2   3
ENDBRANCH   1   2
BRANCH   1  13
ATOM     13  C   UNL     1      15.983  14.883   7.105  1.00  0.00     0.000 C 
BRANCH  13  14
ATOM     14  C   UNL     1      14.923  13.858   7.541  1.00  0.00     0.000 C 
BRANCH  14  15
ATOM     15  C   UNL     1      15.193  13.295   8.948  1.00  0.00     0.000 C 
BRANCH  15  16
ATOM     16  C   UNL     1      14.047  12.402   9.457  1.00  0.00     0.000 C 
BRANCH  16  17
ATOM     17  C   UNL     1      14.374  11.741  10.805  1.00  0.00     0.000 C 
BRANCH  17  18
ATOM     18  C   UNL     1      13.709  12.456  11.995  1.00  0.00     0.000 C 
BRANCH  18  19
ATOM     19  C   UNL     1      14.730  12.833  13.090  1.00  0.00     0.000 C 
BRANCH  19  20
ATOM     20  C   UNL     1      15.846  13.771  12.596  1.00  0.00     0.006 C 
BRANCH  20  21
ATOM     21  C   UNL     1      15.606  15.238  12.973  1.00  0.00     0.053 C 
BRANCH  21  22
ATOM     22  C   UNL     1      16.384  16.145  12.073  1.00  0.00     0.041 C 
ATOM     23  O   UNL     1      16.506  17.366  12.357  1.00  0.00    -0.550 OA
ATOM     24  O   UNL     1      16.943  15.651  10.900  1.00  0.00    -0.550 OA
ENDBRANCH  21  22
ENDBRANCH  20  21
ENDBRANCH  19  20
ENDBRANCH  18  19
ENDBRANCH  17  18
ENDBRANCH  16  17
ENDBRANCH  15  16
ENDBRANCH  14  15
ENDBRANCH  13  14
ENDBRANCH   1  13
TORSDOF 20
ENDMDL
