MODEL 1
REMARK VINA RESULT:    -3.564      0.000      0.000
REMARK INTER + INTRA:          -4.492
REMARK INTER:                  -4.397
REMARK INTRA:                  -0.095
REMARK UNBOUND:                -0.095
REMARK SMILES CCCCCC(=O)[O-]
REMARK SMILES IDX 4 1 5 2 6 3 7 4 8 5 3 6 2 7 1 8
REMARK H PARENT
REMARK Flexibility Score: inf
ROOT
ATOM      1  C   UNL     1      17.043   2.787  24.986  1.00  0.00     0.006 C 
ENDROOT
BRANCH   1   2
ATOM      2  C   UNL     1      17.616   1.441  25.438  1.00  0.00     0.053 C 
BRANCH   2   3
ATOM      3  C   UNL     1      18.889   1.640  26.197  1.00  0.00     0.041 C 
ATOM      4  O   UNL     1      18.924   2.424  27.182  1.00  0.00    -0.550 OA
ATOM      5  O   UNL     1      20.027   0.923  25.848  1.00  0.00    -0.550 OA
ENDBRANCH   2   3
ENDBRANCH   1   2
BRANCH   1   6
ATOM      6  C   UNL     1      15.831   3.183  25.837  1.00  0.00     0.000 C 
BRANCH   6   7
ATOM      7  C   UNL     1      14.572   2.438  25.380  1.00  0.00    -0.003 C 
ATOM      8  C   UNL     1      13.877   3.177  24.240  1.00  0.00     0.004 C 
ENDBRANCH   6   7
ENDBRANCH   1   6
TORSDOF 4
ENDMDL
MODEL 2
REMARK VINA RESULT:    -3.229      3.062      4.681
REMARK INTER + INTRA:          -4.079
REMARK INTER:                  -4.010
REMARK INTRA:                  -0.069
REMARK UNBOUND:                -0.095
REMARK SMILES CCCCCC(=O)[O-]
REMARK SMILES IDX 4 1 5 2 6 3 7 4 8 5 3 6 2 7 1 8
REMARK H PARENT
REMARK Flexibility Score: inf
ROOT
ATOM      1  C   UNL     1      16.961   2.782  24.937  1.00  0.00     0.006 C 
ENDROOT
BRANCH   1   2
ATOM      2  C   UNL     1      15.718   3.076  25.782  1.00  0.00     0.053 C 
BRANCH   2   3
ATOM      3  C   UNL     1      14.475   2.760  25.013  1.00  0.00     0.041 C 
ATOM      4  O   UNL     1      13.617   1.972  25.491  1.00  0.00    -0.550 OA
ATOM      5  O   UNL     1      14.237   3.375  23.790  1.00  0.00    -0.550 OA
ENDBRANCH   2   3
ENDBRANCH   1   2
BRANCH   1   6
ATOM      6  C   UNL     1      17.648   1.492  25.399  1.00  0.00     0.000 C 
BRANCH   6   7
ATOM      7  C   UNL     1      18.901   1.801  26.225  1.00  0.00    -0.003 C 
ATOM      8  C   UNL     1      20.111   1.036  25.698  1.00  0.00     0.004 C 
ENDBRANCH   6   7
ENDBRANCH   1   6
TORSDOF 4
ENDMDL
MODEL 3
REMARK VINA RESULT:    -2.915     15.340     16.183
REMARK INTER + INTRA:          -3.692
REMARK INTER:                  -4.051
REMARK INTRA:                   0.359
REMARK UNBOUND:                -0.095
REMARK SMILES CCCCCC(=O)[O-]
REMARK SMILES IDX 4 1 5 2 6 3 7 4 8 5 3 6 2 7 1 8
REMARK H PARENT
REMARK Flexibility Score: inf
ROOT
ATOM      1  C   UNL     1      28.569  -1.038  35.124  1.00  0.00     0.006 C 
ENDROOT
BRANCH   1   2
ATOM      2  C   UNL     1      29.899  -1.771  34.926  1.00  0.00     0.053 C 
BRANCH   2   3
ATOM      3  C   UNL     1      30.743  -1.061  33.916  1.00  0.00     0.041 C 
ATOM      4  O   UNL     1      31.099  -1.648  32.860  1.00  0.00    -0.550 OA
ATOM      5  O   UNL     1      31.097   0.268  34.115  1.00  0.00    -0.550 OA
ENDBRANCH   2   3
ENDBRANCH   1   2
BRANCH   1   6
ATOM      6  C   UNL     1      27.452  -2.018  35.502  1.00  0.00     0.000 C 
BRANCH   6   7
ATOM      7  C   UNL     1      27.306  -2.125  37.024  1.00  0.00    -0.003 C 
ATOM      8  C   UNL     1      28.615  -1.780  37.729  1.00  0.00     0.004 C 
ENDBRANCH   6   7
ENDBRANCH   1   6
TORSDOF 4
ENDMDL
MODEL 4
REMARK VINA RESULT:    -2.810     14.431     15.400
REMARK INTER + INTRA:          -3.562
REMARK INTER:                  -3.440
REMARK INTRA:                  -0.122
REMARK UNBOUND:                -0.095
REMARK SMILES CCCCCC(=O)[O-]
REMARK SMILES IDX 4 1 5 2 6 3 7 4 8 5 3 6 2 7 1 8
REMARK H PARENT
REMARK Flexibility Score: inf
ROOT
ATOM      1  C   UNL     1      11.780  17.015  22.274  1.00  0.00     0.006 C 
ENDROOT
BRANCH   1   2
ATOM      2  C   UNL     1      10.929  15.743  22.274  1.00  0.00     0.053 C 
BRANCH   2   3
ATOM      3  C   UNL     1      11.338  14.838  21.155  1.00  0.00     0.041 C 
ATOM      4  O   UNL     1      11.755  15.320  20.069  1.00  0.00    -0.550 OA
ATOM      5  O   UNL     1      11.306  13.460  21.328  1.00  0.00    -0.550 OA
ENDBRANCH   2   3
ENDBRANCH   1   2
BRANCH   1   6
ATOM      6  C   UNL     1      11.971  17.550  23.698  1.00  0.00     0.000 C 
BRANCH   6   7
ATOM      7  C   UNL     1      11.409  16.570  24.733  1.00  0.00    -0.003 C 
ATOM      8  C   UNL     1      12.228  16.597  26.020  1.00  0.00     0.004 C 
ENDBRANCH   6   7
ENDBRANCH   1   6
TORSDOF 4
ENDMDL
MODEL 5
REMARK VINA RESULT:    -2.806     14.816     15.750
REMARK INTER + INTRA:          -3.557
REMARK INTER:                  -3.436
REMARK INTRA:                  -0.121
REMARK UNBOUND:                -0.095
REMARK SMILES CCCCCC(=O)[O-]
REMARK SMILES IDX 4 1 5 2 6 3 7 4 8 5 3 6 2 7 1 8
REMARK H PARENT
REMARK Flexibility Score: inf
ROOT
ATOM      1  C   UNL     1      11.251  16.509  23.220  1.00  0.00     0.006 C 
ENDROOT
BRANCH   1   2
ATOM      2  C   UNL     1      11.198  17.385  24.475  1.00  0.00     0.053 C 
BRANCH   2   3
ATOM      3  C   UNL     1      12.438  17.206  25.292  1.00  0.00     0.041 C 
ATOM      4  O   UNL     1      12.536  16.238  26.092  1.00  0.00    -0.550 OA
ATOM      5  O   UNL     1      13.507  18.079  25.136  1.00  0.00    -0.550 OA
ENDBRANCH   2   3
ENDBRANCH   1   2
BRANCH   1   6
ATOM      6  C   UNL     1      11.861  17.274  22.040  1.00  0.00     0.000 C 
BRANCH   6   7
ATOM      7  C   UNL     1      11.948  16.385  20.794  1.00  0.00    -0.003 C 
ATOM      8  C   UNL     1      11.314  15.020  21.046  1.00  0.00     0.004 C 
ENDBRANCH   6   7
ENDBRANCH   1   6
TORSDOF 4
ENDMDL
MODEL 6
REMARK VINA RESULT:    -2.723      1.143      1.866
REMARK INTER + INTRA:          -3.455
REMARK INTER:                  -3.369
REMARK INTRA:                  -0.086
REMARK UNBOUND:                -0.095
REMARK SMILES CCCCCC(=O)[O-]
REMARK SMILES IDX 4 1 5 2 6 3 7 4 8 5 3 6 2 7 1 8
REMARK H PARENT
REMARK Flexibility Score: inf
ROOT
ATOM      1  C   UNL     1      17.765   1.428  25.401  1.00  0.00     0.006 C 
ENDROOT
BRANCH   1   2
ATOM      2  C   UNL     1      18.902   1.612  26.409  1.00  0.00     0.053 C 
BRANCH   2   3
ATOM      3  C   UNL     1      20.226   1.381  25.753  1.00  0.00     0.041 C 
ATOM      4  O   UNL     1      20.633   0.208  25.540  1.00  0.00    -0.550 OA
ATOM      5  O   UNL     1      20.991   2.461  25.331  1.00  0.00    -0.550 OA
ENDBRANCH   2   3
ENDBRANCH   1   2
BRANCH   1   6
ATOM      6  C   UNL     1      17.149   2.779  25.014  1.00  0.00     0.000 C 
BRANCH   6   7
ATOM      7  C   UNL     1      15.917   3.087  25.873  1.00  0.00    -0.003 C 
ATOM      8  C   UNL     1      14.628   2.779  25.117  1.00  0.00     0.004 C 
ENDBRANCH   6   7
ENDBRANCH   1   6
TORSDOF 4
ENDMDL
MODEL 7
REMARK VINA RESULT:    -2.721      2.666      4.517
REMARK INTER + INTRA:          -3.453
REMARK INTER:                  -3.335
REMARK INTRA:                  -0.117
REMARK UNBOUND:                -0.095
REMARK SMILES CCCCCC(=O)[O-]
REMARK SMILES IDX 4 1 5 2 6 3 7 4 8 5 3 6 2 7 1 8
REMARK H PARENT
REMARK Flexibility Score: inf
ROOT
ATOM      1  C   UNL     1      19.148   1.273  27.273  1.00  0.00     0.006 C 
ENDROOT
BRANCH   1   2
ATOM      2  C   UNL     1      18.714   2.455  26.402  1.00  0.00     0.053 C 
BRANCH   2   3
ATOM      3  C   UNL     1      17.651   2.034  25.438  1.00  0.00     0.041 C 
ATOM      4  O   UNL     1      17.678   0.884  24.926  1.00  0.00    -0.550 OA
ATOM      5  O   UNL     1      16.600   2.893  25.142  1.00  0.00    -0.550 OA
ENDBRANCH   2   3
ENDBRANCH   1   2
BRANCH   1   6
ATOM      6  C   UNL     1      19.487   1.733  28.696  1.00  0.00     0.000 C 
BRANCH   6   7
ATOM      7  C   UNL     1      18.805   3.066  29.020  1.00  0.00    -0.003 C 
ATOM      8  C   UNL     1      19.027   3.458  30.478  1.00  0.00     0.004 C 
ENDBRANCH   6   7
ENDBRANCH   1   6
TORSDOF 4
ENDMDL
MODEL 8
REMARK VINA RESULT:    -2.716      2.973      4.610
REMARK INTER + INTRA:          -3.446
REMARK INTER:                  -3.356
REMARK INTRA:                  -0.090
REMARK UNBOUND:                -0.095
REMARK SMILES CCCCCC(=O)[O-]
REMARK SMILES IDX 4 1 5 2 6 3 7 4 8 5 3 6 2 7 1 8
REMARK H PARENT
REMARK Flexibility Score: inf
ROOT
ATOM      1  C   UNL     1      17.168   2.158  25.143  1.00  0.00     0.006 C 
ENDROOT
BRANCH   1   2
ATOM      2  C   UNL     1      16.082   3.081  25.704  1.00  0.00     0.053 C 
BRANCH   2   3
ATOM      3  C   UNL     1      14.757   2.767  25.085  1.00  0.00     0.041 C 
ATOM      4  O   UNL     1      14.472   3.203  23.939  1.00  0.00    -0.550 OA
ATOM      5  O   UNL     1      13.854   1.950  25.753  1.00  0.00    -0.550 OA
ENDBRANCH   2   3
ENDBRANCH   1   2
BRANCH   1   6
ATOM      6  C   UNL     1      18.537   2.487  25.751  1.00  0.00     0.000 C 
BRANCH   6   7
ATOM      7  C   UNL     1      18.995   1.380  26.707  1.00  0.00    -0.003 C 
ATOM      8  C   UNL     1      19.149   1.910  28.130  1.00  0.00     0.004 C 
ENDBRANCH   6   7
ENDBRANCH   1   6
TORSDOF 4
ENDMDL
