MODEL 1
REMARK VINA RESULT:    -3.087      0.000      0.000
REMARK INTER + INTRA:          -5.171
REMARK INTER:                  -4.621
REMARK INTRA:                  -0.550
REMARK UNBOUND:                -0.550
REMARK SMILES O=c1c(O[C@H]2O[C@H](CO)[C@H](O)[C@H](O)[C@@H]2O)c(-c2cc(O)c(O)c(O)c2)oc2cc(O)cc(O)c12
REMARK SMILES IDX 4 1 3 2 16 3 26 4 2 5 27 6 1 7 34 8 28 9 32 10 29 11 31 12
REMARK SMILES IDX 17 13 18 14 19 15 25 16 21 17 23 18 20 19 22 21 24 23 33 25
REMARK SMILES IDX 30 27 5 29 14 30 6 31 12 32 7 33 10 34 15 35 13 37 8 39 9 40
REMARK SMILES IDX 11 42
REMARK H PARENT 20 20 22 22 24 24 33 26 30 28 15 36 13 38 9 41 11 43
REMARK Flexibility Score: inf
ROOT
ATOM      1  O   UNL     1      46.325  35.443  98.752  1.00  0.00    -0.454 OA
ENDROOT
BRANCH   1   2
ATOM      2  C   UNL     1      46.528  36.302  99.838  1.00  0.00     0.214 A 
ATOM      3  C   UNL     1      46.761  35.807 101.136  1.00  0.00     0.181 A 
ATOM      4  O   UNL     1      46.998  36.656 102.128  1.00  0.00    -0.452 OA
ATOM      5  C   UNL     1      46.493  37.685  99.632  1.00  0.00     0.239 A 
ATOM      6  C   UNL     1      47.011  37.975 101.975  1.00  0.00     0.146 A 
ATOM      7  O   UNL     1      46.189  38.110  98.488  1.00  0.00    -0.285 OA
ATOM      8  C   UNL     1      46.779  38.565 100.703  1.00  0.00     0.111 A 
ATOM      9  C   UNL     1      47.243  38.774 103.097  1.00  0.00     0.094 A 
ATOM     10  C   UNL     1      46.830  39.988 100.594  1.00  0.00     0.134 A 
ATOM     11  C   UNL     1      47.238  40.163 102.989  1.00  0.00     0.123 A 
ATOM     12  C   UNL     1      47.028  40.762 101.745  1.00  0.00     0.093 A 
BRANCH   3  13
ATOM     13  C   UNL     1      46.738  34.359 101.447  1.00  0.00     0.029 A 
ATOM     14  C   UNL     1      46.008  33.455 100.656  1.00  0.00     0.062 A 
ATOM     15  C   UNL     1      46.007  32.086 100.956  1.00  0.00     0.162 A 
ATOM     16  C   UNL     1      47.428  33.882 102.571  1.00  0.00     0.062 A 
ATOM     17  C   UNL     1      46.720  31.614 102.071  1.00  0.00     0.200 A 
ATOM     18  C   UNL     1      47.425  32.515 102.880  1.00  0.00     0.162 A 
BRANCH  15  19
ATOM     19  O   UNL     1      45.299  31.194 100.151  1.00  0.00    -0.504 OA
ATOM     20  H   UNL     1      45.680  30.851  99.277  1.00  0.00     0.293 HD
ENDBRANCH  15  19
BRANCH  17  21
ATOM     21  O   UNL     1      46.736  30.256 102.390  1.00  0.00    -0.502 OA
ATOM     22  H   UNL     1      46.741  29.928 103.348  1.00  0.00     0.293 HD
ENDBRANCH  17  21
BRANCH  18  23
ATOM     23  O   UNL     1      48.124  32.042 103.990  1.00  0.00    -0.504 OA
ATOM     24  H   UNL     1      47.644  31.749 104.833  1.00  0.00     0.293 HD
ENDBRANCH  18  23
ENDBRANCH   3  13
BRANCH  10  25
ATOM     25  O   UNL     1      46.718  40.686  99.388  1.00  0.00    -0.507 OA
ATOM     26  H   UNL     1      47.137  40.405  98.515  1.00  0.00     0.293 HD
ENDBRANCH  10  25
BRANCH  11  27
ATOM     27  O   UNL     1      47.451  40.940 104.125  1.00  0.00    -0.508 OA
ATOM     28  H   UNL     1      46.899  40.814 104.966  1.00  0.00     0.293 HD
ENDBRANCH  11  27
ENDBRANCH   1   2
BRANCH   1  29
ATOM     29  C   UNL     1      47.266  35.317  97.680  1.00  0.00     0.339 C 
ATOM     30  C   UNL     1      46.590  35.611  96.322  1.00  0.00     0.214 C 
ATOM     31  O   UNL     1      47.878  34.036  97.697  1.00  0.00    -0.332 OA
ATOM     32  C   UNL     1      45.608  34.484  95.950  1.00  0.00     0.180 C 
ATOM     33  C   UNL     1      46.920  33.002  97.531  1.00  0.00     0.179 C 
ATOM     34  C   UNL     1      46.241  33.086  96.140  1.00  0.00     0.177 C 
BRANCH  30  35
ATOM     35  O   UNL     1      47.562  35.756  95.320  1.00  0.00    -0.384 OA
ATOM     36  H   UNL     1      47.427  35.013  94.676  1.00  0.00     0.211 HD
ENDBRANCH  30  35
BRANCH  32  37
ATOM     37  O   UNL     1      45.166  34.652  94.628  1.00  0.00    -0.387 OA
ATOM     38  H   UNL     1      45.957  34.515  94.042  1.00  0.00     0.211 HD
ENDBRANCH  32  37
BRANCH  33  39
ATOM     39  C   UNL     1      47.593  31.642  97.767  1.00  0.00     0.191 C 
BRANCH  39  40
ATOM     40  O   UNL     1      46.636  30.621  97.848  1.00  0.00    -0.394 OA
ATOM     41  H   UNL     1      46.643  30.167  96.966  1.00  0.00     0.210 HD
ENDBRANCH  39  40
ENDBRANCH  33  39
BRANCH  34  42
ATOM     42  O   UNL     1      47.122  32.776  95.086  1.00  0.00    -0.387 OA
ATOM     43  H   UNL     1      46.794  31.956  94.638  1.00  0.00     0.211 HD
ENDBRANCH  34  42
ENDBRANCH   1  29
TORSDOF 13
ENDMDL
MODEL 2
REMARK VINA RESULT:    -2.180      1.390      5.155
REMARK INTER + INTRA:          -3.813
REMARK INTER:                  -3.932
REMARK INTRA:                   0.119
REMARK UNBOUND:                -0.550
REMARK SMILES O=c1c(O[C@H]2O[C@H](CO)[C@H](O)[C@H](O)[C@@H]2O)c(-c2cc(O)c(O)c(O)c2)oc2cc(O)cc(O)c12
REMARK SMILES IDX 4 1 3 2 16 3 26 4 2 5 27 6 1 7 34 8 28 9 32 10 29 11 31 12
REMARK SMILES IDX 17 13 18 14 19 15 25 16 21 17 23 18 20 19 22 21 24 23 33 25
REMARK SMILES IDX 30 27 5 29 14 30 6 31 12 32 7 33 10 34 15 35 13 37 8 39 9 40
REMARK SMILES IDX 11 42
REMARK H PARENT 20 20 22 22 24 24 33 26 30 28 15 36 13 38 9 41 11 43
REMARK Flexibility Score: inf
ROOT
ATOM      1  O   UNL     1      47.375  34.137 100.818  1.00  0.00    -0.454 OA
ENDROOT
BRANCH   1   2
ATOM      2  C   UNL     1      47.134  35.509 100.677  1.00  0.00     0.214 A 
ATOM      3  C   UNL     1      46.672  36.054  99.464  1.00  0.00     0.181 A 
ATOM      4  O   UNL     1      46.408  37.353  99.388  1.00  0.00    -0.452 OA
ATOM      5  C   UNL     1      47.361  36.358 101.764  1.00  0.00     0.239 A 
ATOM      6  C   UNL     1      46.573  38.194 100.403  1.00  0.00     0.146 A 
ATOM      7  O   UNL     1      47.864  35.870 102.808  1.00  0.00    -0.285 OA
ATOM      8  C   UNL     1      47.041  37.734 101.663  1.00  0.00     0.111 A 
ATOM      9  C   UNL     1      46.290  39.547 100.201  1.00  0.00     0.094 A 
ATOM     10  C   UNL     1      47.176  38.680 102.725  1.00  0.00     0.134 A 
ATOM     11  C   UNL     1      46.475  40.469 101.227  1.00  0.00     0.123 A 
ATOM     12  C   UNL     1      46.920  40.035 102.479  1.00  0.00     0.093 A 
BRANCH   3  13
ATOM     13  C   UNL     1      46.480  35.232  98.247  1.00  0.00     0.029 A 
ATOM     14  C   UNL     1      46.309  33.839  98.329  1.00  0.00     0.062 A 
ATOM     15  C   UNL     1      46.115  33.076  97.168  1.00  0.00     0.162 A 
ATOM     16  C   UNL     1      46.502  35.845  96.986  1.00  0.00     0.062 A 
ATOM     17  C   UNL     1      46.116  33.703  95.911  1.00  0.00     0.200 A 
ATOM     18  C   UNL     1      46.316  35.087  95.822  1.00  0.00     0.162 A 
BRANCH  15  19
ATOM     19  O   UNL     1      45.924  31.698  97.262  1.00  0.00    -0.504 OA
ATOM     20  H   UNL     1      46.661  31.080  97.580  1.00  0.00     0.293 HD
ENDBRANCH  15  19
BRANCH  17  21
ATOM     21  O   UNL     1      45.925  32.966  94.743  1.00  0.00    -0.502 OA
ATOM     22  H   UNL     1      46.695  32.700  94.141  1.00  0.00     0.293 HD
ENDBRANCH  17  21
BRANCH  18  23
ATOM     23  O   UNL     1      46.324  35.703  94.572  1.00  0.00    -0.504 OA
ATOM     24  H   UNL     1      46.686  36.642  94.446  1.00  0.00     0.293 HD
ENDBRANCH  18  23
ENDBRANCH   3  13
BRANCH  10  25
ATOM     25  O   UNL     1      47.531  38.342 104.034  1.00  0.00    -0.507 OA
ATOM     26  H   UNL     1      46.901  38.334 104.821  1.00  0.00     0.293 HD
ENDBRANCH  10  25
BRANCH  11  27
ATOM     27  O   UNL     1      46.207  41.816 100.997  1.00  0.00    -0.508 OA
ATOM     28  H   UNL     1      46.204  42.204 100.060  1.00  0.00     0.293 HD
ENDBRANCH  11  27
ENDBRANCH   1   2
BRANCH   1  29
ATOM     29  C   UNL     1      46.931  33.387 101.954  1.00  0.00     0.339 C 
ATOM     30  C   UNL     1      47.790  32.117 102.139  1.00  0.00     0.214 C 
ATOM     31  O   UNL     1      45.550  33.076 101.841  1.00  0.00    -0.332 OA
ATOM     32  C   UNL     1      47.505  31.100 101.018  1.00  0.00     0.180 C 
ATOM     33  C   UNL     1      45.289  32.283 100.692  1.00  0.00     0.179 C 
ATOM     34  C   UNL     1      45.988  30.904 100.795  1.00  0.00     0.177 C 
BRANCH  30  35
ATOM     35  O   UNL     1      47.534  31.539 103.394  1.00  0.00    -0.384 OA
ATOM     36  H   UNL     1      48.359  31.647 103.936  1.00  0.00     0.211 HD
ENDBRANCH  30  35
BRANCH  32  37
ATOM     37  O   UNL     1      48.125  29.875 101.316  1.00  0.00    -0.387 OA
ATOM     38  H   UNL     1      47.538  29.161 100.952  1.00  0.00     0.211 HD
ENDBRANCH  32  37
BRANCH  33  39
ATOM     39  C   UNL     1      43.772  32.153 100.498  1.00  0.00     0.191 C 
BRANCH  39  40
ATOM     40  O   UNL     1      43.215  31.315 101.474  1.00  0.00    -0.394 OA
ATOM     41  H   UNL     1      43.801  30.515 101.517  1.00  0.00     0.210 HD
ENDBRANCH  39  40
ENDBRANCH  33  39
BRANCH  34  42
ATOM     42  O   UNL     1      45.426  30.083 101.792  1.00  0.00    -0.387 OA
ATOM     43  H   UNL     1      45.355  29.163 101.434  1.00  0.00     0.211 HD
ENDBRANCH  34  42
ENDBRANCH   1  29
TORSDOF 13
ENDMDL
MODEL 3
REMARK VINA RESULT:    -0.363      1.448      6.882
REMARK INTER + INTRA:          -1.093
REMARK INTER:                  -3.399
REMARK INTRA:                   2.305
REMARK UNBOUND:                -0.550
REMARK SMILES O=c1c(O[C@H]2O[C@H](CO)[C@H](O)[C@H](O)[C@@H]2O)c(-c2cc(O)c(O)c(O)c2)oc2cc(O)cc(O)c12
REMARK SMILES IDX 4 1 3 2 16 3 26 4 2 5 27 6 1 7 34 8 28 9 32 10 29 11 31 12
REMARK SMILES IDX 17 13 18 14 19 15 25 16 21 17 23 18 20 19 22 21 24 23 33 25
REMARK SMILES IDX 30 27 5 29 14 30 6 31 12 32 7 33 10 34 15 35 13 37 8 39 9 40
REMARK SMILES IDX 11 42
REMARK H PARENT 20 20 22 22 24 24 33 26 30 28 15 36 13 38 9 41 11 43
REMARK Flexibility Score: inf
ROOT
ATOM      1  O   UNL     1      47.976  33.690 100.881  1.00  0.00    -0.454 OA
ENDROOT
BRANCH   1   2
ATOM      2  C   UNL     1      47.423  34.110  99.665  1.00  0.00     0.214 A 
ATOM      3  C   UNL     1      47.007  35.440  99.465  1.00  0.00     0.181 A 
ATOM      4  O   UNL     1      46.535  35.807  98.279  1.00  0.00    -0.452 OA
ATOM      5  C   UNL     1      47.275  33.186  98.626  1.00  0.00     0.239 A 
ATOM      6  C   UNL     1      46.409  34.975  97.252  1.00  0.00     0.146 A 
ATOM      7  O   UNL     1      47.561  31.982  98.853  1.00  0.00    -0.285 OA
ATOM      8  C   UNL     1      46.797  33.613  97.364  1.00  0.00     0.111 A 
ATOM      9  C   UNL     1      45.872  35.465  96.059  1.00  0.00     0.094 A 
ATOM     10  C   UNL     1      46.662  32.771  96.218  1.00  0.00     0.134 A 
ATOM     11  C   UNL     1      45.696  34.623  94.965  1.00  0.00     0.123 A 
ATOM     12  C   UNL     1      46.085  33.284  95.049  1.00  0.00     0.093 A 
BRANCH   3  13
ATOM     13  C   UNL     1      47.061  36.457 100.539  1.00  0.00     0.029 A 
ATOM     14  C   UNL     1      47.518  36.133 101.828  1.00  0.00     0.062 A 
ATOM     15  C   UNL     1      47.576  37.111 102.831  1.00  0.00     0.162 A 
ATOM     16  C   UNL     1      46.618  37.763 100.280  1.00  0.00     0.062 A 
ATOM     17  C   UNL     1      47.150  38.421 102.555  1.00  0.00     0.200 A 
ATOM     18  C   UNL     1      46.667  38.743 101.280  1.00  0.00     0.162 A 
BRANCH  15  19
ATOM     19  O   UNL     1      48.053  36.783 104.100  1.00  0.00    -0.504 OA
ATOM     20  H   UNL     1      48.704  36.019 104.241  1.00  0.00     0.293 HD
ENDBRANCH  15  19
BRANCH  17  21
ATOM     21  O   UNL     1      47.199  39.412 103.536  1.00  0.00    -0.502 OA
ATOM     22  H   UNL     1      48.045  39.614 104.056  1.00  0.00     0.293 HD
ENDBRANCH  17  21
BRANCH  18  23
ATOM     23  O   UNL     1      46.238  40.043 101.015  1.00  0.00    -0.504 OA
ATOM     24  H   UNL     1      45.254  40.287 101.016  1.00  0.00     0.293 HD
ENDBRANCH  18  23
ENDBRANCH   3  13
BRANCH  10  25
ATOM     25  O   UNL     1      47.096  31.443  96.167  1.00  0.00    -0.507 OA
ATOM     26  H   UNL     1      47.821  31.094  95.560  1.00  0.00     0.293 HD
ENDBRANCH  10  25
BRANCH  11  27
ATOM     27  O   UNL     1      45.139  35.128  93.792  1.00  0.00    -0.508 OA
ATOM     28  H   UNL     1      45.225  36.107  93.543  1.00  0.00     0.293 HD
ENDBRANCH  11  27
ENDBRANCH   1   2
BRANCH   1  29
ATOM     29  C   UNL     1      47.177  33.397 102.032  1.00  0.00     0.339 C 
ATOM     30  C   UNL     1      47.823  32.273 102.873  1.00  0.00     0.214 C 
ATOM     31  O   UNL     1      45.848  33.073 101.652  1.00  0.00    -0.332 OA
ATOM     32  C   UNL     1      47.734  30.925 102.135  1.00  0.00     0.180 C 
ATOM     33  C   UNL     1      45.812  31.924 100.820  1.00  0.00     0.179 C 
ATOM     34  C   UNL     1      46.314  30.668 101.579  1.00  0.00     0.177 C 
BRANCH  30  35
ATOM     35  O   UNL     1      47.193  32.184 104.125  1.00  0.00    -0.384 OA
ATOM     36  H   UNL     1      47.240  31.233 104.405  1.00  0.00     0.211 HD
ENDBRANCH  30  35
BRANCH  32  37
ATOM     37  O   UNL     1      48.125  29.884 102.994  1.00  0.00    -0.387 OA
ATOM     38  H   UNL     1      48.206  29.067 102.435  1.00  0.00     0.211 HD
ENDBRANCH  32  37
BRANCH  33  39
ATOM     39  C   UNL     1      44.392  31.739 100.268  1.00  0.00     0.191 C 
BRANCH  39  40
ATOM     40  O   UNL     1      43.510  31.347 101.284  1.00  0.00    -0.394 OA
ATOM     41  H   UNL     1      42.776  30.851 100.835  1.00  0.00     0.210 HD
ENDBRANCH  39  40
ENDBRANCH  33  39
BRANCH  34  42
ATOM     42  O   UNL     1      45.431  30.261 102.598  1.00  0.00    -0.387 OA
ATOM     43  H   UNL     1      44.610  30.811 102.535  1.00  0.00     0.211 HD
ENDBRANCH  34  42
ENDBRANCH   1  29
TORSDOF 13
ENDMDL
MODEL 4
REMARK VINA RESULT:    -0.168      6.517     12.750
REMARK INTER + INTRA:          -0.802
REMARK INTER:                  -3.633
REMARK INTRA:                   2.831
REMARK UNBOUND:                -0.550
REMARK SMILES O=c1c(O[C@H]2O[C@H](CO)[C@H](O)[C@H](O)[C@@H]2O)c(-c2cc(O)c(O)c(O)c2)oc2cc(O)cc(O)c12
REMARK SMILES IDX 4 1 3 2 16 3 26 4 2 5 27 6 1 7 34 8 28 9 32 10 29 11 31 12
REMARK SMILES IDX 17 13 18 14 19 15 25 16 21 17 23 18 20 19 22 21 24 23 33 25
REMARK SMILES IDX 30 27 5 29 14 30 6 31 12 32 7 33 10 34 15 35 13 37 8 39 9 40
REMARK SMILES IDX 11 42
REMARK H PARENT 20 20 22 22 24 24 33 26 30 28 15 36 13 38 9 41 11 43
REMARK Flexibility Score: inf
ROOT
ATOM      1  O   UNL     1      45.114  46.336 103.709  1.00  0.00    -0.454 OA
ENDROOT
BRANCH   1   2
ATOM      2  C   UNL     1      45.102  45.190 102.905  1.00  0.00     0.214 A 
ATOM      3  C   UNL     1      44.160  45.025 101.871  1.00  0.00     0.181 A 
ATOM      4  O   UNL     1      44.216  43.946 101.100  1.00  0.00    -0.452 OA
ATOM      5  C   UNL     1      46.042  44.181 103.137  1.00  0.00     0.239 A 
ATOM      6  C   UNL     1      45.112  42.979 101.259  1.00  0.00     0.146 A 
ATOM      7  O   UNL     1      46.813  44.300 104.124  1.00  0.00    -0.285 OA
ATOM      8  C   UNL     1      46.097  43.056 102.280  1.00  0.00     0.111 A 
ATOM      9  C   UNL     1      45.058  41.873 100.406  1.00  0.00     0.094 A 
ATOM     10  C   UNL     1      47.050  41.998 102.387  1.00  0.00     0.134 A 
ATOM     11  C   UNL     1      45.960  40.823 100.553  1.00  0.00     0.123 A 
ATOM     12  C   UNL     1      46.945  40.887 101.541  1.00  0.00     0.093 A 
BRANCH   3  13
ATOM     13  C   UNL     1      43.087  46.012 101.613  1.00  0.00     0.029 A 
ATOM     14  C   UNL     1      41.735  45.628 101.581  1.00  0.00     0.062 A 
ATOM     15  C   UNL     1      40.730  46.577 101.349  1.00  0.00     0.162 A 
ATOM     16  C   UNL     1      43.423  47.351 101.363  1.00  0.00     0.062 A 
ATOM     17  C   UNL     1      41.075  47.920 101.121  1.00  0.00     0.200 A 
ATOM     18  C   UNL     1      42.423  48.303 101.123  1.00  0.00     0.162 A 
BRANCH  15  19
ATOM     19  O   UNL     1      39.391  46.189 101.342  1.00  0.00    -0.504 OA
ATOM     20  H   UNL     1      38.651  46.837 101.096  1.00  0.00     0.293 HD
ENDBRANCH  15  19
BRANCH  17  21
ATOM     21  O   UNL     1      40.093  48.882 100.889  1.00  0.00    -0.502 OA
ATOM     22  H   UNL     1      39.167  48.816 101.295  1.00  0.00     0.293 HD
ENDBRANCH  17  21
BRANCH  18  23
ATOM     23  O   UNL     1      42.760  49.635 100.888  1.00  0.00    -0.504 OA
ATOM     24  H   UNL     1      42.492  50.371 101.532  1.00  0.00     0.293 HD
ENDBRANCH  18  23
ENDBRANCH   3  13
BRANCH  10  25
ATOM     25  O   UNL     1      48.125  42.000 103.281  1.00  0.00    -0.507 OA
ATOM     26  H   UNL     1      48.850  41.301 103.317  1.00  0.00     0.293 HD
ENDBRANCH  10  25
BRANCH  11  27
ATOM     27  O   UNL     1      45.875  39.721  99.705  1.00  0.00    -0.508 OA
ATOM     28  H   UNL     1      46.678  39.132  99.517  1.00  0.00     0.293 HD
ENDBRANCH  11  27
ENDBRANCH   1   2
BRANCH   1  29
ATOM     29  C   UNL     1      46.268  47.172 103.845  1.00  0.00     0.339 C 
ATOM     30  C   UNL     1      45.930  48.633 103.477  1.00  0.00     0.214 C 
ATOM     31  O   UNL     1      47.346  46.670 103.069  1.00  0.00    -0.332 OA
ATOM     32  C   UNL     1      45.679  48.767 101.963  1.00  0.00     0.180 C 
ATOM     33  C   UNL     1      47.020  46.636 101.688  1.00  0.00     0.179 C 
ATOM     34  C   UNL     1      46.779  48.064 101.136  1.00  0.00     0.177 C 
BRANCH  30  35
ATOM     35  O   UNL     1      46.975  49.485 103.872  1.00  0.00    -0.384 OA
ATOM     36  H   UNL     1      47.430  49.789 103.044  1.00  0.00     0.211 HD
ENDBRANCH  30  35
BRANCH  32  37
ATOM     37  O   UNL     1      45.588  50.125 101.613  1.00  0.00    -0.387 OA
ATOM     38  H   UNL     1      44.621  50.353 101.602  1.00  0.00     0.211 HD
ENDBRANCH  32  37
BRANCH  33  39
ATOM     39  C   UNL     1      48.125  45.895 100.921  1.00  0.00     0.191 C 
BRANCH  39  40
ATOM     40  O   UNL     1      47.588  44.842 100.169  1.00  0.00    -0.394 OA
ATOM     41  H   UNL     1      46.652  44.729 100.481  1.00  0.00     0.210 HD
ENDBRANCH  39  40
ENDBRANCH  33  39
BRANCH  34  42
ATOM     42  O   UNL     1      47.957  48.834 101.090  1.00  0.00    -0.387 OA
ATOM     43  H   UNL     1      47.789  49.689 101.561  1.00  0.00     0.211 HD
ENDBRANCH  34  42
ENDBRANCH   1  29
TORSDOF 13
ENDMDL
