MODEL 1
REMARK VINA RESULT:    -4.822      0.000      0.000
REMARK INTER + INTRA:          -4.963
REMARK INTER:                  -4.963
REMARK INTRA:                   0.000
REMARK UNBOUND:                 0.000
REMARK SMILES Oc1ccc2[nH]ccc2c1
REMARK SMILES IDX 3 1 4 2 5 3 9 4 8 5 7 6 6 7 10 8 2 9 1 11
REMARK H PARENT 6 10 1 12
REMARK Flexibility Score: inf
ROOT
ATOM      1  C   UNL     1     129.464 126.524 120.622  1.00  0.00     0.048 A 
ATOM      2  C   UNL     1     130.854 126.398 120.438  1.00  0.00     0.030 A 
ATOM      3  C   UNL     1     131.681 127.301 121.103  1.00  0.00     0.046 A 
ATOM      4  C   UNL     1     131.173 128.284 121.910  1.00  0.00     0.003 A 
ATOM      5  C   UNL     1     132.240 128.997 122.411  1.00  0.00     0.028 A 
ATOM      6  C   UNL     1     133.369 128.395 121.865  1.00  0.00     0.083 A 
ATOM      7  N   UNL     1     133.023 127.359 121.067  1.00  0.00    -0.361 N 
ATOM      8  C   UNL     1     129.804 128.435 122.113  1.00  0.00     0.056 A 
ATOM      9  C   UNL     1     128.936 127.537 121.455  1.00  0.00     0.116 A 
ATOM     10  H   UNL     1     133.668 126.735 120.535  1.00  0.00     0.166 HD
ENDROOT
BRANCH   9  11
ATOM     11  O   UNL     1     127.558 127.639 121.620  1.00  0.00    -0.508 OA
ATOM     12  H   UNL     1     127.150 128.292 122.278  1.00  0.00     0.293 HD
ENDBRANCH   9  11
TORSDOF 1
ENDMDL
MODEL 2
REMARK VINA RESULT:    -4.770      2.592      4.092
REMARK INTER + INTRA:          -4.909
REMARK INTER:                  -4.909
REMARK INTRA:                   0.000
REMARK UNBOUND:                 0.000
REMARK SMILES Oc1ccc2[nH]ccc2c1
REMARK SMILES IDX 3 1 4 2 5 3 9 4 8 5 7 6 6 7 10 8 2 9 1 11
REMARK H PARENT 6 10 1 12
REMARK Flexibility Score: inf
ROOT
ATOM      1  C   UNL     1     131.901 128.180 122.303  1.00  0.00     0.048 A 
ATOM      2  C   UNL     1     130.563 128.297 122.725  1.00  0.00     0.030 A 
ATOM      3  C   UNL     1     129.584 127.660 121.966  1.00  0.00     0.046 A 
ATOM      4  C   UNL     1     129.897 126.941 120.844  1.00  0.00     0.003 A 
ATOM      5  C   UNL     1     128.719 126.444 120.330  1.00  0.00     0.028 A 
ATOM      6  C   UNL     1     127.726 126.902 121.191  1.00  0.00     0.083 A 
ATOM      7  N   UNL     1     128.259 127.644 122.188  1.00  0.00    -0.361 N 
ATOM      8  C   UNL     1     131.210 126.805 120.399  1.00  0.00     0.056 A 
ATOM      9  C   UNL     1     132.228 127.438 121.145  1.00  0.00     0.116 A 
ATOM     10  H   UNL     1     127.743 128.107 122.969  1.00  0.00     0.166 HD
ENDROOT
BRANCH   9  11
ATOM     11  O   UNL     1     133.558 127.337 120.749  1.00  0.00    -0.508 OA
ATOM     12  H   UNL     1     133.992 126.439 120.572  1.00  0.00     0.293 HD
ENDBRANCH   9  11
TORSDOF 1
ENDMDL
MODEL 3
REMARK VINA RESULT:    -4.706      3.290      4.191
REMARK INTER + INTRA:          -4.843
REMARK INTER:                  -4.843
REMARK INTRA:                   0.000
REMARK UNBOUND:                 0.000
REMARK SMILES Oc1ccc2[nH]ccc2c1
REMARK SMILES IDX 3 1 4 2 5 3 9 4 8 5 7 6 6 7 10 8 2 9 1 11
REMARK H PARENT 6 10 1 12
REMARK Flexibility Score: inf
ROOT
ATOM      1  C   UNL     1     131.449 124.839 123.435  1.00  0.00     0.048 A 
ATOM      2  C   UNL     1     130.403 125.689 123.845  1.00  0.00     0.030 A 
ATOM      3  C   UNL     1     129.696 126.372 122.858  1.00  0.00     0.046 A 
ATOM      4  C   UNL     1     129.998 126.232 121.529  1.00  0.00     0.003 A 
ATOM      5  C   UNL     1     129.125 127.031 120.823  1.00  0.00     0.028 A 
ATOM      6  C   UNL     1     128.320 127.631 121.786  1.00  0.00     0.083 A 
ATOM      7  N   UNL     1     128.673 127.225 123.027  1.00  0.00    -0.361 N 
ATOM      8  C   UNL     1     131.024 125.401 121.090  1.00  0.00     0.056 A 
ATOM      9  C   UNL     1     131.761 124.692 122.064  1.00  0.00     0.116 A 
ATOM     10  H   UNL     1     128.236 127.517 123.930  1.00  0.00     0.166 HD
ENDROOT
BRANCH   9  11
ATOM     11  O   UNL     1     132.799 123.846 121.685  1.00  0.00    -0.508 OA
ATOM     12  H   UNL     1     133.721 123.919 122.100  1.00  0.00     0.293 HD
ENDBRANCH   9  11
TORSDOF 1
ENDMDL
MODEL 4
REMARK VINA RESULT:    -4.688      2.639      3.732
REMARK INTER + INTRA:          -4.825
REMARK INTER:                  -4.825
REMARK INTRA:                   0.000
REMARK UNBOUND:                 0.000
REMARK SMILES Oc1ccc2[nH]ccc2c1
REMARK SMILES IDX 3 1 4 2 5 3 9 4 8 5 7 6 6 7 10 8 2 9 1 11
REMARK H PARENT 6 10 1 12
REMARK Flexibility Score: inf
ROOT
ATOM      1  C   UNL     1     131.114 126.888 120.510  1.00  0.00     0.048 A 
ATOM      2  C   UNL     1     129.724 126.803 120.303  1.00  0.00     0.030 A 
ATOM      3  C   UNL     1     128.888 127.341 121.280  1.00  0.00     0.046 A 
ATOM      4  C   UNL     1     129.388 127.934 122.408  1.00  0.00     0.003 A 
ATOM      5  C   UNL     1     128.314 128.357 123.161  1.00  0.00     0.028 A 
ATOM      6  C   UNL     1     127.190 127.986 122.431  1.00  0.00     0.083 A 
ATOM      7  N   UNL     1     127.545 127.366 121.282  1.00  0.00    -0.361 N 
ATOM      8  C   UNL     1     130.757 128.035 122.643  1.00  0.00     0.056 A 
ATOM      9  C   UNL     1     131.633 127.501 121.674  1.00  0.00     0.116 A 
ATOM     10  H   UNL     1     126.905 126.986 120.551  1.00  0.00     0.166 HD
ENDROOT
BRANCH   9  11
ATOM     11  O   UNL     1     133.012 127.572 121.853  1.00  0.00    -0.508 OA
ATOM     12  H   UNL     1     133.544 126.779 122.191  1.00  0.00     0.293 HD
ENDBRANCH   9  11
TORSDOF 1
ENDMDL
MODEL 5
REMARK VINA RESULT:    -4.655      1.322      2.021
REMARK INTER + INTRA:          -4.791
REMARK INTER:                  -4.791
REMARK INTRA:                   0.000
REMARK UNBOUND:                 0.000
REMARK SMILES Oc1ccc2[nH]ccc2c1
REMARK SMILES IDX 3 1 4 2 5 3 9 4 8 5 7 6 6 7 10 8 2 9 1 11
REMARK H PARENT 6 10 1 12
REMARK Flexibility Score: inf
ROOT
ATOM      1  C   UNL     1     128.475 127.287 121.823  1.00  0.00     0.048 A 
ATOM      2  C   UNL     1     129.374 127.871 122.736  1.00  0.00     0.030 A 
ATOM      3  C   UNL     1     130.710 127.976 122.356  1.00  0.00     0.046 A 
ATOM      4  C   UNL     1     131.149 127.530 121.138  1.00  0.00     0.003 A 
ATOM      5  C   UNL     1     132.503 127.778 121.073  1.00  0.00     0.028 A 
ATOM      6  C   UNL     1     132.822 128.376 122.288  1.00  0.00     0.083 A 
ATOM      7  N   UNL     1     131.724 128.495 123.068  1.00  0.00    -0.361 N 
ATOM      8  C   UNL     1     130.288 126.948 120.212  1.00  0.00     0.056 A 
ATOM      9  C   UNL     1     128.926 126.826 120.565  1.00  0.00     0.116 A 
ATOM     10  H   UNL     1     131.678 128.906 124.027  1.00  0.00     0.166 HD
ENDROOT
BRANCH   9  11
ATOM     11  O   UNL     1     128.017 126.253 119.680  1.00  0.00    -0.508 OA
ATOM     12  H   UNL     1     128.309 125.577 118.984  1.00  0.00     0.293 HD
ENDBRANCH   9  11
TORSDOF 1
ENDMDL
MODEL 6
REMARK VINA RESULT:    -4.390      2.551      2.790
REMARK INTER + INTRA:          -4.518
REMARK INTER:                  -4.518
REMARK INTRA:                   0.000
REMARK UNBOUND:                 0.000
REMARK SMILES Oc1ccc2[nH]ccc2c1
REMARK SMILES IDX 3 1 4 2 5 3 9 4 8 5 7 6 6 7 10 8 2 9 1 11
REMARK H PARENT 6 10 1 12
REMARK Flexibility Score: inf
ROOT
ATOM      1  C   UNL     1     131.509 124.517 122.170  1.00  0.00     0.048 A 
ATOM      2  C   UNL     1     131.826 125.325 121.061  1.00  0.00     0.030 A 
ATOM      3  C   UNL     1     132.076 126.676 121.292  1.00  0.00     0.046 A 
ATOM      4  C   UNL     1     132.017 127.215 122.549  1.00  0.00     0.003 A 
ATOM      5  C   UNL     1     132.312 128.556 122.437  1.00  0.00     0.028 A 
ATOM      6  C   UNL     1     132.537 128.766 121.080  1.00  0.00     0.083 A 
ATOM      7  N   UNL     1     132.392 127.615 120.385  1.00  0.00    -0.361 N 
ATOM      8  C   UNL     1     131.707 126.444 123.667  1.00  0.00     0.056 A 
ATOM      9  C   UNL     1     131.449 125.070 123.469  1.00  0.00     0.116 A 
ATOM     10  H   UNL     1     132.504 127.486 119.354  1.00  0.00     0.166 HD
ENDROOT
BRANCH   9  11
ATOM     11  O   UNL     1     131.133 124.250 124.549  1.00  0.00    -0.508 OA
ATOM     12  H   UNL     1     131.722 123.468 124.809  1.00  0.00     0.293 HD
ENDBRANCH   9  11
TORSDOF 1
ENDMDL
MODEL 7
REMARK VINA RESULT:    -4.380      2.679      3.440
REMARK INTER + INTRA:          -4.508
REMARK INTER:                  -4.508
REMARK INTRA:                   0.000
REMARK UNBOUND:                 0.000
REMARK SMILES Oc1ccc2[nH]ccc2c1
REMARK SMILES IDX 3 1 4 2 5 3 9 4 8 5 7 6 6 7 10 8 2 9 1 11
REMARK H PARENT 6 10 1 12
REMARK Flexibility Score: inf
ROOT
ATOM      1  C   UNL     1     132.599 129.134 121.665  1.00  0.00     0.048 A 
ATOM      2  C   UNL     1     132.588 128.009 120.818  1.00  0.00     0.030 A 
ATOM      3  C   UNL     1     132.234 126.781 121.372  1.00  0.00     0.046 A 
ATOM      4  C   UNL     1     131.905 126.656 122.695  1.00  0.00     0.003 A 
ATOM      5  C   UNL     1     131.608 125.330 122.923  1.00  0.00     0.028 A 
ATOM      6  C   UNL     1     131.779 124.704 121.692  1.00  0.00     0.083 A 
ATOM      7  N   UNL     1     132.161 125.594 120.748  1.00  0.00    -0.361 N 
ATOM      8  C   UNL     1     131.905 127.747 123.560  1.00  0.00     0.056 A 
ATOM      9  C   UNL     1     132.259 129.008 123.032  1.00  0.00     0.116 A 
ATOM     10  H   UNL     1     132.357 125.395 119.742  1.00  0.00     0.166 HD
ENDROOT
BRANCH   9  11
ATOM     11  O   UNL     1     132.276 130.135 123.848  1.00  0.00    -0.508 OA
ATOM     12  H   UNL     1     131.798 130.988 123.584  1.00  0.00     0.293 HD
ENDBRANCH   9  11
TORSDOF 1
ENDMDL
MODEL 8
REMARK VINA RESULT:    -4.375      2.397      3.026
REMARK INTER + INTRA:          -4.502
REMARK INTER:                  -4.502
REMARK INTRA:                   0.000
REMARK UNBOUND:                 0.000
REMARK SMILES Oc1ccc2[nH]ccc2c1
REMARK SMILES IDX 3 1 4 2 5 3 9 4 8 5 7 6 6 7 10 8 2 9 1 11
REMARK H PARENT 6 10 1 12
REMARK Flexibility Score: inf
ROOT
ATOM      1  C   UNL     1     129.112 127.078 123.414  1.00  0.00     0.048 A 
ATOM      2  C   UNL     1     130.119 126.198 123.853  1.00  0.00     0.030 A 
ATOM      3  C   UNL     1     130.851 125.513 122.885  1.00  0.00     0.046 A 
ATOM      4  C   UNL     1     130.608 125.680 121.547  1.00  0.00     0.003 A 
ATOM      5  C   UNL     1     131.491 124.871 120.865  1.00  0.00     0.028 A 
ATOM      6  C   UNL     1     132.241 124.238 121.851  1.00  0.00     0.083 A 
ATOM      7  N   UNL     1     131.846 124.634 123.083  1.00  0.00    -0.361 N 
ATOM      8  C   UNL     1     129.620 126.542 121.080  1.00  0.00     0.056 A 
ATOM      9  C   UNL     1     128.860 127.253 122.034  1.00  0.00     0.116 A 
ATOM     10  H   UNL     1     132.238 124.318 123.998  1.00  0.00     0.166 HD
ENDROOT
BRANCH   9  11
ATOM     11  O   UNL     1     127.858 128.130 121.626  1.00  0.00    -0.508 OA
ATOM     12  H   UNL     1     128.063 129.093 121.387  1.00  0.00     0.293 HD
ENDBRANCH   9  11
TORSDOF 1
ENDMDL
MODEL 9
REMARK VINA RESULT:    -4.361      3.207      3.974
REMARK INTER + INTRA:          -4.488
REMARK INTER:                  -4.488
REMARK INTRA:                   0.000
REMARK UNBOUND:                 0.000
REMARK SMILES Oc1ccc2[nH]ccc2c1
REMARK SMILES IDX 3 1 4 2 5 3 9 4 8 5 7 6 6 7 10 8 2 9 1 11
REMARK H PARENT 6 10 1 12
REMARK Flexibility Score: inf
ROOT
ATOM      1  C   UNL     1     131.136 125.585 120.880  1.00  0.00     0.048 A 
ATOM      2  C   UNL     1     130.060 126.491 120.939  1.00  0.00     0.030 A 
ATOM      3  C   UNL     1     129.488 126.740 122.185  1.00  0.00     0.046 A 
ATOM      4  C   UNL     1     129.948 126.132 123.323  1.00  0.00     0.003 A 
ATOM      5  C   UNL     1     129.179 126.587 124.372  1.00  0.00     0.028 A 
ATOM      6  C   UNL     1     128.269 127.470 123.800  1.00  0.00     0.083 A 
ATOM      7  N   UNL     1     128.462 127.561 122.464  1.00  0.00    -0.361 N 
ATOM      8  C   UNL     1     131.010 125.232 123.300  1.00  0.00     0.056 A 
ATOM      9  C   UNL     1     131.613 124.956 122.053  1.00  0.00     0.116 A 
ATOM     10  H   UNL     1     127.922 128.148 121.791  1.00  0.00     0.166 HD
ENDROOT
BRANCH   9  11
ATOM     11  O   UNL     1     132.679 124.065 121.967  1.00  0.00    -0.508 OA
ATOM     12  H   UNL     1     133.085 123.644 122.794  1.00  0.00     0.293 HD
ENDBRANCH   9  11
TORSDOF 1
ENDMDL
