MODEL 1
REMARK VINA RESULT:    -5.732      0.000      0.000
REMARK INTER + INTRA:          -6.862
REMARK INTER:                  -6.737
REMARK INTRA:                  -0.125
REMARK UNBOUND:                -0.125
REMARK SMILES O=C([O-])C=Cc1ccc(O)c(O)c1
REMARK SMILES IDX 6 1 13 2 7 3 11 4 8 5 9 6 5 7 4 8 2 9 1 10 3 11 12 12 10 14
REMARK H PARENT 12 13 10 15
REMARK Flexibility Score: inf
ROOT
ATOM      1  C   UNL     1     -14.142 -28.265 -11.604  1.00  0.00    -0.022 A 
ATOM      2  C   UNL     1     -13.893 -28.362 -12.983  1.00  0.00     0.058 A 
ATOM      3  C   UNL     1     -14.433 -27.000 -11.054  1.00  0.00     0.012 A 
ATOM      4  C   UNL     1     -13.905 -27.220 -13.797  1.00  0.00     0.157 A 
ATOM      5  C   UNL     1     -14.446 -25.862 -11.865  1.00  0.00     0.051 A 
ATOM      6  C   UNL     1     -14.179 -25.967 -13.236  1.00  0.00     0.157 A 
ENDROOT
BRANCH   1   7
ATOM      7  C   UNL     1     -14.128 -29.505 -10.789  1.00  0.00     0.010 C 
ATOM      8  C   UNL     1     -15.119 -30.409 -10.789  1.00  0.00     0.025 C 
BRANCH   8   9
ATOM      9  C   UNL     1     -15.075 -31.622  -9.956  1.00  0.00     0.064 C 
ATOM     10  O   UNL     1     -15.608 -31.649  -8.815  1.00  0.00    -0.545 OA
ATOM     11  O   UNL     1     -14.433 -32.756 -10.436  1.00  0.00    -0.545 OA
ENDBRANCH   8   9
ENDBRANCH   1   7
BRANCH   4  12
ATOM     12  O   UNL     1     -13.646 -27.324 -15.162  1.00  0.00    -0.504 OA
ATOM     13  H   UNL     1     -12.849 -26.865 -15.587  1.00  0.00     0.293 HD
ENDBRANCH   4  12
BRANCH   6  14
ATOM     14  O   UNL     1     -14.190 -24.834 -14.046  1.00  0.00    -0.504 OA
ATOM     15  H   UNL     1     -13.477 -24.678 -14.750  1.00  0.00     0.293 HD
ENDBRANCH   6  14
TORSDOF 4
ENDMDL
MODEL 2
REMARK VINA RESULT:    -5.628      1.239      5.984
REMARK INTER + INTRA:          -6.740
REMARK INTER:                  -6.613
REMARK INTRA:                  -0.128
REMARK UNBOUND:                -0.125
REMARK SMILES O=C([O-])C=Cc1ccc(O)c(O)c1
REMARK SMILES IDX 6 1 13 2 7 3 11 4 8 5 9 6 5 7 4 8 2 9 1 10 3 11 12 12 10 14
REMARK H PARENT 12 13 10 15
REMARK Flexibility Score: inf
ROOT
ATOM      1  C   UNL     1     -14.512 -29.080 -11.367  1.00  0.00    -0.022 A 
ATOM      2  C   UNL     1     -14.296 -28.825 -10.003  1.00  0.00     0.058 A 
ATOM      3  C   UNL     1     -15.088 -30.310 -11.746  1.00  0.00     0.012 A 
ATOM      4  C   UNL     1     -14.622 -29.785  -9.034  1.00  0.00     0.157 A 
ATOM      5  C   UNL     1     -15.412 -31.266 -10.779  1.00  0.00     0.051 A 
ATOM      6  C   UNL     1     -15.178 -31.008  -9.423  1.00  0.00     0.157 A 
ENDROOT
BRANCH   1   7
ATOM      7  C   UNL     1     -14.160 -28.027 -12.352  1.00  0.00     0.010 C 
ATOM      8  C   UNL     1     -14.856 -26.892 -12.510  1.00  0.00     0.025 C 
BRANCH   8   9
ATOM      9  C   UNL     1     -14.485 -25.875 -13.508  1.00  0.00     0.064 C 
ATOM     10  O   UNL     1     -14.904 -24.690 -13.419  1.00  0.00    -0.545 OA
ATOM     11  O   UNL     1     -13.660 -26.229 -14.569  1.00  0.00    -0.545 OA
ENDBRANCH   8   9
ENDBRANCH   1   7
BRANCH   4  12
ATOM     12  O   UNL     1     -14.395 -29.528  -7.682  1.00  0.00    -0.504 OA
ATOM     13  H   UNL     1     -15.066 -29.793  -6.972  1.00  0.00     0.293 HD
ENDBRANCH   4  12
BRANCH   6  14
ATOM     14  O   UNL     1     -15.500 -31.960  -8.458  1.00  0.00    -0.504 OA
ATOM     15  H   UNL     1     -15.024 -31.991  -7.563  1.00  0.00     0.293 HD
ENDBRANCH   6  14
TORSDOF 4
ENDMDL
MODEL 3
REMARK VINA RESULT:    -5.599      2.406      3.254
REMARK INTER + INTRA:          -6.707
REMARK INTER:                  -6.574
REMARK INTRA:                  -0.133
REMARK UNBOUND:                -0.125
REMARK SMILES O=C([O-])C=Cc1ccc(O)c(O)c1
REMARK SMILES IDX 6 1 13 2 7 3 11 4 8 5 9 6 5 7 4 8 2 9 1 10 3 11 12 12 10 14
REMARK H PARENT 12 13 10 15
REMARK Flexibility Score: inf
ROOT
ATOM      1  C   UNL     1     -14.168 -27.519 -10.990  1.00  0.00    -0.022 A 
ATOM      2  C   UNL     1     -14.362 -26.266 -11.594  1.00  0.00     0.058 A 
ATOM      3  C   UNL     1     -13.780 -28.609 -11.797  1.00  0.00     0.012 A 
ATOM      4  C   UNL     1     -14.200 -26.103 -12.977  1.00  0.00     0.157 A 
ATOM      5  C   UNL     1     -13.618 -28.446 -13.175  1.00  0.00     0.051 A 
ATOM      6  C   UNL     1     -13.830 -27.196 -13.770  1.00  0.00     0.157 A 
ENDROOT
BRANCH   1   7
ATOM      7  C   UNL     1     -14.341 -27.636  -9.521  1.00  0.00     0.010 C 
ATOM      8  C   UNL     1     -13.368 -28.023  -8.684  1.00  0.00     0.025 C 
BRANCH   8   9
ATOM      9  C   UNL     1     -13.581 -28.140  -7.232  1.00  0.00     0.064 C 
ATOM     10  O   UNL     1     -14.742 -28.183  -6.744  1.00  0.00    -0.545 OA
ATOM     11  O   UNL     1     -12.483 -28.201  -6.384  1.00  0.00    -0.545 OA
ENDBRANCH   8   9
ENDBRANCH   1   7
BRANCH   4  12
ATOM     12  O   UNL     1     -14.405 -24.858 -13.570  1.00  0.00    -0.504 OA
ATOM     13  H   UNL     1     -13.795 -24.512 -14.302  1.00  0.00     0.293 HD
ENDBRANCH   4  12
BRANCH   6  14
ATOM     14  O   UNL     1     -13.671 -27.032 -15.144  1.00  0.00    -0.504 OA
ATOM     15  H   UNL     1     -12.947 -27.522 -15.656  1.00  0.00     0.293 HD
ENDBRANCH   6  14
TORSDOF 4
ENDMDL
MODEL 4
REMARK VINA RESULT:    -5.583      2.005      2.257
REMARK INTER + INTRA:          -6.688
REMARK INTER:                  -6.552
REMARK INTRA:                  -0.136
REMARK UNBOUND:                -0.125
REMARK SMILES O=C([O-])C=Cc1ccc(O)c(O)c1
REMARK SMILES IDX 6 1 13 2 7 3 11 4 8 5 9 6 5 7 4 8 2 9 1 10 3 11 12 12 10 14
REMARK H PARENT 12 13 10 15
REMARK Flexibility Score: inf
ROOT
ATOM      1  C   UNL     1     -14.027 -28.354 -13.154  1.00  0.00    -0.022 A 
ATOM      2  C   UNL     1     -13.154 -27.511 -13.861  1.00  0.00     0.058 A 
ATOM      3  C   UNL     1     -15.159 -27.790 -12.531  1.00  0.00     0.012 A 
ATOM      4  C   UNL     1     -13.386 -26.130 -13.926  1.00  0.00     0.157 A 
ATOM      5  C   UNL     1     -15.391 -26.414 -12.597  1.00  0.00     0.051 A 
ATOM      6  C   UNL     1     -14.505 -25.580 -13.291  1.00  0.00     0.157 A 
ENDROOT
BRANCH   1   7
ATOM      7  C   UNL     1     -13.742 -29.810 -13.124  1.00  0.00     0.010 C 
ATOM      8  C   UNL     1     -14.666 -30.745 -12.859  1.00  0.00     0.025 C 
BRANCH   8   9
ATOM      9  C   UNL     1     -14.343 -32.181 -12.825  1.00  0.00     0.064 C 
ATOM     10  O   UNL     1     -14.851 -32.984 -13.654  1.00  0.00    -0.545 OA
ATOM     11  O   UNL     1     -13.465 -32.661 -11.862  1.00  0.00    -0.545 OA
ENDBRANCH   8   9
ENDBRANCH   1   7
BRANCH   4  12
ATOM     12  O   UNL     1     -12.508 -25.299 -14.621  1.00  0.00    -0.504 OA
ATOM     13  H   UNL     1     -11.615 -25.635 -14.960  1.00  0.00     0.293 HD
ENDBRANCH   4  12
BRANCH   6  14
ATOM     14  O   UNL     1     -14.733 -24.207 -13.356  1.00  0.00    -0.504 OA
ATOM     15  H   UNL     1     -14.828 -23.644 -12.519  1.00  0.00     0.293 HD
ENDBRANCH   6  14
TORSDOF 4
ENDMDL
MODEL 5
REMARK VINA RESULT:    -5.503      2.283      5.948
REMARK INTER + INTRA:          -6.593
REMARK INTER:                  -6.472
REMARK INTRA:                  -0.122
REMARK UNBOUND:                -0.125
REMARK SMILES O=C([O-])C=Cc1ccc(O)c(O)c1
REMARK SMILES IDX 6 1 13 2 7 3 11 4 8 5 9 6 5 7 4 8 2 9 1 10 3 11 12 12 10 14
REMARK H PARENT 12 13 10 15
REMARK Flexibility Score: inf
ROOT
ATOM      1  C   UNL     1     -14.005 -26.923  -9.939  1.00  0.00    -0.022 A 
ATOM      2  C   UNL     1     -13.487 -28.215  -9.752  1.00  0.00     0.058 A 
ATOM      3  C   UNL     1     -14.651 -26.288  -8.858  1.00  0.00     0.012 A 
ATOM      4  C   UNL     1     -13.632 -28.876  -8.524  1.00  0.00     0.157 A 
ATOM      5  C   UNL     1     -14.795 -26.946  -7.634  1.00  0.00     0.051 A 
ATOM      6  C   UNL     1     -14.290 -28.241  -7.464  1.00  0.00     0.157 A 
ENDROOT
BRANCH   1   7
ATOM      7  C   UNL     1     -13.815 -26.263 -11.254  1.00  0.00     0.010 C 
ATOM      8  C   UNL     1     -14.584 -26.503 -12.326  1.00  0.00     0.025 C 
BRANCH   8   9
ATOM      9  C   UNL     1     -14.357 -25.838 -13.620  1.00  0.00     0.064 C 
ATOM     10  O   UNL     1     -13.807 -26.445 -14.578  1.00  0.00    -0.545 OA
ATOM     11  O   UNL     1     -14.753 -24.518 -13.788  1.00  0.00    -0.545 OA
ENDBRANCH   8   9
ENDBRANCH   1   7
BRANCH   4  12
ATOM     12  O   UNL     1     -13.125 -30.163  -8.351  1.00  0.00    -0.504 OA
ATOM     13  H   UNL     1     -13.733 -30.954  -8.181  1.00  0.00     0.293 HD
ENDBRANCH   4  12
BRANCH   6  14
ATOM     14  O   UNL     1     -14.433 -28.901  -6.245  1.00  0.00    -0.504 OA
ATOM     15  H   UNL     1     -15.284 -29.397  -6.007  1.00  0.00     0.293 HD
ENDBRANCH   6  14
TORSDOF 4
ENDMDL
MODEL 6
REMARK VINA RESULT:    -5.444      1.035      1.915
REMARK INTER + INTRA:          -6.525
REMARK INTER:                  -6.386
REMARK INTRA:                  -0.139
REMARK UNBOUND:                -0.125
REMARK SMILES O=C([O-])C=Cc1ccc(O)c(O)c1
REMARK SMILES IDX 6 1 13 2 7 3 11 4 8 5 9 6 5 7 4 8 2 9 1 10 3 11 12 12 10 14
REMARK H PARENT 12 13 10 15
REMARK Flexibility Score: inf
ROOT
ATOM      1  C   UNL     1     -14.320 -28.059 -12.288  1.00  0.00    -0.022 A 
ATOM      2  C   UNL     1     -14.688 -26.727 -12.035  1.00  0.00     0.058 A 
ATOM      3  C   UNL     1     -13.587 -28.351 -13.456  1.00  0.00     0.012 A 
ATOM      4  C   UNL     1     -14.358 -25.708 -12.940  1.00  0.00     0.157 A 
ATOM      5  C   UNL     1     -13.258 -27.335 -14.357  1.00  0.00     0.051 A 
ATOM      6  C   UNL     1     -13.644 -26.013 -14.104  1.00  0.00     0.157 A 
ENDROOT
BRANCH   1   7
ATOM      7  C   UNL     1     -14.684 -29.099 -11.293  1.00  0.00     0.010 C 
ATOM      8  C   UNL     1     -14.685 -30.413 -11.556  1.00  0.00     0.025 C 
BRANCH   8   9
ATOM      9  C   UNL     1     -15.066 -31.416 -10.546  1.00  0.00     0.064 C 
ATOM     10  O   UNL     1     -15.900 -31.146  -9.642  1.00  0.00    -0.545 OA
ATOM     11  O   UNL     1     -14.492 -32.680 -10.590  1.00  0.00    -0.545 OA
ENDBRANCH   8   9
ENDBRANCH   1   7
BRANCH   4  12
ATOM     12  O   UNL     1     -14.737 -24.390 -12.688  1.00  0.00    -0.504 OA
ATOM     13  H   UNL     1     -14.237 -23.813 -12.022  1.00  0.00     0.293 HD
ENDBRANCH   4  12
BRANCH   6  14
ATOM     14  O   UNL     1     -13.318 -24.999 -15.002  1.00  0.00    -0.504 OA
ATOM     15  H   UNL     1     -12.377 -24.891 -15.362  1.00  0.00     0.293 HD
ENDBRANCH   6  14
TORSDOF 4
ENDMDL
MODEL 7
REMARK VINA RESULT:    -5.368      2.532      3.194
REMARK INTER + INTRA:          -6.435
REMARK INTER:                  -6.309
REMARK INTRA:                  -0.126
REMARK UNBOUND:                -0.125
REMARK SMILES O=C([O-])C=Cc1ccc(O)c(O)c1
REMARK SMILES IDX 6 1 13 2 7 3 11 4 8 5 9 6 5 7 4 8 2 9 1 10 3 11 12 12 10 14
REMARK H PARENT 12 13 10 15
REMARK Flexibility Score: inf
ROOT
ATOM      1  C   UNL     1     -13.917 -27.555 -10.959  1.00  0.00    -0.022 A 
ATOM      2  C   UNL     1     -13.799 -28.726 -11.725  1.00  0.00     0.058 A 
ATOM      3  C   UNL     1     -13.971 -26.311 -11.623  1.00  0.00     0.012 A 
ATOM      4  C   UNL     1     -13.709 -28.663 -13.123  1.00  0.00     0.157 A 
ATOM      5  C   UNL     1     -13.882 -26.249 -13.016  1.00  0.00     0.051 A 
ATOM      6  C   UNL     1     -13.748 -27.422 -13.770  1.00  0.00     0.157 A 
ENDROOT
BRANCH   1   7
ATOM      7  C   UNL     1     -14.019 -27.676  -9.484  1.00  0.00     0.010 C 
ATOM      8  C   UNL     1     -12.994 -28.024  -8.692  1.00  0.00     0.025 C 
BRANCH   8   9
ATOM      9  C   UNL     1     -13.137 -28.147  -7.232  1.00  0.00     0.064 C 
ATOM     10  O   UNL     1     -12.168 -27.919  -6.460  1.00  0.00    -0.545 OA
ATOM     11  O   UNL     1     -14.361 -28.526  -6.695  1.00  0.00    -0.545 OA
ENDBRANCH   8   9
ENDBRANCH   1   7
BRANCH   4  12
ATOM     12  O   UNL     1     -13.581 -29.830 -13.875  1.00  0.00    -0.504 OA
ATOM     13  H   UNL     1     -13.400 -30.726 -13.439  1.00  0.00     0.293 HD
ENDBRANCH   4  12
BRANCH   6  14
ATOM     14  O   UNL     1     -13.658 -27.363 -15.159  1.00  0.00    -0.504 OA
ATOM     15  H   UNL     1     -13.608 -26.477 -15.649  1.00  0.00     0.293 HD
ENDBRANCH   6  14
TORSDOF 4
ENDMDL
MODEL 8
REMARK VINA RESULT:    -5.358      0.803      1.229
REMARK INTER + INTRA:          -6.423
REMARK INTER:                  -6.296
REMARK INTRA:                  -0.127
REMARK UNBOUND:                -0.125
REMARK SMILES O=C([O-])C=Cc1ccc(O)c(O)c1
REMARK SMILES IDX 6 1 13 2 7 3 11 4 8 5 9 6 5 7 4 8 2 9 1 10 3 11 12 12 10 14
REMARK H PARENT 12 13 10 15
REMARK Flexibility Score: inf
ROOT
ATOM      1  C   UNL     1     -13.789 -28.493 -11.718  1.00  0.00    -0.022 A 
ATOM      2  C   UNL     1     -13.634 -28.424 -13.112  1.00  0.00     0.058 A 
ATOM      3  C   UNL     1     -14.182 -27.332 -11.020  1.00  0.00     0.012 A 
ATOM      4  C   UNL     1     -13.838 -27.218 -13.798  1.00  0.00     0.157 A 
ATOM      5  C   UNL     1     -14.385 -26.131 -11.704  1.00  0.00     0.051 A 
ATOM      6  C   UNL     1     -14.212 -26.069 -13.092  1.00  0.00     0.157 A 
ENDROOT
BRANCH   1   7
ATOM      7  C   UNL     1     -13.572 -29.796 -11.042  1.00  0.00     0.010 C 
ATOM      8  C   UNL     1     -14.150 -30.942 -11.429  1.00  0.00     0.025 C 
BRANCH   8   9
ATOM      9  C   UNL     1     -13.920 -32.214 -10.724  1.00  0.00     0.064 C 
ATOM     10  O   UNL     1     -13.011 -33.007 -11.088  1.00  0.00    -0.545 OA
ATOM     11  O   UNL     1     -14.723 -32.549  -9.641  1.00  0.00    -0.545 OA
ENDBRANCH   8   9
ENDBRANCH   1   7
BRANCH   4  12
ATOM     12  O   UNL     1     -13.671 -27.155 -15.181  1.00  0.00    -0.504 OA
ATOM     13  H   UNL     1     -14.002 -27.894 -15.789  1.00  0.00     0.293 HD
ENDBRANCH   4  12
BRANCH   6  14
ATOM     14  O   UNL     1     -14.413 -24.871 -13.776  1.00  0.00    -0.504 OA
ATOM     15  H   UNL     1     -15.343 -24.503 -13.939  1.00  0.00     0.293 HD
ENDBRANCH   6  14
TORSDOF 4
ENDMDL
MODEL 9
REMARK VINA RESULT:    -5.156      3.336      4.716
REMARK INTER + INTRA:          -6.186
REMARK INTER:                  -6.053
REMARK INTRA:                  -0.133
REMARK UNBOUND:                -0.125
REMARK SMILES O=C([O-])C=Cc1ccc(O)c(O)c1
REMARK SMILES IDX 6 1 13 2 7 3 11 4 8 5 9 6 5 7 4 8 2 9 1 10 3 11 12 12 10 14
REMARK H PARENT 12 13 10 15
REMARK Flexibility Score: inf
ROOT
ATOM      1  C   UNL     1     -14.372 -29.268  -9.691  1.00  0.00    -0.022 A 
ATOM      2  C   UNL     1     -14.348 -28.527 -10.884  1.00  0.00     0.058 A 
ATOM      3  C   UNL     1     -14.912 -30.571  -9.711  1.00  0.00     0.012 A 
ATOM      4  C   UNL     1     -14.874 -29.059 -12.070  1.00  0.00     0.157 A 
ATOM      5  C   UNL     1     -15.436 -31.100 -10.893  1.00  0.00     0.051 A 
ATOM      6  C   UNL     1     -15.422 -30.347 -12.074  1.00  0.00     0.157 A 
ENDROOT
BRANCH   1   7
ATOM      7  C   UNL     1     -13.792 -28.664  -8.466  1.00  0.00     0.010 C 
ATOM      8  C   UNL     1     -12.960 -27.613  -8.475  1.00  0.00     0.025 C 
BRANCH   8   9
ATOM      9  C   UNL     1     -12.393 -27.049  -7.239  1.00  0.00     0.064 C 
ATOM     10  O   UNL     1     -11.916 -27.793  -6.341  1.00  0.00    -0.545 OA
ATOM     11  O   UNL     1     -12.388 -25.672  -7.057  1.00  0.00    -0.545 OA
ENDBRANCH   8   9
ENDBRANCH   1   7
BRANCH   4  12
ATOM     12  O   UNL     1     -14.855 -28.313 -13.247  1.00  0.00    -0.504 OA
ATOM     13  H   UNL     1     -14.715 -27.310 -13.237  1.00  0.00     0.293 HD
ENDBRANCH   4  12
BRANCH   6  14
ATOM     14  O   UNL     1     -15.945 -30.872 -13.253  1.00  0.00    -0.504 OA
ATOM     15  H   UNL     1     -16.226 -31.844 -13.322  1.00  0.00     0.293 HD
ENDBRANCH   6  14
TORSDOF 4
ENDMDL
