MODEL 1
REMARK VINA RESULT:    -5.444      0.000      0.000
REMARK INTER + INTRA:          -5.762
REMARK INTER:                  -5.762
REMARK INTRA:                   0.000
REMARK UNBOUND:                 0.000
REMARK SMILES Cc1cc(O)c(C)c(C)c1O
REMARK SMILES IDX 1 1 2 2 3 3 4 4 6 5 8 6 10 7 9 8 7 9 11 10 5 12
REMARK H PARENT 11 11 5 13
REMARK Flexibility Score: inf
ROOT
ATOM      1  C   UNL     1      37.925  14.280  54.147  1.00  0.00     0.048 C 
ATOM      2  C   UNL     1      39.017  14.611  53.165  1.00  0.00    -0.005 A 
ATOM      3  C   UNL     1      39.645  13.575  52.466  1.00  0.00     0.053 A 
ATOM      4  C   UNL     1      40.653  13.843  51.535  1.00  0.00     0.119 A 
ATOM      5  C   UNL     1      41.049  15.171  51.285  1.00  0.00    -0.003 A 
ATOM      6  C   UNL     1      40.458  16.227  52.024  1.00  0.00    -0.002 A 
ATOM      7  C   UNL     1      39.420  15.946  52.942  1.00  0.00     0.121 A 
ATOM      8  C   UNL     1      40.887  17.660  51.797  1.00  0.00     0.049 C 
ATOM      9  C   UNL     1      42.135  15.448  50.270  1.00  0.00     0.049 C 
ENDROOT
BRANCH   7  10
ATOM     10  O   UNL     1      38.805  17.005  53.620  1.00  0.00    -0.507 OA
ATOM     11  H   UNL     1      38.259  16.885  54.463  1.00  0.00     0.293 HD
ENDBRANCH   7  10
BRANCH   4  12
ATOM     12  O   UNL     1      41.260  12.786  50.857  1.00  0.00    -0.508 OA
ATOM     13  H   UNL     1      40.719  12.031  50.453  1.00  0.00     0.293 HD
ENDBRANCH   4  12
TORSDOF 2
ENDMDL
MODEL 2
REMARK VINA RESULT:    -5.303      1.410      3.302
REMARK INTER + INTRA:          -5.613
REMARK INTER:                  -5.613
REMARK INTRA:                   0.000
REMARK UNBOUND:                 0.000
REMARK SMILES Cc1cc(O)c(C)c(C)c1O
REMARK SMILES IDX 1 1 2 2 3 3 4 4 6 5 8 6 10 7 9 8 7 9 11 10 5 12
REMARK H PARENT 11 11 5 13
REMARK Flexibility Score: inf
ROOT
ATOM      1  C   UNL     1      42.747  15.894  49.616  1.00  0.00     0.048 C 
ATOM      2  C   UNL     1      41.695  15.441  50.593  1.00  0.00    -0.005 A 
ATOM      3  C   UNL     1      41.573  14.078  50.885  1.00  0.00     0.053 A 
ATOM      4  C   UNL     1      40.619  13.621  51.798  1.00  0.00     0.119 A 
ATOM      5  C   UNL     1      39.764  14.533  52.444  1.00  0.00    -0.003 A 
ATOM      6  C   UNL     1      39.841  15.912  52.119  1.00  0.00    -0.002 A 
ATOM      7  C   UNL     1      40.828  16.366  51.216  1.00  0.00     0.121 A 
ATOM      8  C   UNL     1      38.913  16.910  52.776  1.00  0.00     0.049 C 
ATOM      9  C   UNL     1      38.741  14.026  53.436  1.00  0.00     0.049 C 
ENDROOT
BRANCH   7  10
ATOM     10  O   UNL     1      40.931  17.736  50.951  1.00  0.00    -0.507 OA
ATOM     11  H   UNL     1      41.726  18.157  50.488  1.00  0.00     0.293 HD
ENDBRANCH   7  10
BRANCH   4  12
ATOM     12  O   UNL     1      40.523  12.254  52.064  1.00  0.00    -0.508 OA
ATOM     13  H   UNL     1      40.985  11.564  51.483  1.00  0.00     0.293 HD
ENDBRANCH   4  12
TORSDOF 2
ENDMDL
MODEL 3
REMARK VINA RESULT:    -5.268     11.854     13.410
REMARK INTER + INTRA:          -5.576
REMARK INTER:                  -5.576
REMARK INTRA:                   0.000
REMARK UNBOUND:                 0.000
REMARK SMILES Cc1cc(O)c(C)c(C)c1O
REMARK SMILES IDX 1 1 2 2 3 3 4 4 6 5 8 6 10 7 9 8 7 9 11 10 5 12
REMARK H PARENT 11 11 5 13
REMARK Flexibility Score: inf
ROOT
ATOM      1  C   UNL     1      43.618  21.211  63.767  1.00  0.00     0.048 C 
ATOM      2  C   UNL     1      42.356  21.891  63.305  1.00  0.00    -0.005 A 
ATOM      3  C   UNL     1      41.991  23.116  63.875  1.00  0.00     0.053 A 
ATOM      4  C   UNL     1      40.835  23.785  63.462  1.00  0.00     0.119 A 
ATOM      5  C   UNL     1      40.018  23.231  62.457  1.00  0.00    -0.003 A 
ATOM      6  C   UNL     1      40.348  21.965  61.908  1.00  0.00    -0.002 A 
ATOM      7  C   UNL     1      41.534  21.312  62.313  1.00  0.00     0.121 A 
ATOM      8  C   UNL     1      39.472  21.334  60.849  1.00  0.00     0.049 C 
ATOM      9  C   UNL     1      38.775  23.969  62.014  1.00  0.00     0.049 C 
ENDROOT
BRANCH   7  10
ATOM     10  O   UNL     1      41.877  20.092  61.719  1.00  0.00    -0.507 OA
ATOM     11  H   UNL     1      41.460  19.208  61.980  1.00  0.00     0.293 HD
ENDBRANCH   7  10
BRANCH   4  12
ATOM     12  O   UNL     1      40.499  25.003  64.052  1.00  0.00    -0.508 OA
ATOM     13  H   UNL     1      41.041  25.395  64.813  1.00  0.00     0.293 HD
ENDBRANCH   4  12
TORSDOF 2
ENDMDL
MODEL 4
REMARK VINA RESULT:    -5.137      1.147      4.177
REMARK INTER + INTRA:          -5.437
REMARK INTER:                  -5.437
REMARK INTRA:                   0.000
REMARK UNBOUND:                 0.000
REMARK SMILES Cc1cc(O)c(C)c(C)c1O
REMARK SMILES IDX 1 1 2 2 3 3 4 4 6 5 8 6 10 7 9 8 7 9 11 10 5 12
REMARK H PARENT 11 11 5 13
REMARK Flexibility Score: inf
ROOT
ATOM      1  C   UNL     1      42.600  14.404  50.409  1.00  0.00     0.048 C 
ATOM      2  C   UNL     1      41.428  14.929  51.195  1.00  0.00    -0.005 A 
ATOM      3  C   UNL     1      41.183  16.307  51.218  1.00  0.00     0.053 A 
ATOM      4  C   UNL     1      40.096  16.832  51.924  1.00  0.00     0.119 A 
ATOM      5  C   UNL     1      39.226  15.974  52.623  1.00  0.00    -0.003 A 
ATOM      6  C   UNL     1      39.493  14.581  52.652  1.00  0.00    -0.002 A 
ATOM      7  C   UNL     1      40.578  14.059  51.912  1.00  0.00     0.121 A 
ATOM      8  C   UNL     1      38.592  13.640  53.421  1.00  0.00     0.049 C 
ATOM      9  C   UNL     1      38.050  16.554  53.377  1.00  0.00     0.049 C 
ENDROOT
BRANCH   7  10
ATOM     10  O   UNL     1      40.793  12.676  51.901  1.00  0.00    -0.507 OA
ATOM     11  H   UNL     1      41.395  12.210  51.234  1.00  0.00     0.293 HD
ENDBRANCH   7  10
BRANCH   4  12
ATOM     12  O   UNL     1      39.882  18.210  51.928  1.00  0.00    -0.508 OA
ATOM     13  H   UNL     1      40.557  18.856  51.537  1.00  0.00     0.293 HD
ENDBRANCH   4  12
TORSDOF 2
ENDMDL
MODEL 5
REMARK VINA RESULT:    -5.106      1.350      3.084
REMARK INTER + INTRA:          -5.405
REMARK INTER:                  -5.405
REMARK INTRA:                   0.000
REMARK UNBOUND:                 0.000
REMARK SMILES Cc1cc(O)c(C)c(C)c1O
REMARK SMILES IDX 1 1 2 2 3 3 4 4 6 5 8 6 10 7 9 8 7 9 11 10 5 12
REMARK H PARENT 11 11 5 13
REMARK Flexibility Score: inf
ROOT
ATOM      1  C   UNL     1      40.026  19.144  52.436  1.00  0.00     0.048 C 
ATOM      2  C   UNL     1      40.325  17.706  52.102  1.00  0.00    -0.005 A 
ATOM      3  C   UNL     1      41.296  17.416  51.138  1.00  0.00     0.053 A 
ATOM      4  C   UNL     1      41.612  16.094  50.811  1.00  0.00     0.119 A 
ATOM      5  C   UNL     1      40.955  15.029  51.456  1.00  0.00    -0.003 A 
ATOM      6  C   UNL     1      39.931  15.309  52.398  1.00  0.00    -0.002 A 
ATOM      7  C   UNL     1      39.640  16.649  52.740  1.00  0.00     0.121 A 
ATOM      8  C   UNL     1      39.188  14.184  53.083  1.00  0.00     0.049 C 
ATOM      9  C   UNL     1      41.312  13.604  51.099  1.00  0.00     0.049 C 
ENDROOT
BRANCH   7  10
ATOM     10  O   UNL     1      38.670  16.907  53.715  1.00  0.00    -0.507 OA
ATOM     11  H   UNL     1      38.076  17.726  53.708  1.00  0.00     0.293 HD
ENDBRANCH   7  10
BRANCH   4  12
ATOM     12  O   UNL     1      42.585  15.840  49.843  1.00  0.00    -0.508 OA
ATOM     13  H   UNL     1      43.424  15.313  50.055  1.00  0.00     0.293 HD
ENDBRANCH   4  12
TORSDOF 2
ENDMDL
MODEL 6
REMARK VINA RESULT:    -5.081     15.204     16.164
REMARK INTER + INTRA:          -5.378
REMARK INTER:                  -5.378
REMARK INTRA:                   0.000
REMARK UNBOUND:                 0.000
REMARK SMILES Cc1cc(O)c(C)c(C)c1O
REMARK SMILES IDX 1 1 2 2 3 3 4 4 6 5 8 6 10 7 9 8 7 9 11 10 5 12
REMARK H PARENT 11 11 5 13
REMARK Flexibility Score: inf
ROOT
ATOM      1  C   UNL     1      54.357  23.137  57.889  1.00  0.00     0.048 C 
ATOM      2  C   UNL     1      53.930  21.778  58.377  1.00  0.00    -0.005 A 
ATOM      3  C   UNL     1      54.237  20.648  57.612  1.00  0.00     0.053 A 
ATOM      4  C   UNL     1      53.871  19.369  58.039  1.00  0.00     0.119 A 
ATOM      5  C   UNL     1      53.186  19.199  59.257  1.00  0.00    -0.003 A 
ATOM      6  C   UNL     1      52.822  20.340  60.019  1.00  0.00    -0.002 A 
ATOM      7  C   UNL     1      53.222  21.626  59.590  1.00  0.00     0.121 A 
ATOM      8  C   UNL     1      52.059  20.188  61.316  1.00  0.00     0.049 C 
ATOM      9  C   UNL     1      52.803  17.809  59.712  1.00  0.00     0.049 C 
ENDROOT
BRANCH   7  10
ATOM     10  O   UNL     1      52.908  22.736  60.382  1.00  0.00    -0.507 OA
ATOM     11  H   UNL     1      53.445  23.012  61.194  1.00  0.00     0.293 HD
ENDBRANCH   7  10
BRANCH   4  12
ATOM     12  O   UNL     1      54.191  18.264  57.250  1.00  0.00    -0.508 OA
ATOM     13  H   UNL     1      54.947  18.290  56.576  1.00  0.00     0.293 HD
ENDBRANCH   4  12
TORSDOF 2
ENDMDL
MODEL 7
REMARK VINA RESULT:    -5.075      0.912      3.072
REMARK INTER + INTRA:          -5.372
REMARK INTER:                  -5.372
REMARK INTRA:                   0.000
REMARK UNBOUND:                 0.000
REMARK SMILES Cc1cc(O)c(C)c(C)c1O
REMARK SMILES IDX 1 1 2 2 3 3 4 4 6 5 8 6 10 7 9 8 7 9 11 10 5 12
REMARK H PARENT 11 11 5 13
REMARK Flexibility Score: inf
ROOT
ATOM      1  C   UNL     1      38.205  13.258  53.712  1.00  0.00     0.048 C 
ATOM      2  C   UNL     1      39.021  14.317  53.019  1.00  0.00    -0.005 A 
ATOM      3  C   UNL     1      38.655  15.661  53.154  1.00  0.00     0.053 A 
ATOM      4  C   UNL     1      39.397  16.673  52.539  1.00  0.00     0.119 A 
ATOM      5  C   UNL     1      40.533  16.351  51.772  1.00  0.00    -0.003 A 
ATOM      6  C   UNL     1      40.886  14.990  51.584  1.00  0.00    -0.002 A 
ATOM      7  C   UNL     1      40.145  13.977  52.234  1.00  0.00     0.121 A 
ATOM      8  C   UNL     1      42.083  14.614  50.740  1.00  0.00     0.049 C 
ATOM      9  C   UNL     1      41.331  17.457  51.118  1.00  0.00     0.049 C 
ENDROOT
BRANCH   7  10
ATOM     10  O   UNL     1      40.541  12.643  52.088  1.00  0.00    -0.507 OA
ATOM     11  H   UNL     1      41.342  12.356  51.541  1.00  0.00     0.293 HD
ENDBRANCH   7  10
BRANCH   4  12
ATOM     12  O   UNL     1      39.003  18.003  52.692  1.00  0.00    -0.508 OA
ATOM     13  H   UNL     1      38.030  18.260  52.811  1.00  0.00     0.293 HD
ENDBRANCH   4  12
TORSDOF 2
ENDMDL
MODEL 8
REMARK VINA RESULT:    -4.930      1.413      4.154
REMARK INTER + INTRA:          -5.218
REMARK INTER:                  -5.218
REMARK INTRA:                   0.000
REMARK UNBOUND:                 0.000
REMARK SMILES Cc1cc(O)c(C)c(C)c1O
REMARK SMILES IDX 1 1 2 2 3 3 4 4 6 5 8 6 10 7 9 8 7 9 11 10 5 12
REMARK H PARENT 11 11 5 13
REMARK Flexibility Score: inf
ROOT
ATOM      1  C   UNL     1      41.054  18.670  51.322  1.00  0.00     0.048 C 
ATOM      2  C   UNL     1      40.448  17.413  51.888  1.00  0.00    -0.005 A 
ATOM      3  C   UNL     1      39.457  17.514  52.870  1.00  0.00     0.053 A 
ATOM      4  C   UNL     1      38.859  16.371  53.409  1.00  0.00     0.119 A 
ATOM      5  C   UNL     1      39.249  15.094  52.965  1.00  0.00    -0.003 A 
ATOM      6  C   UNL     1      40.289  14.974  52.008  1.00  0.00    -0.002 A 
ATOM      7  C   UNL     1      40.866  16.138  51.450  1.00  0.00     0.121 A 
ATOM      8  C   UNL     1      40.749  13.612  51.536  1.00  0.00     0.049 C 
ATOM      9  C   UNL     1      38.589  13.866  53.551  1.00  0.00     0.049 C 
ENDROOT
BRANCH   7  10
ATOM     10  O   UNL     1      41.849  16.004  50.463  1.00  0.00    -0.507 OA
ATOM     11  H   UNL     1      41.996  15.155  49.933  1.00  0.00     0.293 HD
ENDBRANCH   7  10
BRANCH   4  12
ATOM     12  O   UNL     1      37.875  16.508  54.389  1.00  0.00    -0.508 OA
ATOM     13  H   UNL     1      37.242  17.299  54.402  1.00  0.00     0.293 HD
ENDBRANCH   4  12
TORSDOF 2
ENDMDL
MODEL 9
REMARK VINA RESULT:    -4.883     14.779     15.364
REMARK INTER + INTRA:          -5.169
REMARK INTER:                  -5.169
REMARK INTRA:                   0.000
REMARK UNBOUND:                 0.000
REMARK SMILES Cc1cc(O)c(C)c(C)c1O
REMARK SMILES IDX 1 1 2 2 3 3 4 4 6 5 8 6 10 7 9 8 7 9 11 10 5 12
REMARK H PARENT 11 11 5 13
REMARK Flexibility Score: inf
ROOT
ATOM      1  C   UNL     1      49.874  19.636  64.273  1.00  0.00     0.048 C 
ATOM      2  C   UNL     1      50.609  19.444  62.973  1.00  0.00    -0.005 A 
ATOM      3  C   UNL     1      50.646  18.173  62.389  1.00  0.00     0.053 A 
ATOM      4  C   UNL     1      51.305  17.959  61.175  1.00  0.00     0.119 A 
ATOM      5  C   UNL     1      51.942  19.028  60.517  1.00  0.00    -0.003 A 
ATOM      6  C   UNL     1      51.957  20.311  61.123  1.00  0.00    -0.002 A 
ATOM      7  C   UNL     1      51.264  20.522  62.337  1.00  0.00     0.121 A 
ATOM      8  C   UNL     1      52.661  21.471  60.453  1.00  0.00     0.049 C 
ATOM      9  C   UNL     1      52.645  18.784  59.201  1.00  0.00     0.049 C 
ENDROOT
BRANCH   7  10
ATOM     10  O   UNL     1      51.237  21.806  62.892  1.00  0.00    -0.507 OA
ATOM     11  H   UNL     1      50.433  22.190  63.371  1.00  0.00     0.293 HD
ENDBRANCH   7  10
BRANCH   4  12
ATOM     12  O   UNL     1      51.325  16.678  60.621  1.00  0.00    -0.508 OA
ATOM     13  H   UNL     1      51.568  16.520  59.650  1.00  0.00     0.293 HD
ENDBRANCH   4  12
TORSDOF 2
ENDMDL
