MODEL 1
REMARK VINA RESULT:    67.494      0.000      0.000
REMARK INTER + INTRA:          98.226
REMARK INTER:                  99.060
REMARK INTRA:                  -0.834
REMARK UNBOUND:                -0.834
REMARK SMILES Cc1cc2c(C(C)C)c(O)c(O)c(C=O)c2c(O)c1-c1c(C)cc2c(C(C)C)c(O)c(O)c(C=O)c2c1O
REMARK SMILES IDX 1 1 2 2 3 3 4 4 16 5 13 6 11 7 9 8 5 9 17 10 19 11 20 12
REMARK SMILES IDX 37 13 21 14 36 15 23 16 22 17 24 18 33 19 25 20 31 21 29 22
REMARK SMILES IDX 38 23 34 25 35 26 26 27 27 28 28 29 32 30 30 32 18 34 6 36
REMARK SMILES IDX 7 37 8 38 14 39 15 40 10 41 12 43
REMARK H PARENT 38 24 32 31 30 33 18 35 10 42 12 44
REMARK Flexibility Score: inf
ROOT
ATOM      1  C   UNL     1      13.829  12.282 -13.133  1.00  0.00     0.045 C 
ATOM      2  C   UNL     1      15.206  12.146 -13.739  1.00  0.00    -0.039 A 
ATOM      3  C   UNL     1      15.724  10.875 -13.989  1.00  0.00     0.013 A 
ATOM      4  C   UNL     1      16.999  10.680 -14.557  1.00  0.00    -0.006 A 
ATOM      5  C   UNL     1      17.789  11.831 -14.867  1.00  0.00     0.039 A 
ATOM      6  C   UNL     1      19.068  11.650 -15.471  1.00  0.00     0.072 A 
ATOM      7  C   UNL     1      19.603  10.357 -15.610  1.00  0.00     0.169 A 
ATOM      8  C   UNL     1      18.845   9.235 -15.261  1.00  0.00     0.162 A 
ATOM      9  C   UNL     1      17.514   9.366 -14.805  1.00  0.00     0.008 A 
ATOM     10  C   UNL     1      17.292  13.125 -14.528  1.00  0.00     0.132 A 
ATOM     11  C   UNL     1      15.992  13.277 -14.003  1.00  0.00     0.031 A 
ENDROOT
BRANCH  11  12
ATOM     12  C   UNL     1      15.462  14.633 -13.699  1.00  0.00     0.031 A 
ATOM     13  C   UNL     1      15.600  15.176 -12.404  1.00  0.00     0.132 A 
ATOM     14  C   UNL     1      14.844  15.381 -14.714  1.00  0.00    -0.039 A 
ATOM     15  C   UNL     1      15.126  16.493 -12.119  1.00  0.00     0.039 A 
ATOM     16  C   UNL     1      14.292  16.626 -14.412  1.00  0.00     0.013 A 
ATOM     17  C   UNL     1      14.744  14.847 -16.123  1.00  0.00     0.045 C 
ATOM     18  C   UNL     1      14.361  17.175 -13.113  1.00  0.00    -0.006 A 
ATOM     19  C   UNL     1      15.379  17.148 -10.877  1.00  0.00     0.072 A 
ATOM     20  C   UNL     1      13.707  18.404 -12.797  1.00  0.00     0.008 A 
ATOM     21  C   UNL     1      14.890  18.454 -10.659  1.00  0.00     0.169 A 
ATOM     22  C   UNL     1      14.061  19.069 -11.604  1.00  0.00     0.162 A 
BRANCH  13  23
ATOM     23  O   UNL     1      16.189  14.403 -11.397  1.00  0.00    -0.507 OA
ATOM     24  H   UNL     1      15.868  13.479 -11.133  1.00  0.00     0.293 HD
ENDBRANCH  13  23
BRANCH  19  25
ATOM     25  C   UNL     1      16.225  16.538  -9.831  1.00  0.00     0.264 C 
ATOM     26  O   UNL     1      16.120  16.902  -8.630  1.00  0.00    -0.298 OA
ENDBRANCH  19  25
BRANCH  20  27
ATOM     27  C   UNL     1      12.648  19.017 -13.729  1.00  0.00     0.017 C 
ATOM     28  C   UNL     1      12.767  20.543 -13.768  1.00  0.00     0.012 C 
ATOM     29  C   UNL     1      11.208  18.576 -13.404  1.00  0.00     0.012 C 
ENDBRANCH  20  27
BRANCH  21  30
ATOM     30  O   UNL     1      15.229  19.183  -9.514  1.00  0.00    -0.504 OA
ATOM     31  H   UNL     1      15.881  19.956  -9.506  1.00  0.00     0.293 HD
ENDBRANCH  21  30
BRANCH  22  32
ATOM     32  O   UNL     1      13.604  20.368 -11.370  1.00  0.00    -0.504 OA
ATOM     33  H   UNL     1      14.032  20.992 -10.698  1.00  0.00     0.293 HD
ENDBRANCH  22  32
ENDBRANCH  11  12
BRANCH  10  34
ATOM     34  O   UNL     1      18.106  14.255 -14.672  1.00  0.00    -0.507 OA
ATOM     35  H   UNL     1      17.802  15.200 -14.472  1.00  0.00     0.293 HD
ENDBRANCH  10  34
BRANCH   9  36
ATOM     36  C   UNL     1      16.708   8.068 -14.587  1.00  0.00     0.017 C 
ATOM     37  C   UNL     1      16.301   7.877 -13.119  1.00  0.00     0.012 C 
ATOM     38  C   UNL     1      15.536   7.877 -15.574  1.00  0.00     0.012 C 
ENDBRANCH   9  36
BRANCH   6  39
ATOM     39  C   UNL     1      19.846  12.776 -16.029  1.00  0.00     0.264 C 
ATOM     40  O   UNL     1      20.941  13.114 -15.506  1.00  0.00    -0.298 OA
ENDBRANCH   6  39
BRANCH   8  41
ATOM     41  O   UNL     1      19.417   7.963 -15.386  1.00  0.00    -0.504 OA
ATOM     42  H   UNL     1      18.894   7.106 -15.257  1.00  0.00     0.293 HD
ENDBRANCH   8  41
BRANCH   7  43
ATOM     43  O   UNL     1      20.888  10.147 -16.124  1.00  0.00    -0.504 OA
ATOM     44  H   UNL     1      21.724  10.585 -15.759  1.00  0.00     0.293 HD
ENDBRANCH   7  43
TORSDOF 11
ENDMDL
MODEL 2
REMARK VINA RESULT:    67.868      2.684      4.784
REMARK INTER + INTRA:          98.773
REMARK INTER:                  92.125
REMARK INTRA:                   6.649
REMARK UNBOUND:                -0.834
REMARK SMILES Cc1cc2c(C(C)C)c(O)c(O)c(C=O)c2c(O)c1-c1c(C)cc2c(C(C)C)c(O)c(O)c(C=O)c2c1O
REMARK SMILES IDX 1 1 2 2 3 3 4 4 16 5 13 6 11 7 9 8 5 9 17 10 19 11 20 12
REMARK SMILES IDX 37 13 21 14 36 15 23 16 22 17 24 18 33 19 25 20 31 21 29 22
REMARK SMILES IDX 38 23 34 25 35 26 26 27 27 28 28 29 32 30 30 32 18 34 6 36
REMARK SMILES IDX 7 37 8 38 14 39 15 40 10 41 12 43
REMARK H PARENT 38 24 32 31 30 33 18 35 10 42 12 44
REMARK Flexibility Score: inf
ROOT
ATOM      1  C   UNL     1      16.228   9.379 -13.176  1.00  0.00     0.045 C 
ATOM      2  C   UNL     1      17.079  10.469 -13.783  1.00  0.00    -0.039 A 
ATOM      3  C   UNL     1      18.441  10.244 -13.984  1.00  0.00     0.013 A 
ATOM      4  C   UNL     1      19.289  11.217 -14.551  1.00  0.00    -0.006 A 
ATOM      5  C   UNL     1      18.727  12.482 -14.912  1.00  0.00     0.039 A 
ATOM      6  C   UNL     1      19.566  13.465 -15.515  1.00  0.00     0.072 A 
ATOM      7  C   UNL     1      20.952  13.246 -15.605  1.00  0.00     0.169 A 
ATOM      8  C   UNL     1      21.504  12.025 -15.207  1.00  0.00     0.162 A 
ATOM      9  C   UNL     1      20.686  10.968 -14.750  1.00  0.00     0.008 A 
ATOM     10  C   UNL     1      17.353  12.739 -14.621  1.00  0.00     0.132 A 
ATOM     11  C   UNL     1      16.531  11.721 -14.096  1.00  0.00     0.031 A 
ENDROOT
BRANCH  11  12
ATOM     12  C   UNL     1      15.088  11.980 -13.844  1.00  0.00     0.031 A 
ATOM     13  C   UNL     1      14.679  13.183 -13.228  1.00  0.00     0.132 A 
ATOM     14  C   UNL     1      14.132  11.034 -14.243  1.00  0.00    -0.039 A 
ATOM     15  C   UNL     1      13.292  13.451 -13.020  1.00  0.00     0.039 A 
ATOM     16  C   UNL     1      12.786  11.250 -13.950  1.00  0.00     0.013 A 
ATOM     17  C   UNL     1      14.541   9.770 -14.962  1.00  0.00     0.045 C 
ATOM     18  C   UNL     1      12.347  12.415 -13.285  1.00  0.00    -0.006 A 
ATOM     19  C   UNL     1      12.817  14.712 -12.549  1.00  0.00     0.072 A 
ATOM     20  C   UNL     1      10.980  12.576 -12.905  1.00  0.00     0.008 A 
ATOM     21  C   UNL     1      11.432  14.918 -12.371  1.00  0.00     0.169 A 
ATOM     22  C   UNL     1      10.529  13.863 -12.541  1.00  0.00     0.162 A 
BRANCH  13  23
ATOM     23  O   UNL     1      15.649  14.100 -12.808  1.00  0.00    -0.507 OA
ATOM     24  H   UNL     1      16.435  13.860 -12.216  1.00  0.00     0.293 HD
ENDBRANCH  13  23
BRANCH  19  25
ATOM     25  C   UNL     1      13.726  15.855 -12.326  1.00  0.00     0.264 C 
ATOM     26  O   UNL     1      13.794  16.792 -13.165  1.00  0.00    -0.298 OA
ENDBRANCH  19  25
BRANCH  20  27
ATOM     27  C   UNL     1       9.999  11.392 -12.901  1.00  0.00     0.017 C 
ATOM     28  C   UNL     1       9.472  11.111 -14.311  1.00  0.00     0.012 C 
ATOM     29  C   UNL     1       8.844  11.549 -11.894  1.00  0.00     0.012 C 
ENDBRANCH  20  27
BRANCH  21  30
ATOM     30  O   UNL     1      10.914  16.176 -12.043  1.00  0.00    -0.504 OA
ATOM     31  H   UNL     1      10.238  16.337 -11.308  1.00  0.00     0.293 HD
ENDBRANCH  21  30
BRANCH  22  32
ATOM     32  O   UNL     1       9.162  14.099 -12.373  1.00  0.00    -0.504 OA
ATOM     33  H   UNL     1       8.447  13.582 -12.868  1.00  0.00     0.293 HD
ENDBRANCH  22  32
ENDBRANCH  11  12
BRANCH  10  34
ATOM     34  O   UNL     1      16.817  14.018 -14.815  1.00  0.00    -0.507 OA
ATOM     35  H   UNL     1      16.357  14.553 -14.090  1.00  0.00     0.293 HD
ENDBRANCH  10  34
BRANCH   9  36
ATOM     36  C   UNL     1      21.367   9.610 -14.475  1.00  0.00     0.017 C 
ATOM     37  C   UNL     1      21.025   8.563 -15.544  1.00  0.00     0.012 C 
ATOM     38  C   UNL     1      22.879   9.709 -14.181  1.00  0.00     0.012 C 
ENDBRANCH   9  36
BRANCH   6  39
ATOM     39  C   UNL     1      19.027  14.700 -16.122  1.00  0.00     0.264 C 
ATOM     40  O   UNL     1      17.800  14.972 -16.029  1.00  0.00    -0.298 OA
ENDBRANCH   6  39
BRANCH   8  41
ATOM     41  O   UNL     1      22.891  11.849 -15.284  1.00  0.00    -0.504 OA
ATOM     42  H   UNL     1      23.412  11.928 -16.150  1.00  0.00     0.293 HD
ENDBRANCH   8  41
BRANCH   7  43
ATOM     43  O   UNL     1      21.816  14.221 -16.117  1.00  0.00    -0.504 OA
ATOM     44  H   UNL     1      22.534  14.039 -16.806  1.00  0.00     0.293 HD
ENDBRANCH   7  43
TORSDOF 11
ENDMDL
MODEL 3
REMARK VINA RESULT:    68.253      2.405      8.445
REMARK INTER + INTRA:          99.339
REMARK INTER:                  89.369
REMARK INTRA:                   9.970
REMARK UNBOUND:                -0.834
REMARK SMILES Cc1cc2c(C(C)C)c(O)c(O)c(C=O)c2c(O)c1-c1c(C)cc2c(C(C)C)c(O)c(O)c(C=O)c2c1O
REMARK SMILES IDX 1 1 2 2 3 3 4 4 16 5 13 6 11 7 9 8 5 9 17 10 19 11 20 12
REMARK SMILES IDX 37 13 21 14 36 15 23 16 22 17 24 18 33 19 25 20 31 21 29 22
REMARK SMILES IDX 38 23 34 25 35 26 26 27 27 28 28 29 32 30 30 32 18 34 6 36
REMARK SMILES IDX 7 37 8 38 14 39 15 40 10 41 12 43
REMARK H PARENT 38 24 32 31 30 33 18 35 10 42 12 44
REMARK Flexibility Score: inf
ROOT
ATOM      1  C   UNL     1      14.665  10.404 -14.085  1.00  0.00     0.045 C 
ATOM      2  C   UNL     1      14.330  11.861 -13.868  1.00  0.00    -0.039 A 
ATOM      3  C   UNL     1      13.040  12.216 -13.471  1.00  0.00     0.013 A 
ATOM      4  C   UNL     1      12.664  13.555 -13.246  1.00  0.00    -0.006 A 
ATOM      5  C   UNL     1      13.640  14.580 -13.452  1.00  0.00     0.039 A 
ATOM      6  C   UNL     1      13.283  15.937 -13.198  1.00  0.00     0.072 A 
ATOM      7  C   UNL     1      11.948  16.269 -12.904  1.00  0.00     0.169 A 
ATOM      8  C   UNL     1      10.986  15.267 -12.750  1.00  0.00     0.162 A 
ATOM      9  C   UNL     1      11.333  13.900 -12.840  1.00  0.00     0.008 A 
ATOM     10  C   UNL     1      14.931  14.220 -13.943  1.00  0.00     0.132 A 
ATOM     11  C   UNL     1      15.279  12.864 -14.111  1.00  0.00     0.031 A 
ENDROOT
BRANCH  11  12
ATOM     12  C   UNL     1      16.643  12.493 -14.574  1.00  0.00     0.031 A 
ATOM     13  C   UNL     1      17.182  11.228 -14.256  1.00  0.00     0.132 A 
ATOM     14  C   UNL     1      17.382  13.398 -15.352  1.00  0.00    -0.039 A 
ATOM     15  C   UNL     1      18.475  10.854 -14.732  1.00  0.00     0.039 A 
ATOM     16  C   UNL     1      18.684  13.073 -15.733  1.00  0.00     0.013 A 
ATOM     17  C   UNL     1      16.800  14.730 -15.760  1.00  0.00     0.045 C 
ATOM     18  C   UNL     1      19.276  11.841 -15.383  1.00  0.00    -0.006 A 
ATOM     19  C   UNL     1      19.001   9.537 -14.573  1.00  0.00     0.072 A 
ATOM     20  C   UNL     1      20.642  11.563 -15.696  1.00  0.00     0.008 A 
ATOM     21  C   UNL     1      20.283   9.227 -15.073  1.00  0.00     0.169 A 
ATOM     22  C   UNL     1      21.093  10.229 -15.621  1.00  0.00     0.162 A 
BRANCH  13  23
ATOM     23  O   UNL     1      16.443  10.353 -13.452  1.00  0.00    -0.507 OA
ATOM     24  H   UNL     1      16.657  10.159 -12.482  1.00  0.00     0.293 HD
ENDBRANCH  13  23
BRANCH  19  25
ATOM     25  C   UNL     1      18.202   8.445 -13.979  1.00  0.00     0.264 C 
ATOM     26  O   UNL     1      17.615   8.608 -12.876  1.00  0.00    -0.298 OA
ENDBRANCH  19  25
BRANCH  20  27
ATOM     27  C   UNL     1      21.613  12.677 -16.124  1.00  0.00     0.017 C 
ATOM     28  C   UNL     1      22.969  12.520 -15.429  1.00  0.00     0.012 C 
ATOM     29  C   UNL     1      21.048  14.097 -15.934  1.00  0.00     0.012 C 
ENDBRANCH  20  27
BRANCH  21  30
ATOM     30  O   UNL     1      20.780   7.919 -15.061  1.00  0.00    -0.504 OA
ATOM     31  H   UNL     1      20.705   7.292 -14.271  1.00  0.00     0.293 HD
ENDBRANCH  21  30
BRANCH  22  32
ATOM     32  O   UNL     1      22.353   9.891 -16.122  1.00  0.00    -0.504 OA
ATOM     33  H   UNL     1      23.213  10.288 -15.768  1.00  0.00     0.293 HD
ENDBRANCH  22  32
ENDBRANCH  11  12
BRANCH  10  34
ATOM     34  O   UNL     1      15.851  15.210 -14.305  1.00  0.00    -0.507 OA
ATOM     35  H   UNL     1      15.635  16.198 -14.339  1.00  0.00     0.293 HD
ENDBRANCH  10  34
BRANCH   9  36
ATOM     36  C   UNL     1      10.237  12.866 -12.508  1.00  0.00     0.017 C 
ATOM     37  C   UNL     1       9.955  11.922 -13.686  1.00  0.00     0.012 C 
ATOM     38  C   UNL     1      10.450  12.125 -11.171  1.00  0.00     0.012 C 
ENDBRANCH   9  36
BRANCH   6  39
ATOM     39  C   UNL     1      14.283  17.025 -13.164  1.00  0.00     0.264 C 
ATOM     40  O   UNL     1      14.564  17.597 -12.077  1.00  0.00    -0.298 OA
ENDBRANCH   6  39
BRANCH   8  41
ATOM     41  O   UNL     1       9.661  15.633 -12.484  1.00  0.00    -0.504 OA
ATOM     42  H   UNL     1       9.166  15.351 -11.647  1.00  0.00     0.293 HD
ENDBRANCH   8  41
BRANCH   7  43
ATOM     43  O   UNL     1      11.546  17.598 -12.728  1.00  0.00    -0.504 OA
ATOM     44  H   UNL     1      10.583  17.909 -12.755  1.00  0.00     0.293 HD
ENDBRANCH   7  43
TORSDOF 11
ENDMDL
MODEL 4
REMARK VINA RESULT:    69.003      3.180      5.031
REMARK INTER + INTRA:         100.439
REMARK INTER:                  99.925
REMARK INTRA:                   0.514
REMARK UNBOUND:                -0.834
REMARK SMILES Cc1cc2c(C(C)C)c(O)c(O)c(C=O)c2c(O)c1-c1c(C)cc2c(C(C)C)c(O)c(O)c(C=O)c2c1O
REMARK SMILES IDX 1 1 2 2 3 3 4 4 16 5 13 6 11 7 9 8 5 9 17 10 19 11 20 12
REMARK SMILES IDX 37 13 21 14 36 15 23 16 22 17 24 18 33 19 25 20 31 21 29 22
REMARK SMILES IDX 38 23 34 25 35 26 26 27 27 28 28 29 32 30 30 32 18 34 6 36
REMARK SMILES IDX 7 37 8 38 14 39 15 40 10 41 12 43
REMARK H PARENT 38 24 32 31 30 33 18 35 10 42 12 44
REMARK Flexibility Score: inf
ROOT
ATOM      1  C   UNL     1      13.758  11.919 -11.502  1.00  0.00     0.045 C 
ATOM      2  C   UNL     1      15.210  11.763 -11.887  1.00  0.00    -0.039 A 
ATOM      3  C   UNL     1      15.539  11.101 -13.070  1.00  0.00     0.013 A 
ATOM      4  C   UNL     1      16.874  10.927 -13.489  1.00  0.00    -0.006 A 
ATOM      5  C   UNL     1      17.920  11.433 -12.656  1.00  0.00     0.039 A 
ATOM      6  C   UNL     1      19.274  11.292 -13.081  1.00  0.00     0.072 A 
ATOM      7  C   UNL     1      19.575  10.528 -14.223  1.00  0.00     0.169 A 
ATOM      8  C   UNL     1      18.550   9.994 -15.010  1.00  0.00     0.162 A 
ATOM      9  C   UNL     1      17.192  10.243 -14.708  1.00  0.00     0.008 A 
ATOM     10  C   UNL     1      17.582  12.030 -11.404  1.00  0.00     0.132 A 
ATOM     11  C   UNL     1      16.233  12.225 -11.046  1.00  0.00     0.031 A 
ENDROOT
BRANCH  11  12
ATOM     12  C   UNL     1      15.888  12.894  -9.763  1.00  0.00     0.031 A 
ATOM     13  C   UNL     1      16.025  14.293  -9.631  1.00  0.00     0.132 A 
ATOM     14  C   UNL     1      15.400  12.131  -8.690  1.00  0.00    -0.039 A 
ATOM     15  C   UNL     1      15.659  14.942  -8.414  1.00  0.00     0.039 A 
ATOM     16  C   UNL     1      15.136  12.750  -7.469  1.00  0.00     0.013 A 
ATOM     17  C   UNL     1      15.182  10.643  -8.830  1.00  0.00     0.045 C 
ATOM     18  C   UNL     1      15.317  14.138  -7.285  1.00  0.00    -0.006 A 
ATOM     19  C   UNL     1      15.628  16.363  -8.280  1.00  0.00     0.072 A 
ATOM     20  C   UNL     1      15.137  14.741  -6.003  1.00  0.00     0.008 A 
ATOM     21  C   UNL     1      15.249  16.945  -7.052  1.00  0.00     0.169 A 
ATOM     22  C   UNL     1      15.013  16.145  -5.929  1.00  0.00     0.162 A 
BRANCH  13  23
ATOM     23  O   UNL     1      16.544  15.032 -10.700  1.00  0.00    -0.507 OA
ATOM     24  H   UNL     1      16.095  15.109 -11.604  1.00  0.00     0.293 HD
ENDBRANCH  13  23
BRANCH  19  25
ATOM     25  C   UNL     1      15.895  17.260  -9.424  1.00  0.00     0.264 C 
ATOM     26  O   UNL     1      17.018  17.254  -9.994  1.00  0.00    -0.298 OA
ENDBRANCH  19  25
BRANCH  20  27
ATOM     27  C   UNL     1      15.060  13.898  -4.718  1.00  0.00     0.017 C 
ATOM     28  C   UNL     1      13.648  13.345  -4.509  1.00  0.00     0.012 C 
ATOM     29  C   UNL     1      15.564  14.636  -3.463  1.00  0.00     0.012 C 
ENDBRANCH  20  27
BRANCH  21  30
ATOM     30  O   UNL     1      15.075  18.327  -6.918  1.00  0.00    -0.504 OA
ATOM     31  H   UNL     1      15.612  18.908  -6.288  1.00  0.00     0.293 HD
ENDBRANCH  21  30
BRANCH  22  32
ATOM     32  O   UNL     1      14.624  16.747  -4.730  1.00  0.00    -0.504 OA
ATOM     33  H   UNL     1      13.725  16.583  -4.295  1.00  0.00     0.293 HD
ENDBRANCH  22  32
ENDBRANCH  11  12
BRANCH  10  34
ATOM     34  O   UNL     1      18.587  12.390 -10.498  1.00  0.00    -0.507 OA
ATOM     35  H   UNL     1      18.984  11.758  -9.814  1.00  0.00     0.293 HD
ENDBRANCH  10  34
BRANCH   9  36
ATOM     36  C   UNL     1      16.137   9.739 -15.714  1.00  0.00     0.017 C 
ATOM     37  C   UNL     1      15.508   8.408 -15.278  1.00  0.00     0.012 C 
ATOM     38  C   UNL     1      15.095  10.801 -16.124  1.00  0.00     0.012 C 
ENDBRANCH   9  36
BRANCH   6  39
ATOM     39  C   UNL     1      20.392  11.980 -12.403  1.00  0.00     0.264 C 
ATOM     40  O   UNL     1      20.735  13.140 -12.758  1.00  0.00    -0.298 OA
ENDBRANCH   6  39
BRANCH   8  41
ATOM     41  O   UNL     1      18.885   9.215 -16.124  1.00  0.00    -0.504 OA
ATOM     42  H   UNL     1      18.229   8.998 -16.864  1.00  0.00     0.293 HD
ENDBRANCH   8  41
BRANCH   7  43
ATOM     43  O   UNL     1      20.897  10.301 -14.624  1.00  0.00    -0.504 OA
ATOM     44  H   UNL     1      21.704  10.723 -14.185  1.00  0.00     0.293 HD
ENDBRANCH   7  43
TORSDOF 11
ENDMDL
