MODEL 1
REMARK VINA RESULT:    -3.929      0.000      0.000
REMARK INTER + INTRA:          -5.069
REMARK INTER:                  -4.848
REMARK INTRA:                  -0.221
REMARK UNBOUND:                -0.221
REMARK SMILES CCCCC=CC(C)=O
REMARK SMILES IDX 4 1 3 2 2 3 1 4 5 5 6 6 7 7 9 8 8 9
REMARK H PARENT
REMARK Flexibility Score: inf
ROOT
ATOM      1  C   UNL     1     -43.968  26.590  24.644  1.00  0.00     0.027 C 
ENDROOT
BRANCH   1   2
ATOM      2  C   UNL     1     -44.539  25.829  23.442  1.00  0.00     0.004 C 
BRANCH   2   3
ATOM      3  C   UNL     1     -44.767  26.745  22.231  1.00  0.00    -0.003 C 
ATOM      4  C   UNL     1     -44.422  26.030  20.928  1.00  0.00     0.004 C 
ENDBRANCH   2   3
ENDBRANCH   1   2
BRANCH   1   5
ATOM      5  C   UNL     1     -44.297  28.056  24.576  1.00  0.00    -0.023 C 
ATOM      6  C   UNL     1     -43.515  28.977  25.150  1.00  0.00     0.042 C 
BRANCH   6   7
ATOM      7  C   UNL     1     -43.781  30.428  25.076  1.00  0.00     0.152 C 
ATOM      8  O   UNL     1     -43.580  31.133  26.101  1.00  0.00    -0.295 OA
ATOM      9  C   UNL     1     -44.282  31.090  23.827  1.00  0.00     0.093 C 
ENDBRANCH   6   7
ENDBRANCH   1   5
TORSDOF 4
ENDMDL
MODEL 2
REMARK VINA RESULT:    -3.759     12.158     13.287
REMARK INTER + INTRA:          -4.859
REMARK INTER:                  -4.702
REMARK INTRA:                  -0.157
REMARK UNBOUND:                -0.221
REMARK SMILES CCCCC=CC(C)=O
REMARK SMILES IDX 4 1 3 2 2 3 1 4 5 5 6 6 7 7 9 8 8 9
REMARK H PARENT
REMARK Flexibility Score: inf
ROOT
ATOM      1  C   UNL     1     -34.437  26.193  30.435  1.00  0.00     0.027 C 
ENDROOT
BRANCH   1   2
ATOM      2  C   UNL     1     -35.826  25.852  29.882  1.00  0.00     0.004 C 
BRANCH   2   3
ATOM      3  C   UNL     1     -36.360  26.946  28.945  1.00  0.00    -0.003 C 
ATOM      4  C   UNL     1     -35.773  28.309  29.299  1.00  0.00     0.004 C 
ENDBRANCH   2   3
ENDBRANCH   1   2
BRANCH   1   5
ATOM      5  C   UNL     1     -33.512  25.009  30.370  1.00  0.00    -0.023 C 
ATOM      6  C   UNL     1     -32.192  25.141  30.553  1.00  0.00     0.042 C 
BRANCH   6   7
ATOM      7  C   UNL     1     -31.254  24.001  30.535  1.00  0.00     0.152 C 
ATOM      8  O   UNL     1     -30.769  23.600  31.627  1.00  0.00    -0.295 OA
ATOM      9  C   UNL     1     -30.859  23.305  29.266  1.00  0.00     0.093 C 
ENDBRANCH   6   7
ENDBRANCH   1   5
TORSDOF 4
ENDMDL
MODEL 3
REMARK VINA RESULT:    -3.556     13.822     14.555
REMARK INTER + INTRA:          -4.609
REMARK INTER:                  -4.463
REMARK INTRA:                  -0.146
REMARK UNBOUND:                -0.221
REMARK SMILES CCCCC=CC(C)=O
REMARK SMILES IDX 4 1 3 2 2 3 1 4 5 5 6 6 7 7 9 8 8 9
REMARK H PARENT
REMARK Flexibility Score: inf
ROOT
ATOM      1  C   UNL     1     -30.608  23.100  28.758  1.00  0.00     0.027 C 
ENDROOT
BRANCH   1   2
ATOM      2  C   UNL     1     -30.819  21.747  28.067  1.00  0.00     0.004 C 
BRANCH   2   3
ATOM      3  C   UNL     1     -29.750  21.469  27.000  1.00  0.00    -0.003 C 
ATOM      4  C   UNL     1     -29.053  22.756  26.571  1.00  0.00     0.004 C 
ENDBRANCH   2   3
ENDBRANCH   1   2
BRANCH   1   5
ATOM      5  C   UNL     1     -31.758  23.443  29.664  1.00  0.00    -0.023 C 
ATOM      6  C   UNL     1     -31.956  24.691  30.103  1.00  0.00     0.042 C 
BRANCH   6   7
ATOM      7  C   UNL     1     -33.093  25.078  30.963  1.00  0.00     0.152 C 
ATOM      8  O   UNL     1     -32.996  24.904  32.207  1.00  0.00    -0.295 OA
ATOM      9  C   UNL     1     -34.355  25.669  30.409  1.00  0.00     0.093 C 
ENDBRANCH   6   7
ENDBRANCH   1   5
TORSDOF 4
ENDMDL
MODEL 4
REMARK VINA RESULT:    -3.556     14.509     15.605
REMARK INTER + INTRA:          -4.608
REMARK INTER:                  -4.442
REMARK INTRA:                  -0.166
REMARK UNBOUND:                -0.221
REMARK SMILES CCCCC=CC(C)=O
REMARK SMILES IDX 4 1 3 2 2 3 1 4 5 5 6 6 7 7 9 8 8 9
REMARK H PARENT
REMARK Flexibility Score: inf
ROOT
ATOM      1  C   UNL     1     -32.000  23.015  29.830  1.00  0.00     0.027 C 
ENDROOT
BRANCH   1   2
ATOM      2  C   UNL     1     -31.629  24.503  29.820  1.00  0.00     0.004 C 
BRANCH   2   3
ATOM      3  C   UNL     1     -32.436  25.309  30.848  1.00  0.00    -0.003 C 
ATOM      4  C   UNL     1     -33.908  25.385  30.454  1.00  0.00     0.004 C 
ENDBRANCH   2   3
ENDBRANCH   1   2
BRANCH   1   5
ATOM      5  C   UNL     1     -31.230  22.247  28.792  1.00  0.00    -0.023 C 
ATOM      6  C   UNL     1     -30.141  22.759  28.207  1.00  0.00     0.042 C 
BRANCH   6   7
ATOM      7  C   UNL     1     -29.334  22.024  27.212  1.00  0.00     0.152 C 
ATOM      8  O   UNL     1     -29.387  20.765  27.202  1.00  0.00    -0.295 OA
ATOM      9  C   UNL     1     -28.456  22.721  26.215  1.00  0.00     0.093 C 
ENDBRANCH   6   7
ENDBRANCH   1   5
TORSDOF 4
ENDMDL
MODEL 5
REMARK VINA RESULT:    -3.430     13.935     15.115
REMARK INTER + INTRA:          -4.453
REMARK INTER:                  -4.236
REMARK INTRA:                  -0.218
REMARK UNBOUND:                -0.221
REMARK SMILES CCCCC=CC(C)=O
REMARK SMILES IDX 4 1 3 2 2 3 1 4 5 5 6 6 7 7 9 8 8 9
REMARK H PARENT
REMARK Flexibility Score: inf
ROOT
ATOM      1  C   UNL     1     -32.113  25.316  30.739  1.00  0.00     0.027 C 
ENDROOT
BRANCH   1   2
ATOM      2  C   UNL     1     -33.643  25.409  30.755  1.00  0.00     0.004 C 
BRANCH   2   3
ATOM      3  C   UNL     1     -34.224  25.176  32.158  1.00  0.00    -0.003 C 
ATOM      4  C   UNL     1     -34.693  23.734  32.326  1.00  0.00     0.004 C 
ENDBRANCH   2   3
ENDBRANCH   1   2
BRANCH   1   5
ATOM      5  C   UNL     1     -31.632  24.295  29.746  1.00  0.00    -0.023 C 
ATOM      6  C   UNL     1     -30.911  23.234  30.126  1.00  0.00     0.042 C 
BRANCH   6   7
ATOM      7  C   UNL     1     -30.451  22.188  29.190  1.00  0.00     0.152 C 
ATOM      8  O   UNL     1     -30.565  20.980  29.530  1.00  0.00    -0.295 OA
ATOM      9  C   UNL     1     -29.854  22.512  27.853  1.00  0.00     0.093 C 
ENDBRANCH   6   7
ENDBRANCH   1   5
TORSDOF 4
ENDMDL
MODEL 6
REMARK VINA RESULT:    -3.406     13.784     14.737
REMARK INTER + INTRA:          -4.423
REMARK INTER:                  -4.166
REMARK INTRA:                  -0.258
REMARK UNBOUND:                -0.221
REMARK SMILES CCCCC=CC(C)=O
REMARK SMILES IDX 4 1 3 2 2 3 1 4 5 5 6 6 7 7 9 8 8 9
REMARK H PARENT
REMARK Flexibility Score: inf
ROOT
ATOM      1  C   UNL     1     -31.005  23.612  29.294  1.00  0.00     0.027 C 
ENDROOT
BRANCH   1   2
ATOM      2  C   UNL     1     -30.726  22.240  29.920  1.00  0.00     0.004 C 
BRANCH   2   3
ATOM      3  C   UNL     1     -29.370  22.197  30.639  1.00  0.00    -0.003 C 
ATOM      4  C   UNL     1     -29.482  22.746  32.058  1.00  0.00     0.004 C 
ENDBRANCH   2   3
ENDBRANCH   1   2
BRANCH   1   5
ATOM      5  C   UNL     1     -32.370  24.122  29.665  1.00  0.00    -0.023 C 
ATOM      6  C   UNL     1     -32.559  24.903  30.735  1.00  0.00     0.042 C 
BRANCH   6   7
ATOM      7  C   UNL     1     -33.876  25.455  31.113  1.00  0.00     0.152 C 
ATOM      8  O   UNL     1     -34.139  25.605  32.336  1.00  0.00    -0.295 OA
ATOM      9  C   UNL     1     -34.908  25.842  30.096  1.00  0.00     0.093 C 
ENDBRANCH   6   7
ENDBRANCH   1   5
TORSDOF 4
ENDMDL
MODEL 7
REMARK VINA RESULT:    -3.393     14.821     15.898
REMARK INTER + INTRA:          -4.408
REMARK INTER:                  -4.154
REMARK INTRA:                  -0.254
REMARK UNBOUND:                -0.221
REMARK SMILES CCCCC=CC(C)=O
REMARK SMILES IDX 4 1 3 2 2 3 1 4 5 5 6 6 7 7 9 8 8 9
REMARK H PARENT
REMARK Flexibility Score: inf
ROOT
ATOM      1  C   UNL     1     -29.684  20.157  23.007  1.00  0.00     0.027 C 
ENDROOT
BRANCH   1   2
ATOM      2  C   UNL     1     -29.221  21.604  23.214  1.00  0.00     0.004 C 
BRANCH   2   3
ATOM      3  C   UNL     1     -28.235  21.735  24.385  1.00  0.00    -0.003 C 
ATOM      4  C   UNL     1     -28.956  22.127  25.671  1.00  0.00     0.004 C 
ENDBRANCH   2   3
ENDBRANCH   1   2
BRANCH   1   5
ATOM      5  C   UNL     1     -31.162  20.012  23.239  1.00  0.00    -0.023 C 
ATOM      6  C   UNL     1     -31.650  19.597  24.414  1.00  0.00     0.042 C 
BRANCH   6   7
ATOM      7  C   UNL     1     -33.094  19.476  24.696  1.00  0.00     0.152 C 
ATOM      8  O   UNL     1     -33.863  20.400  24.317  1.00  0.00    -0.295 OA
ATOM      9  C   UNL     1     -33.677  18.297  25.415  1.00  0.00     0.093 C 
ENDBRANCH   6   7
ENDBRANCH   1   5
TORSDOF 4
ENDMDL
MODEL 8
REMARK VINA RESULT:    -3.381     14.467     15.561
REMARK INTER + INTRA:          -4.393
REMARK INTER:                  -4.197
REMARK INTRA:                  -0.195
REMARK UNBOUND:                -0.221
REMARK SMILES CCCCC=CC(C)=O
REMARK SMILES IDX 4 1 3 2 2 3 1 4 5 5 6 6 7 7 9 8 8 9
REMARK H PARENT
REMARK Flexibility Score: inf
ROOT
ATOM      1  C   UNL     1     -34.568  16.346  26.300  1.00  0.00     0.027 C 
ENDROOT
BRANCH   1   2
ATOM      2  C   UNL     1     -34.247  15.811  27.701  1.00  0.00     0.004 C 
BRANCH   2   3
ATOM      3  C   UNL     1     -33.428  14.513  27.651  1.00  0.00    -0.003 C 
ATOM      4  C   UNL     1     -33.295  14.000  26.221  1.00  0.00     0.004 C 
ENDBRANCH   2   3
ENDBRANCH   1   2
BRANCH   1   5
ATOM      5  C   UNL     1     -33.935  17.690  26.064  1.00  0.00    -0.023 C 
ATOM      6  C   UNL     1     -33.785  18.187  24.831  1.00  0.00     0.042 C 
BRANCH   6   7
ATOM      7  C   UNL     1     -33.204  19.517  24.557  1.00  0.00     0.152 C 
ATOM      8  O   UNL     1     -33.983  20.477  24.313  1.00  0.00    -0.295 OA
ATOM      9  C   UNL     1     -31.725  19.764  24.561  1.00  0.00     0.093 C 
ENDBRANCH   6   7
ENDBRANCH   1   5
TORSDOF 4
ENDMDL
MODEL 9
REMARK VINA RESULT:    -3.380     13.548     14.303
REMARK INTER + INTRA:          -4.392
REMARK INTER:                  -4.236
REMARK INTRA:                  -0.156
REMARK UNBOUND:                -0.221
REMARK SMILES CCCCC=CC(C)=O
REMARK SMILES IDX 4 1 3 2 2 3 1 4 5 5 6 6 7 7 9 8 8 9
REMARK H PARENT
REMARK Flexibility Score: inf
ROOT
ATOM      1  C   UNL     1     -31.611  24.680  29.795  1.00  0.00     0.027 C 
ENDROOT
BRANCH   1   2
ATOM      2  C   UNL     1     -31.673  23.209  29.368  1.00  0.00     0.004 C 
BRANCH   2   3
ATOM      3  C   UNL     1     -30.276  22.584  29.241  1.00  0.00    -0.003 C 
ATOM      4  C   UNL     1     -29.827  22.529  27.784  1.00  0.00     0.004 C 
ENDBRANCH   2   3
ENDBRANCH   1   2
BRANCH   1   5
ATOM      5  C   UNL     1     -32.759  25.042  30.696  1.00  0.00    -0.023 C 
ATOM      6  C   UNL     1     -33.364  24.127  31.462  1.00  0.00     0.042 C 
BRANCH   6   7
ATOM      7  C   UNL     1     -34.470  24.447  32.387  1.00  0.00     0.152 C 
ATOM      8  O   UNL     1     -35.605  23.947  32.167  1.00  0.00    -0.295 OA
ATOM      9  C   UNL     1     -34.289  25.342  33.577  1.00  0.00     0.093 C 
ENDBRANCH   6   7
ENDBRANCH   1   5
TORSDOF 4
ENDMDL
