MODEL 1
REMARK VINA RESULT:    -4.775      0.000      0.000
REMARK INTER + INTRA:          -7.483
REMARK INTER:                  -6.729
REMARK INTRA:                  -0.754
REMARK UNBOUND:                -0.754
REMARK SMILES CCCCCCCCC(=O)[O-]
REMARK SMILES IDX 6 1 7 2 8 3 9 4 10 5 11 6 5 7 4 8 3 9 2 10 1 11
REMARK H PARENT
REMARK Flexibility Score: inf
ROOT
ATOM      1  C   UNL     1      95.002  -2.712   7.827  1.00  0.00     0.000 C 
ENDROOT
BRANCH   1   2
ATOM      2  C   UNL     1      96.493  -2.955   7.546  1.00  0.00     0.006 C 
BRANCH   2   3
ATOM      3  C   UNL     1      96.770  -4.443   7.311  1.00  0.00     0.053 C 
BRANCH   3   4
ATOM      4  C   UNL     1      98.042  -4.626   6.546  1.00  0.00     0.041 C 
ATOM      5  O   UNL     1      98.521  -5.778   6.379  1.00  0.00    -0.550 OA
ATOM      6  O   UNL     1      98.674  -3.528   5.976  1.00  0.00    -0.550 OA
ENDBRANCH   3   4
ENDBRANCH   2   3
ENDBRANCH   1   2
BRANCH   1   7
ATOM      7  C   UNL     1      94.287  -3.964   8.362  1.00  0.00     0.000 C 
BRANCH   7   8
ATOM      8  C   UNL     1      94.091  -3.923   9.887  1.00  0.00    -0.000 C 
BRANCH   8   9
ATOM      9  C   UNL     1      95.017  -4.901  10.635  1.00  0.00    -0.000 C 
BRANCH   9  10
ATOM     10  C   UNL     1      96.388  -4.325  11.029  1.00  0.00    -0.003 C 
ATOM     11  C   UNL     1      96.342  -2.830  11.344  1.00  0.00     0.004 C 
ENDBRANCH   9  10
ENDBRANCH   8   9
ENDBRANCH   7   8
ENDBRANCH   1   7
TORSDOF 7
ENDMDL
MODEL 2
REMARK VINA RESULT:    -4.686     13.988     15.256
REMARK INTER + INTRA:          -7.357
REMARK INTER:                  -6.823
REMARK INTRA:                  -0.534
REMARK UNBOUND:                -0.754
REMARK SMILES CCCCCCCCC(=O)[O-]
REMARK SMILES IDX 6 1 7 2 8 3 9 4 10 5 11 6 5 7 4 8 3 9 2 10 1 11
REMARK H PARENT
REMARK Flexibility Score: inf
ROOT
ATOM      1  C   UNL     1      89.664  -8.192  -3.896  1.00  0.00     0.000 C 
ENDROOT
BRANCH   1   2
ATOM      2  C   UNL     1      90.114  -8.175  -5.365  1.00  0.00     0.006 C 
BRANCH   2   3
ATOM      3  C   UNL     1      89.808  -6.823  -6.015  1.00  0.00     0.053 C 
BRANCH   3   4
ATOM      4  C   UNL     1      88.376  -6.449  -5.800  1.00  0.00     0.041 C 
ATOM      5  O   UNL     1      87.456  -7.170  -6.268  1.00  0.00    -0.550 OA
ATOM      6  O   UNL     1      88.055  -5.332  -5.040  1.00  0.00    -0.550 OA
ENDBRANCH   3   4
ENDBRANCH   2   3
ENDBRANCH   1   2
BRANCH   1   7
ATOM      7  C   UNL     1      90.711  -8.820  -2.961  1.00  0.00     0.000 C 
BRANCH   7   8
ATOM      8  C   UNL     1      92.018  -9.173  -3.693  1.00  0.00    -0.000 C 
BRANCH   8   9
ATOM      9  C   UNL     1      93.272  -8.680  -2.947  1.00  0.00    -0.000 C 
BRANCH   9  10
ATOM     10  C   UNL     1      94.247  -7.845  -3.796  1.00  0.00    -0.003 C 
ATOM     11  C   UNL     1      93.892  -7.837  -5.282  1.00  0.00     0.004 C 
ENDBRANCH   9  10
ENDBRANCH   8   9
ENDBRANCH   7   8
ENDBRANCH   1   7
TORSDOF 7
ENDMDL
MODEL 3
REMARK VINA RESULT:    -4.681     13.341     14.643
REMARK INTER + INTRA:          -7.350
REMARK INTER:                  -6.894
REMARK INTRA:                  -0.457
REMARK UNBOUND:                -0.754
REMARK SMILES CCCCCCCCC(=O)[O-]
REMARK SMILES IDX 6 1 7 2 8 3 9 4 10 5 11 6 5 7 4 8 3 9 2 10 1 11
REMARK H PARENT
REMARK Flexibility Score: inf
ROOT
ATOM      1  C   UNL     1      90.776  -8.634  -3.016  1.00  0.00     0.000 C 
ENDROOT
BRANCH   1   2
ATOM      2  C   UNL     1      92.040  -9.191  -3.690  1.00  0.00     0.006 C 
BRANCH   2   3
ATOM      3  C   UNL     1      93.303  -8.595  -3.061  1.00  0.00     0.053 C 
BRANCH   3   4
ATOM      4  C   UNL     1      94.082  -7.825  -4.078  1.00  0.00     0.041 C 
ATOM      5  O   UNL     1      93.722  -7.823  -5.284  1.00  0.00    -0.550 OA
ATOM      6  O   UNL     1      95.180  -7.068  -3.687  1.00  0.00    -0.550 OA
ENDBRANCH   3   4
ENDBRANCH   2   3
ENDBRANCH   1   2
BRANCH   1   7
ATOM      7  C   UNL     1      89.652  -8.328  -4.020  1.00  0.00     0.000 C 
BRANCH   7   8
ATOM      8  C   UNL     1      90.186  -8.062  -5.438  1.00  0.00    -0.000 C 
BRANCH   8   9
ATOM      9  C   UNL     1      89.647  -6.753  -6.044  1.00  0.00    -0.000 C 
BRANCH   9  10
ATOM     10  C   UNL     1      88.280  -6.299  -5.501  1.00  0.00    -0.003 C 
ATOM     11  C   UNL     1      88.316  -4.904  -4.877  1.00  0.00     0.004 C 
ENDBRANCH   9  10
ENDBRANCH   8   9
ENDBRANCH   7   8
ENDBRANCH   1   7
TORSDOF 7
ENDMDL
MODEL 4
REMARK VINA RESULT:    -4.652     14.700     16.173
REMARK INTER + INTRA:          -7.310
REMARK INTER:                  -6.624
REMARK INTRA:                  -0.686
REMARK UNBOUND:                -0.754
REMARK SMILES CCCCCCCCC(=O)[O-]
REMARK SMILES IDX 6 1 7 2 8 3 9 4 10 5 11 6 5 7 4 8 3 9 2 10 1 11
REMARK H PARENT
REMARK Flexibility Score: inf
ROOT
ATOM      1  C   UNL     1      83.795  -2.664   2.926  1.00  0.00     0.000 C 
ENDROOT
BRANCH   1   2
ATOM      2  C   UNL     1      83.300  -1.291   2.444  1.00  0.00     0.006 C 
BRANCH   2   3
ATOM      3  C   UNL     1      83.918  -0.933   1.089  1.00  0.00     0.053 C 
BRANCH   3   4
ATOM      4  C   UNL     1      83.062   0.059   0.368  1.00  0.00     0.041 C 
ATOM      5  O   UNL     1      83.533   0.723  -0.592  1.00  0.00    -0.550 OA
ATOM      6  O   UNL     1      81.728   0.215   0.724  1.00  0.00    -0.550 OA
ENDBRANCH   3   4
ENDBRANCH   2   3
ENDBRANCH   1   2
BRANCH   1   7
ATOM      7  C   UNL     1      82.723  -3.759   2.800  1.00  0.00     0.000 C 
BRANCH   7   8
ATOM      8  C   UNL     1      81.293  -3.197   2.882  1.00  0.00    -0.000 C 
BRANCH   8   9
ATOM      9  C   UNL     1      80.598  -3.127   1.510  1.00  0.00    -0.000 C 
BRANCH   9  10
ATOM     10  C   UNL     1      81.307  -3.898   0.382  1.00  0.00    -0.003 C 
ATOM     11  C   UNL     1      81.590  -3.035  -0.847  1.00  0.00     0.004 C 
ENDBRANCH   9  10
ENDBRANCH   8   9
ENDBRANCH   7   8
ENDBRANCH   1   7
TORSDOF 7
ENDMDL
MODEL 5
REMARK VINA RESULT:    -4.650     14.878     16.330
REMARK INTER + INTRA:          -7.307
REMARK INTER:                  -6.561
REMARK INTRA:                  -0.747
REMARK UNBOUND:                -0.754
REMARK SMILES CCCCCCCCC(=O)[O-]
REMARK SMILES IDX 6 1 7 2 8 3 9 4 10 5 11 6 5 7 4 8 3 9 2 10 1 11
REMARK H PARENT
REMARK Flexibility Score: inf
ROOT
ATOM      1  C   UNL     1      84.305  -1.850   1.546  1.00  0.00     0.000 C 
ENDROOT
BRANCH   1   2
ATOM      2  C   UNL     1      83.537  -0.734   0.821  1.00  0.00     0.006 C 
BRANCH   2   3
ATOM      3  C   UNL     1      82.607   0.007   1.786  1.00  0.00     0.053 C 
BRANCH   3   4
ATOM      4  C   UNL     1      81.961   1.169   1.103  1.00  0.00     0.041 C 
ATOM      5  O   UNL     1      81.296   2.006   1.769  1.00  0.00    -0.550 OA
ATOM      6  O   UNL     1      82.132   1.357  -0.262  1.00  0.00    -0.550 OA
ENDBRANCH   3   4
ENDBRANCH   2   3
ENDBRANCH   1   2
BRANCH   1   7
ATOM      7  C   UNL     1      83.601  -2.319   2.830  1.00  0.00     0.000 C 
BRANCH   7   8
ATOM      8  C   UNL     1      82.843  -3.643   2.637  1.00  0.00    -0.000 C 
BRANCH   8   9
ATOM      9  C   UNL     1      81.315  -3.479   2.744  1.00  0.00    -0.000 C 
BRANCH   9  10
ATOM     10  C   UNL     1      80.610  -3.080   1.436  1.00  0.00    -0.003 C 
ATOM     11  C   UNL     1      81.286  -3.654   0.192  1.00  0.00     0.004 C 
ENDBRANCH   9  10
ENDBRANCH   8   9
ENDBRANCH   7   8
ENDBRANCH   1   7
TORSDOF 7
ENDMDL
MODEL 6
REMARK VINA RESULT:    -4.638     14.598     15.901
REMARK INTER + INTRA:          -7.290
REMARK INTER:                  -6.620
REMARK INTRA:                  -0.670
REMARK UNBOUND:                -0.754
REMARK SMILES CCCCCCCCC(=O)[O-]
REMARK SMILES IDX 6 1 7 2 8 3 9 4 10 5 11 6 5 7 4 8 3 9 2 10 1 11
REMARK H PARENT
REMARK Flexibility Score: inf
ROOT
ATOM      1  C   UNL     1      81.808  -2.358   0.026  1.00  0.00     0.000 C 
ENDROOT
BRANCH   1   2
ATOM      2  C   UNL     1      81.842  -0.994   0.732  1.00  0.00     0.006 C 
BRANCH   2   3
ATOM      3  C   UNL     1      83.217  -0.336   0.584  1.00  0.00     0.053 C 
BRANCH   3   4
ATOM      4  C   UNL     1      83.200   0.670  -0.523  1.00  0.00     0.041 C 
ATOM      5  O   UNL     1      82.121   1.224  -0.859  1.00  0.00    -0.550 OA
ATOM      6  O   UNL     1      84.385   1.034  -1.150  1.00  0.00    -0.550 OA
ENDBRANCH   3   4
ENDBRANCH   2   3
ENDBRANCH   1   2
BRANCH   1   7
ATOM      7  C   UNL     1      80.996  -3.409   0.802  1.00  0.00     0.000 C 
BRANCH   7   8
ATOM      8  C   UNL     1      81.393  -3.482   2.286  1.00  0.00    -0.000 C 
BRANCH   8   9
ATOM      9  C   UNL     1      82.833  -3.987   2.496  1.00  0.00    -0.000 C 
BRANCH   9  10
ATOM     10  C   UNL     1      83.710  -3.096   3.393  1.00  0.00    -0.003 C 
ATOM     11  C   UNL     1      85.049  -2.734   2.751  1.00  0.00     0.004 C 
ENDBRANCH   9  10
ENDBRANCH   8   9
ENDBRANCH   7   8
ENDBRANCH   1   7
TORSDOF 7
ENDMDL
MODEL 7
REMARK VINA RESULT:    -4.636      1.203      2.723
REMARK INTER + INTRA:          -7.287
REMARK INTER:                  -6.559
REMARK INTRA:                  -0.727
REMARK UNBOUND:                -0.754
REMARK SMILES CCCCCCCCC(=O)[O-]
REMARK SMILES IDX 6 1 7 2 8 3 9 4 10 5 11 6 5 7 4 8 3 9 2 10 1 11
REMARK H PARENT
REMARK Flexibility Score: inf
ROOT
ATOM      1  C   UNL     1      96.741  -2.915  10.676  1.00  0.00     0.000 C 
ENDROOT
BRANCH   1   2
ATOM      2  C   UNL     1      97.463  -2.568   9.365  1.00  0.00     0.006 C 
BRANCH   2   3
ATOM      3  C   UNL     1      97.422  -3.748   8.389  1.00  0.00     0.053 C 
BRANCH   3   4
ATOM      4  C   UNL     1      97.767  -3.296   7.006  1.00  0.00     0.041 C 
ATOM      5  O   UNL     1      97.476  -2.131   6.629  1.00  0.00    -0.550 OA
ATOM      6  O   UNL     1      98.454  -4.146   6.148  1.00  0.00    -0.550 OA
ENDBRANCH   3   4
ENDBRANCH   2   3
ENDBRANCH   1   2
BRANCH   1   7
ATOM      7  C   UNL     1      96.534  -4.427  10.859  1.00  0.00     0.000 C 
BRANCH   7   8
ATOM      8  C   UNL     1      95.047  -4.819  10.889  1.00  0.00    -0.000 C 
BRANCH   8   9
ATOM      9  C   UNL     1      94.127  -3.719  10.326  1.00  0.00    -0.000 C 
BRANCH   9  10
ATOM     10  C   UNL     1      93.553  -4.005   8.926  1.00  0.00    -0.003 C 
ATOM     11  C   UNL     1      93.880  -2.911   7.911  1.00  0.00     0.004 C 
ENDBRANCH   9  10
ENDBRANCH   8   9
ENDBRANCH   7   8
ENDBRANCH   1   7
TORSDOF 7
ENDMDL
MODEL 8
REMARK VINA RESULT:    -4.627     13.185     14.687
REMARK INTER + INTRA:          -7.274
REMARK INTER:                  -6.578
REMARK INTRA:                  -0.696
REMARK UNBOUND:                -0.754
REMARK SMILES CCCCCCCCC(=O)[O-]
REMARK SMILES IDX 6 1 7 2 8 3 9 4 10 5 11 6 5 7 4 8 3 9 2 10 1 11
REMARK H PARENT
REMARK Flexibility Score: inf
ROOT
ATOM      1  C   UNL     1      83.227  -3.788   2.667  1.00  0.00     0.000 C 
ENDROOT
BRANCH   1   2
ATOM      2  C   UNL     1      84.119  -2.593   3.041  1.00  0.00     0.006 C 
BRANCH   2   3
ATOM      3  C   UNL     1      85.104  -2.272   1.912  1.00  0.00     0.053 C 
BRANCH   3   4
ATOM      4  C   UNL     1      86.513  -2.444   2.381  1.00  0.00     0.041 C 
ATOM      5  O   UNL     1      87.470  -2.323   1.571  1.00  0.00    -0.550 OA
ATOM      6  O   UNL     1      86.775  -2.691   3.723  1.00  0.00    -0.550 OA
ENDBRANCH   3   4
ENDBRANCH   2   3
ENDBRANCH   1   2
BRANCH   1   7
ATOM      7  C   UNL     1      81.756  -3.577   3.063  1.00  0.00     0.000 C 
BRANCH   7   8
ATOM      8  C   UNL     1      80.882  -3.146   1.874  1.00  0.00    -0.000 C 
BRANCH   8   9
ATOM      9  C   UNL     1      81.316  -3.796   0.546  1.00  0.00    -0.000 C 
BRANCH   9  10
ATOM     10  C   UNL     1      81.701  -2.805  -0.567  1.00  0.00    -0.003 C 
ATOM     11  C   UNL     1      82.065  -1.419  -0.036  1.00  0.00     0.004 C 
ENDBRANCH   9  10
ENDBRANCH   8   9
ENDBRANCH   7   8
ENDBRANCH   1   7
TORSDOF 7
ENDMDL
MODEL 9
REMARK VINA RESULT:    -4.555     15.785     16.981
REMARK INTER + INTRA:          -7.173
REMARK INTER:                  -6.709
REMARK INTRA:                  -0.464
REMARK UNBOUND:                -0.754
REMARK SMILES CCCCCCCCC(=O)[O-]
REMARK SMILES IDX 6 1 7 2 8 3 9 4 10 5 11 6 5 7 4 8 3 9 2 10 1 11
REMARK H PARENT
REMARK Flexibility Score: inf
ROOT
ATOM      1  C   UNL     1      81.857  -1.090   0.704  1.00  0.00     0.000 C 
ENDROOT
BRANCH   1   2
ATOM      2  C   UNL     1      81.820  -2.447  -0.016  1.00  0.00     0.006 C 
BRANCH   2   3
ATOM      3  C   UNL     1      80.998  -3.466   0.778  1.00  0.00     0.053 C 
BRANCH   3   4
ATOM      4  C   UNL     1      81.627  -3.725   2.110  1.00  0.00     0.041 C 
ATOM      5  O   UNL     1      82.782  -4.221   2.179  1.00  0.00    -0.550 OA
ATOM      6  O   UNL     1      80.959  -3.372   3.276  1.00  0.00    -0.550 OA
ENDBRANCH   3   4
ENDBRANCH   2   3
ENDBRANCH   1   2
BRANCH   1   7
ATOM      7  C   UNL     1      83.214  -0.382   0.567  1.00  0.00     0.000 C 
BRANCH   7   8
ATOM      8  C   UNL     1      83.181   0.763  -0.460  1.00  0.00    -0.000 C 
BRANCH   8   9
ATOM      9  C   UNL     1      81.879   1.583  -0.399  1.00  0.00    -0.000 C 
BRANCH   9  10
ATOM     10  C   UNL     1      81.987   2.919   0.359  1.00  0.00    -0.003 C 
ATOM     11  C   UNL     1      81.404   2.856   1.770  1.00  0.00     0.004 C 
ENDBRANCH   9  10
ENDBRANCH   8   9
ENDBRANCH   7   8
ENDBRANCH   1   7
TORSDOF 7
ENDMDL
