MODEL 1
REMARK VINA RESULT:     5.254      0.000      0.000
REMARK INTER + INTRA:           6.172
REMARK INTER:                   6.330
REMARK INTRA:                  -0.158
REMARK UNBOUND:                -0.158
REMARK SMILES O=c1c(O)c(-c2ccc(O)cc2O)oc2cc(O)cc(O)c12
REMARK SMILES IDX 5 1 3 2 2 3 1 4 22 5 20 6 19 7 17 8 16 9 15 10 14 11 6 12
REMARK SMILES IDX 8 13 7 14 9 15 11 16 12 17 10 18 13 20 4 22 21 24 18 26
REMARK H PARENT 10 19 13 21 4 23 21 25 18 27
REMARK Flexibility Score: inf
ROOT
ATOM      1  C   UNL     1       4.330   1.645  15.427  1.00  0.00     0.184 A 
ATOM      2  C   UNL     1       5.147   0.775  14.685  1.00  0.00     0.208 A 
ATOM      3  C   UNL     1       5.906  -0.188  15.367  1.00  0.00     0.238 A 
ATOM      4  O   UNL     1       6.634  -0.982  14.712  1.00  0.00    -0.285 OA
ATOM      5  C   UNL     1       5.849  -0.250  16.775  1.00  0.00     0.111 A 
ATOM      6  C   UNL     1       6.585  -1.188  17.538  1.00  0.00     0.134 A 
ATOM      7  C   UNL     1       6.481  -1.180  18.937  1.00  0.00     0.093 A 
ATOM      8  C   UNL     1       5.658  -0.252  19.586  1.00  0.00     0.123 A 
ATOM      9  C   UNL     1       4.931   0.674  18.837  1.00  0.00     0.094 A 
ATOM     10  C   UNL     1       5.018   0.681  17.442  1.00  0.00     0.146 A 
ATOM     11  O   UNL     1       4.311   1.571  16.754  1.00  0.00    -0.451 OA
ENDROOT
BRANCH   1  12
ATOM     12  C   UNL     1       3.497   2.675  14.771  1.00  0.00     0.063 A 
ATOM     13  C   UNL     1       3.326   4.503  13.178  1.00  0.00     0.047 A 
ATOM     14  C   UNL     1       4.083   3.515  13.812  1.00  0.00     0.020 A 
ATOM     15  C   UNL     1       1.975   4.672  13.504  1.00  0.00     0.119 A 
ATOM     16  C   UNL     1       1.389   3.856  14.476  1.00  0.00     0.093 A 
ATOM     17  C   UNL     1       2.144   2.865  15.122  1.00  0.00     0.130 A 
BRANCH  15  18
ATOM     18  O   UNL     1       1.209   5.651  12.875  1.00  0.00    -0.508 OA
ATOM     19  H   UNL     1       0.458   5.408  12.239  1.00  0.00     0.293 HD
ENDBRANCH  15  18
BRANCH  17  20
ATOM     20  O   UNL     1       1.559   2.090  16.124  1.00  0.00    -0.507 OA
ATOM     21  H   UNL     1       0.950   1.311  15.905  1.00  0.00     0.293 HD
ENDBRANCH  17  20
ENDBRANCH   1  12
BRANCH   2  22
ATOM     22  O   UNL     1       5.216   0.892  13.294  1.00  0.00    -0.502 OA
ATOM     23  H   UNL     1       5.956   0.464  12.750  1.00  0.00     0.293 HD
ENDBRANCH   2  22
BRANCH   6  24
ATOM     24  O   UNL     1       7.414  -2.125  16.921  1.00  0.00    -0.507 OA
ATOM     25  H   UNL     1       8.016  -2.740  17.456  1.00  0.00     0.293 HD
ENDBRANCH   6  24
BRANCH   8  26
ATOM     26  O   UNL     1       5.556  -0.244  20.975  1.00  0.00    -0.508 OA
ATOM     27  H   UNL     1       5.586   0.620  21.504  1.00  0.00     0.293 HD
ENDBRANCH   8  26
TORSDOF 6
ENDMDL
MODEL 2
REMARK VINA RESULT:     5.566      2.612      5.406
REMARK INTER + INTRA:           6.547
REMARK INTER:                   6.858
REMARK INTRA:                  -0.311
REMARK UNBOUND:                -0.158
REMARK SMILES O=c1c(O)c(-c2ccc(O)cc2O)oc2cc(O)cc(O)c12
REMARK SMILES IDX 5 1 3 2 2 3 1 4 22 5 20 6 19 7 17 8 16 9 15 10 14 11 6 12
REMARK SMILES IDX 8 13 7 14 9 15 11 16 12 17 10 18 13 20 4 22 21 24 18 26
REMARK H PARENT 10 19 13 21 4 23 21 25 18 27
REMARK Flexibility Score: inf
ROOT
ATOM      1  C   UNL     1       3.658   1.255  16.920  1.00  0.00     0.184 A 
ATOM      2  C   UNL     1       4.055   0.005  16.416  1.00  0.00     0.208 A 
ATOM      3  C   UNL     1       4.855  -0.038  15.264  1.00  0.00     0.238 A 
ATOM      4  O   UNL     1       5.227  -1.153  14.807  1.00  0.00    -0.285 OA
ATOM      5  C   UNL     1       5.226   1.166  14.629  1.00  0.00     0.111 A 
ATOM      6  C   UNL     1       6.027   1.210  13.463  1.00  0.00     0.134 A 
ATOM      7  C   UNL     1       6.346   2.448  12.885  1.00  0.00     0.093 A 
ATOM      8  C   UNL     1       5.878   3.641  13.450  1.00  0.00     0.123 A 
ATOM      9  C   UNL     1       5.088   3.601  14.600  1.00  0.00     0.094 A 
ATOM     10  C   UNL     1       4.761   2.378  15.192  1.00  0.00     0.146 A 
ATOM     11  O   UNL     1       4.012   2.371  16.289  1.00  0.00    -0.451 OA
ENDROOT
BRANCH   1  12
ATOM     12  C   UNL     1       2.824   1.372  18.135  1.00  0.00     0.063 A 
ATOM     13  C   UNL     1       0.705   1.999  19.148  1.00  0.00     0.047 A 
ATOM     14  C   UNL     1       1.517   1.870  18.019  1.00  0.00     0.020 A 
ATOM     15  C   UNL     1       1.193   1.644  20.411  1.00  0.00     0.119 A 
ATOM     16  C   UNL     1       2.503   1.170  20.540  1.00  0.00     0.093 A 
ATOM     17  C   UNL     1       3.327   1.043  19.411  1.00  0.00     0.130 A 
BRANCH  15  18
ATOM     18  O   UNL     1       0.391   1.765  21.543  1.00  0.00    -0.508 OA
ATOM     19  H   UNL     1       0.023   0.950  22.020  1.00  0.00     0.293 HD
ENDBRANCH  15  18
BRANCH  17  20
ATOM     20  O   UNL     1       4.646   0.614  19.561  1.00  0.00    -0.507 OA
ATOM     21  H   UNL     1       5.359   1.217  19.955  1.00  0.00     0.293 HD
ENDBRANCH  17  20
ENDBRANCH   1  12
BRANCH   2  22
ATOM     22  O   UNL     1       3.633  -1.171  17.042  1.00  0.00    -0.502 OA
ATOM     23  H   UNL     1       3.402  -2.009  16.522  1.00  0.00     0.293 HD
ENDBRANCH   2  22
BRANCH   6  24
ATOM     24  O   UNL     1       6.508   0.039  12.876  1.00  0.00    -0.507 OA
ATOM     25  H   UNL     1       5.888  -0.713  12.599  1.00  0.00     0.293 HD
ENDBRANCH   6  24
BRANCH   8  26
ATOM     26  O   UNL     1       6.193   4.869  12.875  1.00  0.00    -0.508 OA
ATOM     27  H   UNL     1       5.619   5.278  12.146  1.00  0.00     0.293 HD
ENDBRANCH   8  26
TORSDOF 6
ENDMDL
MODEL 3
REMARK VINA RESULT:     5.653      1.861      6.775
REMARK INTER + INTRA:           6.652
REMARK INTER:                   6.839
REMARK INTRA:                  -0.187
REMARK UNBOUND:                -0.158
REMARK SMILES O=c1c(O)c(-c2ccc(O)cc2O)oc2cc(O)cc(O)c12
REMARK SMILES IDX 5 1 3 2 2 3 1 4 22 5 20 6 19 7 17 8 16 9 15 10 14 11 6 12
REMARK SMILES IDX 8 13 7 14 9 15 11 16 12 17 10 18 13 20 4 22 21 24 18 26
REMARK H PARENT 10 19 13 21 4 23 21 25 18 27
REMARK Flexibility Score: inf
ROOT
ATOM      1  C   UNL     1       4.294   0.164  16.958  1.00  0.00     0.184 A 
ATOM      2  C   UNL     1       3.203  -0.565  16.456  1.00  0.00     0.208 A 
ATOM      3  C   UNL     1       2.299   0.075  15.594  1.00  0.00     0.238 A 
ATOM      4  O   UNL     1       1.322  -0.570  15.128  1.00  0.00    -0.285 OA
ATOM      5  C   UNL     1       2.493   1.434  15.268  1.00  0.00     0.111 A 
ATOM      6  C   UNL     1       1.627   2.154  14.410  1.00  0.00     0.134 A 
ATOM      7  C   UNL     1       1.883   3.507  14.141  1.00  0.00     0.093 A 
ATOM      8  C   UNL     1       2.985   4.153  14.713  1.00  0.00     0.123 A 
ATOM      9  C   UNL     1       3.841   3.446  15.559  1.00  0.00     0.094 A 
ATOM     10  C   UNL     1       3.605   2.097  15.838  1.00  0.00     0.146 A 
ATOM     11  O   UNL     1       4.439   1.448  16.643  1.00  0.00    -0.451 OA
ENDROOT
BRANCH   1  12
ATOM     12  C   UNL     1       5.289  -0.452  17.861  1.00  0.00     0.063 A 
ATOM     13  C   UNL     1       6.449  -0.432  19.997  1.00  0.00     0.047 A 
ATOM     14  C   UNL     1       5.512   0.122  19.122  1.00  0.00     0.020 A 
ATOM     15  C   UNL     1       7.186  -1.561  19.618  1.00  0.00     0.119 A 
ATOM     16  C   UNL     1       6.988  -2.125  18.354  1.00  0.00     0.093 A 
ATOM     17  C   UNL     1       6.052  -1.571  17.466  1.00  0.00     0.130 A 
BRANCH  15  18
ATOM     18  O   UNL     1       8.120  -2.124  20.484  1.00  0.00    -0.508 OA
ATOM     19  H   UNL     1       8.900  -2.671  20.138  1.00  0.00     0.293 HD
ENDBRANCH  15  18
BRANCH  17  20
ATOM     20  O   UNL     1       5.900  -2.116  16.191  1.00  0.00    -0.507 OA
ATOM     21  H   UNL     1       5.244  -2.866  16.008  1.00  0.00     0.293 HD
ENDBRANCH  17  20
ENDBRANCH   1  12
BRANCH   2  22
ATOM     22  O   UNL     1       3.014  -1.897  16.834  1.00  0.00    -0.502 OA
ATOM     23  H   UNL     1       3.335  -2.672  16.267  1.00  0.00     0.293 HD
ENDBRANCH   2  22
BRANCH   6  24
ATOM     24  O   UNL     1       0.520   1.540  13.825  1.00  0.00    -0.507 OA
ATOM     25  H   UNL     1       0.395   1.510  12.820  1.00  0.00     0.293 HD
ENDBRANCH   6  24
BRANCH   8  26
ATOM     26  O   UNL     1       3.238   5.496  14.447  1.00  0.00    -0.508 OA
ATOM     27  H   UNL     1       3.466   5.818  13.513  1.00  0.00     0.293 HD
ENDBRANCH   8  26
TORSDOF 6
ENDMDL
MODEL 4
REMARK VINA RESULT:     5.960      1.568      3.495
REMARK INTER + INTRA:           7.021
REMARK INTER:                   6.859
REMARK INTRA:                   0.162
REMARK UNBOUND:                -0.158
REMARK SMILES O=c1c(O)c(-c2ccc(O)cc2O)oc2cc(O)cc(O)c12
REMARK SMILES IDX 5 1 3 2 2 3 1 4 22 5 20 6 19 7 17 8 16 9 15 10 14 11 6 12
REMARK SMILES IDX 8 13 7 14 9 15 11 16 12 17 10 18 13 20 4 22 21 24 18 26
REMARK H PARENT 10 19 13 21 4 23 21 25 18 27
REMARK Flexibility Score: inf
ROOT
ATOM      1  C   UNL     1       4.046   1.736  14.943  1.00  0.00     0.184 A 
ATOM      2  C   UNL     1       3.812   1.256  16.244  1.00  0.00     0.208 A 
ATOM      3  C   UNL     1       4.557   0.160  16.706  1.00  0.00     0.238 A 
ATOM      4  O   UNL     1       4.365  -0.273  17.874  1.00  0.00    -0.285 OA
ATOM      5  C   UNL     1       5.504  -0.446  15.854  1.00  0.00     0.111 A 
ATOM      6  C   UNL     1       6.292  -1.557  16.241  1.00  0.00     0.134 A 
ATOM      7  C   UNL     1       7.207  -2.109  15.333  1.00  0.00     0.093 A 
ATOM      8  C   UNL     1       7.348  -1.575  14.047  1.00  0.00     0.123 A 
ATOM      9  C   UNL     1       6.572  -0.480  13.662  1.00  0.00     0.094 A 
ATOM     10  C   UNL     1       5.656   0.087  14.553  1.00  0.00     0.146 A 
ATOM     11  O   UNL     1       4.935   1.131  14.161  1.00  0.00    -0.451 OA
ENDROOT
BRANCH   1  12
ATOM     12  C   UNL     1       3.305   2.892  14.398  1.00  0.00     0.063 A 
ATOM     13  C   UNL     1       1.251   4.191  14.314  1.00  0.00     0.047 A 
ATOM     14  C   UNL     1       1.982   3.110  14.813  1.00  0.00     0.020 A 
ATOM     15  C   UNL     1       1.830   5.061  13.382  1.00  0.00     0.119 A 
ATOM     16  C   UNL     1       3.139   4.837  12.944  1.00  0.00     0.093 A 
ATOM     17  C   UNL     1       3.878   3.751  13.437  1.00  0.00     0.130 A 
BRANCH  15  18
ATOM     18  O   UNL     1       1.112   6.144  12.879  1.00  0.00    -0.508 OA
ATOM     19  H   UNL     1       0.731   6.856  13.491  1.00  0.00     0.293 HD
ENDBRANCH  15  18
BRANCH  17  20
ATOM     20  O   UNL     1       5.166   3.513  12.956  1.00  0.00    -0.507 OA
ATOM     21  H   UNL     1       5.331   3.234  11.996  1.00  0.00     0.293 HD
ENDBRANCH  17  20
ENDBRANCH   1  12
BRANCH   2  22
ATOM     22  O   UNL     1       2.835   1.851  17.046  1.00  0.00    -0.502 OA
ATOM     23  H   UNL     1       1.951   2.175  16.673  1.00  0.00     0.293 HD
ENDBRANCH   2  22
BRANCH   6  24
ATOM     24  O   UNL     1       6.176  -2.112  17.516  1.00  0.00    -0.507 OA
ATOM     25  H   UNL     1       6.591  -1.674  18.329  1.00  0.00     0.293 HD
ENDBRANCH   6  24
BRANCH   8  26
ATOM     26  O   UNL     1       8.255  -2.125  13.145  1.00  0.00    -0.508 OA
ATOM     27  H   UNL     1       8.286  -3.122  12.964  1.00  0.00     0.293 HD
ENDBRANCH   8  26
TORSDOF 6
ENDMDL
MODEL 5
REMARK VINA RESULT:     6.140      1.955      6.696
REMARK INTER + INTRA:           7.239
REMARK INTER:                   7.566
REMARK INTRA:                  -0.327
REMARK UNBOUND:                -0.158
REMARK SMILES O=c1c(O)c(-c2ccc(O)cc2O)oc2cc(O)cc(O)c12
REMARK SMILES IDX 5 1 3 2 2 3 1 4 22 5 20 6 19 7 17 8 16 9 15 10 14 11 6 12
REMARK SMILES IDX 8 13 7 14 9 15 11 16 12 17 10 18 13 20 4 22 21 24 18 26
REMARK H PARENT 10 19 13 21 4 23 21 25 18 27
REMARK Flexibility Score: inf
ROOT
ATOM      1  C   UNL     1       4.294   0.077  16.933  1.00  0.00     0.184 A 
ATOM      2  C   UNL     1       3.260  -0.716  16.406  1.00  0.00     0.208 A 
ATOM      3  C   UNL     1       2.349  -0.135  15.511  1.00  0.00     0.238 A 
ATOM      4  O   UNL     1       1.423  -0.838  15.023  1.00  0.00    -0.285 OA
ATOM      5  C   UNL     1       2.477   1.230  15.175  1.00  0.00     0.111 A 
ATOM      6  C   UNL     1       1.599   1.892  14.284  1.00  0.00     0.134 A 
ATOM      7  C   UNL     1       1.788   3.255  14.008  1.00  0.00     0.093 A 
ATOM      8  C   UNL     1       2.835   3.966  14.606  1.00  0.00     0.123 A 
ATOM      9  C   UNL     1       3.703   3.316  15.484  1.00  0.00     0.094 A 
ATOM     10  C   UNL     1       3.533   1.958  15.772  1.00  0.00     0.146 A 
ATOM     11  O   UNL     1       4.377   1.364  16.608  1.00  0.00    -0.451 OA
ENDROOT
BRANCH   1  12
ATOM     12  C   UNL     1       5.293  -0.475  17.871  1.00  0.00     0.063 A 
ATOM     13  C   UNL     1       7.039  -2.104  18.325  1.00  0.00     0.047 A 
ATOM     14  C   UNL     1       6.089  -1.555  17.461  1.00  0.00     0.020 A 
ATOM     15  C   UNL     1       7.197  -1.588  19.617  1.00  0.00     0.119 A 
ATOM     16  C   UNL     1       6.391  -0.528  20.043  1.00  0.00     0.093 A 
ATOM     17  C   UNL     1       5.431   0.026  19.183  1.00  0.00     0.130 A 
BRANCH  15  18
ATOM     18  O   UNL     1       8.143  -2.125  20.486  1.00  0.00    -0.508 OA
ATOM     19  H   UNL     1       9.098  -2.295  20.190  1.00  0.00     0.293 HD
ENDBRANCH  15  18
BRANCH  17  20
ATOM     20  O   UNL     1       4.601   1.052  19.638  1.00  0.00    -0.507 OA
ATOM     21  H   UNL     1       4.943   1.998  19.756  1.00  0.00     0.293 HD
ENDBRANCH  17  20
ENDBRANCH   1  12
BRANCH   2  22
ATOM     22  O   UNL     1       3.133  -2.053  16.794  1.00  0.00    -0.502 OA
ATOM     23  H   UNL     1       2.297  -2.411  17.238  1.00  0.00     0.293 HD
ENDBRANCH   2  22
BRANCH   6  24
ATOM     24  O   UNL     1       0.546   1.211  13.673  1.00  0.00    -0.507 OA
ATOM     25  H   UNL     1       0.705   0.517  12.953  1.00  0.00     0.293 HD
ENDBRANCH   6  24
BRANCH   8  26
ATOM     26  O   UNL     1       3.021   5.318  14.332  1.00  0.00    -0.508 OA
ATOM     27  H   UNL     1       3.244   5.645  13.399  1.00  0.00     0.293 HD
ENDBRANCH   8  26
TORSDOF 6
ENDMDL
MODEL 6
REMARK VINA RESULT:     7.103      3.104      5.554
REMARK INTER + INTRA:           8.399
REMARK INTER:                   8.641
REMARK INTRA:                  -0.242
REMARK UNBOUND:                -0.158
REMARK SMILES O=c1c(O)c(-c2ccc(O)cc2O)oc2cc(O)cc(O)c12
REMARK SMILES IDX 5 1 3 2 2 3 1 4 22 5 20 6 19 7 17 8 16 9 15 10 14 11 6 12
REMARK SMILES IDX 8 13 7 14 9 15 11 16 12 17 10 18 13 20 4 22 21 24 18 26
REMARK H PARENT 10 19 13 21 4 23 21 25 18 27
REMARK Flexibility Score: inf
ROOT
ATOM      1  C   UNL     1       3.938  -0.000  15.520  1.00  0.00     0.184 A 
ATOM      2  C   UNL     1       2.654  -0.035  14.949  1.00  0.00     0.208 A 
ATOM      3  C   UNL     1       1.578   0.506  15.670  1.00  0.00     0.238 A 
ATOM      4  O   UNL     1       0.423   0.491  15.165  1.00  0.00    -0.285 OA
ATOM      5  C   UNL     1       1.802   1.051  16.951  1.00  0.00     0.111 A 
ATOM      6  C   UNL     1       0.772   1.611  17.744  1.00  0.00     0.134 A 
ATOM      7  C   UNL     1       1.074   2.126  19.014  1.00  0.00     0.093 A 
ATOM      8  C   UNL     1       2.384   2.089  19.505  1.00  0.00     0.123 A 
ATOM      9  C   UNL     1       3.403   1.538  18.726  1.00  0.00     0.094 A 
ATOM     10  C   UNL     1       3.123   1.021  17.458  1.00  0.00     0.146 A 
ATOM     11  O   UNL     1       4.113   0.507  16.736  1.00  0.00    -0.451 OA
ENDROOT
BRANCH   1  12
ATOM     12  C   UNL     1       5.117  -0.542  14.811  1.00  0.00     0.063 A 
ATOM     13  C   UNL     1       6.967  -2.118  14.759  1.00  0.00     0.047 A 
ATOM     14  C   UNL     1       5.845  -1.587  15.400  1.00  0.00     0.020 A 
ATOM     15  C   UNL     1       7.384  -1.601  13.527  1.00  0.00     0.119 A 
ATOM     16  C   UNL     1       6.679  -0.543  12.944  1.00  0.00     0.093 A 
ATOM     17  C   UNL     1       5.554  -0.001  13.583  1.00  0.00     0.130 A 
BRANCH  15  18
ATOM     18  O   UNL     1       8.499  -2.125  12.877  1.00  0.00    -0.508 OA
ATOM     19  H   UNL     1       9.304  -1.548  12.659  1.00  0.00     0.293 HD
ENDBRANCH  15  18
BRANCH  17  20
ATOM     20  O   UNL     1       4.889   1.085  13.014  1.00  0.00    -0.507 OA
ATOM     21  H   UNL     1       4.526   1.050  12.069  1.00  0.00     0.293 HD
ENDBRANCH  17  20
ENDBRANCH   1  12
BRANCH   2  22
ATOM     22  O   UNL     1       2.458  -0.623  13.697  1.00  0.00    -0.502 OA
ATOM     23  H   UNL     1       3.119  -0.515  12.937  1.00  0.00     0.293 HD
ENDBRANCH   2  22
BRANCH   6  24
ATOM     24  O   UNL     1      -0.544   1.662  17.283  1.00  0.00    -0.507 OA
ATOM     25  H   UNL     1      -1.137   0.841  17.271  1.00  0.00     0.293 HD
ENDBRANCH   6  24
BRANCH   8  26
ATOM     26  O   UNL     1       2.684   2.599  20.766  1.00  0.00    -0.508 OA
ATOM     27  H   UNL     1       2.844   1.990  21.560  1.00  0.00     0.293 HD
ENDBRANCH   8  26
TORSDOF 6
ENDMDL
MODEL 7
REMARK VINA RESULT:     7.197      1.536      6.837
REMARK INTER + INTRA:           8.512
REMARK INTER:                   8.925
REMARK INTRA:                  -0.412
REMARK UNBOUND:                -0.158
REMARK SMILES O=c1c(O)c(-c2ccc(O)cc2O)oc2cc(O)cc(O)c12
REMARK SMILES IDX 5 1 3 2 2 3 1 4 22 5 20 6 19 7 17 8 16 9 15 10 14 11 6 12
REMARK SMILES IDX 8 13 7 14 9 15 11 16 12 17 10 18 13 20 4 22 21 24 18 26
REMARK H PARENT 10 19 13 21 4 23 21 25 18 27
REMARK Flexibility Score: inf
ROOT
ATOM      1  C   UNL     1       4.390   1.159  16.533  1.00  0.00     0.184 A 
ATOM      2  C   UNL     1       3.004   1.001  16.364  1.00  0.00     0.208 A 
ATOM      3  C   UNL     1       2.328   1.854  15.478  1.00  0.00     0.238 A 
ATOM      4  O   UNL     1       1.086   1.716  15.309  1.00  0.00    -0.285 OA
ATOM      5  C   UNL     1       3.046   2.858  14.795  1.00  0.00     0.111 A 
ATOM      6  C   UNL     1       2.439   3.761  13.888  1.00  0.00     0.134 A 
ATOM      7  C   UNL     1       3.220   4.738  13.254  1.00  0.00     0.093 A 
ATOM      8  C   UNL     1       4.593   4.832  13.511  1.00  0.00     0.123 A 
ATOM      9  C   UNL     1       5.195   3.943  14.404  1.00  0.00     0.094 A 
ATOM     10  C   UNL     1       4.435   2.960  15.044  1.00  0.00     0.146 A 
ATOM     11  O   UNL     1       5.034   2.125  15.885  1.00  0.00    -0.451 OA
ENDROOT
BRANCH   1  12
ATOM     12  C   UNL     1       5.165   0.287  17.441  1.00  0.00     0.063 A 
ATOM     13  C   UNL     1       5.937  -0.201  19.694  1.00  0.00     0.047 A 
ATOM     14  C   UNL     1       5.209   0.598  18.809  1.00  0.00     0.020 A 
ATOM     15  C   UNL     1       6.641  -1.314  19.221  1.00  0.00     0.119 A 
ATOM     16  C   UNL     1       6.623  -1.617  17.856  1.00  0.00     0.093 A 
ATOM     17  C   UNL     1       5.899  -0.817  16.959  1.00  0.00     0.130 A 
BRANCH  15  18
ATOM     18  O   UNL     1       7.367  -2.121  20.094  1.00  0.00    -0.508 OA
ATOM     19  H   UNL     1       8.357  -1.973  20.251  1.00  0.00     0.293 HD
ENDBRANCH  15  18
BRANCH  17  20
ATOM     20  O   UNL     1       5.929  -1.103  15.594  1.00  0.00    -0.507 OA
ATOM     21  H   UNL     1       6.536  -0.600  14.959  1.00  0.00     0.293 HD
ENDBRANCH  17  20
ENDBRANCH   1  12
BRANCH   2  22
ATOM     22  O   UNL     1       2.315   0.026  17.089  1.00  0.00    -0.502 OA
ATOM     23  H   UNL     1       2.769  -0.557  17.783  1.00  0.00     0.293 HD
ENDBRANCH   2  22
BRANCH   6  24
ATOM     24  O   UNL     1       1.073   3.694  13.613  1.00  0.00    -0.507 OA
ATOM     25  H   UNL     1       0.575   4.470  13.192  1.00  0.00     0.293 HD
ENDBRANCH   6  24
BRANCH   8  26
ATOM     26  O   UNL     1       5.368   5.803  12.882  1.00  0.00    -0.508 OA
ATOM     27  H   UNL     1       5.269   6.003  11.893  1.00  0.00     0.293 HD
ENDBRANCH   8  26
TORSDOF 6
ENDMDL
MODEL 8
REMARK VINA RESULT:     7.667      1.941      6.765
REMARK INTER + INTRA:           9.078
REMARK INTER:                   9.417
REMARK INTRA:                  -0.339
REMARK UNBOUND:                -0.158
REMARK SMILES O=c1c(O)c(-c2ccc(O)cc2O)oc2cc(O)cc(O)c12
REMARK SMILES IDX 5 1 3 2 2 3 1 4 22 5 20 6 19 7 17 8 16 9 15 10 14 11 6 12
REMARK SMILES IDX 8 13 7 14 9 15 11 16 12 17 10 18 13 20 4 22 21 24 18 26
REMARK H PARENT 10 19 13 21 4 23 21 25 18 27
REMARK Flexibility Score: inf
ROOT
ATOM      1  C   UNL     1       4.533   0.676  17.018  1.00  0.00     0.184 A 
ATOM      2  C   UNL     1       4.848   1.974  16.583  1.00  0.00     0.208 A 
ATOM      3  C   UNL     1       3.958   2.636  15.725  1.00  0.00     0.238 A 
ATOM      4  O   UNL     1       4.224   3.806  15.335  1.00  0.00    -0.285 OA
ATOM      5  C   UNL     1       2.781   1.982  15.303  1.00  0.00     0.111 A 
ATOM      6  C   UNL     1       1.834   2.577  14.435  1.00  0.00     0.134 A 
ATOM      7  C   UNL     1       0.692   1.857  14.055  1.00  0.00     0.093 A 
ATOM      8  C   UNL     1       0.481   0.555  14.522  1.00  0.00     0.123 A 
ATOM      9  C   UNL     1       1.412  -0.036  15.378  1.00  0.00     0.094 A 
ATOM     10  C   UNL     1       2.556   0.666  15.771  1.00  0.00     0.146 A 
ATOM     11  O   UNL     1       3.423   0.081  16.589  1.00  0.00    -0.451 OA
ENDROOT
BRANCH   1  12
ATOM     12  C   UNL     1       5.421  -0.074  17.931  1.00  0.00     0.063 A 
ATOM     13  C   UNL     1       6.541  -0.219  20.084  1.00  0.00     0.047 A 
ATOM     14  C   UNL     1       5.701   0.460  19.199  1.00  0.00     0.020 A 
ATOM     15  C   UNL     1       7.123  -1.436  19.709  1.00  0.00     0.119 A 
ATOM     16  C   UNL     1       6.868  -1.964  18.439  1.00  0.00     0.093 A 
ATOM     17  C   UNL     1       6.030  -1.285  17.542  1.00  0.00     0.130 A 
BRANCH  15  18
ATOM     18  O   UNL     1       7.959  -2.125  20.584  1.00  0.00    -0.508 OA
ATOM     19  H   UNL     1       8.892  -1.791  20.798  1.00  0.00     0.293 HD
ENDBRANCH  15  18
BRANCH  17  20
ATOM     20  O   UNL     1       5.824  -1.799  16.261  1.00  0.00    -0.507 OA
ATOM     21  H   UNL     1       5.102  -2.484  16.074  1.00  0.00     0.293 HD
ENDBRANCH  17  20
ENDBRANCH   1  12
BRANCH   2  22
ATOM     22  O   UNL     1       6.044   2.578  16.983  1.00  0.00    -0.502 OA
ATOM     23  H   UNL     1       6.065   3.398  17.576  1.00  0.00     0.293 HD
ENDBRANCH   2  22
BRANCH   6  24
ATOM     24  O   UNL     1       2.016   3.873  13.952  1.00  0.00    -0.507 OA
ATOM     25  H   UNL     1       1.808   4.119  12.991  1.00  0.00     0.293 HD
ENDBRANCH   6  24
BRANCH   8  26
ATOM     26  O   UNL     1      -0.653  -0.160  14.143  1.00  0.00    -0.508 OA
ATOM     27  H   UNL     1      -1.481   0.306  13.791  1.00  0.00     0.293 HD
ENDBRANCH   8  26
TORSDOF 6
ENDMDL
