MODEL 1
REMARK VINA RESULT:    -4.033      0.000      0.000
REMARK INTER + INTRA:          -5.868
REMARK INTER:                  -5.447
REMARK INTRA:                  -0.420
REMARK UNBOUND:                -0.420
REMARK SMILES CCCCCCCC(=O)[O-]
REMARK SMILES IDX 5 1 6 2 7 3 8 4 9 5 10 6 4 7 3 8 2 9 1 10
REMARK H PARENT
REMARK Flexibility Score: inf
ROOT
ATOM      1  C   UNL     1     -31.444 -20.448 -23.096  1.00  0.00     0.000 C 
ENDROOT
BRANCH   1   2
ATOM      2  C   UNL     1     -30.708 -21.793 -23.045  1.00  0.00     0.006 C 
BRANCH   2   3
ATOM      3  C   UNL     1     -30.268 -22.125 -21.617  1.00  0.00     0.053 C 
BRANCH   3   4
ATOM      4  C   UNL     1     -28.841 -21.729 -21.403  1.00  0.00     0.041 C 
ATOM      5  O   UNL     1     -28.472 -21.267 -20.291  1.00  0.00    -0.550 OA
ATOM      6  O   UNL     1     -27.929 -21.822 -22.446  1.00  0.00    -0.550 OA
ENDBRANCH   3   4
ENDBRANCH   2   3
ENDBRANCH   1   2
BRANCH   1   7
ATOM      7  C   UNL     1     -31.118 -19.692 -24.392  1.00  0.00     0.000 C 
BRANCH   7   8
ATOM      8  C   UNL     1     -29.985 -20.353 -25.195  1.00  0.00    -0.000 C 
BRANCH   8   9
ATOM      9  C   UNL     1     -30.384 -20.644 -26.648  1.00  0.00    -0.003 C 
ATOM     10  C   UNL     1     -30.701 -22.124 -26.845  1.00  0.00     0.004 C 
ENDBRANCH   8   9
ENDBRANCH   7   8
ENDBRANCH   1   7
TORSDOF 6
ENDMDL
MODEL 2
REMARK VINA RESULT:    -3.496      2.561      4.291
REMARK INTER + INTRA:          -5.143
REMARK INTER:                  -4.732
REMARK INTRA:                  -0.411
REMARK UNBOUND:                -0.420
REMARK SMILES CCCCCCCC(=O)[O-]
REMARK SMILES IDX 5 1 6 2 7 3 8 4 9 5 10 6 4 7 3 8 2 9 1 10
REMARK H PARENT
REMARK Flexibility Score: inf
ROOT
ATOM      1  C   UNL     1     -31.259 -20.869 -22.161  1.00  0.00     0.000 C 
ENDROOT
BRANCH   1   2
ATOM      2  C   UNL     1     -31.759 -20.530 -23.570  1.00  0.00     0.006 C 
BRANCH   2   3
ATOM      3  C   UNL     1     -31.050 -21.384 -24.625  1.00  0.00     0.053 C 
BRANCH   3   4
ATOM      4  C   UNL     1     -30.527 -20.523 -25.731  1.00  0.00     0.041 C 
ATOM      5  O   UNL     1     -30.328 -19.295 -25.538  1.00  0.00    -0.550 OA
ATOM      6  O   UNL     1     -30.306 -21.066 -26.991  1.00  0.00    -0.550 OA
ENDBRANCH   3   4
ENDBRANCH   2   3
ENDBRANCH   1   2
BRANCH   1   7
ATOM      7  C   UNL     1     -30.373 -22.123 -22.179  1.00  0.00     0.000 C 
BRANCH   7   8
ATOM      8  C   UNL     1     -29.208 -22.041 -21.178  1.00  0.00    -0.000 C 
BRANCH   8   9
ATOM      9  C   UNL     1     -27.836 -22.125 -21.860  1.00  0.00    -0.003 C 
ATOM     10  C   UNL     1     -27.817 -21.323 -23.158  1.00  0.00     0.004 C 
ENDBRANCH   8   9
ENDBRANCH   7   8
ENDBRANCH   1   7
TORSDOF 6
ENDMDL
MODEL 3
REMARK VINA RESULT:    -3.145      2.080      2.842
REMARK INTER + INTRA:          -4.668
REMARK INTER:                  -4.576
REMARK INTRA:                  -0.092
REMARK UNBOUND:                -0.420
REMARK SMILES CCCCCCCC(=O)[O-]
REMARK SMILES IDX 5 1 6 2 7 3 8 4 9 5 10 6 4 7 3 8 2 9 1 10
REMARK H PARENT
REMARK Flexibility Score: inf
ROOT
ATOM      1  C   UNL     1     -28.900 -21.934 -22.126  1.00  0.00     0.000 C 
ENDROOT
BRANCH   1   2
ATOM      2  C   UNL     1     -29.121 -21.770 -20.617  1.00  0.00     0.006 C 
BRANCH   2   3
ATOM      3  C   UNL     1     -27.854 -22.125 -19.835  1.00  0.00     0.053 C 
BRANCH   3   4
ATOM      4  C   UNL     1     -28.115 -22.074 -18.363  1.00  0.00     0.041 C 
ATOM      5  O   UNL     1     -27.154 -22.031 -17.550  1.00  0.00    -0.550 OA
ATOM      6  O   UNL     1     -29.419 -22.125 -17.885  1.00  0.00    -0.550 OA
ENDBRANCH   3   4
ENDBRANCH   2   3
ENDBRANCH   1   2
BRANCH   1   7
ATOM      7  C   UNL     1     -30.015 -21.240 -22.923  1.00  0.00     0.000 C 
BRANCH   7   8
ATOM      8  C   UNL     1     -29.645 -21.029 -24.400  1.00  0.00    -0.000 C 
BRANCH   8   9
ATOM      9  C   UNL     1     -30.822 -21.299 -25.348  1.00  0.00    -0.003 C 
ATOM     10  C   UNL     1     -30.490 -20.863 -26.773  1.00  0.00     0.004 C 
ENDBRANCH   8   9
ENDBRANCH   7   8
ENDBRANCH   1   7
TORSDOF 6
ENDMDL
MODEL 4
REMARK VINA RESULT:    -2.749      2.328      4.599
REMARK INTER + INTRA:          -4.133
REMARK INTER:                  -4.130
REMARK INTRA:                  -0.003
REMARK UNBOUND:                -0.420
REMARK SMILES CCCCCCCC(=O)[O-]
REMARK SMILES IDX 5 1 6 2 7 3 8 4 9 5 10 6 4 7 3 8 2 9 1 10
REMARK H PARENT
REMARK Flexibility Score: inf
ROOT
ATOM      1  C   UNL     1     -28.755 -20.648 -23.737  1.00  0.00     0.000 C 
ENDROOT
BRANCH   1   2
ATOM      2  C   UNL     1     -29.898 -21.131 -24.636  1.00  0.00     0.006 C 
BRANCH   2   3
ATOM      3  C   UNL     1     -31.112 -20.204 -24.529  1.00  0.00     0.053 C 
BRANCH   3   4
ATOM      4  C   UNL     1     -31.676 -20.237 -23.144  1.00  0.00     0.041 C 
ATOM      5  O   UNL     1     -31.544 -21.266 -22.430  1.00  0.00    -0.550 OA
ATOM      6  O   UNL     1     -32.392 -19.150 -22.658  1.00  0.00    -0.550 OA
ENDBRANCH   3   4
ENDBRANCH   2   3
ENDBRANCH   1   2
BRANCH   1   7
ATOM      7  C   UNL     1     -27.914 -21.830 -23.233  1.00  0.00     0.000 C 
BRANCH   7   8
ATOM      8  C   UNL     1     -27.661 -21.775 -21.718  1.00  0.00    -0.000 C 
BRANCH   8   9
ATOM      9  C   UNL     1     -28.912 -22.120 -20.898  1.00  0.00    -0.003 C 
ATOM     10  C   UNL     1     -28.611 -22.100 -19.402  1.00  0.00     0.004 C 
ENDBRANCH   8   9
ENDBRANCH   7   8
ENDBRANCH   1   7
TORSDOF 6
ENDMDL
MODEL 5
REMARK VINA RESULT:    -2.581      1.627      2.900
REMARK INTER + INTRA:          -3.907
REMARK INTER:                  -3.510
REMARK INTRA:                  -0.397
REMARK UNBOUND:                -0.420
REMARK SMILES CCCCCCCC(=O)[O-]
REMARK SMILES IDX 5 1 6 2 7 3 8 4 9 5 10 6 4 7 3 8 2 9 1 10
REMARK H PARENT
REMARK Flexibility Score: inf
ROOT
ATOM      1  C   UNL     1     -28.599 -20.898 -23.861  1.00  0.00     0.000 C 
ENDROOT
BRANCH   1   2
ATOM      2  C   UNL     1     -28.218 -22.082 -22.965  1.00  0.00     0.006 C 
BRANCH   2   3
ATOM      3  C   UNL     1     -27.811 -21.607 -21.568  1.00  0.00     0.053 C 
BRANCH   3   4
ATOM      4  C   UNL     1     -28.873 -21.942 -20.569  1.00  0.00     0.041 C 
ATOM      5  O   UNL     1     -30.061 -22.125 -20.946  1.00  0.00    -0.550 OA
ATOM      6  O   UNL     1     -28.564 -22.002 -19.217  1.00  0.00    -0.550 OA
ENDBRANCH   3   4
ENDBRANCH   2   3
ENDBRANCH   1   2
BRANCH   1   7
ATOM      7  C   UNL     1     -29.777 -21.260 -24.778  1.00  0.00     0.000 C 
BRANCH   7   8
ATOM      8  C   UNL     1     -31.125 -21.262 -24.038  1.00  0.00    -0.000 C 
BRANCH   8   9
ATOM      9  C   UNL     1     -31.553 -19.860 -23.584  1.00  0.00    -0.003 C 
ATOM     10  C   UNL     1     -32.445 -19.931 -22.347  1.00  0.00     0.004 C 
ENDBRANCH   8   9
ENDBRANCH   7   8
ENDBRANCH   1   7
TORSDOF 6
ENDMDL
MODEL 6
REMARK VINA RESULT:    -2.006      2.597      3.036
REMARK INTER + INTRA:          -3.131
REMARK INTER:                  -2.865
REMARK INTRA:                  -0.265
REMARK UNBOUND:                -0.420
REMARK SMILES CCCCCCCC(=O)[O-]
REMARK SMILES IDX 5 1 6 2 7 3 8 4 9 5 10 6 4 7 3 8 2 9 1 10
REMARK H PARENT
REMARK Flexibility Score: inf
ROOT
ATOM      1  C   UNL     1     -30.120 -22.012 -22.995  1.00  0.00     0.000 C 
ENDROOT
BRANCH   1   2
ATOM      2  C   UNL     1     -30.823 -21.289 -21.839  1.00  0.00     0.006 C 
BRANCH   2   3
ATOM      3  C   UNL     1     -32.238 -20.861 -22.237  1.00  0.00     0.053 C 
BRANCH   3   4
ATOM      4  C   UNL     1     -32.245 -19.438 -22.697  1.00  0.00     0.041 C 
ATOM      5  O   UNL     1     -32.497 -18.510 -21.884  1.00  0.00    -0.550 OA
ATOM      6  O   UNL     1     -32.022 -19.138 -24.035  1.00  0.00    -0.550 OA
ENDBRANCH   3   4
ENDBRANCH   2   3
ENDBRANCH   1   2
BRANCH   1   7
ATOM      7  C   UNL     1     -29.210 -21.050 -23.773  1.00  0.00     0.000 C 
BRANCH   7   8
ATOM      8  C   UNL     1     -29.574 -20.965 -25.264  1.00  0.00    -0.000 C 
BRANCH   8   9
ATOM      9  C   UNL     1     -30.854 -21.740 -25.605  1.00  0.00    -0.003 C 
ATOM     10  C   UNL     1     -30.887 -22.123 -27.082  1.00  0.00     0.004 C 
ENDBRANCH   8   9
ENDBRANCH   7   8
ENDBRANCH   1   7
TORSDOF 6
ENDMDL
MODEL 7
REMARK VINA RESULT:    -1.560      2.753      4.564
REMARK INTER + INTRA:          -2.527
REMARK INTER:                  -2.488
REMARK INTRA:                  -0.039
REMARK UNBOUND:                -0.420
REMARK SMILES CCCCCCCC(=O)[O-]
REMARK SMILES IDX 5 1 6 2 7 3 8 4 9 5 10 6 4 7 3 8 2 9 1 10
REMARK H PARENT
REMARK Flexibility Score: inf
ROOT
ATOM      1  C   UNL     1     -30.620 -21.859 -23.549  1.00  0.00     0.000 C 
ENDROOT
BRANCH   1   2
ATOM      2  C   UNL     1     -29.324 -21.200 -24.036  1.00  0.00     0.006 C 
BRANCH   2   3
ATOM      3  C   UNL     1     -29.615 -20.113 -25.073  1.00  0.00     0.053 C 
BRANCH   3   4
ATOM      4  C   UNL     1     -30.362 -20.684 -26.236  1.00  0.00     0.041 C 
ATOM      5  O   UNL     1     -30.361 -21.926 -26.441  1.00  0.00    -0.550 OA
ATOM      6  O   UNL     1     -31.017 -19.841 -27.125  1.00  0.00    -0.550 OA
ENDBRANCH   3   4
ENDBRANCH   2   3
ENDBRANCH   1   2
BRANCH   1   7
ATOM      7  C   UNL     1     -30.707 -21.832 -22.015  1.00  0.00     0.000 C 
BRANCH   7   8
ATOM      8  C   UNL     1     -31.786 -20.865 -21.500  1.00  0.00    -0.000 C 
BRANCH   8   9
ATOM      9  C   UNL     1     -32.626 -20.258 -22.633  1.00  0.00    -0.003 C 
ATOM     10  C   UNL     1     -32.564 -18.733 -22.605  1.00  0.00     0.004 C 
ENDBRANCH   8   9
ENDBRANCH   7   8
ENDBRANCH   1   7
TORSDOF 6
ENDMDL
MODEL 8
REMARK VINA RESULT:    -1.468      1.313      2.793
REMARK INTER + INTRA:          -2.403
REMARK INTER:                  -2.455
REMARK INTRA:                   0.052
REMARK UNBOUND:                -0.420
REMARK SMILES CCCCCCCC(=O)[O-]
REMARK SMILES IDX 5 1 6 2 7 3 8 4 9 5 10 6 4 7 3 8 2 9 1 10
REMARK H PARENT
REMARK Flexibility Score: inf
ROOT
ATOM      1  C   UNL     1     -30.430 -20.440 -25.363  1.00  0.00     0.000 C 
ENDROOT
BRANCH   1   2
ATOM      2  C   UNL     1     -29.428 -21.394 -24.703  1.00  0.00     0.006 C 
BRANCH   2   3
ATOM      3  C   UNL     1     -29.685 -21.508 -23.198  1.00  0.00     0.053 C 
BRANCH   3   4
ATOM      4  C   UNL     1     -28.392 -21.528 -22.445  1.00  0.00     0.041 C 
ATOM      5  O   UNL     1     -28.393 -21.533 -21.186  1.00  0.00    -0.550 OA
ATOM      6  O   UNL     1     -27.186 -21.489 -23.132  1.00  0.00    -0.550 OA
ENDBRANCH   3   4
ENDBRANCH   2   3
ENDBRANCH   1   2
BRANCH   1   7
ATOM      7  C   UNL     1     -30.816 -19.301 -24.407  1.00  0.00     0.000 C 
BRANCH   7   8
ATOM      8  C   UNL     1     -32.310 -19.311 -24.045  1.00  0.00    -0.000 C 
BRANCH   8   9
ATOM      9  C   UNL     1     -32.551 -19.280 -22.530  1.00  0.00    -0.003 C 
ATOM     10  C   UNL     1     -32.339 -20.658 -21.911  1.00  0.00     0.004 C 
ENDBRANCH   8   9
ENDBRANCH   7   8
ENDBRANCH   1   7
TORSDOF 6
ENDMDL
