MODEL 1
REMARK VINA RESULT:    20.156      0.000      0.000
REMARK INTER + INTRA:          51.488
REMARK INTER:                  53.148
REMARK INTRA:                  -1.660
REMARK UNBOUND:                -1.660
REMARK SMILES CCCCCCCCCCCCCCCCCCCCCCCCCCCCCC(=O)[O-]
REMARK SMILES IDX 16 1 17 2 18 3 19 4 20 5 21 6 22 7 23 8 24 9 25 10 26 11
REMARK SMILES IDX 27 12 28 13 29 14 30 15 31 16 32 17 15 18 14 19 13 20 12 21
REMARK SMILES IDX 11 22 10 23 9 24 8 25 7 26 6 27 5 28 4 29 3 30 2 31 1 32
REMARK H PARENT
REMARK Flexibility Score: inf
ROOT
ATOM      1  C   UNL     1       9.898 -52.468  -3.493  1.00  0.00     0.000 C 
ENDROOT
BRANCH   1   2
ATOM      2  C   UNL     1       8.492 -51.967  -3.129  1.00  0.00     0.000 C 
BRANCH   2   3
ATOM      3  C   UNL     1       8.398 -50.427  -3.128  1.00  0.00     0.000 C 
BRANCH   3   4
ATOM      4  C   UNL     1       9.359 -49.744  -2.139  1.00  0.00     0.000 C 
BRANCH   4   5
ATOM      5  C   UNL     1      10.608 -49.159  -2.820  1.00  0.00     0.000 C 
BRANCH   5   6
ATOM      6  C   UNL     1      10.712 -47.634  -2.656  1.00  0.00     0.000 C 
BRANCH   6   7
ATOM      7  C   UNL     1       9.727 -46.870  -3.553  1.00  0.00     0.000 C 
BRANCH   7   8
ATOM      8  C   UNL     1       8.690 -46.118  -2.707  1.00  0.00     0.000 C 
BRANCH   8   9
ATOM      9  C   UNL     1       8.028 -44.950  -3.461  1.00  0.00     0.000 C 
BRANCH   9  10
ATOM     10  C   UNL     1       6.725 -44.421  -2.831  1.00  0.00     0.000 C 
BRANCH  10  11
ATOM     11  C   UNL     1       6.662 -44.496  -1.294  1.00  0.00     0.000 C 
BRANCH  11  12
ATOM     12  C   UNL     1       6.676 -45.937  -0.739  1.00  0.00     0.000 C 
BRANCH  12  13
ATOM     13  C   UNL     1       5.282 -46.582  -0.736  1.00  0.00     0.006 C 
BRANCH  13  14
ATOM     14  C   UNL     1       5.054 -47.406  -2.005  1.00  0.00     0.053 C 
BRANCH  14  15
ATOM     15  C   UNL     1       4.857 -48.849  -1.666  1.00  0.00     0.041 C 
ATOM     16  O   UNL     1       4.793 -49.211  -0.461  1.00  0.00    -0.550 OA
ATOM     17  O   UNL     1       4.791 -49.801  -2.675  1.00  0.00    -0.550 OA
ENDBRANCH  14  15
ENDBRANCH  13  14
ENDBRANCH  12  13
ENDBRANCH  11  12
ENDBRANCH  10  11
ENDBRANCH   9  10
ENDBRANCH   8   9
ENDBRANCH   7   8
ENDBRANCH   6   7
ENDBRANCH   5   6
ENDBRANCH   4   5
ENDBRANCH   3   4
ENDBRANCH   2   3
ENDBRANCH   1   2
BRANCH   1  18
ATOM     18  C   UNL     1       9.886 -53.971  -3.811  1.00  0.00     0.000 C 
BRANCH  18  19
ATOM     19  C   UNL     1      11.252 -54.494  -4.292  1.00  0.00     0.000 C 
BRANCH  19  20
ATOM     20  C   UNL     1      12.014 -55.363  -3.273  1.00  0.00     0.000 C 
BRANCH  20  21
ATOM     21  C   UNL     1      11.511 -56.813  -3.146  1.00  0.00     0.000 C 
BRANCH  21  22
ATOM     22  C   UNL     1      12.589 -57.875  -3.452  1.00  0.00     0.000 C 
BRANCH  22  23
ATOM     23  C   UNL     1      13.985 -57.258  -3.645  1.00  0.00     0.000 C 
BRANCH  23  24
ATOM     24  C   UNL     1      14.968 -58.231  -4.320  1.00  0.00    -0.000 C 
BRANCH  24  25
ATOM     25  C   UNL     1      15.199 -59.503  -3.490  1.00  0.00    -0.000 C 
BRANCH  25  26
ATOM     26  C   UNL     1      16.292 -59.284  -2.437  1.00  0.00    -0.000 C 
BRANCH  26  27
ATOM     27  C   UNL     1      17.689 -59.404  -3.064  1.00  0.00    -0.000 C 
BRANCH  27  28
ATOM     28  C   UNL     1      18.630 -58.252  -2.664  1.00  0.00    -0.000 C 
BRANCH  28  29
ATOM     29  C   UNL     1      18.106 -57.340  -1.539  1.00  0.00    -0.000 C 
BRANCH  29  30
ATOM     30  C   UNL     1      18.123 -55.849  -1.918  1.00  0.00    -0.000 C 
BRANCH  30  31
ATOM     31  C   UNL     1      17.004 -55.480  -2.903  1.00  0.00    -0.003 C 
ATOM     32  C   UNL     1      17.518 -54.729  -4.130  1.00  0.00     0.004 C 
ENDBRANCH  30  31
ENDBRANCH  29  30
ENDBRANCH  28  29
ENDBRANCH  27  28
ENDBRANCH  26  27
ENDBRANCH  25  26
ENDBRANCH  24  25
ENDBRANCH  23  24
ENDBRANCH  22  23
ENDBRANCH  21  22
ENDBRANCH  20  21
ENDBRANCH  19  20
ENDBRANCH  18  19
ENDBRANCH   1  18
TORSDOF 28
ENDMDL
MODEL 2
REMARK VINA RESULT:    20.160      1.406      1.712
REMARK INTER + INTRA:          51.499
REMARK INTER:                  52.834
REMARK INTRA:                  -1.335
REMARK UNBOUND:                -1.660
REMARK SMILES CCCCCCCCCCCCCCCCCCCCCCCCCCCCCC(=O)[O-]
REMARK SMILES IDX 16 1 17 2 18 3 19 4 20 5 21 6 22 7 23 8 24 9 25 10 26 11
REMARK SMILES IDX 27 12 28 13 29 14 30 15 31 16 32 17 15 18 14 19 13 20 12 21
REMARK SMILES IDX 11 22 10 23 9 24 8 25 7 26 6 27 5 28 4 29 3 30 2 31 1 32
REMARK H PARENT
REMARK Flexibility Score: inf
ROOT
ATOM      1  C   UNL     1       8.877 -52.415  -2.890  1.00  0.00     0.000 C 
ENDROOT
BRANCH   1   2
ATOM      2  C   UNL     1       8.146 -51.278  -3.620  1.00  0.00     0.000 C 
BRANCH   2   3
ATOM      3  C   UNL     1       8.722 -49.889  -3.271  1.00  0.00     0.000 C 
BRANCH   3   4
ATOM      4  C   UNL     1       9.559 -49.867  -1.979  1.00  0.00     0.000 C 
BRANCH   4   5
ATOM      5  C   UNL     1      10.309 -48.541  -1.770  1.00  0.00     0.000 C 
BRANCH   5   6
ATOM      6  C   UNL     1      10.885 -47.974  -3.078  1.00  0.00     0.000 C 
BRANCH   6   7
ATOM      7  C   UNL     1      10.011 -46.865  -3.682  1.00  0.00     0.000 C 
BRANCH   7   8
ATOM      8  C   UNL     1       8.933 -46.416  -2.685  1.00  0.00     0.000 C 
BRANCH   8   9
ATOM      9  C   UNL     1       8.225 -45.116  -3.105  1.00  0.00     0.000 C 
BRANCH   9  10
ATOM     10  C   UNL     1       7.069 -44.675  -2.188  1.00  0.00     0.000 C 
BRANCH  10  11
ATOM     11  C   UNL     1       6.524 -45.768  -1.249  1.00  0.00     0.000 C 
BRANCH  11  12
ATOM     12  C   UNL     1       4.985 -45.893  -1.264  1.00  0.00     0.000 C 
BRANCH  12  13
ATOM     13  C   UNL     1       4.511 -47.340  -1.463  1.00  0.00     0.006 C 
BRANCH  13  14
ATOM     14  C   UNL     1       3.530 -47.754  -0.363  1.00  0.00     0.053 C 
BRANCH  14  15
ATOM     15  C   UNL     1       2.214 -47.070  -0.549  1.00  0.00     0.041 C 
ATOM     16  O   UNL     1       1.428 -47.448  -1.460  1.00  0.00    -0.550 OA
ATOM     17  O   UNL     1       1.871 -45.985   0.248  1.00  0.00    -0.550 OA
ENDBRANCH  14  15
ENDBRANCH  13  14
ENDBRANCH  12  13
ENDBRANCH  11  12
ENDBRANCH  10  11
ENDBRANCH   9  10
ENDBRANCH   8   9
ENDBRANCH   7   8
ENDBRANCH   6   7
ENDBRANCH   5   6
ENDBRANCH   4   5
ENDBRANCH   3   4
ENDBRANCH   2   3
ENDBRANCH   1   2
BRANCH   1  18
ATOM     18  C   UNL     1       9.062 -53.633  -3.807  1.00  0.00     0.000 C 
BRANCH  18  19
ATOM     19  C   UNL     1      10.423 -53.644  -4.526  1.00  0.00     0.000 C 
BRANCH  19  20
ATOM     20  C   UNL     1      11.531 -54.444  -3.815  1.00  0.00     0.000 C 
BRANCH  20  21
ATOM     21  C   UNL     1      11.269 -55.957  -3.694  1.00  0.00     0.000 C 
BRANCH  21  22
ATOM     22  C   UNL     1      12.289 -56.697  -2.801  1.00  0.00     0.000 C 
BRANCH  22  23
ATOM     23  C   UNL     1      12.858 -57.956  -3.477  1.00  0.00     0.000 C 
BRANCH  23  24
ATOM     24  C   UNL     1      14.254 -57.719  -4.080  1.00  0.00    -0.000 C 
BRANCH  24  25
ATOM     25  C   UNL     1      15.153 -58.961  -3.987  1.00  0.00    -0.000 C 
BRANCH  25  26
ATOM     26  C   UNL     1      16.181 -58.813  -2.859  1.00  0.00    -0.000 C 
BRANCH  26  27
ATOM     27  C   UNL     1      17.348 -59.793  -3.049  1.00  0.00    -0.000 C 
BRANCH  27  28
ATOM     28  C   UNL     1      18.712 -59.187  -2.667  1.00  0.00    -0.000 C 
BRANCH  28  29
ATOM     29  C   UNL     1      18.771 -57.649  -2.682  1.00  0.00    -0.000 C 
BRANCH  29  30
ATOM     30  C   UNL     1      18.198 -57.013  -1.403  1.00  0.00    -0.000 C 
BRANCH  30  31
ATOM     31  C   UNL     1      17.463 -55.693  -1.681  1.00  0.00    -0.003 C 
ATOM     32  C   UNL     1      17.291 -55.413  -3.173  1.00  0.00     0.004 C 
ENDBRANCH  30  31
ENDBRANCH  29  30
ENDBRANCH  28  29
ENDBRANCH  27  28
ENDBRANCH  26  27
ENDBRANCH  25  26
ENDBRANCH  24  25
ENDBRANCH  23  24
ENDBRANCH  22  23
ENDBRANCH  21  22
ENDBRANCH  20  21
ENDBRANCH  19  20
ENDBRANCH  18  19
ENDBRANCH   1  18
TORSDOF 28
ENDMDL
MODEL 3
REMARK VINA RESULT:    20.249      0.871      1.179
REMARK INTER + INTRA:          51.734
REMARK INTER:                  53.264
REMARK INTRA:                  -1.531
REMARK UNBOUND:                -1.660
REMARK SMILES CCCCCCCCCCCCCCCCCCCCCCCCCCCCCC(=O)[O-]
REMARK SMILES IDX 16 1 17 2 18 3 19 4 20 5 21 6 22 7 23 8 24 9 25 10 26 11
REMARK SMILES IDX 27 12 28 13 29 14 30 15 31 16 32 17 15 18 14 19 13 20 12 21
REMARK SMILES IDX 11 22 10 23 9 24 8 25 7 26 6 27 5 28 4 29 3 30 2 31 1 32
REMARK H PARENT
REMARK Flexibility Score: inf
ROOT
ATOM      1  C   UNL     1       9.103 -53.510  -3.467  1.00  0.00     0.000 C 
ENDROOT
BRANCH   1   2
ATOM      2  C   UNL     1       8.488 -52.104  -3.559  1.00  0.00     0.000 C 
BRANCH   2   3
ATOM      3  C   UNL     1       9.448 -51.008  -3.050  1.00  0.00     0.000 C 
BRANCH   3   4
ATOM      4  C   UNL     1       8.810 -50.043  -2.035  1.00  0.00     0.000 C 
BRANCH   4   5
ATOM      5  C   UNL     1       9.682 -48.809  -1.749  1.00  0.00     0.000 C 
BRANCH   5   6
ATOM      6  C   UNL     1      10.890 -48.705  -2.693  1.00  0.00     0.000 C 
BRANCH   6   7
ATOM      7  C   UNL     1      10.574 -47.933  -3.983  1.00  0.00     0.000 C 
BRANCH   7   8
ATOM      8  C   UNL     1      10.171 -46.485  -3.666  1.00  0.00     0.000 C 
BRANCH   8   9
ATOM      9  C   UNL     1       8.775 -46.373  -3.028  1.00  0.00     0.000 C 
BRANCH   9  10
ATOM     10  C   UNL     1       8.151 -44.964  -3.063  1.00  0.00     0.000 C 
BRANCH  10  11
ATOM     11  C   UNL     1       7.484 -44.510  -1.751  1.00  0.00     0.000 C 
BRANCH  11  12
ATOM     12  C   UNL     1       6.038 -45.025  -1.577  1.00  0.00     0.000 C 
BRANCH  12  13
ATOM     13  C   UNL     1       5.983 -46.503  -1.163  1.00  0.00     0.006 C 
BRANCH  13  14
ATOM     14  C   UNL     1       4.746 -47.192  -1.746  1.00  0.00     0.053 C 
BRANCH  14  15
ATOM     15  C   UNL     1       3.960 -47.860  -0.665  1.00  0.00     0.041 C 
ATOM     16  O   UNL     1       4.367 -48.943  -0.164  1.00  0.00    -0.550 OA
ATOM     17  O   UNL     1       2.754 -47.317  -0.240  1.00  0.00    -0.550 OA
ENDBRANCH  14  15
ENDBRANCH  13  14
ENDBRANCH  12  13
ENDBRANCH  11  12
ENDBRANCH  10  11
ENDBRANCH   9  10
ENDBRANCH   8   9
ENDBRANCH   7   8
ENDBRANCH   6   7
ENDBRANCH   5   6
ENDBRANCH   4   5
ENDBRANCH   3   4
ENDBRANCH   2   3
ENDBRANCH   1   2
BRANCH   1  18
ATOM     18  C   UNL     1      10.411 -53.595  -4.268  1.00  0.00     0.000 C 
BRANCH  18  19
ATOM     19  C   UNL     1      11.453 -54.524  -3.619  1.00  0.00     0.000 C 
BRANCH  19  20
ATOM     20  C   UNL     1      11.274 -56.023  -3.927  1.00  0.00     0.000 C 
BRANCH  20  21
ATOM     21  C   UNL     1      11.658 -56.976  -2.779  1.00  0.00     0.000 C 
BRANCH  21  22
ATOM     22  C   UNL     1      12.816 -57.936  -3.128  1.00  0.00     0.000 C 
BRANCH  22  23
ATOM     23  C   UNL     1      13.751 -57.362  -4.207  1.00  0.00     0.000 C 
BRANCH  23  24
ATOM     24  C   UNL     1      15.179 -57.928  -4.106  1.00  0.00    -0.000 C 
BRANCH  24  25
ATOM     25  C   UNL     1      15.214 -59.324  -3.466  1.00  0.00    -0.000 C 
BRANCH  25  26
ATOM     26  C   UNL     1      16.342 -59.429  -2.433  1.00  0.00    -0.000 C 
BRANCH  26  27
ATOM     27  C   UNL     1      17.715 -59.259  -3.101  1.00  0.00    -0.000 C 
BRANCH  27  28
ATOM     28  C   UNL     1      18.567 -58.150  -2.454  1.00  0.00    -0.000 C 
BRANCH  28  29
ATOM     29  C   UNL     1      17.801 -57.203  -1.512  1.00  0.00    -0.000 C 
BRANCH  29  30
ATOM     30  C   UNL     1      18.007 -55.717  -1.856  1.00  0.00    -0.000 C 
BRANCH  30  31
ATOM     31  C   UNL     1      16.991 -55.206  -2.888  1.00  0.00    -0.003 C 
ATOM     32  C   UNL     1      17.595 -55.034  -4.281  1.00  0.00     0.004 C 
ENDBRANCH  30  31
ENDBRANCH  29  30
ENDBRANCH  28  29
ENDBRANCH  27  28
ENDBRANCH  26  27
ENDBRANCH  25  26
ENDBRANCH  24  25
ENDBRANCH  23  24
ENDBRANCH  22  23
ENDBRANCH  21  22
ENDBRANCH  20  21
ENDBRANCH  19  20
ENDBRANCH  18  19
ENDBRANCH   1  18
TORSDOF 28
ENDMDL
MODEL 4
REMARK VINA RESULT:    20.731      0.845      2.136
REMARK INTER + INTRA:          53.006
REMARK INTER:                  53.837
REMARK INTRA:                  -0.831
REMARK UNBOUND:                -1.660
REMARK SMILES CCCCCCCCCCCCCCCCCCCCCCCCCCCCCC(=O)[O-]
REMARK SMILES IDX 16 1 17 2 18 3 19 4 20 5 21 6 22 7 23 8 24 9 25 10 26 11
REMARK SMILES IDX 27 12 28 13 29 14 30 15 31 16 32 17 15 18 14 19 13 20 12 21
REMARK SMILES IDX 11 22 10 23 9 24 8 25 7 26 6 27 5 28 4 29 3 30 2 31 1 32
REMARK H PARENT
REMARK Flexibility Score: inf
ROOT
ATOM      1  C   UNL     1      10.866 -54.739  -4.232  1.00  0.00     0.000 C 
ENDROOT
BRANCH   1   2
ATOM      2  C   UNL     1      10.436 -53.354  -3.724  1.00  0.00     0.000 C 
BRANCH   2   3
ATOM      3  C   UNL     1       8.914 -53.262  -3.485  1.00  0.00     0.000 C 
BRANCH   3   4
ATOM      4  C   UNL     1       8.331 -51.857  -3.717  1.00  0.00     0.000 C 
BRANCH   4   5
ATOM      5  C   UNL     1       8.777 -50.837  -2.656  1.00  0.00     0.000 C 
BRANCH   5   6
ATOM      6  C   UNL     1       9.837 -49.857  -3.185  1.00  0.00     0.000 C 
BRANCH   6   7
ATOM      7  C   UNL     1      10.180 -48.749  -2.178  1.00  0.00     0.000 C 
BRANCH   7   8
ATOM      8  C   UNL     1      10.524 -47.441  -2.903  1.00  0.00     0.000 C 
BRANCH   8   9
ATOM      9  C   UNL     1       9.282 -46.622  -3.297  1.00  0.00     0.000 C 
BRANCH   9  10
ATOM     10  C   UNL     1       8.875 -45.527  -2.292  1.00  0.00     0.000 C 
BRANCH  10  11
ATOM     11  C   UNL     1       7.633 -44.705  -2.686  1.00  0.00     0.000 C 
BRANCH  11  12
ATOM     12  C   UNL     1       6.539 -44.669  -1.597  1.00  0.00     0.000 C 
BRANCH  12  13
ATOM     13  C   UNL     1       6.082 -46.072  -1.172  1.00  0.00     0.006 C 
BRANCH  13  14
ATOM     14  C   UNL     1       4.655 -46.355  -1.649  1.00  0.00     0.053 C 
BRANCH  14  15
ATOM     15  C   UNL     1       4.465 -47.817  -1.900  1.00  0.00     0.041 C 
ATOM     16  O   UNL     1       4.923 -48.662  -1.085  1.00  0.00    -0.550 OA
ATOM     17  O   UNL     1       3.827 -48.250  -3.055  1.00  0.00    -0.550 OA
ENDBRANCH  14  15
ENDBRANCH  13  14
ENDBRANCH  12  13
ENDBRANCH  11  12
ENDBRANCH  10  11
ENDBRANCH   9  10
ENDBRANCH   8   9
ENDBRANCH   7   8
ENDBRANCH   6   7
ENDBRANCH   5   6
ENDBRANCH   4   5
ENDBRANCH   3   4
ENDBRANCH   2   3
ENDBRANCH   1   2
BRANCH   1  18
ATOM     18  C   UNL     1      11.845 -55.408  -3.255  1.00  0.00     0.000 C 
BRANCH  18  19
ATOM     19  C   UNL     1      11.698 -56.940  -3.212  1.00  0.00     0.000 C 
BRANCH  19  20
ATOM     20  C   UNL     1      13.025 -57.722  -3.183  1.00  0.00     0.000 C 
BRANCH  20  21
ATOM     21  C   UNL     1      13.864 -57.634  -4.472  1.00  0.00     0.000 C 
BRANCH  21  22
ATOM     22  C   UNL     1      15.060 -58.610  -4.505  1.00  0.00     0.000 C 
BRANCH  22  23
ATOM     23  C   UNL     1      15.217 -59.393  -3.190  1.00  0.00     0.000 C 
BRANCH  23  24
ATOM     24  C   UNL     1      16.614 -59.218  -2.568  1.00  0.00    -0.000 C 
BRANCH  24  25
ATOM     25  C   UNL     1      17.491 -60.468  -2.734  1.00  0.00    -0.000 C 
BRANCH  25  26
ATOM     26  C   UNL     1      18.854 -60.109  -3.337  1.00  0.00    -0.000 C 
BRANCH  26  27
ATOM     27  C   UNL     1      19.123 -58.601  -3.224  1.00  0.00    -0.000 C 
BRANCH  27  28
ATOM     28  C   UNL     1      18.895 -58.052  -1.803  1.00  0.00    -0.000 C 
BRANCH  28  29
ATOM     29  C   UNL     1      18.599 -56.543  -1.725  1.00  0.00    -0.000 C 
BRANCH  29  30
ATOM     30  C   UNL     1      17.103 -56.215  -1.878  1.00  0.00    -0.000 C 
BRANCH  30  31
ATOM     31  C   UNL     1      16.778 -55.570  -3.234  1.00  0.00    -0.003 C 
ATOM     32  C   UNL     1      17.656 -54.357  -3.538  1.00  0.00     0.004 C 
ENDBRANCH  30  31
ENDBRANCH  29  30
ENDBRANCH  28  29
ENDBRANCH  27  28
ENDBRANCH  26  27
ENDBRANCH  25  26
ENDBRANCH  24  25
ENDBRANCH  23  24
ENDBRANCH  22  23
ENDBRANCH  21  22
ENDBRANCH  20  21
ENDBRANCH  19  20
ENDBRANCH  18  19
ENDBRANCH   1  18
TORSDOF 28
ENDMDL
MODEL 5
REMARK VINA RESULT:    21.009      3.360     13.030
REMARK INTER + INTRA:          53.737
REMARK INTER:                  55.405
REMARK INTRA:                  -1.668
REMARK UNBOUND:                -1.660
REMARK SMILES CCCCCCCCCCCCCCCCCCCCCCCCCCCCCC(=O)[O-]
REMARK SMILES IDX 16 1 17 2 18 3 19 4 20 5 21 6 22 7 23 8 24 9 25 10 26 11
REMARK SMILES IDX 27 12 28 13 29 14 30 15 31 16 32 17 15 18 14 19 13 20 12 21
REMARK SMILES IDX 11 22 10 23 9 24 8 25 7 26 6 27 5 28 4 29 3 30 2 31 1 32
REMARK H PARENT
REMARK Flexibility Score: inf
ROOT
ATOM      1  C   UNL     1       9.477 -51.419  -3.174  1.00  0.00     0.000 C 
ENDROOT
BRANCH   1   2
ATOM      2  C   UNL     1       8.595 -52.673  -3.274  1.00  0.00     0.000 C 
BRANCH   2   3
ATOM      3  C   UNL     1       9.311 -53.839  -3.988  1.00  0.00     0.000 C 
BRANCH   3   4
ATOM      4  C   UNL     1      10.846 -53.764  -3.920  1.00  0.00     0.000 C 
BRANCH   4   5
ATOM      5  C   UNL     1      11.526 -55.127  -4.130  1.00  0.00     0.000 C 
BRANCH   5   6
ATOM      6  C   UNL     1      11.192 -56.133  -3.017  1.00  0.00     0.000 C 
BRANCH   6   7
ATOM      7  C   UNL     1      12.044 -57.409  -3.091  1.00  0.00     0.000 C 
BRANCH   7   8
ATOM      8  C   UNL     1      13.337 -57.155  -3.880  1.00  0.00     0.000 C 
BRANCH   8   9
ATOM      9  C   UNL     1      14.187 -58.424  -4.071  1.00  0.00     0.000 C 
BRANCH   9  10
ATOM     10  C   UNL     1      15.682 -58.267  -3.735  1.00  0.00     0.000 C 
BRANCH  10  11
ATOM     11  C   UNL     1      16.254 -59.330  -2.777  1.00  0.00     0.000 C 
BRANCH  11  12
ATOM     12  C   UNL     1      17.483 -58.850  -1.976  1.00  0.00     0.000 C 
BRANCH  12  13
ATOM     13  C   UNL     1      18.207 -57.676  -2.651  1.00  0.00     0.006 C 
BRANCH  13  14
ATOM     14  C   UNL     1      18.025 -56.383  -1.851  1.00  0.00     0.053 C 
BRANCH  14  15
ATOM     15  C   UNL     1      17.143 -55.428  -2.589  1.00  0.00     0.041 C 
ATOM     16  O   UNL     1      17.543 -54.898  -3.660  1.00  0.00    -0.550 OA
ATOM     17  O   UNL     1      15.899 -55.086  -2.075  1.00  0.00    -0.550 OA
ENDBRANCH  14  15
ENDBRANCH  13  14
ENDBRANCH  12  13
ENDBRANCH  11  12
ENDBRANCH  10  11
ENDBRANCH   9  10
ENDBRANCH   8   9
ENDBRANCH   7   8
ENDBRANCH   6   7
ENDBRANCH   5   6
ENDBRANCH   4   5
ENDBRANCH   3   4
ENDBRANCH   2   3
ENDBRANCH   1   2
BRANCH   1  18
ATOM     18  C   UNL     1       8.646 -50.188  -2.782  1.00  0.00     0.000 C 
BRANCH  18  19
ATOM     19  C   UNL     1       9.402 -49.224  -1.849  1.00  0.00     0.000 C 
BRANCH  19  20
ATOM     20  C   UNL     1      10.848 -48.905  -2.272  1.00  0.00     0.000 C 
BRANCH  20  21
ATOM     21  C   UNL     1      11.017 -47.620  -3.105  1.00  0.00     0.000 C 
BRANCH  21  22
ATOM     22  C   UNL     1       9.702 -47.107  -3.732  1.00  0.00     0.000 C 
BRANCH  22  23
ATOM     23  C   UNL     1       8.965 -46.111  -2.822  1.00  0.00     0.000 C 
BRANCH  23  24
ATOM     24  C   UNL     1       8.094 -45.122  -3.618  1.00  0.00    -0.000 C 
BRANCH  24  25
ATOM     25  C   UNL     1       7.073 -44.393  -2.731  1.00  0.00    -0.000 C 
BRANCH  25  26
ATOM     26  C   UNL     1       7.400 -44.581  -1.245  1.00  0.00    -0.000 C 
BRANCH  26  27
ATOM     27  C   UNL     1       6.236 -45.260  -0.509  1.00  0.00    -0.000 C 
BRANCH  27  28
ATOM     28  C   UNL     1       5.371 -46.140  -1.431  1.00  0.00    -0.000 C 
BRANCH  28  29
ATOM     29  C   UNL     1       4.918 -47.479  -0.820  1.00  0.00    -0.000 C 
BRANCH  29  30
ATOM     30  C   UNL     1       5.449 -48.700  -1.591  1.00  0.00    -0.000 C 
BRANCH  30  31
ATOM     31  C   UNL     1       4.407 -49.285  -2.556  1.00  0.00    -0.003 C 
ATOM     32  C   UNL     1       3.932 -48.274  -3.599  1.00  0.00     0.004 C 
ENDBRANCH  30  31
ENDBRANCH  29  30
ENDBRANCH  28  29
ENDBRANCH  27  28
ENDBRANCH  26  27
ENDBRANCH  25  26
ENDBRANCH  24  25
ENDBRANCH  23  24
ENDBRANCH  22  23
ENDBRANCH  21  22
ENDBRANCH  20  21
ENDBRANCH  19  20
ENDBRANCH  18  19
ENDBRANCH   1  18
TORSDOF 28
ENDMDL
MODEL 6
REMARK VINA RESULT:    21.128      3.583     13.596
REMARK INTER + INTRA:          54.051
REMARK INTER:                  55.071
REMARK INTRA:                  -1.020
REMARK UNBOUND:                -1.660
REMARK SMILES CCCCCCCCCCCCCCCCCCCCCCCCCCCCCC(=O)[O-]
REMARK SMILES IDX 16 1 17 2 18 3 19 4 20 5 21 6 22 7 23 8 24 9 25 10 26 11
REMARK SMILES IDX 27 12 28 13 29 14 30 15 31 16 32 17 15 18 14 19 13 20 12 21
REMARK SMILES IDX 11 22 10 23 9 24 8 25 7 26 6 27 5 28 4 29 3 30 2 31 1 32
REMARK H PARENT
REMARK Flexibility Score: inf
ROOT
ATOM      1  C   UNL     1       9.705 -53.798  -3.460  1.00  0.00     0.000 C 
ENDROOT
BRANCH   1   2
ATOM      2  C   UNL     1      11.039 -54.020  -4.189  1.00  0.00     0.000 C 
BRANCH   2   3
ATOM      3  C   UNL     1      11.405 -55.514  -4.304  1.00  0.00     0.000 C 
BRANCH   3   4
ATOM      4  C   UNL     1      11.288 -56.289  -2.979  1.00  0.00     0.000 C 
BRANCH   4   5
ATOM      5  C   UNL     1      12.207 -57.520  -2.918  1.00  0.00     0.000 C 
BRANCH   5   6
ATOM      6  C   UNL     1      13.466 -57.363  -3.786  1.00  0.00     0.000 C 
BRANCH   6   7
ATOM      7  C   UNL     1      14.208 -58.689  -4.006  1.00  0.00     0.000 C 
BRANCH   7   8
ATOM      8  C   UNL     1      15.715 -58.517  -3.768  1.00  0.00     0.000 C 
BRANCH   8   9
ATOM      9  C   UNL     1      16.232 -59.320  -2.560  1.00  0.00     0.000 C 
BRANCH   9  10
ATOM     10  C   UNL     1      17.593 -60.009  -2.768  1.00  0.00     0.000 C 
BRANCH  10  11
ATOM     11  C   UNL     1      18.780 -59.057  -3.011  1.00  0.00     0.000 C 
BRANCH  11  12
ATOM     12  C   UNL     1      18.974 -58.006  -1.896  1.00  0.00     0.000 C 
BRANCH  12  13
ATOM     13  C   UNL     1      18.030 -56.804  -2.048  1.00  0.00     0.006 C 
BRANCH  13  14
ATOM     14  C   UNL     1      17.986 -56.317  -3.499  1.00  0.00     0.053 C 
BRANCH  14  15
ATOM     15  C   UNL     1      17.663 -54.858  -3.554  1.00  0.00     0.041 C 
ATOM     16  O   UNL     1      17.451 -54.300  -4.663  1.00  0.00    -0.550 OA
ATOM     17  O   UNL     1      17.643 -54.104  -2.388  1.00  0.00    -0.550 OA
ENDBRANCH  14  15
ENDBRANCH  13  14
ENDBRANCH  12  13
ENDBRANCH  11  12
ENDBRANCH  10  11
ENDBRANCH   9  10
ENDBRANCH   8   9
ENDBRANCH   7   8
ENDBRANCH   6   7
ENDBRANCH   5   6
ENDBRANCH   4   5
ENDBRANCH   3   4
ENDBRANCH   2   3
ENDBRANCH   1   2
BRANCH   1  18
ATOM     18  C   UNL     1       9.018 -52.511  -3.939  1.00  0.00     0.000 C 
BRANCH  18  19
ATOM     19  C   UNL     1       8.407 -51.691  -2.788  1.00  0.00     0.000 C 
BRANCH  19  20
ATOM     20  C   UNL     1       8.836 -50.212  -2.740  1.00  0.00     0.000 C 
BRANCH  20  21
ATOM     21  C   UNL     1      10.358 -49.973  -2.753  1.00  0.00     0.000 C 
BRANCH  21  22
ATOM     22  C   UNL     1      10.753 -48.485  -2.874  1.00  0.00     0.000 C 
BRANCH  22  23
ATOM     23  C   UNL     1      10.031 -47.599  -1.845  1.00  0.00     0.000 C 
BRANCH  23  24
ATOM     24  C   UNL     1       9.083 -46.584  -2.508  1.00  0.00    -0.000 C 
BRANCH  24  25
ATOM     25  C   UNL     1       8.251 -45.799  -1.482  1.00  0.00    -0.000 C 
BRANCH  25  26
ATOM     26  C   UNL     1       7.518 -44.628  -2.147  1.00  0.00    -0.000 C 
BRANCH  26  27
ATOM     27  C   UNL     1       6.033 -44.617  -1.754  1.00  0.00    -0.000 C 
BRANCH  27  28
ATOM     28  C   UNL     1       5.627 -45.830  -0.896  1.00  0.00    -0.000 C 
BRANCH  28  29
ATOM     29  C   UNL     1       4.738 -46.866  -1.609  1.00  0.00    -0.000 C 
BRANCH  29  30
ATOM     30  C   UNL     1       3.890 -47.702  -0.633  1.00  0.00    -0.000 C 
BRANCH  30  31
ATOM     31  C   UNL     1       2.383 -47.459  -0.809  1.00  0.00    -0.003 C 
ATOM     32  C   UNL     1       1.885 -46.240  -0.035  1.00  0.00     0.004 C 
ENDBRANCH  30  31
ENDBRANCH  29  30
ENDBRANCH  28  29
ENDBRANCH  27  28
ENDBRANCH  26  27
ENDBRANCH  25  26
ENDBRANCH  24  25
ENDBRANCH  23  24
ENDBRANCH  22  23
ENDBRANCH  21  22
ENDBRANCH  20  21
ENDBRANCH  19  20
ENDBRANCH  18  19
ENDBRANCH   1  18
TORSDOF 28
ENDMDL
MODEL 7
REMARK VINA RESULT:    21.152      1.678      3.205
REMARK INTER + INTRA:          54.114
REMARK INTER:                  55.811
REMARK INTRA:                  -1.698
REMARK UNBOUND:                -1.660
REMARK SMILES CCCCCCCCCCCCCCCCCCCCCCCCCCCCCC(=O)[O-]
REMARK SMILES IDX 16 1 17 2 18 3 19 4 20 5 21 6 22 7 23 8 24 9 25 10 26 11
REMARK SMILES IDX 27 12 28 13 29 14 30 15 31 16 32 17 15 18 14 19 13 20 12 21
REMARK SMILES IDX 11 22 10 23 9 24 8 25 7 26 6 27 5 28 4 29 3 30 2 31 1 32
REMARK H PARENT
REMARK Flexibility Score: inf
ROOT
ATOM      1  C   UNL     1       9.024 -49.980  -3.095  1.00  0.00     0.000 C 
ENDROOT
BRANCH   1   2
ATOM      2  C   UNL     1       9.923 -49.308  -2.046  1.00  0.00     0.000 C 
BRANCH   2   3
ATOM      3  C   UNL     1      10.970 -48.370  -2.683  1.00  0.00     0.000 C 
BRANCH   3   4
ATOM      4  C   UNL     1      10.368 -47.303  -3.614  1.00  0.00     0.000 C 
BRANCH   4   5
ATOM      5  C   UNL     1       9.197 -46.538  -2.974  1.00  0.00     0.000 C 
BRANCH   5   6
ATOM      6  C   UNL     1       8.630 -45.446  -3.895  1.00  0.00     0.000 C 
BRANCH   6   7
ATOM      7  C   UNL     1       7.395 -44.750  -3.304  1.00  0.00     0.000 C 
BRANCH   7   8
ATOM      8  C   UNL     1       7.654 -44.320  -1.853  1.00  0.00     0.000 C 
BRANCH   8   9
ATOM      9  C   UNL     1       6.360 -44.088  -1.052  1.00  0.00     0.000 C 
BRANCH   9  10
ATOM     10  C   UNL     1       5.356 -45.256  -1.077  1.00  0.00     0.000 C 
BRANCH  10  11
ATOM     11  C   UNL     1       5.969 -46.651  -0.851  1.00  0.00     0.000 C 
BRANCH  11  12
ATOM     12  C   UNL     1       5.195 -47.792  -1.546  1.00  0.00     0.000 C 
BRANCH  12  13
ATOM     13  C   UNL     1       3.692 -47.501  -1.662  1.00  0.00     0.006 C 
BRANCH  13  14
ATOM     14  C   UNL     1       3.010 -47.572  -0.293  1.00  0.00     0.053 C 
BRANCH  14  15
ATOM     15  C   UNL     1       1.806 -46.685  -0.259  1.00  0.00     0.041 C 
ATOM     16  O   UNL     1       0.667 -47.157  -0.517  1.00  0.00    -0.550 OA
ATOM     17  O   UNL     1       1.945 -45.329   0.009  1.00  0.00    -0.550 OA
ENDBRANCH  14  15
ENDBRANCH  13  14
ENDBRANCH  12  13
ENDBRANCH  11  12
ENDBRANCH  10  11
ENDBRANCH   9  10
ENDBRANCH   8   9
ENDBRANCH   7   8
ENDBRANCH   6   7
ENDBRANCH   5   6
ENDBRANCH   4   5
ENDBRANCH   3   4
ENDBRANCH   2   3
ENDBRANCH   1   2
BRANCH   1  18
ATOM     18  C   UNL     1       8.571 -51.371  -2.627  1.00  0.00     0.000 C 
BRANCH  18  19
ATOM     19  C   UNL     1       8.546 -52.409  -3.764  1.00  0.00     0.000 C 
BRANCH  19  20
ATOM     20  C   UNL     1       9.309 -53.715  -3.472  1.00  0.00     0.000 C 
BRANCH  20  21
ATOM     21  C   UNL     1      10.606 -53.908  -4.281  1.00  0.00     0.000 C 
BRANCH  21  22
ATOM     22  C   UNL     1      11.643 -54.818  -3.588  1.00  0.00     0.000 C 
BRANCH  22  23
ATOM     23  C   UNL     1      11.051 -56.177  -3.177  1.00  0.00     0.000 C 
BRANCH  23  24
ATOM     24  C   UNL     1      11.993 -57.350  -3.505  1.00  0.00    -0.000 C 
BRANCH  24  25
ATOM     25  C   UNL     1      13.475 -56.971  -3.362  1.00  0.00    -0.000 C 
BRANCH  25  26
ATOM     26  C   UNL     1      14.379 -58.037  -3.991  1.00  0.00    -0.000 C 
BRANCH  26  27
ATOM     27  C   UNL     1      15.795 -57.974  -3.398  1.00  0.00    -0.000 C 
BRANCH  27  28
ATOM     28  C   UNL     1      16.456 -56.592  -3.562  1.00  0.00    -0.000 C 
BRANCH  28  29
ATOM     29  C   UNL     1      17.246 -56.097  -2.336  1.00  0.00    -0.000 C 
BRANCH  29  30
ATOM     30  C   UNL     1      18.331 -57.089  -1.881  1.00  0.00    -0.000 C 
BRANCH  30  31
ATOM     31  C   UNL     1      18.663 -56.952  -0.387  1.00  0.00    -0.003 C 
ATOM     32  C   UNL     1      17.416 -56.898   0.495  1.00  0.00     0.004 C 
ENDBRANCH  30  31
ENDBRANCH  29  30
ENDBRANCH  28  29
ENDBRANCH  27  28
ENDBRANCH  26  27
ENDBRANCH  25  26
ENDBRANCH  24  25
ENDBRANCH  23  24
ENDBRANCH  22  23
ENDBRANCH  21  22
ENDBRANCH  20  21
ENDBRANCH  19  20
ENDBRANCH  18  19
ENDBRANCH   1  18
TORSDOF 28
ENDMDL
MODEL 8
REMARK VINA RESULT:    21.682      1.752      2.595
REMARK INTER + INTRA:          55.513
REMARK INTER:                  56.112
REMARK INTRA:                  -0.599
REMARK UNBOUND:                -1.660
REMARK SMILES CCCCCCCCCCCCCCCCCCCCCCCCCCCCCC(=O)[O-]
REMARK SMILES IDX 16 1 17 2 18 3 19 4 20 5 21 6 22 7 23 8 24 9 25 10 26 11
REMARK SMILES IDX 27 12 28 13 29 14 30 15 31 16 32 17 15 18 14 19 13 20 12 21
REMARK SMILES IDX 11 22 10 23 9 24 8 25 7 26 6 27 5 28 4 29 3 30 2 31 1 32
REMARK H PARENT
REMARK Flexibility Score: inf
ROOT
ATOM      1  C   UNL     1       9.108 -53.676  -3.383  1.00  0.00     0.000 C 
ENDROOT
BRANCH   1   2
ATOM      2  C   UNL     1       8.215 -52.454  -3.650  1.00  0.00     0.000 C 
BRANCH   2   3
ATOM      3  C   UNL     1       8.978 -51.122  -3.493  1.00  0.00     0.000 C 
BRANCH   3   4
ATOM      4  C   UNL     1       8.955 -50.556  -2.062  1.00  0.00     0.000 C 
BRANCH   4   5
ATOM      5  C   UNL     1       9.279 -49.053  -2.004  1.00  0.00     0.000 C 
BRANCH   5   6
ATOM      6  C   UNL     1      10.519 -48.747  -1.148  1.00  0.00     0.000 C 
BRANCH   6   7
ATOM      7  C   UNL     1      11.711 -48.254  -1.981  1.00  0.00     0.000 C 
BRANCH   7   8
ATOM      8  C   UNL     1      11.544 -48.645  -3.457  1.00  0.00     0.000 C 
BRANCH   8   9
ATOM      9  C   UNL     1      10.323 -47.985  -4.122  1.00  0.00     0.000 C 
BRANCH   9  10
ATOM     10  C   UNL     1      10.163 -46.478  -3.847  1.00  0.00     0.000 C 
BRANCH  10  11
ATOM     11  C   UNL     1       8.853 -46.077  -3.142  1.00  0.00     0.000 C 
BRANCH  11  12
ATOM     12  C   UNL     1       7.913 -45.217  -4.015  1.00  0.00     0.000 C 
BRANCH  12  13
ATOM     13  C   UNL     1       7.068 -44.238  -3.187  1.00  0.00     0.006 C 
BRANCH  13  14
ATOM     14  C   UNL     1       7.635 -44.081  -1.774  1.00  0.00     0.053 C 
BRANCH  14  15
ATOM     15  C   UNL     1       6.690 -44.650  -0.763  1.00  0.00     0.041 C 
ATOM     16  O   UNL     1       5.601 -45.161  -1.136  1.00  0.00    -0.550 OA
ATOM     17  O   UNL     1       6.987 -44.573   0.591  1.00  0.00    -0.550 OA
ENDBRANCH  14  15
ENDBRANCH  13  14
ENDBRANCH  12  13
ENDBRANCH  11  12
ENDBRANCH  10  11
ENDBRANCH   9  10
ENDBRANCH   8   9
ENDBRANCH   7   8
ENDBRANCH   6   7
ENDBRANCH   5   6
ENDBRANCH   4   5
ENDBRANCH   3   4
ENDBRANCH   2   3
ENDBRANCH   1   2
BRANCH   1  18
ATOM     18  C   UNL     1      10.324 -53.688  -4.321  1.00  0.00     0.000 C 
BRANCH  18  19
ATOM     19  C   UNL     1      11.453 -54.613  -3.830  1.00  0.00     0.000 C 
BRANCH  19  20
ATOM     20  C   UNL     1      11.247 -56.110  -4.129  1.00  0.00     0.000 C 
BRANCH  20  21
ATOM     21  C   UNL     1      11.959 -57.074  -3.160  1.00  0.00     0.000 C 
BRANCH  21  22
ATOM     22  C   UNL     1      13.484 -56.853  -3.070  1.00  0.00     0.000 C 
BRANCH  22  23
ATOM     23  C   UNL     1      14.268 -57.759  -4.034  1.00  0.00     0.000 C 
BRANCH  23  24
ATOM     24  C   UNL     1      14.902 -58.966  -3.320  1.00  0.00    -0.000 C 
BRANCH  24  25
ATOM     25  C   UNL     1      16.295 -59.308  -3.869  1.00  0.00    -0.000 C 
BRANCH  25  26
ATOM     26  C   UNL     1      17.160 -59.982  -2.797  1.00  0.00    -0.000 C 
BRANCH  26  27
ATOM     27  C   UNL     1      18.628 -59.549  -2.925  1.00  0.00    -0.000 C 
BRANCH  27  28
ATOM     28  C   UNL     1      18.813 -58.021  -2.865  1.00  0.00    -0.000 C 
BRANCH  28  29
ATOM     29  C   UNL     1      18.415 -57.366  -1.529  1.00  0.00    -0.000 C 
BRANCH  29  30
ATOM     30  C   UNL     1      17.648 -56.045  -1.713  1.00  0.00    -0.000 C 
BRANCH  30  31
ATOM     31  C   UNL     1      17.145 -55.853  -3.152  1.00  0.00    -0.003 C 
ATOM     32  C   UNL     1      17.531 -54.497  -3.739  1.00  0.00     0.004 C 
ENDBRANCH  30  31
ENDBRANCH  29  30
ENDBRANCH  28  29
ENDBRANCH  27  28
ENDBRANCH  26  27
ENDBRANCH  25  26
ENDBRANCH  24  25
ENDBRANCH  23  24
ENDBRANCH  22  23
ENDBRANCH  21  22
ENDBRANCH  20  21
ENDBRANCH  19  20
ENDBRANCH  18  19
ENDBRANCH   1  18
TORSDOF 28
ENDMDL
MODEL 9
REMARK VINA RESULT:    21.765      2.157      3.573
REMARK INTER + INTRA:          55.732
REMARK INTER:                  58.122
REMARK INTRA:                  -2.389
REMARK UNBOUND:                -1.660
REMARK SMILES CCCCCCCCCCCCCCCCCCCCCCCCCCCCCC(=O)[O-]
REMARK SMILES IDX 16 1 17 2 18 3 19 4 20 5 21 6 22 7 23 8 24 9 25 10 26 11
REMARK SMILES IDX 27 12 28 13 29 14 30 15 31 16 32 17 15 18 14 19 13 20 12 21
REMARK SMILES IDX 11 22 10 23 9 24 8 25 7 26 6 27 5 28 4 29 3 30 2 31 1 32
REMARK H PARENT
REMARK Flexibility Score: inf
ROOT
ATOM      1  C   UNL     1       8.637 -52.859  -3.676  1.00  0.00     0.000 C 
ENDROOT
BRANCH   1   2
ATOM      2  C   UNL     1       8.726 -51.440  -3.093  1.00  0.00     0.000 C 
BRANCH   2   3
ATOM      3  C   UNL     1       7.469 -50.599  -3.400  1.00  0.00     0.000 C 
BRANCH   3   4
ATOM      4  C   UNL     1       6.935 -49.811  -2.190  1.00  0.00     0.000 C 
BRANCH   4   5
ATOM      5  C   UNL     1       5.418 -49.569  -2.251  1.00  0.00     0.000 C 
BRANCH   5   6
ATOM      6  C   UNL     1       4.823 -49.190  -0.885  1.00  0.00     0.000 C 
BRANCH   6   7
ATOM      7  C   UNL     1       4.431 -47.708  -0.796  1.00  0.00     0.000 C 
BRANCH   7   8
ATOM      8  C   UNL     1       5.275 -46.863  -1.762  1.00  0.00     0.000 C 
BRANCH   8   9
ATOM      9  C   UNL     1       5.653 -45.486  -1.188  1.00  0.00     0.000 C 
BRANCH   9  10
ATOM     10  C   UNL     1       7.023 -44.944  -1.637  1.00  0.00     0.000 C 
BRANCH  10  11
ATOM     11  C   UNL     1       8.148 -45.993  -1.721  1.00  0.00     0.000 C 
BRANCH  11  12
ATOM     12  C   UNL     1       8.844 -46.052  -3.098  1.00  0.00     0.000 C 
BRANCH  12  13
ATOM     13  C   UNL     1       9.535 -47.400  -3.352  1.00  0.00     0.006 C 
BRANCH  13  14
ATOM     14  C   UNL     1      10.075 -47.997  -2.050  1.00  0.00     0.053 C 
BRANCH  14  15
ATOM     15  C   UNL     1      11.506 -48.399  -2.210  1.00  0.00     0.041 C 
ATOM     16  O   UNL     1      11.935 -48.771  -3.335  1.00  0.00    -0.550 OA
ATOM     17  O   UNL     1      12.355 -48.411  -1.111  1.00  0.00    -0.550 OA
ENDBRANCH  14  15
ENDBRANCH  13  14
ENDBRANCH  12  13
ENDBRANCH  11  12
ENDBRANCH  10  11
ENDBRANCH   9  10
ENDBRANCH   8   9
ENDBRANCH   7   8
ENDBRANCH   6   7
ENDBRANCH   5   6
ENDBRANCH   4   5
ENDBRANCH   3   4
ENDBRANCH   2   3
ENDBRANCH   1   2
BRANCH   1  18
ATOM     18  C   UNL     1       9.807 -53.730  -3.194  1.00  0.00     0.000 C 
BRANCH  18  19
ATOM     19  C   UNL     1      10.904 -53.905  -4.261  1.00  0.00     0.000 C 
BRANCH  19  20
ATOM     20  C   UNL     1      11.530 -55.311  -4.328  1.00  0.00     0.000 C 
BRANCH  20  21
ATOM     21  C   UNL     1      11.746 -55.997  -2.966  1.00  0.00     0.000 C 
BRANCH  21  22
ATOM     22  C   UNL     1      12.082 -57.500  -3.071  1.00  0.00     0.000 C 
BRANCH  22  23
ATOM     23  C   UNL     1      13.182 -57.786  -4.107  1.00  0.00     0.000 C 
BRANCH  23  24
ATOM     24  C   UNL     1      14.596 -57.635  -3.517  1.00  0.00    -0.000 C 
BRANCH  24  25
ATOM     25  C   UNL     1      15.491 -58.847  -3.819  1.00  0.00    -0.000 C 
BRANCH  25  26
ATOM     26  C   UNL     1      16.331 -59.229  -2.595  1.00  0.00    -0.000 C 
BRANCH  26  27
ATOM     27  C   UNL     1      17.612 -59.964  -3.017  1.00  0.00    -0.000 C 
BRANCH  27  28
ATOM     28  C   UNL     1      18.842 -59.038  -3.090  1.00  0.00    -0.000 C 
BRANCH  28  29
ATOM     29  C   UNL     1      19.020 -58.092  -1.888  1.00  0.00    -0.000 C 
BRANCH  29  30
ATOM     30  C   UNL     1      18.505 -56.668  -2.163  1.00  0.00    -0.000 C 
BRANCH  30  31
ATOM     31  C   UNL     1      17.467 -56.208  -1.128  1.00  0.00    -0.003 C 
ATOM     32  C   UNL     1      17.564 -56.974   0.190  1.00  0.00     0.004 C 
ENDBRANCH  30  31
ENDBRANCH  29  30
ENDBRANCH  28  29
ENDBRANCH  27  28
ENDBRANCH  26  27
ENDBRANCH  25  26
ENDBRANCH  24  25
ENDBRANCH  23  24
ENDBRANCH  22  23
ENDBRANCH  21  22
ENDBRANCH  20  21
ENDBRANCH  19  20
ENDBRANCH  18  19
ENDBRANCH   1  18
TORSDOF 28
ENDMDL
