MODEL 1
REMARK VINA RESULT:    -3.160      0.000      0.000
REMARK INTER + INTRA:         -13.402
REMARK INTER:                  -7.964
REMARK INTRA:                  -5.438
REMARK UNBOUND:                -5.438
REMARK SMILES CCCCCCCCCCCCCCCCCCCCCCCCCCCC(=O)[O-]
REMARK SMILES IDX 15 1 16 2 17 3 18 4 19 5 20 6 21 7 22 8 23 9 24 10 25 11
REMARK SMILES IDX 26 12 27 13 28 14 29 15 30 16 14 17 13 18 12 19 11 20 10 21
REMARK SMILES IDX 9 22 8 23 7 24 6 25 5 26 4 27 3 28 2 29 1 30
REMARK H PARENT
REMARK Flexibility Score: inf
ROOT
ATOM      1  C   UNL     1     -95.361 149.502 235.267  1.00  0.00     0.000 C 
ENDROOT
BRANCH   1   2
ATOM      2  C   UNL     1     -96.898 149.484 235.138  1.00  0.00     0.000 C 
BRANCH   2   3
ATOM      3  C   UNL     1     -97.535 148.081 235.049  1.00  0.00     0.000 C 
BRANCH   3   4
ATOM      4  C   UNL     1     -98.144 147.729 233.679  1.00  0.00     0.000 C 
BRANCH   4   5
ATOM      5  C   UNL     1     -98.408 148.933 232.755  1.00  0.00     0.000 C 
BRANCH   5   6
ATOM      6  C   UNL     1     -97.720 148.824 231.378  1.00  0.00     0.000 C 
BRANCH   6   7
ATOM      7  C   UNL     1     -96.238 148.425 231.490  1.00  0.00     0.000 C 
BRANCH   7   8
ATOM      8  C   UNL     1     -95.297 149.513 230.948  1.00  0.00     0.000 C 
BRANCH   8   9
ATOM      9  C   UNL     1     -94.969 150.585 232.002  1.00  0.00     0.000 C 
BRANCH   9  10
ATOM     10  C   UNL     1     -95.677 151.923 231.727  1.00  0.00     0.000 C 
BRANCH  10  11
ATOM     11  C   UNL     1     -96.447 152.510 232.928  1.00  0.00     0.000 C 
BRANCH  11  12
ATOM     12  C   UNL     1     -97.861 153.038 232.605  1.00  0.00     0.006 C 
BRANCH  12  13
ATOM     13  C   UNL     1     -98.270 154.289 233.399  1.00  0.00     0.053 C 
BRANCH  13  14
ATOM     14  C   UNL     1     -98.091 155.542 232.598  1.00  0.00     0.041 C 
ATOM     15  O   UNL     1     -97.509 156.539 233.101  1.00  0.00    -0.550 OA
ATOM     16  O   UNL     1     -98.533 155.595 231.281  1.00  0.00    -0.550 OA
ENDBRANCH  13  14
ENDBRANCH  12  13
ENDBRANCH  11  12
ENDBRANCH  10  11
ENDBRANCH   9  10
ENDBRANCH   8   9
ENDBRANCH   7   8
ENDBRANCH   6   7
ENDBRANCH   5   6
ENDBRANCH   4   5
ENDBRANCH   3   4
ENDBRANCH   2   3
ENDBRANCH   1   2
BRANCH   1  17
ATOM     17  C   UNL     1     -94.688 148.117 235.258  1.00  0.00     0.000 C 
BRANCH  17  18
ATOM     18  C   UNL     1     -93.868 147.844 236.530  1.00  0.00     0.000 C 
BRANCH  18  19
ATOM     19  C   UNL     1     -94.340 148.669 237.742  1.00  0.00     0.000 C 
BRANCH  19  20
ATOM     20  C   UNL     1     -95.023 147.865 238.863  1.00  0.00     0.000 C 
BRANCH  20  21
ATOM     21  C   UNL     1     -96.403 148.424 239.253  1.00  0.00     0.000 C 
BRANCH  21  22
ATOM     22  C   UNL     1     -96.554 149.920 238.922  1.00  0.00    -0.000 C 
BRANCH  22  23
ATOM     23  C   UNL     1     -97.974 150.356 238.521  1.00  0.00    -0.000 C 
BRANCH  23  24
ATOM     24  C   UNL     1     -99.047 149.317 238.892  1.00  0.00    -0.000 C 
BRANCH  24  25
ATOM     25  C   UNL     1     -99.883 148.876 237.673  1.00  0.00    -0.000 C 
BRANCH  25  26
ATOM     26  C   UNL     1    -100.928 149.916 237.231  1.00  0.00    -0.000 C 
BRANCH  26  27
ATOM     27  C   UNL     1    -101.075 150.002 235.703  1.00  0.00    -0.000 C 
BRANCH  27  28
ATOM     28  C   UNL     1    -100.151 151.060 235.079  1.00  0.00    -0.000 C 
BRANCH  28  29
ATOM     29  C   UNL     1     -99.995 152.303 235.968  1.00  0.00    -0.003 C 
ATOM     30  C   UNL     1    -101.029 153.368 235.610  1.00  0.00     0.004 C 
ENDBRANCH  28  29
ENDBRANCH  27  28
ENDBRANCH  26  27
ENDBRANCH  25  26
ENDBRANCH  24  25
ENDBRANCH  23  24
ENDBRANCH  22  23
ENDBRANCH  21  22
ENDBRANCH  20  21
ENDBRANCH  19  20
ENDBRANCH  18  19
ENDBRANCH  17  18
ENDBRANCH   1  17
TORSDOF 26
ENDMDL
MODEL 2
REMARK VINA RESULT:    -3.157      1.551      4.062
REMARK INTER + INTRA:         -13.393
REMARK INTER:                  -8.081
REMARK INTRA:                  -5.312
REMARK UNBOUND:                -5.438
REMARK SMILES CCCCCCCCCCCCCCCCCCCCCCCCCCCC(=O)[O-]
REMARK SMILES IDX 15 1 16 2 17 3 18 4 19 5 20 6 21 7 22 8 23 9 24 10 25 11
REMARK SMILES IDX 26 12 27 13 28 14 29 15 30 16 14 17 13 18 12 19 11 20 10 21
REMARK SMILES IDX 9 22 8 23 7 24 6 25 5 26 4 27 3 28 2 29 1 30
REMARK H PARENT
REMARK Flexibility Score: inf
ROOT
ATOM      1  C   UNL     1     -99.583 150.733 232.940  1.00  0.00     0.000 C 
ENDROOT
BRANCH   1   2
ATOM      2  C   UNL     1     -99.923 149.234 232.808  1.00  0.00     0.000 C 
BRANCH   2   3
ATOM      3  C   UNL     1     -98.857 148.378 232.092  1.00  0.00     0.000 C 
BRANCH   3   4
ATOM      4  C   UNL     1     -97.684 149.172 231.488  1.00  0.00     0.000 C 
BRANCH   4   5
ATOM      5  C   UNL     1     -96.309 148.890 232.126  1.00  0.00     0.000 C 
BRANCH   5   6
ATOM      6  C   UNL     1     -95.327 150.077 232.042  1.00  0.00     0.000 C 
BRANCH   6   7
ATOM      7  C   UNL     1     -95.682 151.206 233.026  1.00  0.00     0.000 C 
BRANCH   7   8
ATOM      8  C   UNL     1     -96.238 152.450 232.314  1.00  0.00     0.000 C 
BRANCH   8   9
ATOM      9  C   UNL     1     -96.108 152.357 230.783  1.00  0.00     0.000 C 
BRANCH   9  10
ATOM     10  C   UNL     1     -97.311 152.973 230.047  1.00  0.00     0.000 C 
BRANCH  10  11
ATOM     11  C   UNL     1     -98.332 153.688 230.955  1.00  0.00     0.000 C 
BRANCH  11  12
ATOM     12  C   UNL     1     -98.679 155.133 230.540  1.00  0.00     0.006 C 
BRANCH  12  13
ATOM     13  C   UNL     1     -98.426 156.186 231.631  1.00  0.00     0.053 C 
BRANCH  13  14
ATOM     14  C   UNL     1     -99.513 156.195 232.662  1.00  0.00     0.041 C 
ATOM     15  O   UNL     1     -99.383 155.535 233.727  1.00  0.00    -0.550 OA
ATOM     16  O   UNL     1    -100.654 156.962 232.464  1.00  0.00    -0.550 OA
ENDBRANCH  13  14
ENDBRANCH  12  13
ENDBRANCH  11  12
ENDBRANCH  10  11
ENDBRANCH   9  10
ENDBRANCH   8   9
ENDBRANCH   7   8
ENDBRANCH   6   7
ENDBRANCH   5   6
ENDBRANCH   4   5
ENDBRANCH   3   4
ENDBRANCH   2   3
ENDBRANCH   1   2
BRANCH   1  17
ATOM     17  C   UNL     1     -99.174 151.189 234.352  1.00  0.00     0.000 C 
BRANCH  17  18
ATOM     18  C   UNL     1     -99.110 150.030 235.360  1.00  0.00     0.000 C 
BRANCH  18  19
ATOM     19  C   UNL     1     -97.675 149.535 235.621  1.00  0.00     0.000 C 
BRANCH  19  20
ATOM     20  C   UNL     1     -97.474 148.011 235.533  1.00  0.00     0.000 C 
BRANCH  20  21
ATOM     21  C   UNL     1     -95.993 147.597 235.493  1.00  0.00     0.000 C 
BRANCH  21  22
ATOM     22  C   UNL     1     -95.039 148.776 235.757  1.00  0.00    -0.000 C 
BRANCH  22  23
ATOM     23  C   UNL     1     -93.912 148.486 236.764  1.00  0.00    -0.000 C 
BRANCH  23  24
ATOM     24  C   UNL     1     -94.211 147.276 237.666  1.00  0.00    -0.000 C 
BRANCH  24  25
ATOM     25  C   UNL     1     -94.781 147.694 239.038  1.00  0.00    -0.000 C 
BRANCH  25  26
ATOM     26  C   UNL     1     -96.195 147.153 239.310  1.00  0.00    -0.000 C 
BRANCH  26  27
ATOM     27  C   UNL     1     -97.277 148.241 239.227  1.00  0.00    -0.000 C 
BRANCH  27  28
ATOM     28  C   UNL     1     -96.687 149.660 239.180  1.00  0.00    -0.000 C 
BRANCH  28  29
ATOM     29  C   UNL     1     -97.770 150.744 239.088  1.00  0.00    -0.003 C 
ATOM     30  C   UNL     1     -99.017 150.343 239.872  1.00  0.00     0.004 C 
ENDBRANCH  28  29
ENDBRANCH  27  28
ENDBRANCH  26  27
ENDBRANCH  25  26
ENDBRANCH  24  25
ENDBRANCH  23  24
ENDBRANCH  22  23
ENDBRANCH  21  22
ENDBRANCH  20  21
ENDBRANCH  19  20
ENDBRANCH  18  19
ENDBRANCH  17  18
ENDBRANCH   1  17
TORSDOF 26
ENDMDL
MODEL 3
REMARK VINA RESULT:    -3.097      1.945      5.282
REMARK INTER + INTRA:         -13.242
REMARK INTER:                  -8.043
REMARK INTRA:                  -5.200
REMARK UNBOUND:                -5.438
REMARK SMILES CCCCCCCCCCCCCCCCCCCCCCCCCCCC(=O)[O-]
REMARK SMILES IDX 15 1 16 2 17 3 18 4 19 5 20 6 21 7 22 8 23 9 24 10 25 11
REMARK SMILES IDX 26 12 27 13 28 14 29 15 30 16 14 17 13 18 12 19 11 20 10 21
REMARK SMILES IDX 9 22 8 23 7 24 6 25 5 26 4 27 3 28 2 29 1 30
REMARK H PARENT
REMARK Flexibility Score: inf
ROOT
ATOM      1  C   UNL     1     -96.063 149.552 238.365  1.00  0.00     0.000 C 
ENDROOT
BRANCH   1   2
ATOM      2  C   UNL     1     -97.006 149.239 239.545  1.00  0.00     0.000 C 
BRANCH   2   3
ATOM      3  C   UNL     1     -98.256 150.138 239.645  1.00  0.00     0.000 C 
BRANCH   3   4
ATOM      4  C   UNL     1     -98.792 150.660 238.299  1.00  0.00     0.000 C 
BRANCH   4   5
ATOM      5  C   UNL     1    -100.143 150.062 237.861  1.00  0.00     0.000 C 
BRANCH   5   6
ATOM      6  C   UNL     1    -100.048 148.604 237.366  1.00  0.00     0.000 C 
BRANCH   6   7
ATOM      7  C   UNL     1     -98.863 148.383 236.408  1.00  0.00     0.000 C 
BRANCH   7   8
ATOM      8  C   UNL     1     -99.322 148.051 234.979  1.00  0.00     0.000 C 
BRANCH   8   9
ATOM      9  C   UNL     1     -98.872 149.110 233.957  1.00  0.00     0.000 C 
BRANCH   9  10
ATOM     10  C   UNL     1     -98.245 150.348 234.622  1.00  0.00     0.000 C 
BRANCH  10  11
ATOM     11  C   UNL     1     -99.140 151.603 234.635  1.00  0.00     0.000 C 
BRANCH  11  12
ATOM     12  C   UNL     1    -100.461 151.475 233.848  1.00  0.00     0.006 C 
BRANCH  12  13
ATOM     13  C   UNL     1    -101.729 151.551 234.714  1.00  0.00     0.053 C 
BRANCH  13  14
ATOM     14  C   UNL     1    -101.778 152.810 235.524  1.00  0.00     0.041 C 
ATOM     15  O   UNL     1    -101.872 152.755 236.778  1.00  0.00    -0.550 OA
ATOM     16  O   UNL     1    -101.682 154.045 234.894  1.00  0.00    -0.550 OA
ENDBRANCH  13  14
ENDBRANCH  12  13
ENDBRANCH  11  12
ENDBRANCH  10  11
ENDBRANCH   9  10
ENDBRANCH   8   9
ENDBRANCH   7   8
ENDBRANCH   6   7
ENDBRANCH   5   6
ENDBRANCH   4   5
ENDBRANCH   3   4
ENDBRANCH   2   3
ENDBRANCH   1   2
BRANCH   1  17
ATOM     17  C   UNL     1     -94.684 148.872 238.431  1.00  0.00     0.000 C 
BRANCH  17  18
ATOM     18  C   UNL     1     -94.037 148.699 237.047  1.00  0.00     0.000 C 
BRANCH  18  19
ATOM     19  C   UNL     1     -95.016 148.954 235.886  1.00  0.00     0.000 C 
BRANCH  19  20
ATOM     20  C   UNL     1     -95.468 147.700 235.114  1.00  0.00     0.000 C 
BRANCH  20  21
ATOM     21  C   UNL     1     -94.374 147.129 234.196  1.00  0.00     0.000 C 
BRANCH  21  22
ATOM     22  C   UNL     1     -94.238 147.910 232.876  1.00  0.00    -0.000 C 
BRANCH  22  23
ATOM     23  C   UNL     1     -95.561 148.161 232.130  1.00  0.00    -0.000 C 
BRANCH  23  24
ATOM     24  C   UNL     1     -95.658 149.580 231.544  1.00  0.00    -0.000 C 
BRANCH  24  25
ATOM     25  C   UNL     1     -95.469 150.672 232.618  1.00  0.00    -0.000 C 
BRANCH  25  26
ATOM     26  C   UNL     1     -95.739 152.097 232.105  1.00  0.00    -0.000 C 
BRANCH  26  27
ATOM     27  C   UNL     1     -97.137 152.254 231.485  1.00  0.00    -0.000 C 
BRANCH  27  28
ATOM     28  C   UNL     1     -97.792 153.600 231.837  1.00  0.00    -0.000 C 
BRANCH  28  29
ATOM     29  C   UNL     1     -97.179 154.242 233.090  1.00  0.00    -0.003 C 
ATOM     30  C   UNL     1     -97.907 155.533 233.457  1.00  0.00     0.004 C 
ENDBRANCH  28  29
ENDBRANCH  27  28
ENDBRANCH  26  27
ENDBRANCH  25  26
ENDBRANCH  24  25
ENDBRANCH  23  24
ENDBRANCH  22  23
ENDBRANCH  21  22
ENDBRANCH  20  21
ENDBRANCH  19  20
ENDBRANCH  18  19
ENDBRANCH  17  18
ENDBRANCH   1  17
TORSDOF 26
ENDMDL
MODEL 4
REMARK VINA RESULT:    -3.092      2.846      4.397
REMARK INTER + INTRA:         -13.229
REMARK INTER:                  -9.017
REMARK INTRA:                  -4.212
REMARK UNBOUND:                -5.438
REMARK SMILES CCCCCCCCCCCCCCCCCCCCCCCCCCCC(=O)[O-]
REMARK SMILES IDX 15 1 16 2 17 3 18 4 19 5 20 6 21 7 22 8 23 9 24 10 25 11
REMARK SMILES IDX 26 12 27 13 28 14 29 15 30 16 14 17 13 18 12 19 11 20 10 21
REMARK SMILES IDX 9 22 8 23 7 24 6 25 5 26 4 27 3 28 2 29 1 30
REMARK H PARENT
REMARK Flexibility Score: inf
ROOT
ATOM      1  C   UNL     1     -93.820 148.299 237.105  1.00  0.00     0.000 C 
ENDROOT
BRANCH   1   2
ATOM      2  C   UNL     1     -94.738 148.148 235.874  1.00  0.00     0.000 C 
BRANCH   2   3
ATOM      3  C   UNL     1     -95.503 149.423 235.463  1.00  0.00     0.000 C 
BRANCH   3   4
ATOM      4  C   UNL     1     -97.010 149.226 235.215  1.00  0.00     0.000 C 
BRANCH   4   5
ATOM      5  C   UNL     1     -97.466 149.455 233.760  1.00  0.00     0.000 C 
BRANCH   5   6
ATOM      6  C   UNL     1     -96.335 149.301 232.721  1.00  0.00     0.000 C 
BRANCH   6   7
ATOM      7  C   UNL     1     -96.232 150.513 231.779  1.00  0.00     0.000 C 
BRANCH   7   8
ATOM      8  C   UNL     1     -95.485 151.693 232.424  1.00  0.00     0.000 C 
BRANCH   8   9
ATOM      9  C   UNL     1     -96.424 152.858 232.780  1.00  0.00     0.000 C 
BRANCH   9  10
ATOM     10  C   UNL     1     -97.654 152.932 231.859  1.00  0.00     0.000 C 
BRANCH  10  11
ATOM     11  C   UNL     1     -99.008 152.709 232.561  1.00  0.00     0.000 C 
BRANCH  11  12
ATOM     12  C   UNL     1     -98.962 152.750 234.103  1.00  0.00     0.006 C 
BRANCH  12  13
ATOM     13  C   UNL     1    -100.124 152.020 234.795  1.00  0.00     0.053 C 
BRANCH  13  14
ATOM     14  C   UNL     1    -100.959 152.954 235.618  1.00  0.00     0.041 C 
ATOM     15  O   UNL     1    -101.480 152.558 236.694  1.00  0.00    -0.550 OA
ATOM     16  O   UNL     1    -101.129 154.272 235.215  1.00  0.00    -0.550 OA
ENDBRANCH  13  14
ENDBRANCH  12  13
ENDBRANCH  11  12
ENDBRANCH  10  11
ENDBRANCH   9  10
ENDBRANCH   8   9
ENDBRANCH   7   8
ENDBRANCH   6   7
ENDBRANCH   5   6
ENDBRANCH   4   5
ENDBRANCH   3   4
ENDBRANCH   2   3
ENDBRANCH   1   2
BRANCH   1  17
ATOM     17  C   UNL     1     -94.507 148.846 238.369  1.00  0.00     0.000 C 
BRANCH  17  18
ATOM     18  C   UNL     1     -95.650 147.945 238.865  1.00  0.00     0.000 C 
BRANCH  18  19
ATOM     19  C   UNL     1     -96.908 148.735 239.272  1.00  0.00     0.000 C 
BRANCH  19  20
ATOM     20  C   UNL     1     -96.839 150.256 239.041  1.00  0.00     0.000 C 
BRANCH  20  21
ATOM     21  C   UNL     1     -98.225 150.917 238.953  1.00  0.00     0.000 C 
BRANCH  21  22
ATOM     22  C   UNL     1     -99.220 150.105 238.104  1.00  0.00    -0.000 C 
BRANCH  22  23
ATOM     23  C   UNL     1    -100.345 149.420 238.901  1.00  0.00    -0.000 C 
BRANCH  23  24
ATOM     24  C   UNL     1    -100.563 150.046 240.289  1.00  0.00    -0.000 C 
BRANCH  24  25
ATOM     25  C   UNL     1    -100.225 149.067 241.434  1.00  0.00    -0.000 C 
BRANCH  25  26
ATOM     26  C   UNL     1     -99.114 149.571 242.371  1.00  0.00    -0.000 C 
BRANCH  26  27
ATOM     27  C   UNL     1     -99.075 151.104 242.481  1.00  0.00    -0.000 C 
BRANCH  27  28
ATOM     28  C   UNL     1     -98.710 151.586 243.894  1.00  0.00    -0.000 C 
BRANCH  28  29
ATOM     29  C   UNL     1     -99.705 151.098 244.957  1.00  0.00    -0.003 C 
ATOM     30  C   UNL     1    -101.067 151.766 244.783  1.00  0.00     0.004 C 
ENDBRANCH  28  29
ENDBRANCH  27  28
ENDBRANCH  26  27
ENDBRANCH  25  26
ENDBRANCH  24  25
ENDBRANCH  23  24
ENDBRANCH  22  23
ENDBRANCH  21  22
ENDBRANCH  20  21
ENDBRANCH  19  20
ENDBRANCH  18  19
ENDBRANCH  17  18
ENDBRANCH   1  17
TORSDOF 26
ENDMDL
MODEL 5
REMARK VINA RESULT:    -3.082      1.147      3.214
REMARK INTER + INTRA:         -13.206
REMARK INTER:                  -8.141
REMARK INTRA:                  -5.064
REMARK UNBOUND:                -5.438
REMARK SMILES CCCCCCCCCCCCCCCCCCCCCCCCCCCC(=O)[O-]
REMARK SMILES IDX 15 1 16 2 17 3 18 4 19 5 20 6 21 7 22 8 23 9 24 10 25 11
REMARK SMILES IDX 26 12 27 13 28 14 29 15 30 16 14 17 13 18 12 19 11 20 10 21
REMARK SMILES IDX 9 22 8 23 7 24 6 25 5 26 4 27 3 28 2 29 1 30
REMARK H PARENT
REMARK Flexibility Score: inf
ROOT
ATOM      1  C   UNL     1     -98.553 149.163 234.185  1.00  0.00     0.000 C 
ENDROOT
BRANCH   1   2
ATOM      2  C   UNL     1     -98.257 148.391 232.883  1.00  0.00     0.000 C 
BRANCH   2   3
ATOM      3  C   UNL     1     -97.533 149.200 231.788  1.00  0.00     0.000 C 
BRANCH   3   4
ATOM      4  C   UNL     1     -95.995 149.126 231.834  1.00  0.00     0.000 C 
BRANCH   4   5
ATOM      5  C   UNL     1     -95.283 150.484 231.996  1.00  0.00     0.000 C 
BRANCH   5   6
ATOM      6  C   UNL     1     -95.810 151.327 233.176  1.00  0.00     0.000 C 
BRANCH   6   7
ATOM      7  C   UNL     1     -96.226 152.745 232.747  1.00  0.00     0.000 C 
BRANCH   7   8
ATOM      8  C   UNL     1     -97.285 152.731 231.632  1.00  0.00     0.000 C 
BRANCH   8   9
ATOM      9  C   UNL     1     -98.707 152.506 232.175  1.00  0.00     0.000 C 
BRANCH   9  10
ATOM     10  C   UNL     1     -98.828 152.831 233.674  1.00  0.00     0.000 C 
BRANCH  10  11
ATOM     11  C   UNL     1     -99.981 153.786 234.041  1.00  0.00     0.000 C 
BRANCH  11  12
ATOM     12  C   UNL     1    -100.458 154.708 232.899  1.00  0.00     0.006 C 
BRANCH  12  13
ATOM     13  C   UNL     1     -99.961 156.159 233.003  1.00  0.00     0.053 C 
BRANCH  13  14
ATOM     14  C   UNL     1     -98.582 156.319 232.438  1.00  0.00     0.041 C 
ATOM     15  O   UNL     1     -97.574 156.172 233.177  1.00  0.00    -0.550 OA
ATOM     16  O   UNL     1     -98.412 156.593 231.087  1.00  0.00    -0.550 OA
ENDBRANCH  13  14
ENDBRANCH  12  13
ENDBRANCH  11  12
ENDBRANCH  10  11
ENDBRANCH   9  10
ENDBRANCH   8   9
ENDBRANCH   7   8
ENDBRANCH   6   7
ENDBRANCH   5   6
ENDBRANCH   4   5
ENDBRANCH   3   4
ENDBRANCH   2   3
ENDBRANCH   1   2
BRANCH   1  17
ATOM     17  C   UNL     1     -97.523 148.965 235.312  1.00  0.00     0.000 C 
BRANCH  17  18
ATOM     18  C   UNL     1     -97.123 147.493 235.503  1.00  0.00     0.000 C 
BRANCH  18  19
ATOM     19  C   UNL     1     -95.619 147.242 235.283  1.00  0.00     0.000 C 
BRANCH  19  20
ATOM     20  C   UNL     1     -94.730 148.499 235.294  1.00  0.00     0.000 C 
BRANCH  20  21
ATOM     21  C   UNL     1     -94.003 148.714 236.632  1.00  0.00     0.000 C 
BRANCH  21  22
ATOM     22  C   UNL     1     -94.235 147.562 237.627  1.00  0.00    -0.000 C 
BRANCH  22  23
ATOM     23  C   UNL     1     -95.147 147.906 238.818  1.00  0.00    -0.000 C 
BRANCH  23  24
ATOM     24  C   UNL     1     -95.757 149.315 238.719  1.00  0.00    -0.000 C 
BRANCH  24  25
ATOM     25  C   UNL     1     -97.278 149.314 238.979  1.00  0.00    -0.000 C 
BRANCH  25  26
ATOM     26  C   UNL     1     -97.921 150.709 238.892  1.00  0.00    -0.000 C 
BRANCH  26  27
ATOM     27  C   UNL     1     -99.376 150.667 238.399  1.00  0.00    -0.000 C 
BRANCH  27  28
ATOM     28  C   UNL     1     -99.577 151.438 237.084  1.00  0.00    -0.000 C 
BRANCH  28  29
ATOM     29  C   UNL     1    -101.060 151.587 236.711  1.00  0.00    -0.003 C 
ATOM     30  C   UNL     1    -101.564 150.354 235.965  1.00  0.00     0.004 C 
ENDBRANCH  28  29
ENDBRANCH  27  28
ENDBRANCH  26  27
ENDBRANCH  25  26
ENDBRANCH  24  25
ENDBRANCH  23  24
ENDBRANCH  22  23
ENDBRANCH  21  22
ENDBRANCH  20  21
ENDBRANCH  19  20
ENDBRANCH  18  19
ENDBRANCH  17  18
ENDBRANCH   1  17
TORSDOF 26
ENDMDL
MODEL 6
REMARK VINA RESULT:    -3.060      3.454      7.273
REMARK INTER + INTRA:         -13.150
REMARK INTER:                  -8.692
REMARK INTRA:                  -4.458
REMARK UNBOUND:                -5.438
REMARK SMILES CCCCCCCCCCCCCCCCCCCCCCCCCCCC(=O)[O-]
REMARK SMILES IDX 15 1 16 2 17 3 18 4 19 5 20 6 21 7 22 8 23 9 24 10 25 11
REMARK SMILES IDX 26 12 27 13 28 14 29 15 30 16 14 17 13 18 12 19 11 20 10 21
REMARK SMILES IDX 9 22 8 23 7 24 6 25 5 26 4 27 3 28 2 29 1 30
REMARK H PARENT
REMARK Flexibility Score: inf
ROOT
ATOM      1  C   UNL     1     -96.811 149.045 235.161  1.00  0.00     0.000 C 
ENDROOT
BRANCH   1   2
ATOM      2  C   UNL     1     -95.373 149.478 235.513  1.00  0.00     0.000 C 
BRANCH   2   3
ATOM      3  C   UNL     1     -94.387 148.323 235.785  1.00  0.00     0.000 C 
BRANCH   3   4
ATOM      4  C   UNL     1     -93.751 148.327 237.187  1.00  0.00     0.000 C 
BRANCH   4   5
ATOM      5  C   UNL     1     -94.612 148.972 238.291  1.00  0.00     0.000 C 
BRANCH   5   6
ATOM      6  C   UNL     1     -95.552 147.979 239.007  1.00  0.00     0.000 C 
BRANCH   6   7
ATOM      7  C   UNL     1     -96.918 148.602 239.345  1.00  0.00     0.000 C 
BRANCH   7   8
ATOM      8  C   UNL     1     -96.964 150.109 239.044  1.00  0.00     0.000 C 
BRANCH   8   9
ATOM      9  C   UNL     1     -98.260 150.525 238.326  1.00  0.00     0.000 C 
BRANCH   9  10
ATOM     10  C   UNL     1     -99.349 149.440 238.391  1.00  0.00     0.000 C 
BRANCH  10  11
ATOM     11  C   UNL     1    -100.682 149.894 239.019  1.00  0.00     0.000 C 
BRANCH  11  12
ATOM     12  C   UNL     1    -100.598 150.319 240.500  1.00  0.00     0.006 C 
BRANCH  12  13
ATOM     13  C   UNL     1     -99.822 149.343 241.400  1.00  0.00     0.053 C 
BRANCH  13  14
ATOM     14  C   UNL     1     -99.528 149.936 242.744  1.00  0.00     0.041 C 
ATOM     15  O   UNL     1    -100.005 149.414 243.786  1.00  0.00    -0.550 OA
ATOM     16  O   UNL     1     -98.694 151.043 242.848  1.00  0.00    -0.550 OA
ENDBRANCH  13  14
ENDBRANCH  12  13
ENDBRANCH  11  12
ENDBRANCH  10  11
ENDBRANCH   9  10
ENDBRANCH   8   9
ENDBRANCH   7   8
ENDBRANCH   6   7
ENDBRANCH   5   6
ENDBRANCH   4   5
ENDBRANCH   3   4
ENDBRANCH   2   3
ENDBRANCH   1   2
BRANCH   1  17
ATOM     17  C   UNL     1     -97.235 149.308 233.704  1.00  0.00     0.000 C 
BRANCH  17  18
ATOM     18  C   UNL     1     -96.043 149.594 232.777  1.00  0.00     0.000 C 
BRANCH  18  19
ATOM     19  C   UNL     1     -96.190 150.911 231.992  1.00  0.00     0.000 C 
BRANCH  19  20
ATOM     20  C   UNL     1     -96.116 152.197 232.837  1.00  0.00     0.000 C 
BRANCH  20  21
ATOM     21  C   UNL     1     -97.222 153.209 232.495  1.00  0.00     0.000 C 
BRANCH  21  22
ATOM     22  C   UNL     1     -97.265 154.397 233.474  1.00  0.00    -0.000 C 
BRANCH  22  23
ATOM     23  C   UNL     1     -98.423 155.385 233.246  1.00  0.00    -0.000 C 
BRANCH  23  24
ATOM     24  C   UNL     1     -99.572 154.781 232.421  1.00  0.00    -0.000 C 
BRANCH  24  25
ATOM     25  C   UNL     1    -100.945 154.972 233.101  1.00  0.00    -0.000 C 
BRANCH  25  26
ATOM     26  C   UNL     1    -100.882 154.942 234.638  1.00  0.00    -0.000 C 
BRANCH  26  27
ATOM     27  C   UNL     1    -101.173 153.550 235.221  1.00  0.00    -0.000 C 
BRANCH  27  28
ATOM     28  C   UNL     1     -99.891 152.777 235.574  1.00  0.00    -0.000 C 
BRANCH  28  29
ATOM     29  C   UNL     1     -99.912 151.334 235.049  1.00  0.00    -0.003 C 
ATOM     30  C   UNL     1    -100.268 151.294 233.565  1.00  0.00     0.004 C 
ENDBRANCH  28  29
ENDBRANCH  27  28
ENDBRANCH  26  27
ENDBRANCH  25  26
ENDBRANCH  24  25
ENDBRANCH  23  24
ENDBRANCH  22  23
ENDBRANCH  21  22
ENDBRANCH  20  21
ENDBRANCH  19  20
ENDBRANCH  18  19
ENDBRANCH  17  18
ENDBRANCH   1  17
TORSDOF 26
ENDMDL
MODEL 7
REMARK VINA RESULT:    -3.057      1.905      4.118
REMARK INTER + INTRA:         -13.141
REMARK INTER:                  -7.495
REMARK INTRA:                  -5.646
REMARK UNBOUND:                -5.438
REMARK SMILES CCCCCCCCCCCCCCCCCCCCCCCCCCCC(=O)[O-]
REMARK SMILES IDX 15 1 16 2 17 3 18 4 19 5 20 6 21 7 22 8 23 9 24 10 25 11
REMARK SMILES IDX 26 12 27 13 28 14 29 15 30 16 14 17 13 18 12 19 11 20 10 21
REMARK SMILES IDX 9 22 8 23 7 24 6 25 5 26 4 27 3 28 2 29 1 30
REMARK H PARENT
REMARK Flexibility Score: inf
ROOT
ATOM      1  C   UNL     1     -96.839 150.256 239.005  1.00  0.00     0.000 C 
ENDROOT
BRANCH   1   2
ATOM      2  C   UNL     1     -95.676 149.461 238.376  1.00  0.00     0.000 C 
BRANCH   2   3
ATOM      3  C   UNL     1     -95.659 147.952 238.700  1.00  0.00     0.000 C 
BRANCH   3   4
ATOM      4  C   UNL     1     -94.486 147.168 238.083  1.00  0.00     0.000 C 
BRANCH   4   5
ATOM      5  C   UNL     1     -93.734 147.901 236.955  1.00  0.00     0.000 C 
BRANCH   5   6
ATOM      6  C   UNL     1     -93.574 147.066 235.667  1.00  0.00     0.000 C 
BRANCH   6   7
ATOM      7  C   UNL     1     -94.196 147.754 234.439  1.00  0.00     0.000 C 
BRANCH   7   8
ATOM      8  C   UNL     1     -95.595 148.321 234.732  1.00  0.00     0.000 C 
BRANCH   8   9
ATOM      9  C   UNL     1     -95.646 149.853 234.604  1.00  0.00     0.000 C 
BRANCH   9  10
ATOM     10  C   UNL     1     -96.378 150.318 233.333  1.00  0.00     0.000 C 
BRANCH  10  11
ATOM     11  C   UNL     1     -95.732 151.518 232.611  1.00  0.00     0.000 C 
BRANCH  11  12
ATOM     12  C   UNL     1     -96.667 152.723 232.378  1.00  0.00     0.006 C 
BRANCH  12  13
ATOM     13  C   UNL     1     -97.873 152.788 233.330  1.00  0.00     0.053 C 
BRANCH  13  14
ATOM     14  C   UNL     1     -99.174 152.765 232.586  1.00  0.00     0.041 C 
ATOM     15  O   UNL     1     -99.184 152.722 231.328  1.00  0.00    -0.550 OA
ATOM     16  O   UNL     1    -100.374 152.753 233.286  1.00  0.00    -0.550 OA
ENDBRANCH  13  14
ENDBRANCH  12  13
ENDBRANCH  11  12
ENDBRANCH  10  11
ENDBRANCH   9  10
ENDBRANCH   8   9
ENDBRANCH   7   8
ENDBRANCH   6   7
ENDBRANCH   5   6
ENDBRANCH   4   5
ENDBRANCH   3   4
ENDBRANCH   2   3
ENDBRANCH   1   2
BRANCH   1  17
ATOM     17  C   UNL     1     -97.630 149.508 240.094  1.00  0.00     0.000 C 
BRANCH  17  18
ATOM     18  C   UNL     1     -98.886 150.269 240.548  1.00  0.00     0.000 C 
BRANCH  18  19
ATOM     19  C   UNL     1    -100.189 149.482 240.308  1.00  0.00     0.000 C 
BRANCH  19  20
ATOM     20  C   UNL     1    -100.007 148.008 239.902  1.00  0.00     0.000 C 
BRANCH  20  21
ATOM     21  C   UNL     1    -100.328 147.745 238.421  1.00  0.00     0.000 C 
BRANCH  21  22
ATOM     22  C   UNL     1     -99.170 147.058 237.674  1.00  0.00    -0.000 C 
BRANCH  22  23
ATOM     23  C   UNL     1     -98.615 147.845 236.473  1.00  0.00    -0.000 C 
BRANCH  23  24
ATOM     24  C   UNL     1     -99.694 148.192 235.433  1.00  0.00    -0.000 C 
BRANCH  24  25
ATOM     25  C   UNL     1     -99.717 149.696 235.091  1.00  0.00    -0.000 C 
BRANCH  25  26
ATOM     26  C   UNL     1     -98.931 150.568 236.086  1.00  0.00    -0.000 C 
BRANCH  26  27
ATOM     27  C   UNL     1     -99.843 151.355 237.040  1.00  0.00    -0.000 C 
BRANCH  27  28
ATOM     28  C   UNL     1    -101.301 151.409 236.555  1.00  0.00    -0.000 C 
BRANCH  28  29
ATOM     29  C   UNL     1    -102.285 150.832 237.584  1.00  0.00    -0.003 C 
ATOM     30  C   UNL     1    -103.119 149.707 236.977  1.00  0.00     0.004 C 
ENDBRANCH  28  29
ENDBRANCH  27  28
ENDBRANCH  26  27
ENDBRANCH  25  26
ENDBRANCH  24  25
ENDBRANCH  23  24
ENDBRANCH  22  23
ENDBRANCH  21  22
ENDBRANCH  20  21
ENDBRANCH  19  20
ENDBRANCH  18  19
ENDBRANCH  17  18
ENDBRANCH   1  17
TORSDOF 26
ENDMDL
MODEL 8
REMARK VINA RESULT:    -3.026      1.287      4.133
REMARK INTER + INTRA:         -13.064
REMARK INTER:                  -8.344
REMARK INTRA:                  -4.720
REMARK UNBOUND:                -5.438
REMARK SMILES CCCCCCCCCCCCCCCCCCCCCCCCCCCC(=O)[O-]
REMARK SMILES IDX 15 1 16 2 17 3 18 4 19 5 20 6 21 7 22 8 23 9 24 10 25 11
REMARK SMILES IDX 26 12 27 13 28 14 29 15 30 16 14 17 13 18 12 19 11 20 10 21
REMARK SMILES IDX 9 22 8 23 7 24 6 25 5 26 4 27 3 28 2 29 1 30
REMARK H PARENT
REMARK Flexibility Score: inf
ROOT
ATOM      1  C   UNL     1     -98.735 149.361 231.488  1.00  0.00     0.000 C 
ENDROOT
BRANCH   1   2
ATOM      2  C   UNL     1     -97.866 148.615 230.455  1.00  0.00     0.000 C 
BRANCH   2   3
ATOM      3  C   UNL     1     -96.414 148.337 230.895  1.00  0.00     0.000 C 
BRANCH   3   4
ATOM      4  C   UNL     1     -95.458 149.538 230.780  1.00  0.00     0.000 C 
BRANCH   4   5
ATOM      5  C   UNL     1     -94.978 150.120 232.124  1.00  0.00     0.000 C 
BRANCH   5   6
ATOM      6  C   UNL     1     -95.481 151.553 232.399  1.00  0.00     0.000 C 
BRANCH   6   7
ATOM      7  C   UNL     1     -96.124 152.198 231.158  1.00  0.00     0.000 C 
BRANCH   7   8
ATOM      8  C   UNL     1     -97.346 153.060 231.516  1.00  0.00     0.000 C 
BRANCH   8   9
ATOM      9  C   UNL     1     -97.285 153.598 232.956  1.00  0.00     0.000 C 
BRANCH   9  10
ATOM     10  C   UNL     1     -98.581 153.335 233.743  1.00  0.00     0.000 C 
BRANCH  10  11
ATOM     11  C   UNL     1     -99.830 154.059 233.200  1.00  0.00     0.000 C 
BRANCH  11  12
ATOM     12  C   UNL     1    -100.032 155.497 233.721  1.00  0.00     0.006 C 
BRANCH  12  13
ATOM     13  C   UNL     1    -100.015 156.578 232.627  1.00  0.00     0.053 C 
BRANCH  13  14
ATOM     14  C   UNL     1     -98.653 156.742 232.025  1.00  0.00     0.041 C 
ATOM     15  O   UNL     1     -98.474 156.540 230.795  1.00  0.00    -0.550 OA
ATOM     16  O   UNL     1     -97.589 157.157 232.816  1.00  0.00    -0.550 OA
ENDBRANCH  13  14
ENDBRANCH  12  13
ENDBRANCH  11  12
ENDBRANCH  10  11
ENDBRANCH   9  10
ENDBRANCH   8   9
ENDBRANCH   7   8
ENDBRANCH   6   7
ENDBRANCH   5   6
ENDBRANCH   4   5
ENDBRANCH   3   4
ENDBRANCH   2   3
ENDBRANCH   1   2
BRANCH   1  17
ATOM     17  C   UNL     1     -98.721 148.767 232.908  1.00  0.00     0.000 C 
BRANCH  17  18
ATOM     18  C   UNL     1     -98.353 149.801 233.984  1.00  0.00     0.000 C 
BRANCH  18  19
ATOM     19  C   UNL     1     -97.244 149.314 234.937  1.00  0.00     0.000 C 
BRANCH  19  20
ATOM     20  C   UNL     1     -96.993 147.795 234.938  1.00  0.00     0.000 C 
BRANCH  20  21
ATOM     21  C   UNL     1     -95.499 147.429 234.911  1.00  0.00     0.000 C 
BRANCH  21  22
ATOM     22  C   UNL     1     -94.597 148.575 235.406  1.00  0.00    -0.000 C 
BRANCH  22  23
ATOM     23  C   UNL     1     -93.927 148.331 236.770  1.00  0.00    -0.000 C 
BRANCH  23  24
ATOM     24  C   UNL     1     -94.703 148.961 237.939  1.00  0.00    -0.000 C 
BRANCH  24  25
ATOM     25  C   UNL     1     -95.617 147.943 238.653  1.00  0.00    -0.000 C 
BRANCH  25  26
ATOM     26  C   UNL     1     -96.828 148.584 239.353  1.00  0.00    -0.000 C 
BRANCH  26  27
ATOM     27  C   UNL     1     -96.981 150.080 239.032  1.00  0.00    -0.000 C 
BRANCH  27  28
ATOM     28  C   UNL     1     -98.276 150.678 239.606  1.00  0.00    -0.000 C 
BRANCH  28  29
ATOM     29  C   UNL     1     -99.499 150.387 238.724  1.00  0.00    -0.003 C 
ATOM     30  C   UNL     1     -99.360 151.050 237.356  1.00  0.00     0.004 C 
ENDBRANCH  28  29
ENDBRANCH  27  28
ENDBRANCH  26  27
ENDBRANCH  25  26
ENDBRANCH  24  25
ENDBRANCH  23  24
ENDBRANCH  22  23
ENDBRANCH  21  22
ENDBRANCH  20  21
ENDBRANCH  19  20
ENDBRANCH  18  19
ENDBRANCH  17  18
ENDBRANCH   1  17
TORSDOF 26
ENDMDL
MODEL 9
REMARK VINA RESULT:    -2.982      1.450      2.660
REMARK INTER + INTRA:         -12.953
REMARK INTER:                  -8.662
REMARK INTRA:                  -4.291
REMARK UNBOUND:                -5.438
REMARK SMILES CCCCCCCCCCCCCCCCCCCCCCCCCCCC(=O)[O-]
REMARK SMILES IDX 15 1 16 2 17 3 18 4 19 5 20 6 21 7 22 8 23 9 24 10 25 11
REMARK SMILES IDX 26 12 27 13 28 14 29 15 30 16 14 17 13 18 12 19 11 20 10 21
REMARK SMILES IDX 9 22 8 23 7 24 6 25 5 26 4 27 3 28 2 29 1 30
REMARK H PARENT
REMARK Flexibility Score: inf
ROOT
ATOM      1  C   UNL     1     -94.348 148.748 237.577  1.00  0.00     0.000 C 
ENDROOT
BRANCH   1   2
ATOM      2  C   UNL     1     -93.859 148.015 236.312  1.00  0.00     0.000 C 
BRANCH   2   3
ATOM      3  C   UNL     1     -94.777 148.145 235.079  1.00  0.00     0.000 C 
BRANCH   3   4
ATOM      4  C   UNL     1     -95.937 149.146 235.234  1.00  0.00     0.000 C 
BRANCH   4   5
ATOM      5  C   UNL     1     -96.253 149.976 233.975  1.00  0.00     0.000 C 
BRANCH   5   6
ATOM      6  C   UNL     1     -95.575 149.448 232.693  1.00  0.00     0.000 C 
BRANCH   6   7
ATOM      7  C   UNL     1     -95.148 150.582 231.744  1.00  0.00     0.000 C 
BRANCH   7   8
ATOM      8  C   UNL     1     -95.618 151.962 232.232  1.00  0.00     0.000 C 
BRANCH   8   9
ATOM      9  C   UNL     1     -96.659 152.594 231.291  1.00  0.00     0.000 C 
BRANCH   9  10
ATOM     10  C   UNL     1     -97.889 153.132 232.043  1.00  0.00     0.000 C 
BRANCH  10  11
ATOM     11  C   UNL     1     -97.574 153.884 233.352  1.00  0.00     0.000 C 
BRANCH  11  12
ATOM     12  C   UNL     1     -97.667 155.421 233.264  1.00  0.00     0.006 C 
BRANCH  12  13
ATOM     13  C   UNL     1     -98.425 155.944 232.032  1.00  0.00     0.053 C 
BRANCH  13  14
ATOM     14  C   UNL     1     -99.809 156.400 232.380  1.00  0.00     0.041 C 
ATOM     15  O   UNL     1    -100.662 155.575 232.801  1.00  0.00    -0.550 OA
ATOM     16  O   UNL     1    -100.145 157.744 232.275  1.00  0.00    -0.550 OA
ENDBRANCH  13  14
ENDBRANCH  12  13
ENDBRANCH  11  12
ENDBRANCH  10  11
ENDBRANCH   9  10
ENDBRANCH   8   9
ENDBRANCH   7   8
ENDBRANCH   6   7
ENDBRANCH   5   6
ENDBRANCH   4   5
ENDBRANCH   3   4
ENDBRANCH   2   3
ENDBRANCH   1   2
BRANCH   1  17
ATOM     17  C   UNL     1     -95.008 147.851 238.640  1.00  0.00     0.000 C 
BRANCH  17  18
ATOM     18  C   UNL     1     -96.338 148.422 239.160  1.00  0.00     0.000 C 
BRANCH  18  19
ATOM     19  C   UNL     1     -96.678 149.801 238.565  1.00  0.00     0.000 C 
BRANCH  19  20
ATOM     20  C   UNL     1     -97.626 150.671 239.411  1.00  0.00     0.000 C 
BRANCH  20  21
ATOM     21  C   UNL     1     -98.394 149.869 240.476  1.00  0.00     0.000 C 
BRANCH  21  22
ATOM     22  C   UNL     1     -99.834 149.535 240.046  1.00  0.00    -0.000 C 
BRANCH  22  23
ATOM     23  C   UNL     1    -100.082 148.055 239.703  1.00  0.00    -0.000 C 
BRANCH  23  24
ATOM     24  C   UNL     1    -100.097 147.785 238.188  1.00  0.00    -0.000 C 
BRANCH  24  25
ATOM     25  C   UNL     1    -100.482 149.039 237.374  1.00  0.00    -0.000 C 
BRANCH  25  26
ATOM     26  C   UNL     1     -99.555 149.306 236.176  1.00  0.00    -0.000 C 
BRANCH  26  27
ATOM     27  C   UNL     1     -99.212 150.795 236.007  1.00  0.00    -0.000 C 
BRANCH  27  28
ATOM     28  C   UNL     1    -100.192 151.716 236.750  1.00  0.00    -0.000 C 
BRANCH  28  29
ATOM     29  C   UNL     1    -100.877 152.722 235.814  1.00  0.00    -0.003 C 
ATOM     30  C   UNL     1    -100.749 152.292 234.355  1.00  0.00     0.004 C 
ENDBRANCH  28  29
ENDBRANCH  27  28
ENDBRANCH  26  27
ENDBRANCH  25  26
ENDBRANCH  24  25
ENDBRANCH  23  24
ENDBRANCH  22  23
ENDBRANCH  21  22
ENDBRANCH  20  21
ENDBRANCH  19  20
ENDBRANCH  18  19
ENDBRANCH  17  18
ENDBRANCH   1  17
TORSDOF 26
ENDMDL
