MODEL 1
REMARK VINA RESULT:    -5.128      0.000      0.000
REMARK INTER + INTRA:          -7.852
REMARK INTER:                  -6.926
REMARK INTRA:                  -0.926
REMARK UNBOUND:                -0.926
REMARK SMILES CC(=O)CCC=C(C)CCC=C(C)C
REMARK SMILES IDX 7 1 6 2 8 3 9 4 10 5 11 6 13 7 12 8 14 9 5 10 4 11 2 12 3 13
REMARK SMILES IDX 1 14
REMARK H PARENT
REMARK Flexibility Score: inf
ROOT
ATOM      1  C   UNL     1     -26.404  19.805 -33.587  1.00  0.00    -0.077 C 
ATOM      2  C   UNL     1     -27.443  20.606 -33.921  1.00  0.00    -0.028 C 
ATOM      3  C   UNL     1     -26.489  18.823 -32.443  1.00  0.00     0.039 C 
ENDROOT
BRANCH   1   4
ATOM      4  C   UNL     1     -25.137  19.854 -34.414  1.00  0.00     0.034 C 
BRANCH   4   5
ATOM      5  C   UNL     1     -23.889  20.009 -33.535  1.00  0.00     0.032 C 
BRANCH   5   6
ATOM      6  C   UNL     1     -23.881  21.341 -32.819  1.00  0.00    -0.028 C 
ATOM      7  C   UNL     1     -23.198  20.362 -30.616  1.00  0.00     0.039 C 
ATOM      8  C   UNL     1     -23.549  21.519 -31.521  1.00  0.00    -0.080 C 
ATOM      9  C   UNL     1     -23.526  22.922 -30.973  1.00  0.00     0.039 C 
ENDBRANCH   5   6
ENDBRANCH   4   5
ENDBRANCH   1   4
BRANCH   2  10
ATOM     10  C   UNL     1     -28.757  20.652 -33.185  1.00  0.00     0.035 C 
BRANCH  10  11
ATOM     11  C   UNL     1     -29.810  19.796 -33.897  1.00  0.00     0.079 C 
BRANCH  11  12
ATOM     12  C   UNL     1     -30.355  18.745 -32.971  1.00  0.00     0.130 C 
ATOM     13  O   UNL     1     -31.123  19.063 -32.074  1.00  0.00    -0.300 OA
ATOM     14  C   UNL     1     -29.946  17.311 -33.125  1.00  0.00     0.087 C 
ENDBRANCH  11  12
ENDBRANCH  10  11
ENDBRANCH   2  10
TORSDOF 6
ENDMDL
MODEL 2
REMARK VINA RESULT:    -5.098      3.155      6.565
REMARK INTER + INTRA:          -7.812
REMARK INTER:                  -7.424
REMARK INTRA:                  -0.388
REMARK UNBOUND:                -0.926
REMARK SMILES CC(=O)CCC=C(C)CCC=C(C)C
REMARK SMILES IDX 7 1 6 2 8 3 9 4 10 5 11 6 13 7 12 8 14 9 5 10 4 11 2 12 3 13
REMARK SMILES IDX 1 14
REMARK H PARENT
REMARK Flexibility Score: inf
ROOT
ATOM      1  C   UNL     1     -29.789  17.919 -33.139  1.00  0.00    -0.077 C 
ATOM      2  C   UNL     1     -28.585  18.536 -33.155  1.00  0.00    -0.028 C 
ATOM      3  C   UNL     1     -31.084  18.694 -33.082  1.00  0.00     0.039 C 
ENDROOT
BRANCH   1   4
ATOM      4  C   UNL     1     -29.847  16.409 -33.232  1.00  0.00     0.034 C 
BRANCH   4   5
ATOM      5  C   UNL     1     -28.958  15.738 -32.177  1.00  0.00     0.032 C 
BRANCH   5   6
ATOM      6  C   UNL     1     -29.749  14.773 -31.323  1.00  0.00    -0.028 C 
ATOM      7  C   UNL     1     -27.722  13.551 -30.501  1.00  0.00     0.039 C 
ATOM      8  C   UNL     1     -29.209  13.806 -30.548  1.00  0.00    -0.080 C 
ATOM      9  C   UNL     1     -30.132  12.966 -29.703  1.00  0.00     0.039 C 
ENDBRANCH   5   6
ENDBRANCH   4   5
ENDBRANCH   1   4
BRANCH   2  10
ATOM     10  C   UNL     1     -28.389  20.029 -33.072  1.00  0.00     0.035 C 
BRANCH  10  11
ATOM     11  C   UNL     1     -27.590  20.541 -34.274  1.00  0.00     0.079 C 
BRANCH  11  12
ATOM     12  C   UNL     1     -26.157  20.095 -34.190  1.00  0.00     0.130 C 
ATOM     13  O   UNL     1     -25.541  19.834 -35.214  1.00  0.00    -0.300 OA
ATOM     14  C   UNL     1     -25.485  19.945 -32.859  1.00  0.00     0.087 C 
ENDBRANCH  11  12
ENDBRANCH  10  11
ENDBRANCH   2  10
TORSDOF 6
ENDMDL
MODEL 3
REMARK VINA RESULT:    -5.080      3.053      6.562
REMARK INTER + INTRA:          -7.788
REMARK INTER:                  -7.038
REMARK INTRA:                  -0.749
REMARK UNBOUND:                -0.926
REMARK SMILES CC(=O)CCC=C(C)CCC=C(C)C
REMARK SMILES IDX 7 1 6 2 8 3 9 4 10 5 11 6 13 7 12 8 14 9 5 10 4 11 2 12 3 13
REMARK SMILES IDX 1 14
REMARK H PARENT
REMARK Flexibility Score: inf
ROOT
ATOM      1  C   UNL     1     -28.214  18.435 -32.753  1.00  0.00    -0.077 C 
ATOM      2  C   UNL     1     -27.901  19.549 -33.455  1.00  0.00    -0.028 C 
ATOM      3  C   UNL     1     -27.353  17.939 -31.616  1.00  0.00     0.039 C 
ENDROOT
BRANCH   1   4
ATOM      4  C   UNL     1     -29.491  17.690 -33.080  1.00  0.00     0.034 C 
BRANCH   4   5
ATOM      5  C   UNL     1     -29.253  16.181 -33.213  1.00  0.00     0.032 C 
BRANCH   5   6
ATOM      6  C   UNL     1     -30.156  15.396 -32.290  1.00  0.00    -0.028 C 
ATOM      7  C   UNL     1     -28.266  14.422 -30.965  1.00  0.00     0.039 C 
ATOM      8  C   UNL     1     -29.731  14.626 -31.263  1.00  0.00    -0.080 C 
ATOM      9  C   UNL     1     -30.765  13.958 -30.393  1.00  0.00     0.039 C 
ENDBRANCH   5   6
ENDBRANCH   4   5
ENDBRANCH   1   4
BRANCH   2  10
ATOM     10  C   UNL     1     -26.665  20.382 -33.229  1.00  0.00     0.035 C 
BRANCH  10  11
ATOM     11  C   UNL     1     -25.502  19.873 -34.086  1.00  0.00     0.079 C 
BRANCH  11  12
ATOM     12  C   UNL     1     -24.207  19.951 -33.326  1.00  0.00     0.130 C 
ATOM     13  O   UNL     1     -23.253  20.545 -33.809  1.00  0.00    -0.300 OA
ATOM     14  C   UNL     1     -24.069  19.287 -31.990  1.00  0.00     0.087 C 
ENDBRANCH  11  12
ENDBRANCH  10  11
ENDBRANCH   2  10
TORSDOF 6
ENDMDL
MODEL 4
REMARK VINA RESULT:    -5.014      4.356      7.047
REMARK INTER + INTRA:          -7.699
REMARK INTER:                  -7.006
REMARK INTRA:                  -0.693
REMARK UNBOUND:                -0.926
REMARK SMILES CC(=O)CCC=C(C)CCC=C(C)C
REMARK SMILES IDX 7 1 6 2 8 3 9 4 10 5 11 6 13 7 12 8 14 9 5 10 4 11 2 12 3 13
REMARK SMILES IDX 1 14
REMARK H PARENT
REMARK Flexibility Score: inf
ROOT
ATOM      1  C   UNL     1     -29.836  14.645 -31.335  1.00  0.00    -0.077 C 
ATOM      2  C   UNL     1     -28.490  14.717 -31.210  1.00  0.00    -0.028 C 
ATOM      3  C   UNL     1     -30.659  13.650 -30.552  1.00  0.00     0.039 C 
ENDROOT
BRANCH   1   4
ATOM      4  C   UNL     1     -30.546  15.622 -32.247  1.00  0.00     0.034 C 
BRANCH   4   5
ATOM      5  C   UNL     1     -29.573  16.317 -33.208  1.00  0.00     0.032 C 
BRANCH   5   6
ATOM      6  C   UNL     1     -29.782  17.814 -33.219  1.00  0.00    -0.028 C 
ATOM      7  C   UNL     1     -27.498  18.327 -32.327  1.00  0.00     0.039 C 
ATOM      8  C   UNL     1     -28.855  18.727 -32.853  1.00  0.00    -0.080 C 
ATOM      9  C   UNL     1     -29.198  20.188 -32.983  1.00  0.00     0.039 C 
ENDBRANCH   5   6
ENDBRANCH   4   5
ENDBRANCH   1   4
BRANCH   2  10
ATOM     10  C   UNL     1     -27.664  13.809 -30.336  1.00  0.00     0.035 C 
BRANCH  10  11
ATOM     11  C   UNL     1     -26.527  14.585 -29.665  1.00  0.00     0.079 C 
BRANCH  11  12
ATOM     12  C   UNL     1     -25.249  13.793 -29.700  1.00  0.00     0.130 C 
ATOM     13  O   UNL     1     -24.205  14.338 -30.032  1.00  0.00    -0.300 OA
ATOM     14  C   UNL     1     -25.249  12.336 -29.352  1.00  0.00     0.087 C 
ENDBRANCH  11  12
ENDBRANCH  10  11
ENDBRANCH   2  10
TORSDOF 6
ENDMDL
MODEL 5
REMARK VINA RESULT:    -4.944      1.582      2.118
REMARK INTER + INTRA:          -7.604
REMARK INTER:                  -6.893
REMARK INTRA:                  -0.710
REMARK UNBOUND:                -0.926
REMARK SMILES CC(=O)CCC=C(C)CCC=C(C)C
REMARK SMILES IDX 7 1 6 2 8 3 9 4 10 5 11 6 13 7 12 8 14 9 5 10 4 11 2 12 3 13
REMARK SMILES IDX 1 14
REMARK H PARENT
REMARK Flexibility Score: inf
ROOT
ATOM      1  C   UNL     1     -27.938  19.491 -33.192  1.00  0.00    -0.077 C 
ATOM      2  C   UNL     1     -29.250  19.800 -33.317  1.00  0.00    -0.028 C 
ATOM      3  C   UNL     1     -27.462  18.379 -32.288  1.00  0.00     0.039 C 
ENDROOT
BRANCH   1   4
ATOM      4  C   UNL     1     -26.919  20.246 -34.019  1.00  0.00     0.034 C 
BRANCH   4   5
ATOM      5  C   UNL     1     -25.510  19.662 -33.858  1.00  0.00     0.032 C 
BRANCH   5   6
ATOM      6  C   UNL     1     -24.730  20.390 -32.787  1.00  0.00    -0.028 C 
ATOM      7  C   UNL     1     -23.915  18.288 -31.692  1.00  0.00     0.039 C 
ATOM      8  C   UNL     1     -23.991  19.790 -31.827  1.00  0.00    -0.080 C 
ATOM      9  C   UNL     1     -23.217  20.660 -30.870  1.00  0.00     0.039 C 
ENDBRANCH   5   6
ENDBRANCH   4   5
ENDBRANCH   1   4
BRANCH   2  10
ATOM     10  C   UNL     1     -30.362  19.125 -32.556  1.00  0.00     0.035 C 
BRANCH  10  11
ATOM     11  C   UNL     1     -31.085  18.104 -33.440  1.00  0.00     0.079 C 
BRANCH  11  12
ATOM     12  C   UNL     1     -30.622  16.708 -33.128  1.00  0.00     0.130 C 
ATOM     13  O   UNL     1     -29.845  16.142 -33.884  1.00  0.00    -0.300 OA
ATOM     14  C   UNL     1     -31.124  15.996 -31.909  1.00  0.00     0.087 C 
ENDBRANCH  11  12
ENDBRANCH  10  11
ENDBRANCH   2  10
TORSDOF 6
ENDMDL
MODEL 6
REMARK VINA RESULT:    -4.924      4.819      7.490
REMARK INTER + INTRA:          -7.577
REMARK INTER:                  -6.943
REMARK INTRA:                  -0.634
REMARK UNBOUND:                -0.926
REMARK SMILES CC(=O)CCC=C(C)CCC=C(C)C
REMARK SMILES IDX 7 1 6 2 8 3 9 4 10 5 11 6 13 7 12 8 14 9 5 10 4 11 2 12 3 13
REMARK SMILES IDX 1 14
REMARK H PARENT
REMARK Flexibility Score: inf
ROOT
ATOM      1  C   UNL     1     -30.060  14.613 -31.242  1.00  0.00    -0.077 C 
ATOM      2  C   UNL     1     -30.742  13.574 -30.706  1.00  0.00    -0.028 C 
ATOM      3  C   UNL     1     -28.550  14.662 -31.244  1.00  0.00     0.039 C 
ENDROOT
BRANCH   1   4
ATOM      4  C   UNL     1     -30.827  15.736 -31.908  1.00  0.00     0.034 C 
BRANCH   4   5
ATOM      5  C   UNL     1     -30.077  16.296 -33.123  1.00  0.00     0.032 C 
BRANCH   5   6
ATOM      6  C   UNL     1     -30.142  17.806 -33.163  1.00  0.00    -0.028 C 
ATOM      7  C   UNL     1     -27.790  18.113 -32.356  1.00  0.00     0.039 C 
ATOM      8  C   UNL     1     -29.119  18.632 -32.848  1.00  0.00    -0.080 C 
ATOM      9  C   UNL     1     -29.324  20.117 -33.003  1.00  0.00     0.039 C 
ENDBRANCH   5   6
ENDBRANCH   4   5
ENDBRANCH   1   4
BRANCH   2  10
ATOM     10  C   UNL     1     -30.100  12.395 -30.020  1.00  0.00     0.035 C 
BRANCH  10  11
ATOM     11  C   UNL     1     -29.663  12.763 -28.599  1.00  0.00     0.079 C 
BRANCH  11  12
ATOM     12  C   UNL     1     -28.386  12.058 -28.235  1.00  0.00     0.130 C 
ATOM     13  O   UNL     1     -28.414  11.108 -27.465  1.00  0.00    -0.300 OA
ATOM     14  C   UNL     1     -27.075  12.525 -28.792  1.00  0.00     0.087 C 
ENDBRANCH  11  12
ENDBRANCH  10  11
ENDBRANCH   2  10
TORSDOF 6
ENDMDL
MODEL 7
REMARK VINA RESULT:    -4.885      2.386      6.498
REMARK INTER + INTRA:          -7.525
REMARK INTER:                  -6.790
REMARK INTRA:                  -0.734
REMARK UNBOUND:                -0.926
REMARK SMILES CC(=O)CCC=C(C)CCC=C(C)C
REMARK SMILES IDX 7 1 6 2 8 3 9 4 10 5 11 6 13 7 12 8 14 9 5 10 4 11 2 12 3 13
REMARK SMILES IDX 1 14
REMARK H PARENT
REMARK Flexibility Score: inf
ROOT
ATOM      1  C   UNL     1     -28.551  20.491 -33.487  1.00  0.00    -0.077 C 
ATOM      2  C   UNL     1     -27.428  19.791 -33.768  1.00  0.00    -0.028 C 
ATOM      3  C   UNL     1     -28.501  21.865 -32.861  1.00  0.00     0.039 C 
ENDROOT
BRANCH   1   4
ATOM      4  C   UNL     1     -29.898  19.906 -33.855  1.00  0.00     0.034 C 
BRANCH   4   5
ATOM      5  C   UNL     1     -30.517  19.122 -32.691  1.00  0.00     0.032 C 
BRANCH   5   6
ATOM      6  C   UNL     1     -31.079  17.797 -33.155  1.00  0.00    -0.028 C 
ATOM      7  C   UNL     1     -28.952  16.539 -32.742  1.00  0.00     0.039 C 
ATOM      8  C   UNL     1     -30.400  16.628 -33.159  1.00  0.00    -0.080 C 
ATOM      9  C   UNL     1     -31.125  15.380 -33.591  1.00  0.00     0.039 C 
ENDBRANCH   5   6
ENDBRANCH   4   5
ENDBRANCH   1   4
BRANCH   2  10
ATOM     10  C   UNL     1     -26.029  20.260 -33.458  1.00  0.00     0.035 C 
BRANCH  10  11
ATOM     11  C   UNL     1     -25.394  19.393 -32.366  1.00  0.00     0.079 C 
BRANCH  11  12
ATOM     12  C   UNL     1     -24.014  19.886 -32.032  1.00  0.00     0.130 C 
ATOM     13  O   UNL     1     -23.193  19.116 -31.552  1.00  0.00    -0.300 OA
ATOM     14  C   UNL     1     -23.643  21.320 -32.260  1.00  0.00     0.087 C 
ENDBRANCH  11  12
ENDBRANCH  10  11
ENDBRANCH   2  10
TORSDOF 6
ENDMDL
MODEL 8
REMARK VINA RESULT:    -4.799      3.696      6.296
REMARK INTER + INTRA:          -7.409
REMARK INTER:                  -7.044
REMARK INTRA:                  -0.365
REMARK UNBOUND:                -0.926
REMARK SMILES CC(=O)CCC=C(C)CCC=C(C)C
REMARK SMILES IDX 7 1 6 2 8 3 9 4 10 5 11 6 13 7 12 8 14 9 5 10 4 11 2 12 3 13
REMARK SMILES IDX 1 14
REMARK H PARENT
REMARK Flexibility Score: inf
ROOT
ATOM      1  C   UNL     1     -31.053  16.336 -32.755  1.00  0.00    -0.077 C 
ATOM      2  C   UNL     1     -31.092  15.788 -31.518  1.00  0.00    -0.028 C 
ATOM      3  C   UNL     1     -31.083  15.488 -34.005  1.00  0.00     0.039 C 
ENDROOT
BRANCH   1   4
ATOM      4  C   UNL     1     -31.030  17.843 -32.895  1.00  0.00     0.034 C 
BRANCH   4   5
ATOM      5  C   UNL     1     -29.619  18.367 -33.188  1.00  0.00     0.032 C 
BRANCH   5   6
ATOM      6  C   UNL     1     -29.492  19.833 -32.841  1.00  0.00    -0.028 C 
ATOM      7  C   UNL     1     -27.233  20.078 -33.896  1.00  0.00     0.039 C 
ATOM      8  C   UNL     1     -28.443  20.618 -33.173  1.00  0.00    -0.080 C 
ATOM      9  C   UNL     1     -28.498  22.080 -32.809  1.00  0.00     0.039 C 
ENDBRANCH   5   6
ENDBRANCH   4   5
ENDBRANCH   1   4
BRANCH   2  10
ATOM     10  C   UNL     1     -31.121  14.307 -31.240  1.00  0.00     0.035 C 
BRANCH  10  11
ATOM     11  C   UNL     1     -29.859  13.869 -30.491  1.00  0.00     0.079 C 
BRANCH  11  12
ATOM     12  C   UNL     1     -30.100  12.584 -29.748  1.00  0.00     0.130 C 
ATOM     13  O   UNL     1     -30.714  11.675 -30.288  1.00  0.00    -0.300 OA
ATOM     14  C   UNL     1     -29.613  12.417 -28.340  1.00  0.00     0.087 C 
ENDBRANCH  11  12
ENDBRANCH  10  11
ENDBRANCH   2  10
TORSDOF 6
ENDMDL
MODEL 9
REMARK VINA RESULT:    -3.923      5.472      8.150
REMARK INTER + INTRA:          -6.226
REMARK INTER:                  -5.382
REMARK INTRA:                  -0.844
REMARK UNBOUND:                -0.926
REMARK SMILES CC(=O)CCC=C(C)CCC=C(C)C
REMARK SMILES IDX 7 1 6 2 8 3 9 4 10 5 11 6 13 7 12 8 14 9 5 10 4 11 2 12 3 13
REMARK SMILES IDX 1 14
REMARK H PARENT
REMARK Flexibility Score: inf
ROOT
ATOM      1  C   UNL     1     -30.375  12.586 -29.907  1.00  0.00    -0.077 C 
ATOM      2  C   UNL     1     -30.070  13.873 -30.193  1.00  0.00    -0.028 C 
ATOM      3  C   UNL     1     -31.125  11.707 -30.880  1.00  0.00     0.039 C 
ENDROOT
BRANCH   1   4
ATOM      4  C   UNL     1     -29.908  11.989 -28.596  1.00  0.00     0.034 C 
BRANCH   4   5
ATOM      5  C   UNL     1     -28.667  12.708 -28.053  1.00  0.00     0.032 C 
BRANCH   5   6
ATOM      6  C   UNL     1     -27.397  11.984 -28.438  1.00  0.00    -0.028 C 
ATOM      7  C   UNL     1     -26.463  13.920 -29.725  1.00  0.00     0.039 C 
ATOM      8  C   UNL     1     -26.391  12.521 -29.163  1.00  0.00    -0.080 C 
ATOM      9  C   UNL     1     -25.159  11.687 -29.407  1.00  0.00     0.039 C 
ENDBRANCH   5   6
ENDBRANCH   4   5
ENDBRANCH   1   4
BRANCH   2  10
ATOM     10  C   UNL     1     -30.470  14.584 -31.460  1.00  0.00     0.035 C 
BRANCH  10  11
ATOM     11  C   UNL     1     -29.305  15.412 -32.012  1.00  0.00     0.079 C 
BRANCH  11  12
ATOM     12  C   UNL     1     -29.788  16.383 -33.053  1.00  0.00     0.130 C 
ATOM     13  O   UNL     1     -30.628  16.031 -33.869  1.00  0.00    -0.300 OA
ATOM     14  C   UNL     1     -29.230  17.773 -33.112  1.00  0.00     0.087 C 
ENDBRANCH  11  12
ENDBRANCH  10  11
ENDBRANCH   2  10
TORSDOF 6
ENDMDL
