MODEL 1
REMARK VINA RESULT:    -3.033      0.000      0.000
REMARK INTER + INTRA:          -7.067
REMARK INTER:                  -5.161
REMARK INTRA:                  -1.906
REMARK UNBOUND:                -1.906
REMARK SMILES CCCCCCCCCCCCCC(=O)[O-]
REMARK SMILES IDX 8 1 9 2 10 3 11 4 12 5 13 6 14 7 15 8 16 9 7 10 6 11 5 12
REMARK SMILES IDX 4 13 3 14 2 15 1 16
REMARK H PARENT
REMARK Flexibility Score: inf
ROOT
ATOM      1  C   UNL     1      60.157  33.864  60.482  1.00  0.00     0.000 C 
ENDROOT
BRANCH   1   2
ATOM      2  C   UNL     1      60.529  32.926  59.321  1.00  0.00     0.000 C 
BRANCH   2   3
ATOM      3  C   UNL     1      60.894  31.512  59.801  1.00  0.00     0.000 C 
BRANCH   3   4
ATOM      4  C   UNL     1      61.269  31.467  61.292  1.00  0.00     0.000 C 
BRANCH   4   5
ATOM      5  C   UNL     1      61.529  30.038  61.794  1.00  0.00     0.006 C 
BRANCH   5   6
ATOM      6  C   UNL     1      60.947  28.971  60.859  1.00  0.00     0.053 C 
BRANCH   6   7
ATOM      7  C   UNL     1      61.994  27.963  60.502  1.00  0.00     0.041 C 
ATOM      8  O   UNL     1      61.801  27.156  59.555  1.00  0.00    -0.550 OA
ATOM      9  O   UNL     1      63.164  27.882  61.248  1.00  0.00    -0.550 OA
ENDBRANCH   6   7
ENDBRANCH   5   6
ENDBRANCH   4   5
ENDBRANCH   3   4
ENDBRANCH   2   3
ENDBRANCH   1   2
BRANCH   1  10
ATOM     10  C   UNL     1      60.748  35.277  60.325  1.00  0.00     0.000 C 
BRANCH  10  11
ATOM     11  C   UNL     1      62.255  35.323  60.015  1.00  0.00    -0.000 C 
BRANCH  11  12
ATOM     12  C   UNL     1      63.128  34.991  61.237  1.00  0.00    -0.000 C 
BRANCH  12  13
ATOM     13  C   UNL     1      64.080  33.808  60.987  1.00  0.00    -0.000 C 
BRANCH  13  14
ATOM     14  C   UNL     1      64.193  33.365  59.515  1.00  0.00    -0.000 C 
BRANCH  14  15
ATOM     15  C   UNL     1      64.812  31.972  59.300  1.00  0.00    -0.003 C 
ATOM     16  C   UNL     1      64.802  31.115  60.564  1.00  0.00     0.004 C 
ENDBRANCH  14  15
ENDBRANCH  13  14
ENDBRANCH  12  13
ENDBRANCH  11  12
ENDBRANCH  10  11
ENDBRANCH   1  10
TORSDOF 12
ENDMDL
MODEL 2
REMARK VINA RESULT:    -3.019     10.814     12.901
REMARK INTER + INTRA:          -7.043
REMARK INTER:                  -5.147
REMARK INTRA:                  -1.896
REMARK UNBOUND:                -1.906
REMARK SMILES CCCCCCCCCCCCCC(=O)[O-]
REMARK SMILES IDX 8 1 9 2 10 3 11 4 12 5 13 6 14 7 15 8 16 9 7 10 6 11 5 12
REMARK SMILES IDX 4 13 3 14 2 15 1 16
REMARK H PARENT
REMARK Flexibility Score: inf
ROOT
ATOM      1  C   UNL     1      55.187  25.972  53.470  1.00  0.00     0.000 C 
ENDROOT
BRANCH   1   2
ATOM      2  C   UNL     1      56.109  27.202  53.513  1.00  0.00     0.000 C 
BRANCH   2   3
ATOM      3  C   UNL     1      57.280  27.095  52.522  1.00  0.00     0.000 C 
BRANCH   3   4
ATOM      4  C   UNL     1      57.543  28.410  51.768  1.00  0.00     0.000 C 
BRANCH   4   5
ATOM      5  C   UNL     1      57.525  28.229  50.242  1.00  0.00     0.006 C 
BRANCH   5   6
ATOM      6  C   UNL     1      58.871  28.571  49.592  1.00  0.00     0.053 C 
BRANCH   6   7
ATOM      7  C   UNL     1      59.806  27.407  49.686  1.00  0.00     0.041 C 
ATOM      8  O   UNL     1      59.381  26.235  49.507  1.00  0.00    -0.550 OA
ATOM      9  O   UNL     1      61.140  27.611  50.018  1.00  0.00    -0.550 OA
ENDBRANCH   6   7
ENDBRANCH   5   6
ENDBRANCH   4   5
ENDBRANCH   3   4
ENDBRANCH   2   3
ENDBRANCH   1   2
BRANCH   1  10
ATOM     10  C   UNL     1      55.433  25.079  52.239  1.00  0.00     0.000 C 
BRANCH  10  11
ATOM     11  C   UNL     1      54.286  25.056  51.212  1.00  0.00    -0.000 C 
BRANCH  11  12
ATOM     12  C   UNL     1      54.502  26.041  50.051  1.00  0.00    -0.000 C 
BRANCH  12  13
ATOM     13  C   UNL     1      53.452  27.166  50.020  1.00  0.00    -0.000 C 
BRANCH  13  14
ATOM     14  C   UNL     1      53.970  28.550  50.458  1.00  0.00    -0.000 C 
BRANCH  14  15
ATOM     15  C   UNL     1      53.497  29.012  51.848  1.00  0.00    -0.003 C 
ATOM     16  C   UNL     1      53.756  30.496  52.103  1.00  0.00     0.004 C 
ENDBRANCH  14  15
ENDBRANCH  13  14
ENDBRANCH  12  13
ENDBRANCH  11  12
ENDBRANCH  10  11
ENDBRANCH   1  10
TORSDOF 12
ENDMDL
MODEL 3
REMARK VINA RESULT:    -2.997      2.911      4.855
REMARK INTER + INTRA:          -7.006
REMARK INTER:                  -5.547
REMARK INTRA:                  -1.459
REMARK UNBOUND:                -1.906
REMARK SMILES CCCCCCCCCCCCCC(=O)[O-]
REMARK SMILES IDX 8 1 9 2 10 3 11 4 12 5 13 6 14 7 15 8 16 9 7 10 6 11 5 12
REMARK SMILES IDX 4 13 3 14 2 15 1 16
REMARK H PARENT
REMARK Flexibility Score: inf
ROOT
ATOM      1  C   UNL     1      63.844  29.415  61.075  1.00  0.00     0.000 C 
ENDROOT
BRANCH   1   2
ATOM      2  C   UNL     1      62.444  29.374  61.709  1.00  0.00     0.000 C 
BRANCH   2   3
ATOM      3  C   UNL     1      61.636  30.653  61.436  1.00  0.00     0.000 C 
BRANCH   3   4
ATOM      4  C   UNL     1      60.945  30.638  60.062  1.00  0.00     0.000 C 
BRANCH   4   5
ATOM      5  C   UNL     1      61.004  32.002  59.356  1.00  0.00     0.006 C 
BRANCH   5   6
ATOM      6  C   UNL     1      60.207  33.084  60.095  1.00  0.00     0.053 C 
BRANCH   6   7
ATOM      7  C   UNL     1      59.292  33.795  59.149  1.00  0.00     0.041 C 
ATOM      8  O   UNL     1      58.338  34.489  59.590  1.00  0.00    -0.550 OA
ATOM      9  O   UNL     1      59.462  33.653  57.777  1.00  0.00    -0.550 OA
ENDBRANCH   6   7
ENDBRANCH   5   6
ENDBRANCH   4   5
ENDBRANCH   3   4
ENDBRANCH   2   3
ENDBRANCH   1   2
BRANCH   1  10
ATOM     10  C   UNL     1      64.435  30.836  61.016  1.00  0.00     0.000 C 
BRANCH  10  11
ATOM     11  C   UNL     1      64.700  31.373  59.597  1.00  0.00    -0.000 C 
BRANCH  11  12
ATOM     12  C   UNL     1      64.622  32.906  59.512  1.00  0.00    -0.000 C 
BRANCH  12  13
ATOM     13  C   UNL     1      64.453  33.572  60.890  1.00  0.00    -0.000 C 
BRANCH  13  14
ATOM     14  C   UNL     1      63.305  34.596  60.981  1.00  0.00    -0.000 C 
BRANCH  14  15
ATOM     15  C   UNL     1      63.744  36.042  61.275  1.00  0.00    -0.003 C 
ATOM     16  C   UNL     1      64.976  36.119  62.174  1.00  0.00     0.004 C 
ENDBRANCH  14  15
ENDBRANCH  13  14
ENDBRANCH  12  13
ENDBRANCH  11  12
ENDBRANCH  10  11
ENDBRANCH   1  10
TORSDOF 12
ENDMDL
MODEL 4
REMARK VINA RESULT:    -2.978     10.859     12.610
REMARK INTER + INTRA:          -6.973
REMARK INTER:                  -4.956
REMARK INTRA:                  -2.017
REMARK UNBOUND:                -1.906
REMARK SMILES CCCCCCCCCCCCCC(=O)[O-]
REMARK SMILES IDX 8 1 9 2 10 3 11 4 12 5 13 6 14 7 15 8 16 9 7 10 6 11 5 12
REMARK SMILES IDX 4 13 3 14 2 15 1 16
REMARK H PARENT
REMARK Flexibility Score: inf
ROOT
ATOM      1  C   UNL     1      59.015  24.918  50.618  1.00  0.00     0.000 C 
ENDROOT
BRANCH   1   2
ATOM      2  C   UNL     1      58.140  24.679  51.860  1.00  0.00     0.000 C 
BRANCH   2   3
ATOM      3  C   UNL     1      56.708  25.208  51.683  1.00  0.00     0.000 C 
BRANCH   3   4
ATOM      4  C   UNL     1      56.301  25.338  50.205  1.00  0.00     0.000 C 
BRANCH   4   5
ATOM      5  C   UNL     1      54.837  25.772  50.031  1.00  0.00     0.006 C 
BRANCH   5   6
ATOM      6  C   UNL     1      54.228  26.321  51.327  1.00  0.00     0.053 C 
BRANCH   6   7
ATOM      7  C   UNL     1      53.946  27.784  51.193  1.00  0.00     0.041 C 
ATOM      8  O   UNL     1      53.704  28.282  50.062  1.00  0.00    -0.550 OA
ATOM      9  O   UNL     1      53.998  28.608  52.310  1.00  0.00    -0.550 OA
ENDBRANCH   6   7
ENDBRANCH   5   6
ENDBRANCH   4   5
ENDBRANCH   3   4
ENDBRANCH   2   3
ENDBRANCH   1   2
BRANCH   1  10
ATOM     10  C   UNL     1      60.359  25.592  50.951  1.00  0.00     0.000 C 
BRANCH  10  11
ATOM     11  C   UNL     1      60.653  26.883  50.165  1.00  0.00    -0.000 C 
BRANCH  11  12
ATOM     12  C   UNL     1      59.459  27.353  49.317  1.00  0.00    -0.000 C 
BRANCH  12  13
ATOM     13  C   UNL     1      58.886  28.701  49.788  1.00  0.00    -0.000 C 
BRANCH  13  14
ATOM     14  C   UNL     1      57.524  28.615  50.504  1.00  0.00    -0.000 C 
BRANCH  14  15
ATOM     15  C   UNL     1      57.574  28.830  52.027  1.00  0.00    -0.003 C 
ATOM     16  C   UNL     1      58.949  29.276  52.521  1.00  0.00     0.004 C 
ENDBRANCH  14  15
ENDBRANCH  13  14
ENDBRANCH  12  13
ENDBRANCH  11  12
ENDBRANCH  10  11
ENDBRANCH   1  10
TORSDOF 12
ENDMDL
MODEL 5
REMARK VINA RESULT:    -2.976     10.796     12.742
REMARK INTER + INTRA:          -6.969
REMARK INTER:                  -5.097
REMARK INTRA:                  -1.872
REMARK UNBOUND:                -1.906
REMARK SMILES CCCCCCCCCCCCCC(=O)[O-]
REMARK SMILES IDX 8 1 9 2 10 3 11 4 12 5 13 6 14 7 15 8 16 9 7 10 6 11 5 12
REMARK SMILES IDX 4 13 3 14 2 15 1 16
REMARK H PARENT
REMARK Flexibility Score: inf
ROOT
ATOM      1  C   UNL     1      56.967  26.764  52.840  1.00  0.00     0.000 C 
ENDROOT
BRANCH   1   2
ATOM      2  C   UNL     1      56.986  25.263  52.508  1.00  0.00     0.000 C 
BRANCH   2   3
ATOM      3  C   UNL     1      58.107  24.892  51.523  1.00  0.00     0.000 C 
BRANCH   3   4
ATOM      4  C   UNL     1      57.974  25.614  50.171  1.00  0.00     0.000 C 
BRANCH   4   5
ATOM      5  C   UNL     1      59.129  26.593  49.909  1.00  0.00     0.006 C 
BRANCH   5   6
ATOM      6  C   UNL     1      58.654  28.047  49.797  1.00  0.00     0.053 C 
BRANCH   6   7
ATOM      7  C   UNL     1      59.359  28.905  50.801  1.00  0.00     0.041 C 
ATOM      8  O   UNL     1      58.699  29.568  51.644  1.00  0.00    -0.550 OA
ATOM      9  O   UNL     1      60.745  29.009  50.776  1.00  0.00    -0.550 OA
ENDBRANCH   6   7
ENDBRANCH   5   6
ENDBRANCH   4   5
ENDBRANCH   3   4
ENDBRANCH   2   3
ENDBRANCH   1   2
BRANCH   1  10
ATOM     10  C   UNL     1      55.582  27.260  53.299  1.00  0.00     0.000 C 
BRANCH  10  11
ATOM     11  C   UNL     1      55.089  28.545  52.608  1.00  0.00    -0.000 C 
BRANCH  11  12
ATOM     12  C   UNL     1      55.217  28.489  51.077  1.00  0.00    -0.000 C 
BRANCH  12  13
ATOM     13  C   UNL     1      53.854  28.499  50.363  1.00  0.00    -0.000 C 
BRANCH  13  14
ATOM     14  C   UNL     1      53.306  27.108  49.988  1.00  0.00    -0.000 C 
BRANCH  14  15
ATOM     15  C   UNL     1      54.362  25.990  49.915  1.00  0.00    -0.003 C 
ATOM     16  C   UNL     1      53.897  24.688  50.563  1.00  0.00     0.004 C 
ENDBRANCH  14  15
ENDBRANCH  13  14
ENDBRANCH  12  13
ENDBRANCH  11  12
ENDBRANCH  10  11
ENDBRANCH   1  10
TORSDOF 12
ENDMDL
MODEL 6
REMARK VINA RESULT:    -2.974     10.332     12.109
REMARK INTER + INTRA:          -6.966
REMARK INTER:                  -5.038
REMARK INTRA:                  -1.928
REMARK UNBOUND:                -1.906
REMARK SMILES CCCCCCCCCCCCCC(=O)[O-]
REMARK SMILES IDX 8 1 9 2 10 3 11 4 12 5 13 6 14 7 15 8 16 9 7 10 6 11 5 12
REMARK SMILES IDX 4 13 3 14 2 15 1 16
REMARK H PARENT
REMARK Flexibility Score: inf
ROOT
ATOM      1  C   UNL     1      57.379  28.059  52.792  1.00  0.00     0.000 C 
ENDROOT
BRANCH   1   2
ATOM      2  C   UNL     1      58.129  29.376  52.528  1.00  0.00     0.000 C 
BRANCH   2   3
ATOM      3  C   UNL     1      59.022  29.306  51.279  1.00  0.00     0.000 C 
BRANCH   3   4
ATOM      4  C   UNL     1      58.413  28.442  50.161  1.00  0.00     0.000 C 
BRANCH   4   5
ATOM      5  C   UNL     1      59.453  27.536  49.482  1.00  0.00     0.006 C 
BRANCH   5   6
ATOM      6  C   UNL     1      59.241  26.052  49.804  1.00  0.00     0.053 C 
BRANCH   6   7
ATOM      7  C   UNL     1      59.882  25.704  51.110  1.00  0.00     0.041 C 
ATOM      8  O   UNL     1      59.251  25.032  51.968  1.00  0.00    -0.550 OA
ATOM      9  O   UNL     1      61.160  26.164  51.402  1.00  0.00    -0.550 OA
ENDBRANCH   6   7
ENDBRANCH   5   6
ENDBRANCH   4   5
ENDBRANCH   3   4
ENDBRANCH   2   3
ENDBRANCH   1   2
BRANCH   1  10
ATOM     10  C   UNL     1      55.874  28.265  53.041  1.00  0.00     0.000 C 
BRANCH  10  11
ATOM     11  C   UNL     1      55.195  29.294  52.120  1.00  0.00    -0.000 C 
BRANCH  11  12
ATOM     12  C   UNL     1      54.899  28.739  50.717  1.00  0.00    -0.000 C 
BRANCH  12  13
ATOM     13  C   UNL     1      53.700  27.774  50.697  1.00  0.00    -0.000 C 
BRANCH  13  14
ATOM     14  C   UNL     1      53.998  26.380  50.112  1.00  0.00    -0.000 C 
BRANCH  14  15
ATOM     15  C   UNL     1      55.475  25.952  50.167  1.00  0.00    -0.003 C 
ATOM     16  C   UNL     1      55.789  25.047  51.357  1.00  0.00     0.004 C 
ENDBRANCH  14  15
ENDBRANCH  13  14
ENDBRANCH  12  13
ENDBRANCH  11  12
ENDBRANCH  10  11
ENDBRANCH   1  10
TORSDOF 12
ENDMDL
MODEL 7
REMARK VINA RESULT:    -2.970     11.026     13.123
REMARK INTER + INTRA:          -6.959
REMARK INTER:                  -5.519
REMARK INTRA:                  -1.441
REMARK UNBOUND:                -1.906
REMARK SMILES CCCCCCCCCCCCCC(=O)[O-]
REMARK SMILES IDX 8 1 9 2 10 3 11 4 12 5 13 6 14 7 15 8 16 9 7 10 6 11 5 12
REMARK SMILES IDX 4 13 3 14 2 15 1 16
REMARK H PARENT
REMARK Flexibility Score: inf
ROOT
ATOM      1  C   UNL     1      56.506  25.755  51.901  1.00  0.00     0.000 C 
ENDROOT
BRANCH   1   2
ATOM      2  C   UNL     1      57.812  25.042  51.516  1.00  0.00     0.000 C 
BRANCH   2   3
ATOM      3  C   UNL     1      58.324  25.459  50.128  1.00  0.00     0.000 C 
BRANCH   3   4
ATOM      4  C   UNL     1      59.716  26.114  50.179  1.00  0.00     0.000 C 
BRANCH   4   5
ATOM      5  C   UNL     1      59.760  27.463  49.446  1.00  0.00     0.006 C 
BRANCH   5   6
ATOM      6  C   UNL     1      58.613  28.395  49.855  1.00  0.00     0.053 C 
BRANCH   6   7
ATOM      7  C   UNL     1      58.874  28.982  51.206  1.00  0.00     0.041 C 
ATOM      8  O   UNL     1      57.983  28.950  52.095  1.00  0.00    -0.550 OA
ATOM      9  O   UNL     1      60.086  29.609  51.469  1.00  0.00    -0.550 OA
ENDBRANCH   6   7
ENDBRANCH   5   6
ENDBRANCH   4   5
ENDBRANCH   3   4
ENDBRANCH   2   3
ENDBRANCH   1   2
BRANCH   1  10
ATOM     10  C   UNL     1      55.262  25.122  51.250  1.00  0.00     0.000 C 
BRANCH  10  11
ATOM     11  C   UNL     1      54.838  25.748  49.908  1.00  0.00    -0.000 C 
BRANCH  11  12
ATOM     12  C   UNL     1      53.340  26.090  49.853  1.00  0.00    -0.000 C 
BRANCH  12  13
ATOM     13  C   UNL     1      53.050  27.558  50.217  1.00  0.00    -0.000 C 
BRANCH  13  14
ATOM     14  C   UNL     1      54.299  28.441  50.402  1.00  0.00    -0.000 C 
BRANCH  14  15
ATOM     15  C   UNL     1      54.479  29.027  51.814  1.00  0.00    -0.003 C 
ATOM     16  C   UNL     1      53.699  28.261  52.881  1.00  0.00     0.004 C 
ENDBRANCH  14  15
ENDBRANCH  13  14
ENDBRANCH  12  13
ENDBRANCH  11  12
ENDBRANCH  10  11
ENDBRANCH   1  10
TORSDOF 12
ENDMDL
MODEL 8
REMARK VINA RESULT:    -2.969     10.945     12.729
REMARK INTER + INTRA:          -6.957
REMARK INTER:                  -5.495
REMARK INTRA:                  -1.463
REMARK UNBOUND:                -1.906
REMARK SMILES CCCCCCCCCCCCCC(=O)[O-]
REMARK SMILES IDX 8 1 9 2 10 3 11 4 12 5 13 6 14 7 15 8 16 9 7 10 6 11 5 12
REMARK SMILES IDX 4 13 3 14 2 15 1 16
REMARK H PARENT
REMARK Flexibility Score: inf
ROOT
ATOM      1  C   UNL     1      56.754  25.253  51.565  1.00  0.00     0.000 C 
ENDROOT
BRANCH   1   2
ATOM      2  C   UNL     1      55.254  25.030  51.312  1.00  0.00     0.000 C 
BRANCH   2   3
ATOM      3  C   UNL     1      54.789  25.616  49.970  1.00  0.00     0.000 C 
BRANCH   3   4
ATOM      4  C   UNL     1      53.918  26.873  50.139  1.00  0.00     0.000 C 
BRANCH   4   5
ATOM      5  C   UNL     1      54.749  28.133  50.428  1.00  0.00     0.006 C 
BRANCH   5   6
ATOM      6  C   UNL     1      53.879  29.340  50.799  1.00  0.00     0.053 C 
BRANCH   6   7
ATOM      7  C   UNL     1      53.982  29.626  52.265  1.00  0.00     0.041 C 
ATOM      8  O   UNL     1      54.361  30.758  52.665  1.00  0.00    -0.550 OA
ATOM      9  O   UNL     1      53.704  28.626  53.189  1.00  0.00    -0.550 OA
ENDBRANCH   6   7
ENDBRANCH   5   6
ENDBRANCH   4   5
ENDBRANCH   3   4
ENDBRANCH   2   3
ENDBRANCH   1   2
BRANCH   1  10
ATOM     10  C   UNL     1      57.533  25.608  50.284  1.00  0.00     0.000 C 
BRANCH  10  11
ATOM     11  C   UNL     1      59.042  25.309  50.335  1.00  0.00    -0.000 C 
BRANCH  11  12
ATOM     12  C   UNL     1      59.908  26.572  50.191  1.00  0.00    -0.000 C 
BRANCH  12  13
ATOM     13  C   UNL     1      59.226  27.671  49.357  1.00  0.00    -0.000 C 
BRANCH  13  14
ATOM     14  C   UNL     1      58.809  28.925  50.151  1.00  0.00    -0.000 C 
BRANCH  14  15
ATOM     15  C   UNL     1      58.977  28.816  51.677  1.00  0.00    -0.003 C 
ATOM     16  C   UNL     1      57.662  28.989  52.434  1.00  0.00     0.004 C 
ENDBRANCH  14  15
ENDBRANCH  13  14
ENDBRANCH  12  13
ENDBRANCH  11  12
ENDBRANCH  10  11
ENDBRANCH   1  10
TORSDOF 12
ENDMDL
MODEL 9
REMARK VINA RESULT:    -2.897     11.083     12.689
REMARK INTER + INTRA:          -6.835
REMARK INTER:                  -5.191
REMARK INTRA:                  -1.644
REMARK UNBOUND:                -1.906
REMARK SMILES CCCCCCCCCCCCCC(=O)[O-]
REMARK SMILES IDX 8 1 9 2 10 3 11 4 12 5 13 6 14 7 15 8 16 9 7 10 6 11 5 12
REMARK SMILES IDX 4 13 3 14 2 15 1 16
REMARK H PARENT
REMARK Flexibility Score: inf
ROOT
ATOM      1  C   UNL     1      53.371  25.938  49.928  1.00  0.00     0.000 C 
ENDROOT
BRANCH   1   2
ATOM      2  C   UNL     1      54.697  25.229  49.606  1.00  0.00     0.000 C 
BRANCH   2   3
ATOM      3  C   UNL     1      55.708  25.317  50.761  1.00  0.00     0.000 C 
BRANCH   3   4
ATOM      4  C   UNL     1      57.168  25.243  50.282  1.00  0.00     0.000 C 
BRANCH   4   5
ATOM      5  C   UNL     1      58.169  25.183  51.446  1.00  0.00     0.006 C 
BRANCH   5   6
ATOM      6  C   UNL     1      59.603  24.906  50.976  1.00  0.00     0.053 C 
BRANCH   6   7
ATOM      7  C   UNL     1      59.881  23.436  50.988  1.00  0.00     0.041 C 
ATOM      8  O   UNL     1      59.359  22.699  51.865  1.00  0.00    -0.550 OA
ATOM      9  O   UNL     1      60.757  22.886  50.060  1.00  0.00    -0.550 OA
ENDBRANCH   6   7
ENDBRANCH   5   6
ENDBRANCH   4   5
ENDBRANCH   3   4
ENDBRANCH   2   3
ENDBRANCH   1   2
BRANCH   1  10
ATOM     10  C   UNL     1      53.533  27.079  50.950  1.00  0.00     0.000 C 
BRANCH  10  11
ATOM     11  C   UNL     1      53.652  28.488  50.340  1.00  0.00    -0.000 C 
BRANCH  11  12
ATOM     12  C   UNL     1      54.563  29.419  51.157  1.00  0.00    -0.000 C 
BRANCH  12  13
ATOM     13  C   UNL     1      55.423  28.662  52.185  1.00  0.00    -0.000 C 
BRANCH  13  14
ATOM     14  C   UNL     1      56.942  28.716  51.928  1.00  0.00    -0.000 C 
BRANCH  14  15
ATOM     15  C   UNL     1      57.352  28.715  50.445  1.00  0.00    -0.003 C 
ATOM     16  C   UNL     1      58.866  28.747  50.245  1.00  0.00     0.004 C 
ENDBRANCH  14  15
ENDBRANCH  13  14
ENDBRANCH  12  13
ENDBRANCH  11  12
ENDBRANCH  10  11
ENDBRANCH   1  10
TORSDOF 12
ENDMDL
