MODEL 1
REMARK VINA RESULT:    -5.714      0.000      0.000
REMARK INTER + INTRA:          -8.388
REMARK INTER:                  -8.052
REMARK INTRA:                  -0.336
REMARK UNBOUND:                -0.336
REMARK SMILES CC1=CCC(=C(C)C)C(=O)CC(C)=CCC1
REMARK SMILES IDX 12 1 14 2 13 3 15 4 16 5 2 6 1 7 3 8 11 10 9 11 10 12 5 13
REMARK SMILES IDX 6 14 7 15 8 16 4 17
REMARK H PARENT
REMARK Flexibility Score: 60.00
ROOT
ATOM      1  C   UNL     1      37.795 -12.503   9.526  1.00  0.00    -0.070 C 
ATOM      2  C   UNL     1      38.244 -13.758   9.293  1.00  0.00    -0.027 C 
ATOM      3  C   UNL     1      36.762 -11.955   8.570  1.00  0.00     0.039 C 
ENDROOT
BRANCH   2   4
ATOM      4  C   UNL     1      39.234 -14.524  10.134  1.00  0.00     0.032 C 
BRANCH   4   5
ATOM      5  C   UNL     1      40.695 -14.018  10.058  1.00  0.00     0.034 C 
BRANCH   5   6
ATOM      6  C   UNL     1      41.339 -13.671  11.393  1.00  0.00    -0.077 C 
ATOM      7  C   UNL     1      41.575 -14.799  12.367  1.00  0.00     0.039 C 
ATOM      8  C   UNL     1      41.669 -12.416  11.805  1.00  0.00    -0.023 CG0
ATOM      9  G   UNL     1      41.694 -11.109  11.025  1.00  0.00     0.000 G0
ENDBRANCH   5   6
ENDBRANCH   4   5
ENDBRANCH   2   4
BRANCH   1  10
ATOM     10  C   UNL     1      38.213 -11.627  10.702  1.00  0.00     0.111 C 
BRANCH  10  11
ATOM     11  C   UNL     1      39.252 -10.566  10.419  1.00  0.00     0.163 C 
ATOM     12  O   UNL     1      38.889  -9.370  10.586  1.00  0.00    -0.294 OA
BRANCH  11  13
ATOM     13  C   UNL     1      40.661 -10.868   9.974  1.00  0.00    -0.002 C 
ATOM     14  C   UNL     1      41.018 -10.884   8.650  1.00  0.00    -0.069 C 
ATOM     15  C   UNL     1      40.001 -10.758   7.539  1.00  0.00     0.039 C 
ATOM     16  C   UNL     1      42.460 -11.067   8.225  1.00  0.00     0.039 C 
BRANCH  13  17
ATOM     17  C   UNL     1      41.717 -11.100  11.043  1.00  0.00     0.066 CG0
ATOM     18  G   UNL     1      41.658 -12.425  11.790  1.00  0.00     0.000 G0
ENDBRANCH  13  17
ENDBRANCH  11  13
ENDBRANCH  10  11
ENDBRANCH   1  10
TORSDOF 0
ENDMDL
MODEL 2
REMARK VINA RESULT:    -5.147      1.797      3.930
REMARK INTER + INTRA:          -7.588
REMARK INTER:                  -7.548
REMARK INTRA:                  -0.041
REMARK UNBOUND:                -0.336
REMARK SMILES CC1=CCC(=C(C)C)C(=O)CC(C)=CCC1
REMARK SMILES IDX 12 1 14 2 13 3 15 4 16 5 2 6 1 7 3 8 11 10 9 11 10 12 5 13
REMARK SMILES IDX 6 14 7 15 8 16 4 17
REMARK H PARENT
REMARK Flexibility Score: 60.00
ROOT
ATOM      1  C   UNL     1      40.737 -14.094  10.422  1.00  0.00    -0.070 C 
ATOM      2  C   UNL     1      39.460 -14.540  10.382  1.00  0.00    -0.027 C 
ATOM      3  C   UNL     1      41.652 -14.720  11.448  1.00  0.00     0.039 C 
ENDROOT
BRANCH   2   4
ATOM      4  C   UNL     1      38.387 -14.097   9.419  1.00  0.00     0.032 C 
BRANCH   4   5
ATOM      5  C   UNL     1      37.540 -12.890   9.886  1.00  0.00     0.034 C 
BRANCH   5   6
ATOM      6  C   UNL     1      37.175 -11.885   8.803  1.00  0.00    -0.077 C 
ATOM      7  C   UNL     1      35.963 -12.184   7.954  1.00  0.00     0.039 C 
ATOM      8  C   UNL     1      37.887 -10.765   8.496  1.00  0.00    -0.023 CG0
ATOM      9  G   UNL     1      39.048 -10.115   9.234  1.00  0.00     0.000 G0
ENDBRANCH   5   6
ENDBRANCH   4   5
ENDBRANCH   2   4
BRANCH   1  10
ATOM     10  C   UNL     1      41.330 -13.049   9.483  1.00  0.00     0.111 C 
BRANCH  10  11
ATOM     11  C   UNL     1      41.086 -11.601   9.841  1.00  0.00     0.163 C 
ATOM     12  O   UNL     1      41.461 -11.238  10.989  1.00  0.00    -0.294 OA
BRANCH  11  13
ATOM     13  C   UNL     1      40.446 -10.601   8.909  1.00  0.00    -0.002 C 
ATOM     14  C   UNL     1      41.068 -10.173   7.765  1.00  0.00    -0.069 C 
ATOM     15  C   UNL     1      42.495 -10.546   7.434  1.00  0.00     0.039 C 
ATOM     16  C   UNL     1      40.364  -9.265   6.779  1.00  0.00     0.039 C 
BRANCH  13  17
ATOM     17  C   UNL     1      39.044 -10.112   9.235  1.00  0.00     0.066 CG0
ATOM     18  G   UNL     1      37.896 -10.770   8.483  1.00  0.00     0.000 G0
ENDBRANCH  13  17
ENDBRANCH  11  13
ENDBRANCH  10  11
ENDBRANCH   1  10
TORSDOF 0
ENDMDL
MODEL 3
REMARK VINA RESULT:    -5.012      2.167      4.202
REMARK INTER + INTRA:          -7.398
REMARK INTER:                  -7.363
REMARK INTRA:                  -0.036
REMARK UNBOUND:                -0.336
REMARK SMILES CC1=CCC(=C(C)C)C(=O)CC(C)=CCC1
REMARK SMILES IDX 12 1 14 2 13 3 15 4 16 5 2 6 1 7 3 8 11 10 9 11 10 12 5 13
REMARK SMILES IDX 6 14 7 15 8 16 4 17
REMARK H PARENT
REMARK Flexibility Score: 60.00
ROOT
ATOM      1  C   UNL     1      38.092 -13.021   9.793  1.00  0.00    -0.070 C 
ATOM      2  C   UNL     1      37.247 -13.529   8.866  1.00  0.00    -0.027 C 
ATOM      3  C   UNL     1      39.316 -13.839  10.129  1.00  0.00     0.039 C 
ENDROOT
BRANCH   2   4
ATOM      4  C   UNL     1      35.994 -12.873   8.342  1.00  0.00     0.032 C 
BRANCH   4   5
ATOM      5  C   UNL     1      36.177 -11.428   7.818  1.00  0.00     0.034 C 
BRANCH   5   6
ATOM      6  C   UNL     1      37.195 -11.259   6.699  1.00  0.00    -0.077 C 
ATOM      7  C   UNL     1      36.895 -11.923   5.377  1.00  0.00     0.039 C 
ATOM      8  C   UNL     1      38.385 -10.606   6.809  1.00  0.00    -0.023 CG0
ATOM      9  G   UNL     1      38.913  -9.726   7.933  1.00  0.00     0.000 G0
ENDBRANCH   5   6
ENDBRANCH   4   5
ENDBRANCH   2   4
BRANCH   1  10
ATOM     10  C   UNL     1      37.927 -11.670  10.482  1.00  0.00     0.111 C 
BRANCH  10  11
ATOM     11  C   UNL     1      39.067 -10.691  10.333  1.00  0.00     0.163 C 
ATOM     12  O   UNL     1      39.459 -10.123  11.389  1.00  0.00    -0.294 OA
BRANCH  11  13
ATOM     13  C   UNL     1      39.744 -10.382   9.020  1.00  0.00    -0.002 C 
ATOM     14  C   UNL     1      41.043 -10.740   8.771  1.00  0.00    -0.069 C 
ATOM     15  C   UNL     1      41.939 -11.325   9.840  1.00  0.00     0.039 C 
ATOM     16  C   UNL     1      41.669 -10.534   7.407  1.00  0.00     0.039 C 
BRANCH  13  17
ATOM     17  C   UNL     1      38.924  -9.708   7.931  1.00  0.00     0.066 CG0
ATOM     18  G   UNL     1      38.382 -10.605   6.827  1.00  0.00     0.000 G0
ENDBRANCH  13  17
ENDBRANCH  11  13
ENDBRANCH  10  11
ENDBRANCH   1  10
TORSDOF 0
ENDMDL
MODEL 4
REMARK VINA RESULT:    -4.958     11.392     13.684
REMARK INTER + INTRA:          -7.322
REMARK INTER:                  -7.167
REMARK INTRA:                  -0.155
REMARK UNBOUND:                -0.336
REMARK SMILES CC1=CCC(=C(C)C)C(=O)CC(C)=CCC1
REMARK SMILES IDX 12 1 14 2 13 3 15 4 16 5 2 6 1 7 3 8 11 10 9 11 10 12 5 13
REMARK SMILES IDX 6 14 7 15 8 16 4 17
REMARK H PARENT
REMARK Flexibility Score: 60.00
ROOT
ATOM      1  C   UNL     1      31.199 -15.714   2.545  1.00  0.00    -0.070 C 
ATOM      2  C   UNL     1      29.993 -15.297   2.995  1.00  0.00    -0.027 C 
ATOM      3  C   UNL     1      32.309 -15.834   3.562  1.00  0.00     0.039 C 
ENDROOT
BRANCH   2   4
ATOM      4  C   UNL     1      28.735 -15.148   2.178  1.00  0.00     0.032 C 
BRANCH   4   5
ATOM      5  C   UNL     1      28.438 -13.712   1.682  1.00  0.00     0.034 C 
BRANCH   5   6
ATOM      6  C   UNL     1      28.719 -13.455   0.209  1.00  0.00    -0.077 C 
ATOM      7  C   UNL     1      27.603 -13.723  -0.772  1.00  0.00     0.039 C 
ATOM      8  C   UNL     1      29.916 -13.057  -0.307  1.00  0.00    -0.023 CG0
ATOM      9  G   UNL     1      31.171 -12.574   0.405  1.00  0.00     0.000 G0
ENDBRANCH   5   6
ENDBRANCH   4   5
ENDBRANCH   2   4
BRANCH   1  10
ATOM     10  C   UNL     1      31.505 -16.117   1.106  1.00  0.00     0.111 C 
BRANCH  10  11
ATOM     11  C   UNL     1      32.034 -15.032   0.198  1.00  0.00     0.163 C 
ATOM     12  O   UNL     1      32.258 -15.363  -0.998  1.00  0.00    -0.294 OA
BRANCH  11  13
ATOM     13  C   UNL     1      32.285 -13.612   0.643  1.00  0.00    -0.002 C 
ATOM     14  C   UNL     1      33.474 -13.226   1.205  1.00  0.00    -0.069 C 
ATOM     15  C   UNL     1      34.557 -14.218   1.564  1.00  0.00     0.039 C 
ATOM     16  C   UNL     1      33.756 -11.775   1.533  1.00  0.00     0.039 C 
BRANCH  13  17
ATOM     17  C   UNL     1      31.197 -12.580   0.396  1.00  0.00     0.066 CG0
ATOM     18  G   UNL     1      29.937 -13.067  -0.306  1.00  0.00     0.000 G0
ENDBRANCH  13  17
ENDBRANCH  11  13
ENDBRANCH  10  11
ENDBRANCH   1  10
TORSDOF 0
ENDMDL
MODEL 5
REMARK VINA RESULT:    -4.939      1.929      4.040
REMARK INTER + INTRA:          -7.296
REMARK INTER:                  -7.236
REMARK INTRA:                  -0.060
REMARK UNBOUND:                -0.336
REMARK SMILES CC1=CCC(=C(C)C)C(=O)CC(C)=CCC1
REMARK SMILES IDX 12 1 14 2 13 3 15 4 16 5 2 6 1 7 3 8 11 10 9 11 10 12 5 13
REMARK SMILES IDX 6 14 7 15 8 16 4 17
REMARK H PARENT
REMARK Flexibility Score: 60.00
ROOT
ATOM      1  C   UNL     1      39.485 -13.688   9.560  1.00  0.00    -0.070 C 
ATOM      2  C   UNL     1      39.242 -12.476   9.010  1.00  0.00    -0.027 C 
ATOM      3  C   UNL     1      38.316 -14.401  10.196  1.00  0.00     0.039 C 
ENDROOT
BRANCH   2   4
ATOM      4  C   UNL     1      40.237 -11.606   8.285  1.00  0.00     0.032 C 
BRANCH   4   5
ATOM      5  C   UNL     1      40.433 -10.191   8.880  1.00  0.00     0.034 C 
BRANCH   5   6
ATOM      6  C   UNL     1      40.148 -10.061  10.370  1.00  0.00    -0.077 C 
ATOM      7  C   UNL     1      38.884  -9.344  10.778  1.00  0.00     0.039 C 
ATOM      8  C   UNL     1      40.969 -10.488  11.369  1.00  0.00    -0.023 CG0
ATOM      9  G   UNL     1      42.219 -11.355  11.300  1.00  0.00     0.000 G0
ENDBRANCH   5   6
ENDBRANCH   4   5
ENDBRANCH   2   4
BRANCH   1  10
ATOM     10  C   UNL     1      40.832 -14.404   9.540  1.00  0.00     0.111 C 
BRANCH  10  11
ATOM     11  C   UNL     1      42.020 -13.624  10.051  1.00  0.00     0.163 C 
ATOM     12  O   UNL     1      43.047 -13.625   9.319  1.00  0.00    -0.294 OA
BRANCH  11  13
ATOM     13  C   UNL     1      42.026 -12.858  11.352  1.00  0.00    -0.002 C 
ATOM     14  C   UNL     1      41.915 -13.486  12.565  1.00  0.00    -0.069 C 
ATOM     15  C   UNL     1      41.621 -14.964  12.685  1.00  0.00     0.039 C 
ATOM     16  C   UNL     1      42.046 -12.719  13.864  1.00  0.00     0.039 C 
BRANCH  13  17
ATOM     17  C   UNL     1      42.224 -11.352  11.296  1.00  0.00     0.066 CG0
ATOM     18  G   UNL     1      40.971 -10.493  11.384  1.00  0.00     0.000 G0
ENDBRANCH  13  17
ENDBRANCH  11  13
ENDBRANCH  10  11
ENDBRANCH   1  10
TORSDOF 0
ENDMDL
MODEL 6
REMARK VINA RESULT:    -4.826      9.879     12.142
REMARK INTER + INTRA:          -7.137
REMARK INTER:                  -6.789
REMARK INTRA:                  -0.348
REMARK UNBOUND:                -0.336
REMARK SMILES CC1=CCC(=C(C)C)C(=O)CC(C)=CCC1
REMARK SMILES IDX 12 1 14 2 13 3 15 4 16 5 2 6 1 7 3 8 11 10 9 11 10 12 5 13
REMARK SMILES IDX 6 14 7 15 8 16 4 17
REMARK H PARENT
REMARK Flexibility Score: 60.00
ROOT
ATOM      1  C   UNL     1      30.002 -14.607   1.709  1.00  0.00    -0.070 C 
ATOM      2  C   UNL     1      30.235 -15.056   2.964  1.00  0.00    -0.027 C 
ATOM      3  C   UNL     1      29.300 -13.277   1.574  1.00  0.00     0.039 C 
ENDROOT
BRANCH   2   4
ATOM      4  C   UNL     1      30.956 -16.326   3.341  1.00  0.00     0.032 C 
BRANCH   4   5
ATOM      5  C   UNL     1      32.500 -16.228   3.355  1.00  0.00     0.034 C 
BRANCH   5   6
ATOM      6  C   UNL     1      33.068 -14.863   3.716  1.00  0.00    -0.077 C 
ATOM      7  C   UNL     1      33.043 -14.460   5.170  1.00  0.00     0.039 C 
ATOM      8  C   UNL     1      33.545 -13.948   2.826  1.00  0.00    -0.023 CG0
ATOM      9  G   UNL     1      33.836 -14.094   1.340  1.00  0.00     0.000 G0
ENDBRANCH   5   6
ENDBRANCH   4   5
ENDBRANCH   2   4
BRANCH   1  10
ATOM     10  C   UNL     1      30.437 -15.316   0.430  1.00  0.00     0.111 C 
BRANCH  10  11
ATOM     11  C   UNL     1      31.865 -15.100  -0.011  1.00  0.00     0.163 C 
ATOM     12  O   UNL     1      32.366 -15.996  -0.745  1.00  0.00    -0.294 OA
BRANCH  11  13
ATOM     13  C   UNL     1      32.687 -13.892   0.365  1.00  0.00    -0.002 C 
ATOM     14  C   UNL     1      32.383 -12.635  -0.091  1.00  0.00    -0.069 C 
ATOM     15  C   UNL     1      31.305 -12.391  -1.123  1.00  0.00     0.039 C 
ATOM     16  C   UNL     1      33.141 -11.417   0.391  1.00  0.00     0.039 C 
BRANCH  13  17
ATOM     17  C   UNL     1      33.847 -14.085   1.328  1.00  0.00     0.066 CG0
ATOM     18  G   UNL     1      33.538 -13.944   2.811  1.00  0.00     0.000 G0
ENDBRANCH  13  17
ENDBRANCH  11  13
ENDBRANCH  10  11
ENDBRANCH   1  10
TORSDOF 0
ENDMDL
MODEL 7
REMARK VINA RESULT:    -4.787     12.410     14.492
REMARK INTER + INTRA:          -7.081
REMARK INTER:                  -7.198
REMARK INTRA:                   0.117
REMARK UNBOUND:                -0.336
REMARK SMILES CC1=CCC(=C(C)C)C(=O)CC(C)=CCC1
REMARK SMILES IDX 12 1 14 2 13 3 15 4 16 5 2 6 1 7 3 8 11 10 9 11 10 12 5 13
REMARK SMILES IDX 6 14 7 15 8 16 4 17
REMARK H PARENT
REMARK Flexibility Score: 60.00
ROOT
ATOM      1  C   UNL     1      28.404 -12.557  -0.053  1.00  0.00    -0.070 C 
ATOM      2  C   UNL     1      29.255 -11.509  -0.139  1.00  0.00    -0.027 C 
ATOM      3  C   UNL     1      27.162 -12.368   0.785  1.00  0.00     0.039 C 
ENDROOT
BRANCH   2   4
ATOM      4  C   UNL     1      30.525 -11.451  -0.949  1.00  0.00     0.032 C 
BRANCH   4   5
ATOM      5  C   UNL     1      31.328 -12.773  -1.012  1.00  0.00     0.034 C 
BRANCH   5   6
ATOM      6  C   UNL     1      32.133 -13.112   0.235  1.00  0.00    -0.077 C 
ATOM      7  C   UNL     1      33.078 -12.060   0.762  1.00  0.00     0.039 C 
ATOM      8  C   UNL     1      32.116 -14.311   0.881  1.00  0.00    -0.023 CG0
ATOM      9  G   UNL     1      31.190 -15.505   0.696  1.00  0.00     0.000 G0
ENDBRANCH   5   6
ENDBRANCH   4   5
ENDBRANCH   2   4
BRANCH   1  10
ATOM     10  C   UNL     1      28.580 -13.889  -0.775  1.00  0.00     0.111 C 
BRANCH  10  11
ATOM     11  C   UNL     1      28.690 -15.120   0.093  1.00  0.00     0.163 C 
ATOM     12  O   UNL     1      27.846 -16.033  -0.120  1.00  0.00    -0.294 OA
BRANCH  11  13
ATOM     13  C   UNL     1      29.742 -15.305   1.159  1.00  0.00    -0.002 C 
ATOM     14  C   UNL     1      29.425 -15.351   2.492  1.00  0.00    -0.069 C 
ATOM     15  C   UNL     1      28.030 -15.065   3.000  1.00  0.00     0.039 C 
ATOM     16  C   UNL     1      30.473 -15.659   3.541  1.00  0.00     0.039 C 
BRANCH  13  17
ATOM     17  C   UNL     1      31.183 -15.504   0.719  1.00  0.00     0.066 CG0
ATOM     18  G   UNL     1      32.121 -14.318   0.886  1.00  0.00     0.000 G0
ENDBRANCH  13  17
ENDBRANCH  11  13
ENDBRANCH  10  11
ENDBRANCH   1  10
TORSDOF 0
ENDMDL
MODEL 8
REMARK VINA RESULT:    -4.784     10.976     13.284
REMARK INTER + INTRA:          -7.078
REMARK INTER:                  -6.916
REMARK INTRA:                  -0.162
REMARK UNBOUND:                -0.336
REMARK SMILES CC1=CCC(=C(C)C)C(=O)CC(C)=CCC1
REMARK SMILES IDX 12 1 14 2 13 3 15 4 16 5 2 6 1 7 3 8 11 10 9 11 10 12 5 13
REMARK SMILES IDX 6 14 7 15 8 16 4 17
REMARK H PARENT
REMARK Flexibility Score: 60.00
ROOT
ATOM      1  C   UNL     1      28.483 -14.620   2.220  1.00  0.00    -0.070 C 
ATOM      2  C   UNL     1      29.153 -15.458   3.044  1.00  0.00    -0.027 C 
ATOM      3  C   UNL     1      27.026 -14.924   1.968  1.00  0.00     0.039 C 
ENDROOT
BRANCH   2   4
ATOM      4  C   UNL     1      30.593 -15.329   3.476  1.00  0.00     0.032 C 
BRANCH   4   5
ATOM      5  C   UNL     1      31.631 -15.911   2.487  1.00  0.00     0.034 C 
BRANCH   5   6
ATOM      6  C   UNL     1      32.823 -15.014   2.184  1.00  0.00    -0.077 C 
ATOM      7  C   UNL     1      33.928 -14.951   3.210  1.00  0.00     0.039 C 
ATOM      8  C   UNL     1      32.949 -14.217   1.087  1.00  0.00    -0.023 CG0
ATOM      9  G   UNL     1      32.102 -14.156  -0.176  1.00  0.00     0.000 G0
ENDBRANCH   5   6
ENDBRANCH   4   5
ENDBRANCH   2   4
BRANCH   1  10
ATOM     10  C   UNL     1      29.074 -13.372   1.572  1.00  0.00     0.111 C 
BRANCH  10  11
ATOM     11  C   UNL     1      29.615 -13.530   0.170  1.00  0.00     0.163 C 
ATOM     12  O   UNL     1      28.829 -14.032  -0.680  1.00  0.00    -0.294 OA
BRANCH  11  13
ATOM     13  C   UNL     1      31.004 -13.113  -0.246  1.00  0.00    -0.002 C 
ATOM     14  C   UNL     1      31.299 -11.824  -0.607  1.00  0.00    -0.069 C 
ATOM     15  C   UNL     1      30.230 -10.766  -0.766  1.00  0.00     0.039 C 
ATOM     16  C   UNL     1      32.720 -11.394  -0.903  1.00  0.00     0.039 C 
BRANCH  13  17
ATOM     17  C   UNL     1      32.110 -14.155  -0.199  1.00  0.00     0.066 CG0
ATOM     18  G   UNL     1      32.934 -14.223   1.079  1.00  0.00     0.000 G0
ENDBRANCH  13  17
ENDBRANCH  11  13
ENDBRANCH  10  11
ENDBRANCH   1  10
TORSDOF 0
ENDMDL
MODEL 9
REMARK VINA RESULT:    -4.647     12.480     14.576
REMARK INTER + INTRA:          -6.885
REMARK INTER:                  -7.199
REMARK INTRA:                   0.314
REMARK UNBOUND:                -0.336
REMARK SMILES CC1=CCC(=C(C)C)C(=O)CC(C)=CCC1
REMARK SMILES IDX 12 1 14 2 13 3 15 4 16 5 2 6 1 7 3 8 11 10 9 11 10 12 5 13
REMARK SMILES IDX 6 14 7 15 8 16 4 17
REMARK H PARENT
REMARK Flexibility Score: 60.00
ROOT
ATOM      1  C   UNL     1      31.221 -15.373   2.671  1.00  0.00    -0.070 C 
ATOM      2  C   UNL     1      29.943 -15.625   3.037  1.00  0.00    -0.027 C 
ATOM      3  C   UNL     1      32.232 -16.469   2.907  1.00  0.00     0.039 C 
ENDROOT
BRANCH   2   4
ATOM      4  C   UNL     1      28.762 -14.705   2.857  1.00  0.00     0.032 C 
BRANCH   4   5
ATOM      5  C   UNL     1      27.574 -15.304   2.067  1.00  0.00     0.034 C 
BRANCH   5   6
ATOM      6  C   UNL     1      27.737 -15.327   0.554  1.00  0.00    -0.077 C 
ATOM      7  C   UNL     1      27.237 -16.545  -0.183  1.00  0.00     0.039 C 
ATOM      8  C   UNL     1      28.351 -14.362  -0.186  1.00  0.00    -0.023 CG0
ATOM      9  G   UNL     1      28.825 -12.975   0.221  1.00  0.00     0.000 G0
ENDBRANCH   5   6
ENDBRANCH   4   5
ENDBRANCH   2   4
BRANCH   1  10
ATOM     10  C   UNL     1      31.702 -14.091   1.999  1.00  0.00     0.111 C 
BRANCH  10  11
ATOM     11  C   UNL     1      31.247 -13.861   0.577  1.00  0.00     0.163 C 
ATOM     12  O   UNL     1      31.665 -14.682  -0.285  1.00  0.00    -0.294 OA
BRANCH  11  13
ATOM     13  C   UNL     1      30.332 -12.736   0.159  1.00  0.00    -0.002 C 
ATOM     14  C   UNL     1      30.815 -11.542  -0.309  1.00  0.00    -0.069 C 
ATOM     15  C   UNL     1      32.289 -11.206  -0.293  1.00  0.00     0.039 C 
ATOM     16  C   UNL     1      29.887 -10.470  -0.839  1.00  0.00     0.039 C 
BRANCH  13  17
ATOM     17  C   UNL     1      28.832 -12.976   0.209  1.00  0.00     0.066 CG0
ATOM     18  G   UNL     1      28.345 -14.362  -0.189  1.00  0.00     0.000 G0
ENDBRANCH  13  17
ENDBRANCH  11  13
ENDBRANCH  10  11
ENDBRANCH   1  10
TORSDOF 0
ENDMDL
