MODEL 1
REMARK VINA RESULT:    -4.568      0.000      0.000
REMARK INTER + INTRA:          -5.318
REMARK INTER:                  -5.102
REMARK INTRA:                  -0.216
REMARK UNBOUND:                -0.216
REMARK SMILES CC(C)c1ccc(C(=O)[O-])cc1
REMARK SMILES IDX 7 1 6 2 11 3 5 4 12 5 4 6 8 7 9 8 10 9 2 10 1 11 3 12
REMARK H PARENT
REMARK Flexibility Score: inf
ROOT
ATOM      1  C   UNL     1      29.369  26.085 -16.173  1.00  0.00    -0.003 A 
ATOM      2  C   UNL     1      29.869  25.094 -17.035  1.00  0.00     0.010 A 
ATOM      3  C   UNL     1      28.025  26.475 -16.293  1.00  0.00     0.010 A 
ATOM      4  C   UNL     1      29.042  24.507 -17.997  1.00  0.00     0.004 A 
ATOM      5  C   UNL     1      27.197  25.888 -17.254  1.00  0.00     0.004 A 
ATOM      6  C   UNL     1      27.696  24.897 -18.117  1.00  0.00    -0.045 A 
ENDROOT
BRANCH   1   7
ATOM      7  C   UNL     1      30.249  26.704 -15.157  1.00  0.00     0.071 C 
ATOM      8  O   UNL     1      31.379  27.159 -15.480  1.00  0.00    -0.545 OA
ATOM      9  O   UNL     1      29.840  26.794 -13.831  1.00  0.00    -0.545 OA
ENDBRANCH   1   7
BRANCH   6  10
ATOM     10  C   UNL     1      26.786  24.269 -19.156  1.00  0.00     0.013 C 
ATOM     11  C   UNL     1      27.600  23.622 -20.284  1.00  0.00     0.012 C 
ATOM     12  C   UNL     1      25.791  25.295 -19.711  1.00  0.00     0.012 C 
ENDBRANCH   6  10
TORSDOF 2
ENDMDL
MODEL 2
REMARK VINA RESULT:    -4.391      2.918      5.211
REMARK INTER + INTRA:          -5.120
REMARK INTER:                  -4.906
REMARK INTRA:                  -0.214
REMARK UNBOUND:                -0.216
REMARK SMILES CC(C)c1ccc(C(=O)[O-])cc1
REMARK SMILES IDX 7 1 6 2 11 3 5 4 12 5 4 6 8 7 9 8 10 9 2 10 1 11 3 12
REMARK H PARENT
REMARK Flexibility Score: inf
ROOT
ATOM      1  C   UNL     1      27.722  25.206 -17.882  1.00  0.00    -0.003 A 
ATOM      2  C   UNL     1      27.410  26.306 -17.064  1.00  0.00     0.010 A 
ATOM      3  C   UNL     1      29.024  24.680 -17.847  1.00  0.00     0.010 A 
ATOM      4  C   UNL     1      28.381  26.867 -16.230  1.00  0.00     0.004 A 
ATOM      5  C   UNL     1      29.995  25.242 -17.014  1.00  0.00     0.004 A 
ATOM      6  C   UNL     1      29.685  26.341 -16.195  1.00  0.00    -0.045 A 
ENDROOT
BRANCH   1   7
ATOM      7  C   UNL     1      26.691  24.615 -18.763  1.00  0.00     0.071 C 
ATOM      8  O   UNL     1      25.473  24.894 -18.601  1.00  0.00    -0.545 OA
ATOM      9  O   UNL     1      27.052  23.744 -19.785  1.00  0.00    -0.545 OA
ENDBRANCH   1   7
BRANCH   6  10
ATOM     10  C   UNL     1      30.749  26.941 -15.295  1.00  0.00     0.013 C 
ATOM     11  C   UNL     1      32.150  26.469 -15.705  1.00  0.00     0.012 C 
ATOM     12  C   UNL     1      30.469  26.622 -13.821  1.00  0.00     0.012 C 
ENDBRANCH   6  10
TORSDOF 2
ENDMDL
MODEL 3
REMARK VINA RESULT:    -4.307      3.331      5.176
REMARK INTER + INTRA:          -5.026
REMARK INTER:                  -4.813
REMARK INTRA:                  -0.213
REMARK UNBOUND:                -0.216
REMARK SMILES CC(C)c1ccc(C(=O)[O-])cc1
REMARK SMILES IDX 7 1 6 2 11 3 5 4 12 5 4 6 8 7 9 8 10 9 2 10 1 11 3 12
REMARK H PARENT
REMARK Flexibility Score: inf
ROOT
ATOM      1  C   UNL     1      27.914  24.078 -19.156  1.00  0.00    -0.003 A 
ATOM      2  C   UNL     1      26.775  24.764 -18.701  1.00  0.00     0.010 A 
ATOM      3  C   UNL     1      29.133  24.258 -18.480  1.00  0.00     0.010 A 
ATOM      4  C   UNL     1      26.854  25.612 -17.593  1.00  0.00     0.004 A 
ATOM      5  C   UNL     1      29.212  25.106 -17.372  1.00  0.00     0.004 A 
ATOM      6  C   UNL     1      28.074  25.792 -16.915  1.00  0.00    -0.045 A 
ENDROOT
BRANCH   1   7
ATOM      7  C   UNL     1      27.826  23.182 -20.330  1.00  0.00     0.071 C 
ATOM      8  O   UNL     1      26.945  23.365 -21.212  1.00  0.00    -0.545 OA
ATOM      9  O   UNL     1      28.716  22.123 -20.478  1.00  0.00    -0.545 OA
ENDBRANCH   1   7
BRANCH   6  10
ATOM     10  C   UNL     1      28.175  26.709 -15.711  1.00  0.00     0.013 C 
ATOM     11  C   UNL     1      29.630  27.115 -15.445  1.00  0.00     0.012 C 
ATOM     12  C   UNL     1      27.546  26.063 -14.470  1.00  0.00     0.012 C 
ENDBRANCH   6  10
TORSDOF 2
ENDMDL
MODEL 4
REMARK VINA RESULT:    -4.285      3.325      4.981
REMARK INTER + INTRA:          -5.001
REMARK INTER:                  -4.788
REMARK INTRA:                  -0.214
REMARK UNBOUND:                -0.216
REMARK SMILES CC(C)c1ccc(C(=O)[O-])cc1
REMARK SMILES IDX 7 1 6 2 11 3 5 4 12 5 4 6 8 7 9 8 10 9 2 10 1 11 3 12
REMARK H PARENT
REMARK Flexibility Score: inf
ROOT
ATOM      1  C   UNL     1      27.973  24.044 -19.116  1.00  0.00    -0.003 A 
ATOM      2  C   UNL     1      29.173  24.214 -18.405  1.00  0.00     0.010 A 
ATOM      3  C   UNL     1      26.824  24.730 -18.686  1.00  0.00     0.010 A 
ATOM      4  C   UNL     1      29.223  25.051 -17.288  1.00  0.00     0.004 A 
ATOM      5  C   UNL     1      26.874  25.567 -17.569  1.00  0.00     0.004 A 
ATOM      6  C   UNL     1      28.073  25.738 -16.856  1.00  0.00    -0.045 A 
ENDROOT
BRANCH   1   7
ATOM      7  C   UNL     1      27.925  23.156 -20.299  1.00  0.00     0.071 C 
ATOM      8  O   UNL     1      28.796  22.261 -20.464  1.00  0.00    -0.545 OA
ATOM      9  O   UNL     1      26.916  23.296 -21.245  1.00  0.00    -0.545 OA
ENDBRANCH   1   7
BRANCH   6  10
ATOM     10  C   UNL     1      28.113  26.651 -15.645  1.00  0.00     0.013 C 
ATOM     11  C   UNL     1      29.556  26.910 -15.195  1.00  0.00     0.012 C 
ATOM     12  C   UNL     1      27.271  26.080 -14.497  1.00  0.00     0.012 C 
ENDBRANCH   6  10
TORSDOF 2
ENDMDL
MODEL 5
REMARK VINA RESULT:    -4.107      9.647     10.697
REMARK INTER + INTRA:          -4.803
REMARK INTER:                  -4.585
REMARK INTRA:                  -0.218
REMARK UNBOUND:                -0.216
REMARK SMILES CC(C)c1ccc(C(=O)[O-])cc1
REMARK SMILES IDX 7 1 6 2 11 3 5 4 12 5 4 6 8 7 9 8 10 9 2 10 1 11 3 12
REMARK H PARENT
REMARK Flexibility Score: inf
ROOT
ATOM      1  C   UNL     1      38.045  26.451 -15.701  1.00  0.00    -0.003 A 
ATOM      2  C   UNL     1      38.160  25.962 -17.013  1.00  0.00     0.010 A 
ATOM      3  C   UNL     1      38.358  27.797 -15.446  1.00  0.00     0.010 A 
ATOM      4  C   UNL     1      38.579  26.802 -18.049  1.00  0.00     0.004 A 
ATOM      5  C   UNL     1      38.778  28.637 -16.481  1.00  0.00     0.004 A 
ATOM      6  C   UNL     1      38.894  28.150 -17.794  1.00  0.00    -0.045 A 
ENDROOT
BRANCH   1   7
ATOM      7  C   UNL     1      37.601  25.559 -14.608  1.00  0.00     0.071 C 
ATOM      8  O   UNL     1      37.648  24.307 -14.744  1.00  0.00    -0.545 OA
ATOM      9  O   UNL     1      37.125  26.088 -13.414  1.00  0.00    -0.545 OA
ENDBRANCH   1   7
BRANCH   6  10
ATOM     10  C   UNL     1      39.350  29.073 -18.908  1.00  0.00     0.013 C 
ATOM     11  C   UNL     1      39.477  28.316 -20.236  1.00  0.00     0.012 C 
ATOM     12  C   UNL     1      40.667  29.770 -18.543  1.00  0.00     0.012 C 
ENDBRANCH   6  10
TORSDOF 2
ENDMDL
MODEL 6
REMARK VINA RESULT:    -4.103      9.744     10.808
REMARK INTER + INTRA:          -4.798
REMARK INTER:                  -4.580
REMARK INTRA:                  -0.219
REMARK UNBOUND:                -0.216
REMARK SMILES CC(C)c1ccc(C(=O)[O-])cc1
REMARK SMILES IDX 7 1 6 2 11 3 5 4 12 5 4 6 8 7 9 8 10 9 2 10 1 11 3 12
REMARK H PARENT
REMARK Flexibility Score: inf
ROOT
ATOM      1  C   UNL     1      38.107  26.376 -15.698  1.00  0.00    -0.003 A 
ATOM      2  C   UNL     1      38.372  27.723 -15.398  1.00  0.00     0.010 A 
ATOM      3  C   UNL     1      38.245  25.934 -17.024  1.00  0.00     0.010 A 
ATOM      4  C   UNL     1      38.766  28.609 -16.404  1.00  0.00     0.004 A 
ATOM      5  C   UNL     1      38.640  26.819 -18.030  1.00  0.00     0.004 A 
ATOM      6  C   UNL     1      38.905  28.167 -17.733  1.00  0.00    -0.045 A 
ENDROOT
BRANCH   1   7
ATOM      7  C   UNL     1      37.690  25.442 -14.629  1.00  0.00     0.071 C 
ATOM      8  O   UNL     1      37.351  25.875 -13.495  1.00  0.00    -0.545 OA
ATOM      9  O   UNL     1      37.664  24.071 -14.860  1.00  0.00    -0.545 OA
ENDBRANCH   1   7
BRANCH   6  10
ATOM     10  C   UNL     1      39.332  29.117 -18.836  1.00  0.00     0.013 C 
ATOM     11  C   UNL     1      39.449  28.387 -20.180  1.00  0.00     0.012 C 
ATOM     12  C   UNL     1      40.645  29.825 -18.476  1.00  0.00     0.012 C 
ENDBRANCH   6  10
TORSDOF 2
ENDMDL
MODEL 7
REMARK VINA RESULT:    -4.011      2.023      2.747
REMARK INTER + INTRA:          -4.696
REMARK INTER:                  -4.481
REMARK INTRA:                  -0.215
REMARK UNBOUND:                -0.216
REMARK SMILES CC(C)c1ccc(C(=O)[O-])cc1
REMARK SMILES IDX 7 1 6 2 11 3 5 4 12 5 4 6 8 7 9 8 10 9 2 10 1 11 3 12
REMARK H PARENT
REMARK Flexibility Score: inf
ROOT
ATOM      1  C   UNL     1      27.318  24.950 -15.903  1.00  0.00    -0.003 A 
ATOM      2  C   UNL     1      28.517  24.257 -16.141  1.00  0.00     0.010 A 
ATOM      3  C   UNL     1      26.468  25.232 -16.985  1.00  0.00     0.010 A 
ATOM      4  C   UNL     1      28.859  23.856 -17.435  1.00  0.00     0.004 A 
ATOM      5  C   UNL     1      26.810  24.831 -18.280  1.00  0.00     0.004 A 
ATOM      6  C   UNL     1      28.009  24.139 -18.520  1.00  0.00    -0.045 A 
ENDROOT
BRANCH   1   7
ATOM      7  C   UNL     1      26.960  25.373 -14.531  1.00  0.00     0.071 C 
ATOM      8  O   UNL     1      27.762  26.059 -13.842  1.00  0.00    -0.545 OA
ATOM      9  O   UNL     1      25.732  25.021 -13.981  1.00  0.00    -0.545 OA
ENDBRANCH   1   7
BRANCH   6  10
ATOM     10  C   UNL     1      28.367  23.709 -19.930  1.00  0.00     0.013 C 
ATOM     11  C   UNL     1      27.135  23.730 -20.844  1.00  0.00     0.012 C 
ATOM     12  C   UNL     1      29.034  22.328 -19.934  1.00  0.00     0.012 C 
ENDBRANCH   6  10
TORSDOF 2
ENDMDL
MODEL 8
REMARK VINA RESULT:    -3.934      3.453      5.241
REMARK INTER + INTRA:          -4.609
REMARK INTER:                  -4.400
REMARK INTRA:                  -0.209
REMARK UNBOUND:                -0.216
REMARK SMILES CC(C)c1ccc(C(=O)[O-])cc1
REMARK SMILES IDX 7 1 6 2 11 3 5 4 12 5 4 6 8 7 9 8 10 9 2 10 1 11 3 12
REMARK H PARENT
REMARK Flexibility Score: inf
ROOT
ATOM      1  C   UNL     1      27.260  24.561 -18.365  1.00  0.00    -0.003 A 
ATOM      2  C   UNL     1      26.928  25.703 -17.617  1.00  0.00     0.010 A 
ATOM      3  C   UNL     1      28.091  23.587 -17.787  1.00  0.00     0.010 A 
ATOM      4  C   UNL     1      27.416  25.867 -16.317  1.00  0.00     0.004 A 
ATOM      5  C   UNL     1      28.579  23.750 -16.488  1.00  0.00     0.004 A 
ATOM      6  C   UNL     1      28.248  24.891 -15.738  1.00  0.00    -0.045 A 
ENDROOT
BRANCH   1   7
ATOM      7  C   UNL     1      26.741  24.393 -19.740  1.00  0.00     0.071 C 
ATOM      8  O   UNL     1      27.235  23.526 -20.510  1.00  0.00    -0.545 OA
ATOM      9  O   UNL     1      25.699  25.188 -20.203  1.00  0.00    -0.545 OA
ENDBRANCH   1   7
BRANCH   6  10
ATOM     10  C   UNL     1      28.785  25.055 -14.328  1.00  0.00     0.013 C 
ATOM     11  C   UNL     1      27.743  24.630 -13.287  1.00  0.00     0.012 C 
ATOM     12  C   UNL     1      29.257  26.494 -14.081  1.00  0.00     0.012 C 
ENDBRANCH   6  10
TORSDOF 2
ENDMDL
MODEL 9
REMARK VINA RESULT:    -3.880      9.627     10.511
REMARK INTER + INTRA:          -4.550
REMARK INTER:                  -4.340
REMARK INTRA:                  -0.210
REMARK UNBOUND:                -0.216
REMARK SMILES CC(C)c1ccc(C(=O)[O-])cc1
REMARK SMILES IDX 7 1 6 2 11 3 5 4 12 5 4 6 8 7 9 8 10 9 2 10 1 11 3 12
REMARK H PARENT
REMARK Flexibility Score: inf
ROOT
ATOM      1  C   UNL     1      38.490  27.948 -17.651  1.00  0.00    -0.003 A 
ATOM      2  C   UNL     1      38.023  26.631 -17.804  1.00  0.00     0.010 A 
ATOM      3  C   UNL     1      38.719  28.444 -16.357  1.00  0.00     0.010 A 
ATOM      4  C   UNL     1      37.789  25.828 -16.684  1.00  0.00     0.004 A 
ATOM      5  C   UNL     1      38.485  27.640 -15.237  1.00  0.00     0.004 A 
ATOM      6  C   UNL     1      38.018  26.324 -15.387  1.00  0.00    -0.045 A 
ENDROOT
BRANCH   1   7
ATOM      7  C   UNL     1      38.736  28.795 -18.839  1.00  0.00     0.071 C 
ATOM      8  O   UNL     1      39.837  29.390 -18.985  1.00  0.00    -0.545 OA
ATOM      9  O   UNL     1      37.755  28.945 -19.814  1.00  0.00    -0.545 OA
ENDBRANCH   1   7
BRANCH   6  10
ATOM     10  C   UNL     1      37.768  25.463 -14.163  1.00  0.00     0.013 C 
ATOM     11  C   UNL     1      37.438  24.019 -14.561  1.00  0.00     0.012 C 
ATOM     12  C   UNL     1      36.662  26.060 -13.284  1.00  0.00     0.012 C 
ENDBRANCH   6  10
TORSDOF 2
ENDMDL
