MODEL 1
REMARK VINA RESULT:    -3.375      0.000      0.000
REMARK INTER + INTRA:          -5.386
REMARK INTER:                  -4.953
REMARK INTRA:                  -0.433
REMARK UNBOUND:                -0.433
REMARK SMILES C=C1C=C[C@H](C(C)C)CCC(C)=CCC1
REMARK SMILES IDX 3 1 4 2 5 3 9 4 10 5 11 6 12 7 13 8 6 10 7 11 8 12 2 13 1 14
REMARK SMILES IDX 15 15 14 16
REMARK H PARENT
REMARK Flexibility Score: 70.00
ROOT
ATOM      1  C   UNL     1      11.565  19.174  27.755  1.00  0.00    -0.001 C 
ATOM      2  C   UNL     1      10.503  18.899  26.979  1.00  0.00    -0.023 C 
ENDROOT
BRANCH   2   3
ATOM      3  C   UNL     1       9.647  19.863  26.163  1.00  0.00     0.014 C 
BRANCH   3   4
ATOM      4  C   UNL     1      10.124  19.987  24.684  1.00  0.00     0.012 C 
BRANCH   4   5
ATOM      5  C   UNL     1      11.423  19.236  24.316  1.00  0.00     0.031 C 
BRANCH   5   6
ATOM      6  C   UNL     1      12.547  20.171  23.910  1.00  0.00    -0.077 C 
ATOM      7  C   UNL     1      12.516  20.791  22.536  1.00  0.00     0.039 C 
ATOM      8  C   UNL     1      13.618  20.432  24.698  1.00  0.00    -0.028 CG0
ATOM      9  G   UNL     1      13.812  19.980  26.131  1.00  0.00     0.000 G0
ENDBRANCH   5   6
ENDBRANCH   4   5
ENDBRANCH   3   4
BRANCH   3  10
ATOM     10  C   UNL     1       8.107  19.711  26.380  1.00  0.00    -0.010 C 
ATOM     11  C   UNL     1       7.780  18.456  27.208  1.00  0.00     0.008 C 
ATOM     12  C   UNL     1       7.352  19.621  25.041  1.00  0.00     0.008 C 
ENDBRANCH   3  10
ENDBRANCH   2   3
BRANCH   1  13
ATOM     13  C   UNL     1      12.132  20.511  27.997  1.00  0.00    -0.055 C 
ATOM     14  C   UNL     1      11.419  21.396  28.700  1.00  0.00     0.012 C 
BRANCH  13  15
ATOM     15  C   UNL     1      13.327  20.992  27.197  1.00  0.00     0.039 C 
BRANCH  15  16
ATOM     16  C   UNL     1      13.826  19.987  26.136  1.00  0.00     0.032 CG0
ATOM     17  G   UNL     1      13.615  20.435  24.705  1.00  0.00     0.000 G0
ENDBRANCH  15  16
ENDBRANCH  13  15
ENDBRANCH   1  13
TORSDOF 1
ENDMDL
MODEL 2
REMARK VINA RESULT:    -3.355      3.702      6.680
REMARK INTER + INTRA:          -5.356
REMARK INTER:                  -4.812
REMARK INTRA:                  -0.544
REMARK UNBOUND:                -0.433
REMARK SMILES C=C1C=C[C@H](C(C)C)CCC(C)=CCC1
REMARK SMILES IDX 3 1 4 2 5 3 9 4 10 5 11 6 12 7 13 8 6 10 7 11 8 12 2 13 1 14
REMARK SMILES IDX 15 15 14 16
REMARK H PARENT
REMARK Flexibility Score: 70.00
ROOT
ATOM      1  C   UNL     1       6.122  18.366  22.408  1.00  0.00    -0.001 C 
ATOM      2  C   UNL     1       7.387  18.293  22.855  1.00  0.00    -0.023 C 
ENDROOT
BRANCH   2   3
ATOM      3  C   UNL     1       8.181  19.336  23.635  1.00  0.00     0.014 C 
BRANCH   3   4
ATOM      4  C   UNL     1       7.786  19.392  25.141  1.00  0.00     0.012 C 
BRANCH   4   5
ATOM      5  C   UNL     1       6.893  20.577  25.574  1.00  0.00     0.031 C 
BRANCH   5   6
ATOM      6  C   UNL     1       7.315  21.891  24.946  1.00  0.00    -0.077 C 
ATOM      7  C   UNL     1       8.553  22.580  25.465  1.00  0.00     0.039 C 
ATOM      8  C   UNL     1       6.603  22.516  23.978  1.00  0.00    -0.028 CG0
ATOM      9  G   UNL     1       5.384  21.970  23.264  1.00  0.00     0.000 G0
ENDBRANCH   5   6
ENDBRANCH   4   5
ENDBRANCH   3   4
BRANCH   3  10
ATOM     10  C   UNL     1       9.712  19.357  23.322  1.00  0.00    -0.010 C 
ATOM     11  C   UNL     1      10.547  19.365  24.616  1.00  0.00     0.008 C 
ATOM     12  C   UNL     1      10.101  20.589  22.484  1.00  0.00     0.008 C 
ENDBRANCH   3  10
ENDBRANCH   2   3
BRANCH   1  13
ATOM     13  C   UNL     1       5.215  19.514  22.572  1.00  0.00    -0.055 C 
ATOM     14  C   UNL     1       3.914  19.285  22.772  1.00  0.00     0.012 C 
BRANCH  13  15
ATOM     15  C   UNL     1       5.670  20.909  22.190  1.00  0.00     0.039 C 
BRANCH  15  16
ATOM     16  C   UNL     1       5.379  21.987  23.257  1.00  0.00     0.032 CG0
ATOM     17  G   UNL     1       6.610  22.508  23.969  1.00  0.00     0.000 G0
ENDBRANCH  15  16
ENDBRANCH  13  15
ENDBRANCH   1  13
TORSDOF 1
ENDMDL
MODEL 3
REMARK VINA RESULT:    -3.221     11.467     13.432
REMARK INTER + INTRA:          -5.160
REMARK INTER:                  -4.605
REMARK INTRA:                  -0.554
REMARK UNBOUND:                -0.433
REMARK SMILES C=C1C=C[C@H](C(C)C)CCC(C)=CCC1
REMARK SMILES IDX 3 1 4 2 5 3 9 4 10 5 11 6 12 7 13 8 6 10 7 11 8 12 2 13 1 14
REMARK SMILES IDX 15 15 14 16
REMARK H PARENT
REMARK Flexibility Score: 70.00
ROOT
ATOM      1  C   UNL     1      13.163  17.937  36.244  1.00  0.00    -0.001 C 
ATOM      2  C   UNL     1      13.148  16.615  36.006  1.00  0.00    -0.023 C 
ENDROOT
BRANCH   2   3
ATOM      3  C   UNL     1      13.699  15.487  36.872  1.00  0.00     0.014 C 
BRANCH   3   4
ATOM      4  C   UNL     1      12.585  14.539  37.409  1.00  0.00     0.012 C 
BRANCH   4   5
ATOM      5  C   UNL     1      12.239  14.668  38.910  1.00  0.00     0.031 C 
BRANCH   5   6
ATOM      6  C   UNL     1      11.124  15.662  39.173  1.00  0.00    -0.077 C 
ATOM      7  C   UNL     1       9.695  15.183  39.116  1.00  0.00     0.039 C 
ATOM      8  C   UNL     1      11.341  16.980  39.399  1.00  0.00    -0.028 CG0
ATOM      9  G   UNL     1      12.686  17.653  39.572  1.00  0.00     0.000 G0
ENDBRANCH   5   6
ENDBRANCH   4   5
ENDBRANCH   3   4
BRANCH   3  10
ATOM     10  C   UNL     1      14.978  14.793  36.302  1.00  0.00    -0.010 C 
ATOM     11  C   UNL     1      14.933  13.270  36.519  1.00  0.00     0.008 C 
ATOM     12  C   UNL     1      16.259  15.341  36.958  1.00  0.00     0.008 C 
ENDBRANCH   3  10
ENDBRANCH   2   3
BRANCH   1  13
ATOM     13  C   UNL     1      13.748  18.593  37.425  1.00  0.00    -0.055 C 
ATOM     14  C   UNL     1      15.078  18.664  37.530  1.00  0.00     0.012 C 
BRANCH  13  15
ATOM     15  C   UNL     1      12.893  18.878  38.644  1.00  0.00     0.039 C 
BRANCH  15  16
ATOM     16  C   UNL     1      12.687  17.662  39.573  1.00  0.00     0.032 CG0
ATOM     17  G   UNL     1      11.348  16.973  39.409  1.00  0.00     0.000 G0
ENDBRANCH  15  16
ENDBRANCH  13  15
ENDBRANCH   1  13
TORSDOF 1
ENDMDL
MODEL 4
REMARK VINA RESULT:    -3.186      1.593      1.800
REMARK INTER + INTRA:          -5.108
REMARK INTER:                  -4.769
REMARK INTRA:                  -0.339
REMARK UNBOUND:                -0.433
REMARK SMILES C=C1C=C[C@H](C(C)C)CCC(C)=CCC1
REMARK SMILES IDX 3 1 4 2 5 3 9 4 10 5 11 6 12 7 13 8 6 10 7 11 8 12 2 13 1 14
REMARK SMILES IDX 15 15 14 16
REMARK H PARENT
REMARK Flexibility Score: 70.00
ROOT
ATOM      1  C   UNL     1      11.410  19.273  27.907  1.00  0.00    -0.001 C 
ATOM      2  C   UNL     1      10.298  19.034  27.191  1.00  0.00    -0.023 C 
ENDROOT
BRANCH   2   3
ATOM      3  C   UNL     1       9.838  19.701  25.899  1.00  0.00     0.014 C 
BRANCH   3   4
ATOM      4  C   UNL     1      10.675  19.259  24.661  1.00  0.00     0.012 C 
BRANCH   4   5
ATOM      5  C   UNL     1      11.809  20.213  24.222  1.00  0.00     0.031 C 
BRANCH   5   6
ATOM      6  C   UNL     1      11.367  21.663  24.164  1.00  0.00    -0.077 C 
ATOM      7  C   UNL     1      10.398  22.086  23.088  1.00  0.00     0.039 C 
ATOM      8  C   UNL     1      11.845  22.620  24.995  1.00  0.00    -0.028 CG0
ATOM      9  G   UNL     1      12.759  22.405  26.184  1.00  0.00     0.000 G0
ENDBRANCH   5   6
ENDBRANCH   4   5
ENDBRANCH   3   4
BRANCH   3  10
ATOM     10  C   UNL     1       8.288  19.744  25.703  1.00  0.00    -0.010 C 
ATOM     11  C   UNL     1       7.563  18.935  26.795  1.00  0.00     0.008 C 
ATOM     12  C   UNL     1       7.876  19.186  24.329  1.00  0.00     0.008 C 
ENDBRANCH   3  10
ENDBRANCH   2   3
BRANCH   1  13
ATOM     13  C   UNL     1      12.442  20.273  27.587  1.00  0.00    -0.055 C 
ATOM     14  C   UNL     1      13.727  19.949  27.756  1.00  0.00     0.012 C 
BRANCH  13  15
ATOM     15  C   UNL     1      12.064  21.729  27.399  1.00  0.00     0.039 C 
BRANCH  15  16
ATOM     16  C   UNL     1      12.750  22.413  26.196  1.00  0.00     0.032 CG0
ATOM     17  G   UNL     1      11.852  22.601  24.991  1.00  0.00     0.000 G0
ENDBRANCH  15  16
ENDBRANCH  13  15
ENDBRANCH   1  13
TORSDOF 1
ENDMDL
MODEL 5
REMARK VINA RESULT:    -3.169      2.308      5.300
REMARK INTER + INTRA:          -5.084
REMARK INTER:                  -4.697
REMARK INTRA:                  -0.387
REMARK UNBOUND:                -0.433
REMARK SMILES C=C1C=C[C@H](C(C)C)CCC(C)=CCC1
REMARK SMILES IDX 3 1 4 2 5 3 9 4 10 5 11 6 12 7 13 8 6 10 7 11 8 12 2 13 1 14
REMARK SMILES IDX 15 15 14 16
REMARK H PARENT
REMARK Flexibility Score: 70.00
ROOT
ATOM      1  C   UNL     1       9.562  19.148  23.025  1.00  0.00    -0.001 C 
ATOM      2  C   UNL     1      10.825  19.259  23.471  1.00  0.00    -0.023 C 
ENDROOT
BRANCH   2   3
ATOM      3  C   UNL     1      11.319  19.849  24.788  1.00  0.00     0.014 C 
BRANCH   3   4
ATOM      4  C   UNL     1      11.118  18.882  25.994  1.00  0.00     0.012 C 
BRANCH   4   5
ATOM      5  C   UNL     1       9.894  19.156  26.897  1.00  0.00     0.031 C 
BRANCH   5   6
ATOM      6  C   UNL     1       9.753  20.620  27.269  1.00  0.00    -0.077 C 
ATOM      7  C   UNL     1      10.727  21.216  28.255  1.00  0.00     0.039 C 
ATOM      8  C   UNL     1       8.756  21.412  26.807  1.00  0.00    -0.028 CG0
ATOM      9  G   UNL     1       7.726  21.042  25.760  1.00  0.00     0.000 G0
ENDBRANCH   5   6
ENDBRANCH   4   5
ENDBRANCH   3   4
BRANCH   3  10
ATOM     10  C   UNL     1      12.705  20.565  24.703  1.00  0.00    -0.010 C 
ATOM     11  C   UNL     1      13.484  20.129  23.449  1.00  0.00     0.008 C 
ATOM     12  C   UNL     1      13.571  20.272  25.941  1.00  0.00     0.008 C 
ENDBRANCH   3  10
ENDBRANCH   2   3
BRANCH   1  13
ATOM     13  C   UNL     1       8.354  19.601  23.735  1.00  0.00    -0.055 C 
ATOM     14  C   UNL     1       7.228  18.893  23.608  1.00  0.00     0.012 C 
BRANCH  13  15
ATOM     15  C   UNL     1       8.288  21.000  24.316  1.00  0.00     0.039 C 
BRANCH  15  16
ATOM     16  C   UNL     1       7.729  21.065  25.754  1.00  0.00     0.032 CG0
ATOM     17  G   UNL     1       8.758  21.424  26.806  1.00  0.00     0.000 G0
ENDBRANCH  15  16
ENDBRANCH  13  15
ENDBRANCH   1  13
TORSDOF 1
ENDMDL
MODEL 6
REMARK VINA RESULT:    -3.125      2.228      3.750
REMARK INTER + INTRA:          -5.019
REMARK INTER:                  -4.480
REMARK INTRA:                  -0.539
REMARK UNBOUND:                -0.433
REMARK SMILES C=C1C=C[C@H](C(C)C)CCC(C)=CCC1
REMARK SMILES IDX 3 1 4 2 5 3 9 4 10 5 11 6 12 7 13 8 6 10 7 11 8 12 2 13 1 14
REMARK SMILES IDX 15 15 14 16
REMARK H PARENT
REMARK Flexibility Score: 70.00
ROOT
ATOM      1  C   UNL     1       7.405  19.861  26.478  1.00  0.00    -0.001 C 
ATOM      2  C   UNL     1       7.660  19.253  25.307  1.00  0.00    -0.023 C 
ENDROOT
BRANCH   2   3
ATOM      3  C   UNL     1       7.990  19.888  23.960  1.00  0.00     0.014 C 
BRANCH   3   4
ATOM      4  C   UNL     1       9.512  20.168  23.782  1.00  0.00     0.012 C 
BRANCH   4   5
ATOM      5  C   UNL     1      10.444  19.624  24.889  1.00  0.00     0.031 C 
BRANCH   5   6
ATOM      6  C   UNL     1      11.320  20.701  25.501  1.00  0.00    -0.077 C 
ATOM      7  C   UNL     1      12.591  21.095  24.790  1.00  0.00     0.039 C 
ATOM      8  C   UNL     1      11.053  21.290  26.691  1.00  0.00    -0.028 CG0
ATOM      9  G   UNL     1       9.804  21.101  27.527  1.00  0.00     0.000 G0
ENDBRANCH   5   6
ENDBRANCH   4   5
ENDBRANCH   3   4
BRANCH   3  10
ATOM     10  C   UNL     1       7.261  19.240  22.738  1.00  0.00    -0.010 C 
ATOM     11  C   UNL     1       5.734  19.234  22.937  1.00  0.00     0.008 C 
ATOM     12  C   UNL     1       7.727  17.791  22.504  1.00  0.00     0.008 C 
ENDBRANCH   3  10
ENDBRANCH   2   3
BRANCH   1  13
ATOM     13  C   UNL     1       7.376  21.315  26.706  1.00  0.00    -0.055 C 
ATOM     14  C   UNL     1       6.352  22.024  26.222  1.00  0.00     0.012 C 
BRANCH  13  15
ATOM     15  C   UNL     1       8.623  22.041  27.173  1.00  0.00     0.039 C 
BRANCH  15  16
ATOM     16  C   UNL     1       9.798  21.110  27.547  1.00  0.00     0.032 CG0
ATOM     17  G   UNL     1      11.036  21.296  26.695  1.00  0.00     0.000 G0
ENDBRANCH  15  16
ENDBRANCH  13  15
ENDBRANCH   1  13
TORSDOF 1
ENDMDL
MODEL 7
REMARK VINA RESULT:    -3.118      1.935      2.909
REMARK INTER + INTRA:          -5.009
REMARK INTER:                  -4.715
REMARK INTRA:                  -0.294
REMARK UNBOUND:                -0.433
REMARK SMILES C=C1C=C[C@H](C(C)C)CCC(C)=CCC1
REMARK SMILES IDX 3 1 4 2 5 3 9 4 10 5 11 6 12 7 13 8 6 10 7 11 8 12 2 13 1 14
REMARK SMILES IDX 15 15 14 16
REMARK H PARENT
REMARK Flexibility Score: 70.00
ROOT
ATOM      1  C   UNL     1       8.380  19.311  26.670  1.00  0.00    -0.001 C 
ATOM      2  C   UNL     1       7.695  19.435  25.520  1.00  0.00    -0.023 C 
ENDROOT
BRANCH   2   3
ATOM      3  C   UNL     1       8.175  19.991  24.184  1.00  0.00     0.014 C 
BRANCH   3   4
ATOM      4  C   UNL     1       9.326  19.146  23.558  1.00  0.00     0.012 C 
BRANCH   4   5
ATOM      5  C   UNL     1      10.742  19.760  23.623  1.00  0.00     0.031 C 
BRANCH   5   6
ATOM      6  C   UNL     1      10.727  21.277  23.605  1.00  0.00    -0.077 C 
ATOM      7  C   UNL     1      10.371  21.985  22.321  1.00  0.00     0.039 C 
ATOM      8  C   UNL     1      11.076  22.037  24.670  1.00  0.00    -0.028 CG0
ATOM      9  G   UNL     1      11.391  21.539  26.066  1.00  0.00     0.000 G0
ENDBRANCH   5   6
ENDBRANCH   4   5
ENDBRANCH   3   4
BRANCH   3  10
ATOM     10  C   UNL     1       7.033  20.427  23.211  1.00  0.00    -0.010 C 
ATOM     11  C   UNL     1       5.777  20.867  23.984  1.00  0.00     0.008 C 
ATOM     12  C   UNL     1       6.640  19.288  22.252  1.00  0.00     0.008 C 
ENDBRANCH   3  10
ENDBRANCH   2   3
BRANCH   1  13
ATOM     13  C   UNL     1       9.779  19.714  26.888  1.00  0.00    -0.055 C 
ATOM     14  C   UNL     1      10.648  18.807  27.343  1.00  0.00     0.012 C 
BRANCH  13  15
ATOM     15  C   UNL     1      10.156  21.182  26.923  1.00  0.00     0.039 C 
BRANCH  15  16
ATOM     16  C   UNL     1      11.398  21.540  26.078  1.00  0.00     0.032 CG0
ATOM     17  G   UNL     1      11.082  22.026  24.679  1.00  0.00     0.000 G0
ENDBRANCH  15  16
ENDBRANCH  13  15
ENDBRANCH   1  13
TORSDOF 1
ENDMDL
MODEL 8
REMARK VINA RESULT:    -3.086      1.971      2.741
REMARK INTER + INTRA:          -4.963
REMARK INTER:                  -4.275
REMARK INTRA:                  -0.688
REMARK UNBOUND:                -0.433
REMARK SMILES C=C1C=C[C@H](C(C)C)CCC(C)=CCC1
REMARK SMILES IDX 3 1 4 2 5 3 9 4 10 5 11 6 12 7 13 8 6 10 7 11 8 12 2 13 1 14
REMARK SMILES IDX 15 15 14 16
REMARK H PARENT
REMARK Flexibility Score: 70.00
ROOT
ATOM      1  C   UNL     1      11.310  18.883  24.844  1.00  0.00    -0.001 C 
ATOM      2  C   UNL     1      10.615  19.243  23.752  1.00  0.00    -0.023 C 
ENDROOT
BRANCH   2   3
ATOM      3  C   UNL     1       9.517  20.294  23.628  1.00  0.00     0.014 C 
BRANCH   3   4
ATOM      4  C   UNL     1       9.954  21.527  22.781  1.00  0.00     0.012 C 
BRANCH   4   5
ATOM      5  C   UNL     1      11.465  21.856  22.778  1.00  0.00     0.031 C 
BRANCH   5   6
ATOM      6  C   UNL     1      11.834  22.933  23.780  1.00  0.00    -0.077 C 
ATOM      7  C   UNL     1      11.545  24.374  23.439  1.00  0.00     0.039 C 
ATOM      8  C   UNL     1      12.470  22.676  24.948  1.00  0.00    -0.028 CG0
ATOM      9  G   UNL     1      12.784  21.308  25.518  1.00  0.00     0.000 G0
ENDBRANCH   5   6
ENDBRANCH   4   5
ENDBRANCH   3   4
BRANCH   3  10
ATOM     10  C   UNL     1       8.096  19.719  23.325  1.00  0.00    -0.010 C 
ATOM     11  C   UNL     1       7.385  19.272  24.616  1.00  0.00     0.008 C 
ATOM     12  C   UNL     1       8.165  18.516  22.366  1.00  0.00     0.008 C 
ENDBRANCH   3  10
ENDBRANCH   2   3
BRANCH   1  13
ATOM     13  C   UNL     1      11.138  19.439  26.197  1.00  0.00    -0.055 C 
ATOM     14  C   UNL     1      10.221  18.898  27.004  1.00  0.00     0.012 C 
BRANCH  13  15
ATOM     15  C   UNL     1      11.732  20.788  26.551  1.00  0.00     0.039 C 
BRANCH  15  16
ATOM     16  C   UNL     1      12.783  21.304  25.543  1.00  0.00     0.032 CG0
ATOM     17  G   UNL     1      12.464  22.661  24.950  1.00  0.00     0.000 G0
ENDBRANCH  15  16
ENDBRANCH  13  15
ENDBRANCH   1  13
TORSDOF 1
ENDMDL
MODEL 9
REMARK VINA RESULT:    -3.070      2.487      4.853
REMARK INTER + INTRA:          -4.938
REMARK INTER:                  -4.751
REMARK INTRA:                  -0.187
REMARK UNBOUND:                -0.433
REMARK SMILES C=C1C=C[C@H](C(C)C)CCC(C)=CCC1
REMARK SMILES IDX 3 1 4 2 5 3 9 4 10 5 11 6 12 7 13 8 6 10 7 11 8 12 2 13 1 14
REMARK SMILES IDX 15 15 14 16
REMARK H PARENT
REMARK Flexibility Score: 70.00
ROOT
ATOM      1  C   UNL     1      10.287  20.799  26.502  1.00  0.00    -0.001 C 
ATOM      2  C   UNL     1      11.168  20.929  25.496  1.00  0.00    -0.023 C 
ENDROOT
BRANCH   2   3
ATOM      3  C   UNL     1      11.764  19.841  24.608  1.00  0.00     0.014 C 
BRANCH   3   4
ATOM      4  C   UNL     1      10.897  19.551  23.346  1.00  0.00     0.012 C 
BRANCH   4   5
ATOM      5  C   UNL     1       9.524  20.258  23.279  1.00  0.00     0.031 C 
BRANCH   5   6
ATOM      6  C   UNL     1       8.360  19.287  23.334  1.00  0.00    -0.077 C 
ATOM      7  C   UNL     1       8.128  18.363  22.165  1.00  0.00     0.039 C 
ATOM      8  C   UNL     1       7.474  19.246  24.357  1.00  0.00    -0.028 CG0
ATOM      9  G   UNL     1       7.561  20.025  25.654  1.00  0.00     0.000 G0
ENDBRANCH   5   6
ENDBRANCH   4   5
ENDBRANCH   3   4
BRANCH   3  10
ATOM     10  C   UNL     1      13.304  19.963  24.374  1.00  0.00    -0.010 C 
ATOM     11  C   UNL     1      13.940  20.973  25.346  1.00  0.00     0.008 C 
ATOM     12  C   UNL     1      13.624  20.405  22.934  1.00  0.00     0.008 C 
ENDBRANCH   3  10
ENDBRANCH   2   3
BRANCH   1  13
ATOM     13  C   UNL     1       9.706  19.534  26.981  1.00  0.00    -0.055 C 
ATOM     14  C   UNL     1      10.524  18.516  27.267  1.00  0.00     0.012 C 
BRANCH  13  15
ATOM     15  C   UNL     1       8.220  19.270  26.834  1.00  0.00     0.039 C 
BRANCH  15  16
ATOM     16  C   UNL     1       7.553  20.029  25.666  1.00  0.00     0.032 CG0
ATOM     17  G   UNL     1       7.495  19.250  24.368  1.00  0.00     0.000 G0
ENDBRANCH  15  16
ENDBRANCH  13  15
ENDBRANCH   1  13
TORSDOF 1
ENDMDL
