MODEL 1
REMARK VINA RESULT:    -6.022      0.000      0.000
REMARK INTER + INTRA:          -6.659
REMARK INTER:                  -6.550
REMARK INTRA:                  -0.109
REMARK UNBOUND:                -0.109
REMARK SMILES Cc1ccc(C(C)C)cc1O
REMARK SMILES IDX 1 1 2 2 10 3 9 4 5 5 4 6 3 7 11 8 6 10 7 11 8 12
REMARK H PARENT 11 9
REMARK Flexibility Score: inf
ROOT
ATOM      1  C   UNL     1      -8.023   8.511 -11.649  1.00  0.00     0.048 C 
ATOM      2  C   UNL     1      -7.310   8.515 -12.971  1.00  0.00    -0.009 A 
ATOM      3  C   UNL     1      -6.233   9.390 -13.193  1.00  0.00     0.118 A 
ATOM      4  C   UNL     1      -5.571   9.387 -14.430  1.00  0.00     0.050 A 
ATOM      5  C   UNL     1      -5.973   8.514 -15.456  1.00  0.00    -0.042 A 
ATOM      6  C   UNL     1      -7.050   7.642 -15.225  1.00  0.00     0.004 A 
ATOM      7  C   UNL     1      -7.712   7.643 -13.994  1.00  0.00     0.007 A 
ENDROOT
BRANCH   3   8
ATOM      8  O   UNL     1      -5.823  10.262 -12.184  1.00  0.00    -0.508 OA
ATOM      9  H   UNL     1      -4.967  10.108 -11.663  1.00  0.00     0.293 HD
ENDBRANCH   3   8
BRANCH   5  10
ATOM     10  C   UNL     1      -5.264   8.503 -16.799  1.00  0.00     0.013 C 
ATOM     11  C   UNL     1      -3.875   9.144 -16.694  1.00  0.00     0.012 C 
ATOM     12  C   UNL     1      -6.110   9.191 -17.876  1.00  0.00     0.012 C 
ENDBRANCH   5  10
TORSDOF 2
ENDMDL
MODEL 2
REMARK VINA RESULT:    -5.865      1.433      2.027
REMARK INTER + INTRA:          -6.489
REMARK INTER:                  -6.361
REMARK INTRA:                  -0.128
REMARK UNBOUND:                -0.109
REMARK SMILES Cc1ccc(C(C)C)cc1O
REMARK SMILES IDX 1 1 2 2 10 3 9 4 5 5 4 6 3 7 11 8 6 10 7 11 8 12
REMARK H PARENT 11 9
REMARK Flexibility Score: inf
ROOT
ATOM      1  C   UNL     1      -7.878   8.547 -11.536  1.00  0.00     0.048 C 
ATOM      2  C   UNL     1      -7.208   8.529 -12.880  1.00  0.00    -0.009 A 
ATOM      3  C   UNL     1      -7.832   7.906 -13.975  1.00  0.00     0.118 A 
ATOM      4  C   UNL     1      -7.200   7.894 -15.227  1.00  0.00     0.050 A 
ATOM      5  C   UNL     1      -5.944   8.501 -15.403  1.00  0.00    -0.042 A 
ATOM      6  C   UNL     1      -5.328   9.122 -14.303  1.00  0.00     0.004 A 
ATOM      7  C   UNL     1      -5.954   9.135 -13.055  1.00  0.00     0.007 A 
ENDROOT
BRANCH   3   8
ATOM      8  O   UNL     1      -9.078   7.299 -13.816  1.00  0.00    -0.508 OA
ATOM      9  H   UNL     1      -9.540   7.261 -12.915  1.00  0.00     0.293 HD
ENDBRANCH   3   8
BRANCH   5  10
ATOM     10  C   UNL     1      -5.251   8.493 -16.754  1.00  0.00     0.013 C 
ATOM     11  C   UNL     1      -3.875   9.166 -16.672  1.00  0.00     0.012 C 
ATOM     12  C   UNL     1      -6.125   9.152 -17.827  1.00  0.00     0.012 C 
ENDBRANCH   5  10
TORSDOF 2
ENDMDL
MODEL 3
REMARK VINA RESULT:    -5.823      0.646      1.246
REMARK INTER + INTRA:          -6.443
REMARK INTER:                  -6.315
REMARK INTRA:                  -0.128
REMARK UNBOUND:                -0.109
REMARK SMILES Cc1ccc(C(C)C)cc1O
REMARK SMILES IDX 1 1 2 2 10 3 9 4 5 5 4 6 3 7 11 8 6 10 7 11 8 12
REMARK H PARENT 11 9
REMARK Flexibility Score: inf
ROOT
ATOM      1  C   UNL     1      -8.320   8.152 -11.887  1.00  0.00     0.048 C 
ATOM      2  C   UNL     1      -7.551   8.497 -13.131  1.00  0.00    -0.009 A 
ATOM      3  C   UNL     1      -6.840   9.706 -13.212  1.00  0.00     0.118 A 
ATOM      4  C   UNL     1      -6.124  10.022 -14.376  1.00  0.00     0.050 A 
ATOM      5  C   UNL     1      -6.109   9.138 -15.471  1.00  0.00    -0.042 A 
ATOM      6  C   UNL     1      -6.823   7.932 -15.380  1.00  0.00     0.004 A 
ATOM      7  C   UNL     1      -7.537   7.615 -14.222  1.00  0.00     0.007 A 
ENDROOT
BRANCH   3   8
ATOM      8  O   UNL     1      -6.845  10.593 -12.135  1.00  0.00    -0.508 OA
ATOM      9  H   UNL     1      -7.605  10.611 -11.464  1.00  0.00     0.293 HD
ENDBRANCH   3   8
BRANCH   5  10
ATOM     10  C   UNL     1      -5.338   9.470 -16.736  1.00  0.00     0.013 C 
ATOM     11  C   UNL     1      -6.204   9.249 -17.982  1.00  0.00     0.012 C 
ATOM     12  C   UNL     1      -4.037   8.664 -16.818  1.00  0.00     0.012 C 
ENDBRANCH   5  10
TORSDOF 2
ENDMDL
MODEL 4
REMARK VINA RESULT:    -5.636      1.335      4.087
REMARK INTER + INTRA:          -6.239
REMARK INTER:                  -6.112
REMARK INTRA:                  -0.128
REMARK UNBOUND:                -0.109
REMARK SMILES Cc1ccc(C(C)C)cc1O
REMARK SMILES IDX 1 1 2 2 10 3 9 4 5 5 4 6 3 7 11 8 6 10 7 11 8 12
REMARK H PARENT 11 9
REMARK Flexibility Score: inf
ROOT
ATOM      1  C   UNL     1      -3.946   9.178 -16.738  1.00  0.00     0.048 C 
ATOM      2  C   UNL     1      -4.965   8.968 -15.655  1.00  0.00    -0.009 A 
ATOM      3  C   UNL     1      -4.895   9.709 -14.462  1.00  0.00     0.118 A 
ATOM      4  C   UNL     1      -5.851   9.507 -13.455  1.00  0.00     0.050 A 
ATOM      5  C   UNL     1      -6.886   8.569 -13.625  1.00  0.00    -0.042 A 
ATOM      6  C   UNL     1      -6.947   7.835 -14.821  1.00  0.00     0.004 A 
ATOM      7  C   UNL     1      -5.997   8.032 -15.825  1.00  0.00     0.007 A 
ENDROOT
BRANCH   3   8
ATOM      8  O   UNL     1      -3.875  10.643 -14.279  1.00  0.00    -0.508 OA
ATOM      9  H   UNL     1      -3.096  10.713 -14.923  1.00  0.00     0.293 HD
ENDBRANCH   3   8
BRANCH   5  10
ATOM     10  C   UNL     1      -7.925   8.343 -12.542  1.00  0.00     0.013 C 
ATOM     11  C   UNL     1      -7.259   8.028 -11.197  1.00  0.00     0.012 C 
ATOM     12  C   UNL     1      -8.910   7.239 -12.943  1.00  0.00     0.012 C 
ENDBRANCH   5  10
TORSDOF 2
ENDMDL
MODEL 5
REMARK VINA RESULT:    -5.596      2.421      2.840
REMARK INTER + INTRA:          -6.196
REMARK INTER:                  -6.068
REMARK INTRA:                  -0.128
REMARK UNBOUND:                -0.109
REMARK SMILES Cc1ccc(C(C)C)cc1O
REMARK SMILES IDX 1 1 2 2 10 3 9 4 5 5 4 6 3 7 11 8 6 10 7 11 8 12
REMARK H PARENT 11 9
REMARK Flexibility Score: inf
ROOT
ATOM      1  C   UNL     1     -10.398  10.210 -13.020  1.00  0.00     0.048 C 
ATOM      2  C   UNL     1      -9.146   9.799 -13.741  1.00  0.00    -0.009 A 
ATOM      3  C   UNL     1      -9.182   8.760 -14.687  1.00  0.00     0.118 A 
ATOM      4  C   UNL     1      -8.008   8.382 -15.356  1.00  0.00     0.050 A 
ATOM      5  C   UNL     1      -6.790   9.032 -15.092  1.00  0.00    -0.042 A 
ATOM      6  C   UNL     1      -6.764  10.069 -14.145  1.00  0.00     0.004 A 
ATOM      7  C   UNL     1      -7.931  10.448 -13.476  1.00  0.00     0.007 A 
ENDROOT
BRANCH   3   8
ATOM      8  O   UNL     1     -10.383   8.105 -14.960  1.00  0.00    -0.508 OA
ATOM      9  H   UNL     1     -10.918   7.649 -14.231  1.00  0.00     0.293 HD
ENDBRANCH   3   8
BRANCH   5  10
ATOM     10  C   UNL     1      -5.514   8.630 -15.810  1.00  0.00     0.013 C 
ATOM     11  C   UNL     1      -4.309   9.415 -15.274  1.00  0.00     0.012 C 
ATOM     12  C   UNL     1      -5.655   8.803 -17.326  1.00  0.00     0.012 C 
ENDBRANCH   5  10
TORSDOF 2
ENDMDL
MODEL 6
REMARK VINA RESULT:    -5.579      1.841      2.148
REMARK INTER + INTRA:          -6.178
REMARK INTER:                  -6.050
REMARK INTRA:                  -0.128
REMARK UNBOUND:                -0.109
REMARK SMILES Cc1ccc(C(C)C)cc1O
REMARK SMILES IDX 1 1 2 2 10 3 9 4 5 5 4 6 3 7 11 8 6 10 7 11 8 12
REMARK H PARENT 11 9
REMARK Flexibility Score: inf
ROOT
ATOM      1  C   UNL     1     -10.239   8.949 -13.468  1.00  0.00     0.048 C 
ATOM      2  C   UNL     1      -8.878   9.141 -14.074  1.00  0.00    -0.009 A 
ATOM      3  C   UNL     1      -8.103  10.263 -13.736  1.00  0.00     0.118 A 
ATOM      4  C   UNL     1      -6.833  10.435 -14.306  1.00  0.00     0.050 A 
ATOM      5  C   UNL     1      -6.322   9.492 -15.216  1.00  0.00    -0.042 A 
ATOM      6  C   UNL     1      -7.104   8.373 -15.548  1.00  0.00     0.004 A 
ATOM      7  C   UNL     1      -8.370   8.200 -14.983  1.00  0.00     0.007 A 
ENDROOT
BRANCH   3   8
ATOM      8  O   UNL     1      -8.596  11.207 -12.835  1.00  0.00    -0.508 OA
ATOM      9  H   UNL     1      -8.698  10.998 -11.848  1.00  0.00     0.293 HD
ENDBRANCH   3   8
BRANCH   5  10
ATOM     10  C   UNL     1      -4.949   9.668 -15.840  1.00  0.00     0.013 C 
ATOM     11  C   UNL     1      -4.601   8.485 -16.752  1.00  0.00     0.012 C 
ATOM     12  C   UNL     1      -3.875   9.870 -14.764  1.00  0.00     0.012 C 
ENDBRANCH   5  10
TORSDOF 2
ENDMDL
MODEL 7
REMARK VINA RESULT:    -5.498      1.258      3.853
REMARK INTER + INTRA:          -6.089
REMARK INTER:                  -5.979
REMARK INTRA:                  -0.110
REMARK UNBOUND:                -0.109
REMARK SMILES Cc1ccc(C(C)C)cc1O
REMARK SMILES IDX 1 1 2 2 10 3 9 4 5 5 4 6 3 7 11 8 6 10 7 11 8 12
REMARK H PARENT 11 9
REMARK Flexibility Score: inf
ROOT
ATOM      1  C   UNL     1      -3.880   9.899 -14.601  1.00  0.00     0.048 C 
ATOM      2  C   UNL     1      -5.173   9.153 -14.434  1.00  0.00    -0.009 A 
ATOM      3  C   UNL     1      -5.916   9.279 -13.248  1.00  0.00     0.118 A 
ATOM      4  C   UNL     1      -7.123   8.579 -13.099  1.00  0.00     0.050 A 
ATOM      5  C   UNL     1      -7.602   7.748 -14.129  1.00  0.00    -0.042 A 
ATOM      6  C   UNL     1      -6.852   7.629 -15.311  1.00  0.00     0.004 A 
ATOM      7  C   UNL     1      -5.650   8.324 -15.461  1.00  0.00     0.007 A 
ENDROOT
BRANCH   3   8
ATOM      8  O   UNL     1      -5.454  10.098 -12.218  1.00  0.00    -0.508 OA
ATOM      9  H   UNL     1      -4.759  10.817 -12.381  1.00  0.00     0.293 HD
ENDBRANCH   3   8
BRANCH   5  10
ATOM     10  C   UNL     1      -8.906   6.986 -13.978  1.00  0.00     0.013 C 
ATOM     11  C   UNL     1     -10.009   7.604 -14.847  1.00  0.00     0.012 C 
ATOM     12  C   UNL     1      -9.338   6.912 -12.509  1.00  0.00     0.012 C 
ENDBRANCH   5  10
TORSDOF 2
ENDMDL
MODEL 8
REMARK VINA RESULT:    -5.470      1.943      4.231
REMARK INTER + INTRA:          -6.059
REMARK INTER:                  -5.932
REMARK INTRA:                  -0.128
REMARK UNBOUND:                -0.109
REMARK SMILES Cc1ccc(C(C)C)cc1O
REMARK SMILES IDX 1 1 2 2 10 3 9 4 5 5 4 6 3 7 11 8 6 10 7 11 8 12
REMARK H PARENT 11 9
REMARK Flexibility Score: inf
ROOT
ATOM      1  C   UNL     1      -3.885   9.875 -14.339  1.00  0.00     0.048 C 
ATOM      2  C   UNL     1      -5.184   9.126 -14.251  1.00  0.00    -0.009 A 
ATOM      3  C   UNL     1      -5.657   8.395 -15.354  1.00  0.00     0.118 A 
ATOM      4  C   UNL     1      -6.871   7.698 -15.264  1.00  0.00     0.050 A 
ATOM      5  C   UNL     1      -7.625   7.720 -14.077  1.00  0.00    -0.042 A 
ATOM      6  C   UNL     1      -7.144   8.453 -12.980  1.00  0.00     0.004 A 
ATOM      7  C   UNL     1      -5.936   9.149 -13.066  1.00  0.00     0.007 A 
ENDROOT
BRANCH   3   8
ATOM      8  O   UNL     1      -4.920   8.363 -16.538  1.00  0.00    -0.508 OA
ATOM      9  H   UNL     1      -5.365   8.228 -17.438  1.00  0.00     0.293 HD
ENDBRANCH   3   8
BRANCH   5  10
ATOM     10  C   UNL     1      -8.940   6.970 -13.969  1.00  0.00     0.013 C 
ATOM     11  C   UNL     1     -10.017   7.614 -14.851  1.00  0.00     0.012 C 
ATOM     12  C   UNL     1      -9.405   6.875 -12.511  1.00  0.00     0.012 C 
ENDBRANCH   5  10
TORSDOF 2
ENDMDL
MODEL 9
REMARK VINA RESULT:    -5.007      2.340      4.626
REMARK INTER + INTRA:          -5.555
REMARK INTER:                  -5.439
REMARK INTRA:                  -0.116
REMARK UNBOUND:                -0.109
REMARK SMILES Cc1ccc(C(C)C)cc1O
REMARK SMILES IDX 1 1 2 2 10 3 9 4 5 5 4 6 3 7 11 8 6 10 7 11 8 12
REMARK H PARENT 11 9
REMARK Flexibility Score: inf
ROOT
ATOM      1  C   UNL     1      -5.805   8.183 -15.617  1.00  0.00     0.048 C 
ATOM      2  C   UNL     1      -7.027   8.734 -14.938  1.00  0.00    -0.009 A 
ATOM      3  C   UNL     1      -6.940   9.901 -14.160  1.00  0.00     0.118 A 
ATOM      4  C   UNL     1      -8.086  10.409 -13.529  1.00  0.00     0.050 A 
ATOM      5  C   UNL     1      -9.328   9.763 -13.668  1.00  0.00    -0.042 A 
ATOM      6  C   UNL     1      -9.404   8.598 -14.448  1.00  0.00     0.004 A 
ATOM      7  C   UNL     1      -8.265   8.088 -15.077  1.00  0.00     0.007 A 
ENDROOT
BRANCH   3   8
ATOM      8  O   UNL     1      -5.716  10.553 -14.013  1.00  0.00    -0.508 OA
ATOM      9  H   UNL     1      -5.477  11.368 -14.566  1.00  0.00     0.293 HD
ENDBRANCH   3   8
BRANCH   5  10
ATOM     10  C   UNL     1     -10.573  10.304 -12.990  1.00  0.00     0.013 C 
ATOM     11  C   UNL     1     -10.285  11.640 -12.292  1.00  0.00     0.012 C 
ATOM     12  C   UNL     1     -11.156   9.283 -12.006  1.00  0.00     0.012 C 
ENDBRANCH   5  10
TORSDOF 2
ENDMDL
