MODEL 1
REMARK VINA RESULT:    -6.702      0.000      0.000
REMARK INTER + INTRA:         -15.252
REMARK INTER:                 -11.599
REMARK INTRA:                  -3.652
REMARK UNBOUND:                -3.652
REMARK SMILES OC[C@@H]1O[C@H](O)[C@H](O)[C@H](O)[C@H]1O[C@H]1O[C@@H](CO)[C@@H](O[C@H]2O[C@H](CO)[C@@H](O)[C@H](O)[C@H]2O)[C@@H](O)[C@@H]1O
REMARK SMILES IDX 18 1 15 2 14 3 13 4 33 5 31 6 19 7 20 8 22 9 25 10 21 11
REMARK SMILES IDX 27 12 29 13 23 14 24 15 26 17 28 19 30 21 16 23 17 24 32 26
REMARK SMILES IDX 34 28 12 30 11 31 3 32 9 33 4 34 7 35 5 36 2 37 1 38 10 40
REMARK SMILES IDX 8 42 6 44
REMARK H PARENT 24 16 26 18 28 20 30 22 17 25 32 27 34 29 1 39 10 41 8 43 6 45
REMARK Flexibility Score: inf
ROOT
ATOM      1  C   UNL     1      19.882  -3.135  20.661  1.00  0.00     0.184 C 
ATOM      2  C   UNL     1      19.601  -2.668  19.144  1.00  0.00     0.178 C 
ATOM      3  O   UNL     1      18.687  -3.609  18.692  1.00  0.00    -0.341 OA
ATOM      4  C   UNL     1      19.384  -4.800  18.369  1.00  0.00     0.282 C 
ATOM      5  C   UNL     1      20.803  -5.035  19.172  1.00  0.00     0.202 C 
ATOM      6  C   UNL     1      21.048  -4.072  20.404  1.00  0.00     0.180 C 
ENDROOT
BRANCH   1   7
ATOM      7  O   UNL     1      18.852  -4.048  21.110  1.00  0.00    -0.341 OA
BRANCH   7   8
ATOM      8  C   UNL     1      18.014  -3.824  22.230  1.00  0.00     0.282 C 
ATOM      9  C   UNL     1      17.717  -2.838  24.413  1.00  0.00     0.178 C 
ATOM     10  C   UNL     1      16.531  -1.926  23.910  1.00  0.00     0.177 C 
ATOM     11  O   UNL     1      18.650  -3.071  23.306  1.00  0.00    -0.341 OA
ATOM     12  C   UNL     1      16.478  -1.873  22.344  1.00  0.00     0.179 C 
ATOM     13  C   UNL     1      16.591  -3.315  21.855  1.00  0.00     0.202 C 
BRANCH   9  14
ATOM     14  C   UNL     1      17.310  -4.086  25.105  1.00  0.00     0.191 C 
BRANCH  14  15
ATOM     15  O   UNL     1      15.868  -4.190  25.257  1.00  0.00    -0.394 OA
ATOM     16  H   UNL     1      15.472  -3.315  24.921  1.00  0.00     0.210 HD
ENDBRANCH  14  15
ENDBRANCH   9  14
BRANCH  10  17
ATOM     17  O   UNL     1      16.715  -0.616  24.367  1.00  0.00    -0.387 OA
ATOM     18  H   UNL     1      16.955  -0.652  25.329  1.00  0.00     0.211 HD
ENDBRANCH  10  17
BRANCH  12  19
ATOM     19  O   UNL     1      15.245  -1.299  21.965  1.00  0.00    -0.387 OA
ATOM     20  H   UNL     1      14.725  -2.037  21.499  1.00  0.00     0.211 HD
ENDBRANCH  12  19
BRANCH  13  21
ATOM     21  O   UNL     1      16.373  -3.384  20.443  1.00  0.00    -0.385 OA
ATOM     22  H   UNL     1      16.790  -4.275  20.133  1.00  0.00     0.211 HD
ENDBRANCH  13  21
ENDBRANCH   7   8
ENDBRANCH   1   7
BRANCH   2  23
ATOM     23  C   UNL     1      19.098  -1.247  18.814  1.00  0.00     0.191 C 
BRANCH  23  24
ATOM     24  O   UNL     1      17.714  -1.421  18.636  1.00  0.00    -0.394 OA
ATOM     25  H   UNL     1      17.295  -0.617  18.986  1.00  0.00     0.210 HD
ENDBRANCH  23  24
ENDBRANCH   2  23
BRANCH   6  26
ATOM     26  O   UNL     1      21.495  -4.858  21.530  1.00  0.00    -0.387 OA
ATOM     27  H   UNL     1      21.074  -4.512  22.363  1.00  0.00     0.211 HD
ENDBRANCH   6  26
BRANCH   5  28
ATOM     28  O   UNL     1      21.896  -4.900  18.365  1.00  0.00    -0.385 OA
ATOM     29  H   UNL     1      21.610  -4.490  17.457  1.00  0.00     0.211 HD
ENDBRANCH   5  28
BRANCH   4  30
ATOM     30  O   UNL     1      18.469  -5.951  18.459  1.00  0.00    -0.341 OA
BRANCH  30  31
ATOM     31  C   UNL     1      17.380  -5.850  17.421  1.00  0.00     0.184 C 
ATOM     32  C   UNL     1      17.100  -6.695  16.162  1.00  0.00     0.178 C 
ATOM     33  C   UNL     1      15.898  -5.750  17.991  1.00  0.00     0.180 C 
ATOM     34  O   UNL     1      16.634  -5.773  15.153  1.00  0.00    -0.342 OA
ATOM     35  C   UNL     1      15.353  -4.500  17.284  1.00  0.00     0.201 C 
ATOM     36  C   UNL     1      15.635  -4.767  15.644  1.00  0.00     0.279 C 
BRANCH  32  37
ATOM     37  C   UNL     1      18.048  -7.957  15.961  1.00  0.00     0.191 C 
BRANCH  37  38
ATOM     38  O   UNL     1      19.362  -7.722  16.362  1.00  0.00    -0.394 OA
ATOM     39  H   UNL     1      19.760  -7.063  15.706  1.00  0.00     0.210 HD
ENDBRANCH  37  38
ENDBRANCH  32  37
BRANCH  33  40
ATOM     40  O   UNL     1      15.622  -5.814  19.374  1.00  0.00    -0.387 OA
ATOM     41  H   UNL     1      15.000  -6.603  19.521  1.00  0.00     0.211 HD
ENDBRANCH  33  40
BRANCH  35  42
ATOM     42  O   UNL     1      16.118  -3.403  17.551  1.00  0.00    -0.385 OA
ATOM     43  H   UNL     1      15.643  -2.673  17.008  1.00  0.00     0.211 HD
ENDBRANCH  35  42
BRANCH  36  44
ATOM     44  O   UNL     1      16.075  -3.529  15.111  1.00  0.00    -0.366 OA
ATOM     45  H   UNL     1      15.305  -2.899  15.208  1.00  0.00     0.213 HD
ENDBRANCH  36  44
ENDBRANCH  30  31
ENDBRANCH   4  30
TORSDOF 18
ENDMDL
MODEL 2
REMARK VINA RESULT:    -6.683      2.161      6.857
REMARK INTER + INTRA:         -15.219
REMARK INTER:                 -11.766
REMARK INTRA:                  -3.453
REMARK UNBOUND:                -3.652
REMARK SMILES OC[C@@H]1O[C@H](O)[C@H](O)[C@H](O)[C@H]1O[C@H]1O[C@@H](CO)[C@@H](O[C@H]2O[C@H](CO)[C@@H](O)[C@H](O)[C@H]2O)[C@@H](O)[C@@H]1O
REMARK SMILES IDX 18 1 15 2 14 3 13 4 33 5 31 6 19 7 20 8 22 9 25 10 21 11
REMARK SMILES IDX 27 12 29 13 23 14 24 15 26 17 28 19 30 21 16 23 17 24 32 26
REMARK SMILES IDX 34 28 12 30 11 31 3 32 9 33 4 34 7 35 5 36 2 37 1 38 10 40
REMARK SMILES IDX 8 42 6 44
REMARK H PARENT 24 16 26 18 28 20 30 22 17 25 32 27 34 29 1 39 10 41 8 43 6 45
REMARK Flexibility Score: inf
ROOT
ATOM      1  C   UNL     1      21.047  -4.030  22.167  1.00  0.00     0.184 C 
ATOM      2  C   UNL     1      20.994  -3.721  23.748  1.00  0.00     0.178 C 
ATOM      3  O   UNL     1      19.863  -2.927  23.873  1.00  0.00    -0.341 OA
ATOM      4  C   UNL     1      20.185  -1.610  23.461  1.00  0.00     0.282 C 
ATOM      5  C   UNL     1      21.428  -1.484  22.386  1.00  0.00     0.202 C 
ATOM      6  C   UNL     1      21.889  -2.846  21.727  1.00  0.00     0.180 C 
ENDROOT
BRANCH   1   7
ATOM      7  O   UNL     1      19.770  -3.740  21.550  1.00  0.00    -0.341 OA
BRANCH   7   8
ATOM      8  C   UNL     1      19.240  -4.439  20.438  1.00  0.00     0.282 C 
ATOM      9  C   UNL     1      18.057  -6.365  19.592  1.00  0.00     0.178 C 
ATOM     10  C   UNL     1      16.886  -5.475  19.020  1.00  0.00     0.177 C 
ATOM     11  O   UNL     1      18.623  -5.717  20.779  1.00  0.00    -0.341 OA
ATOM     12  C   UNL     1      16.932  -4.025  19.614  1.00  0.00     0.179 C 
ATOM     13  C   UNL     1      18.378  -3.550  19.494  1.00  0.00     0.202 C 
BRANCH   9  14
ATOM     14  C   UNL     1      19.087  -6.772  18.604  1.00  0.00     0.191 C 
BRANCH  14  15
ATOM     15  O   UNL     1      18.762  -6.339  17.255  1.00  0.00    -0.394 OA
ATOM     16  H   UNL     1      17.966  -6.895  16.949  1.00  0.00     0.210 HD
ENDBRANCH  14  15
ENDBRANCH   9  14
BRANCH  10  17
ATOM     17  O   UNL     1      15.652  -6.033  19.374  1.00  0.00    -0.387 OA
ATOM     18  H   UNL     1      14.941  -5.568  18.862  1.00  0.00     0.211 HD
ENDBRANCH  10  17
BRANCH  12  19
ATOM     19  O   UNL     1      16.061  -3.212  18.855  1.00  0.00    -0.387 OA
ATOM     20  H   UNL     1      15.932  -2.361  19.395  1.00  0.00     0.211 HD
ENDBRANCH  12  19
BRANCH  13  21
ATOM     21  O   UNL     1      18.483  -2.168  19.846  1.00  0.00    -0.385 OA
ATOM     22  H   UNL     1      17.528  -1.862  20.089  1.00  0.00     0.211 HD
ENDBRANCH  13  21
ENDBRANCH   7   8
ENDBRANCH   1   7
BRANCH   2  23
ATOM     23  C   UNL     1      20.956  -4.855  24.795  1.00  0.00     0.191 C 
BRANCH  23  24
ATOM     24  O   UNL     1      19.752  -4.628  25.483  1.00  0.00    -0.394 OA
ATOM     25  H   UNL     1      19.097  -5.224  25.083  1.00  0.00     0.210 HD
ENDBRANCH  23  24
ENDBRANCH   2  23
BRANCH   6  26
ATOM     26  O   UNL     1      22.025  -2.654  20.302  1.00  0.00    -0.387 OA
ATOM     27  H   UNL     1      22.902  -2.224  20.109  1.00  0.00     0.211 HD
ENDBRANCH   6  26
BRANCH   5  28
ATOM     28  O   UNL     1      22.548  -0.933  22.936  1.00  0.00    -0.385 OA
ATOM     29  H   UNL     1      22.397  -0.770  23.949  1.00  0.00     0.211 HD
ENDBRANCH   5  28
BRANCH   4  30
ATOM     30  O   UNL     1      18.964  -0.915  23.020  1.00  0.00    -0.341 OA
BRANCH  30  31
ATOM     31  C   UNL     1      17.760  -1.414  23.780  1.00  0.00     0.184 C 
ATOM     32  C   UNL     1      17.078  -0.885  25.056  1.00  0.00     0.178 C 
ATOM     33  C   UNL     1      16.465  -1.696  22.900  1.00  0.00     0.180 C 
ATOM     34  O   UNL     1      16.663  -2.049  25.804  1.00  0.00    -0.342 OA
ATOM     35  C   UNL     1      16.104  -3.137  23.293  1.00  0.00     0.201 C 
ATOM     36  C   UNL     1      16.024  -3.124  24.976  1.00  0.00     0.279 C 
BRANCH  32  37
ATOM     37  C   UNL     1      17.662   0.480  25.628  1.00  0.00     0.191 C 
BRANCH  37  38
ATOM     38  O   UNL     1      19.022   0.410  25.925  1.00  0.00    -0.394 OA
ATOM     39  H   UNL     1      19.240  -0.564  26.090  1.00  0.00     0.210 HD
ENDBRANCH  37  38
ENDBRANCH  32  37
BRANCH  33  40
ATOM     40  O   UNL     1      16.432  -1.437  21.513  1.00  0.00    -0.387 OA
ATOM     41  H   UNL     1      15.500  -1.673  21.185  1.00  0.00     0.211 HD
ENDBRANCH  33  40
BRANCH  35  42
ATOM     42  O   UNL     1      17.134  -3.995  23.043  1.00  0.00    -0.385 OA
ATOM     43  H   UNL     1      17.809  -3.388  22.566  1.00  0.00     0.211 HD
ENDBRANCH  35  42
BRANCH  36  44
ATOM     44  O   UNL     1      16.633  -4.328  25.412  1.00  0.00    -0.366 OA
ATOM     45  H   UNL     1      16.615  -4.945  24.625  1.00  0.00     0.213 HD
ENDBRANCH  36  44
ENDBRANCH  30  31
ENDBRANCH   4  30
TORSDOF 18
ENDMDL
MODEL 3
REMARK VINA RESULT:    -6.651      2.701      6.973
REMARK INTER + INTRA:         -15.164
REMARK INTER:                 -11.503
REMARK INTRA:                  -3.661
REMARK UNBOUND:                -3.652
REMARK SMILES OC[C@@H]1O[C@H](O)[C@H](O)[C@H](O)[C@H]1O[C@H]1O[C@@H](CO)[C@@H](O[C@H]2O[C@H](CO)[C@@H](O)[C@H](O)[C@H]2O)[C@@H](O)[C@@H]1O
REMARK SMILES IDX 18 1 15 2 14 3 13 4 33 5 31 6 19 7 20 8 22 9 25 10 21 11
REMARK SMILES IDX 27 12 29 13 23 14 24 15 26 17 28 19 30 21 16 23 17 24 32 26
REMARK SMILES IDX 34 28 12 30 11 31 3 32 9 33 4 34 7 35 5 36 2 37 1 38 10 40
REMARK SMILES IDX 8 42 6 44
REMARK H PARENT 24 16 26 18 28 20 30 22 17 25 32 27 34 29 1 39 10 41 8 43 6 45
REMARK Flexibility Score: inf
ROOT
ATOM      1  C   UNL     1      18.511  -3.052  22.873  1.00  0.00     0.184 C 
ATOM      2  C   UNL     1      17.084  -2.308  22.962  1.00  0.00     0.178 C 
ATOM      3  O   UNL     1      17.284  -1.159  22.210  1.00  0.00    -0.341 OA
ATOM      4  C   UNL     1      18.004  -0.223  22.995  1.00  0.00     0.282 C 
ATOM      5  C   UNL     1      18.951  -0.866  24.179  1.00  0.00     0.202 C 
ATOM      6  C   UNL     1      19.172  -2.430  24.090  1.00  0.00     0.180 C 
ENDROOT
BRANCH   1   7
ATOM      7  O   UNL     1      19.300  -2.510  21.788  1.00  0.00    -0.341 OA
BRANCH   7   8
ATOM      8  C   UNL     1      19.500  -3.152  20.542  1.00  0.00     0.282 C 
ATOM      9  C   UNL     1      18.979  -3.287  18.189  1.00  0.00     0.178 C 
ATOM     10  C   UNL     1      20.477  -3.009  17.776  1.00  0.00     0.177 C 
ATOM     11  O   UNL     1      18.693  -2.606  19.456  1.00  0.00    -0.341 OA
ATOM     12  C   UNL     1      21.307  -2.454  18.986  1.00  0.00     0.179 C 
ATOM     13  C   UNL     1      20.999  -3.358  20.177  1.00  0.00     0.202 C 
BRANCH   9  14
ATOM     14  C   UNL     1      18.573  -4.714  18.189  1.00  0.00     0.191 C 
BRANCH  14  15
ATOM     15  O   UNL     1      17.237  -4.910  18.727  1.00  0.00    -0.394 OA
ATOM     16  H   UNL     1      16.591  -4.849  17.942  1.00  0.00     0.210 HD
ENDBRANCH  14  15
ENDBRANCH   9  14
BRANCH  10  17
ATOM     17  O   UNL     1      20.518  -2.045  16.763  1.00  0.00    -0.387 OA
ATOM     18  H   UNL     1      19.684  -1.510  16.808  1.00  0.00     0.211 HD
ENDBRANCH  10  17
BRANCH  12  19
ATOM     19  O   UNL     1      22.675  -2.509  18.641  1.00  0.00    -0.387 OA
ATOM     20  H   UNL     1      23.142  -1.837  19.244  1.00  0.00     0.211 HD
ENDBRANCH  12  19
BRANCH  13  21
ATOM     21  O   UNL     1      21.849  -3.037  21.282  1.00  0.00    -0.385 OA
ATOM     22  H   UNL     1      22.555  -2.379  20.917  1.00  0.00     0.211 HD
ENDBRANCH  13  21
ENDBRANCH   7   8
ENDBRANCH   1   7
BRANCH   2  23
ATOM     23  C   UNL     1      15.779  -3.002  22.519  1.00  0.00     0.191 C 
BRANCH  23  24
ATOM     24  O   UNL     1      16.013  -3.315  21.168  1.00  0.00    -0.394 OA
ATOM     25  H   UNL     1      16.847  -3.814  21.149  1.00  0.00     0.210 HD
ENDBRANCH  23  24
ENDBRANCH   2  23
BRANCH   6  26
ATOM     26  O   UNL     1      20.577  -2.716  24.267  1.00  0.00    -0.387 OA
ATOM     27  H   UNL     1      20.882  -3.336  23.551  1.00  0.00     0.211 HD
ENDBRANCH   6  26
BRANCH   5  28
ATOM     28  O   UNL     1      18.468  -0.625  25.432  1.00  0.00    -0.385 OA
ATOM     29  H   UNL     1      18.774  -1.378  26.076  1.00  0.00     0.211 HD
ENDBRANCH   5  28
BRANCH   4  30
ATOM     30  O   UNL     1      18.728   0.710  22.115  1.00  0.00    -0.341 OA
BRANCH  30  31
ATOM     31  C   UNL     1      17.798   1.311  21.091  1.00  0.00     0.184 C 
ATOM     32  C   UNL     1      17.228   2.737  20.956  1.00  0.00     0.178 C 
ATOM     33  C   UNL     1      18.192   1.052  19.572  1.00  0.00     0.180 C 
ATOM     34  O   UNL     1      15.869   2.586  20.492  1.00  0.00    -0.342 OA
ATOM     35  C   UNL     1      16.897   0.469  18.987  1.00  0.00     0.201 C 
ATOM     36  C   UNL     1      15.695   1.578  19.394  1.00  0.00     0.279 C 
BRANCH  32  37
ATOM     37  C   UNL     1      17.785   3.799  22.002  1.00  0.00     0.191 C 
BRANCH  37  38
ATOM     38  O   UNL     1      19.154   3.671  22.232  1.00  0.00    -0.394 OA
ATOM     39  H   UNL     1      19.465   2.852  21.726  1.00  0.00     0.210 HD
ENDBRANCH  37  38
ENDBRANCH  32  37
BRANCH  33  40
ATOM     40  O   UNL     1      19.368   0.358  19.212  1.00  0.00    -0.387 OA
ATOM     41  H   UNL     1      20.025   1.045  18.855  1.00  0.00     0.211 HD
ENDBRANCH  33  40
BRANCH  35  42
ATOM     42  O   UNL     1      16.512  -0.657  19.652  1.00  0.00    -0.385 OA
ATOM     43  H   UNL     1      16.434  -1.341  18.891  1.00  0.00     0.211 HD
ENDBRANCH  35  42
BRANCH  36  44
ATOM     44  O   UNL     1      14.564   0.814  19.779  1.00  0.00    -0.366 OA
ATOM     45  H   UNL     1      14.305   0.283  18.972  1.00  0.00     0.213 HD
ENDBRANCH  36  44
ENDBRANCH  30  31
ENDBRANCH   4  30
TORSDOF 18
ENDMDL
MODEL 4
REMARK VINA RESULT:    -6.613      2.824      7.148
REMARK INTER + INTRA:         -15.097
REMARK INTER:                 -11.513
REMARK INTRA:                  -3.584
REMARK UNBOUND:                -3.652
REMARK SMILES OC[C@@H]1O[C@H](O)[C@H](O)[C@H](O)[C@H]1O[C@H]1O[C@@H](CO)[C@@H](O[C@H]2O[C@H](CO)[C@@H](O)[C@H](O)[C@H]2O)[C@@H](O)[C@@H]1O
REMARK SMILES IDX 18 1 15 2 14 3 13 4 33 5 31 6 19 7 20 8 22 9 25 10 21 11
REMARK SMILES IDX 27 12 29 13 23 14 24 15 26 17 28 19 30 21 16 23 17 24 32 26
REMARK SMILES IDX 34 28 12 30 11 31 3 32 9 33 4 34 7 35 5 36 2 37 1 38 10 40
REMARK SMILES IDX 8 42 6 44
REMARK H PARENT 24 16 26 18 28 20 30 22 17 25 32 27 34 29 1 39 10 41 8 43 6 45
REMARK Flexibility Score: inf
ROOT
ATOM      1  C   UNL     1      18.819  -2.664  22.396  1.00  0.00     0.184 C 
ATOM      2  C   UNL     1      17.262  -2.307  22.182  1.00  0.00     0.178 C 
ATOM      3  O   UNL     1      17.308  -1.071  21.554  1.00  0.00    -0.341 OA
ATOM      4  C   UNL     1      17.570  -0.076  22.529  1.00  0.00     0.282 C 
ATOM      5  C   UNL     1      18.377  -0.589  23.871  1.00  0.00     0.202 C 
ATOM      6  C   UNL     1      19.017  -2.032  23.761  1.00  0.00     0.180 C 
ENDROOT
BRANCH   1   7
ATOM      7  O   UNL     1      19.651  -1.831  21.553  1.00  0.00    -0.341 OA
BRANCH   7   8
ATOM      8  C   UNL     1      20.502  -2.321  20.532  1.00  0.00     0.282 C 
ATOM      9  C   UNL     1      21.919  -4.092  19.708  1.00  0.00     0.178 C 
ATOM     10  C   UNL     1      21.012  -4.312  18.434  1.00  0.00     0.177 C 
ATOM     11  O   UNL     1      21.086  -3.626  20.821  1.00  0.00    -0.341 OA
ATOM     12  C   UNL     1      19.619  -3.611  18.601  1.00  0.00     0.179 C 
ATOM     13  C   UNL     1      19.899  -2.197  19.102  1.00  0.00     0.202 C 
BRANCH   9  14
ATOM     14  C   UNL     1      23.125  -3.254  19.492  1.00  0.00     0.191 C 
BRANCH  14  15
ATOM     15  O   UNL     1      23.125  -2.609  18.190  1.00  0.00    -0.394 OA
ATOM     16  H   UNL     1      23.708  -3.176  17.578  1.00  0.00     0.210 HD
ENDBRANCH  14  15
ENDBRANCH   9  14
BRANCH  10  17
ATOM     17  O   UNL     1      20.774  -5.679  18.254  1.00  0.00    -0.387 OA
ATOM     18  H   UNL     1      20.039  -5.784  17.596  1.00  0.00     0.211 HD
ENDBRANCH  10  17
BRANCH  12  19
ATOM     19  O   UNL     1      18.984  -3.592  17.339  1.00  0.00    -0.387 OA
ATOM     20  H   UNL     1      19.423  -2.839  16.818  1.00  0.00     0.211 HD
ENDBRANCH  12  19
BRANCH  13  21
ATOM     21  O   UNL     1      18.697  -1.422  19.113  1.00  0.00    -0.385 OA
ATOM     22  H   UNL     1      18.065  -1.884  19.785  1.00  0.00     0.211 HD
ENDBRANCH  13  21
ENDBRANCH   7   8
ENDBRANCH   1   7
BRANCH   2  23
ATOM     23  C   UNL     1      16.313  -3.250  21.413  1.00  0.00     0.191 C 
BRANCH  23  24
ATOM     24  O   UNL     1      16.497  -2.879  20.069  1.00  0.00    -0.394 OA
ATOM     25  H   UNL     1      15.764  -3.283  19.576  1.00  0.00     0.210 HD
ENDBRANCH  23  24
ENDBRANCH   2  23
BRANCH   6  26
ATOM     26  O   UNL     1      20.376  -1.980  24.250  1.00  0.00    -0.387 OA
ATOM     27  H   UNL     1      21.001  -1.907  23.479  1.00  0.00     0.211 HD
ENDBRANCH   6  26
BRANCH   5  28
ATOM     28  O   UNL     1      17.590  -0.609  24.985  1.00  0.00    -0.385 OA
ATOM     29  H   UNL     1      18.125  -0.999  25.784  1.00  0.00     0.211 HD
ENDBRANCH   5  28
BRANCH   4  30
ATOM     30  O   UNL     1      18.194   1.094  21.889  1.00  0.00    -0.341 OA
BRANCH  30  31
ATOM     31  C   UNL     1      17.238   1.750  20.925  1.00  0.00     0.184 C 
ATOM     32  C   UNL     1      16.511   3.108  20.986  1.00  0.00     0.178 C 
ATOM     33  C   UNL     1      17.714   1.788  19.407  1.00  0.00     0.180 C 
ATOM     34  O   UNL     1      15.196   2.887  20.431  1.00  0.00    -0.342 OA
ATOM     35  C   UNL     1      16.518   1.171  18.668  1.00  0.00     0.201 C 
ATOM     36  C   UNL     1      15.181   2.060  19.180  1.00  0.00     0.279 C 
BRANCH  32  37
ATOM     37  C   UNL     1      16.902   4.039  22.216  1.00  0.00     0.191 C 
BRANCH  37  38
ATOM     38  O   UNL     1      18.275   4.075  22.457  1.00  0.00    -0.394 OA
ATOM     39  H   UNL     1      18.734   3.776  21.607  1.00  0.00     0.210 HD
ENDBRANCH  37  38
ENDBRANCH  32  37
BRANCH  33  40
ATOM     40  O   UNL     1      18.975   1.295  19.006  1.00  0.00    -0.387 OA
ATOM     41  H   UNL     1      19.654   2.028  19.184  1.00  0.00     0.211 HD
ENDBRANCH  33  40
BRANCH  35  42
ATOM     42  O   UNL     1      16.242  -0.084  19.124  1.00  0.00    -0.385 OA
ATOM     43  H   UNL     1      15.285   0.021  19.480  1.00  0.00     0.211 HD
ENDBRANCH  35  42
BRANCH  36  44
ATOM     44  O   UNL     1      14.134   1.124  19.376  1.00  0.00    -0.366 OA
ATOM     45  H   UNL     1      13.813   0.875  18.463  1.00  0.00     0.213 HD
ENDBRANCH  36  44
ENDBRANCH  30  31
ENDBRANCH   4  30
TORSDOF 18
ENDMDL
MODEL 5
REMARK VINA RESULT:    -6.542      2.129      2.560
REMARK INTER + INTRA:         -14.975
REMARK INTER:                 -11.337
REMARK INTRA:                  -3.638
REMARK UNBOUND:                -3.652
REMARK SMILES OC[C@@H]1O[C@H](O)[C@H](O)[C@H](O)[C@H]1O[C@H]1O[C@@H](CO)[C@@H](O[C@H]2O[C@H](CO)[C@@H](O)[C@H](O)[C@H]2O)[C@@H](O)[C@@H]1O
REMARK SMILES IDX 18 1 15 2 14 3 13 4 33 5 31 6 19 7 20 8 22 9 25 10 21 11
REMARK SMILES IDX 27 12 29 13 23 14 24 15 26 17 28 19 30 21 16 23 17 24 32 26
REMARK SMILES IDX 34 28 12 30 11 31 3 32 9 33 4 34 7 35 5 36 2 37 1 38 10 40
REMARK SMILES IDX 8 42 6 44
REMARK H PARENT 24 16 26 18 28 20 30 22 17 25 32 27 34 29 1 39 10 41 8 43 6 45
REMARK Flexibility Score: inf
ROOT
ATOM      1  C   UNL     1      21.737  -4.777  19.247  1.00  0.00     0.184 C 
ATOM      2  C   UNL     1      21.112  -4.141  17.904  1.00  0.00     0.178 C 
ATOM      3  O   UNL     1      19.799  -4.586  17.929  1.00  0.00    -0.341 OA
ATOM      4  C   UNL     1      19.768  -5.936  17.497  1.00  0.00     0.282 C 
ATOM      5  C   UNL     1      21.158  -6.789  17.732  1.00  0.00     0.202 C 
ATOM      6  C   UNL     1      22.224  -6.095  18.673  1.00  0.00     0.180 C 
ENDROOT
BRANCH   1   7
ATOM      7  O   UNL     1      20.684  -5.207  20.142  1.00  0.00    -0.341 OA
BRANCH   7   8
ATOM      8  C   UNL     1      20.463  -4.673  21.435  1.00  0.00     0.282 C 
ATOM      9  C   UNL     1      21.376  -3.661  23.427  1.00  0.00     0.178 C 
ATOM     10  C   UNL     1      20.520  -2.349  23.230  1.00  0.00     0.177 C 
ATOM     11  O   UNL     1      21.680  -4.242  22.115  1.00  0.00    -0.341 OA
ATOM     12  C   UNL     1      19.921  -2.273  21.783  1.00  0.00     0.179 C 
ATOM     13  C   UNL     1      19.302  -3.637  21.495  1.00  0.00     0.202 C 
BRANCH   9  14
ATOM     14  C   UNL     1      20.818  -4.647  24.386  1.00  0.00     0.191 C 
BRANCH  14  15
ATOM     15  O   UNL     1      19.620  -4.158  25.048  1.00  0.00    -0.394 OA
ATOM     16  H   UNL     1      19.921  -3.713  25.913  1.00  0.00     0.210 HD
ENDBRANCH  14  15
ENDBRANCH   9  14
BRANCH  10  17
ATOM     17  O   UNL     1      21.333  -1.224  23.408  1.00  0.00    -0.387 OA
ATOM     18  H   UNL     1      21.201  -0.886  24.331  1.00  0.00     0.211 HD
ENDBRANCH  10  17
BRANCH  12  19
ATOM     19  O   UNL     1      18.945  -1.252  21.766  1.00  0.00    -0.387 OA
ATOM     20  H   UNL     1      19.385  -0.453  21.317  1.00  0.00     0.211 HD
ENDBRANCH  12  19
BRANCH  13  21
ATOM     21  O   UNL     1      18.572  -3.607  20.264  1.00  0.00    -0.385 OA
ATOM     22  H   UNL     1      18.000  -4.465  20.250  1.00  0.00     0.211 HD
ENDBRANCH  13  21
ENDBRANCH   7   8
ENDBRANCH   1   7
BRANCH   2  23
ATOM     23  C   UNL     1      21.145  -2.621  17.637  1.00  0.00     0.191 C 
BRANCH  23  24
ATOM     24  O   UNL     1      19.818  -2.217  17.867  1.00  0.00    -0.394 OA
ATOM     25  H   UNL     1      19.872  -1.428  18.431  1.00  0.00     0.210 HD
ENDBRANCH  23  24
ENDBRANCH   2  23
BRANCH   6  26
ATOM     26  O   UNL     1      22.708  -7.066  19.628  1.00  0.00    -0.387 OA
ATOM     27  H   UNL     1      23.681  -6.923  19.780  1.00  0.00     0.211 HD
ENDBRANCH   6  26
BRANCH   5  28
ATOM     28  O   UNL     1      21.810  -7.068  16.566  1.00  0.00    -0.385 OA
ATOM     29  H   UNL     1      21.309  -6.629  15.772  1.00  0.00     0.211 HD
ENDBRANCH   5  28
BRANCH   4  30
ATOM     30  O   UNL     1      18.577  -6.606  18.044  1.00  0.00    -0.341 OA
BRANCH  30  31
ATOM     31  C   UNL     1      17.325  -6.109  17.366  1.00  0.00     0.184 C 
ATOM     32  C   UNL     1      16.400  -6.781  16.332  1.00  0.00     0.178 C 
ATOM     33  C   UNL     1      16.220  -5.496  18.332  1.00  0.00     0.180 C 
ATOM     34  O   UNL     1      15.991  -5.739  15.419  1.00  0.00    -0.342 OA
ATOM     35  C   UNL     1      15.947  -4.124  17.697  1.00  0.00     0.201 C 
ATOM     36  C   UNL     1      15.602  -4.450  16.081  1.00  0.00     0.279 C 
BRANCH  32  37
ATOM     37  C   UNL     1      16.745  -8.295  15.986  1.00  0.00     0.191 C 
BRANCH  37  38
ATOM     38  O   UNL     1      17.101  -9.043  17.108  1.00  0.00    -0.394 OA
ATOM     39  H   UNL     1      17.278  -9.988  16.791  1.00  0.00     0.210 HD
ENDBRANCH  37  38
ENDBRANCH  32  37
BRANCH  33  40
ATOM     40  O   UNL     1      16.379  -5.477  19.735  1.00  0.00    -0.387 OA
ATOM     41  H   UNL     1      16.067  -4.567  20.060  1.00  0.00     0.211 HD
ENDBRANCH  33  40
BRANCH  35  42
ATOM     42  O   UNL     1      17.085  -3.375  17.621  1.00  0.00    -0.385 OA
ATOM     43  H   UNL     1      16.766  -2.464  17.969  1.00  0.00     0.211 HD
ENDBRANCH  35  42
BRANCH  36  44
ATOM     44  O   UNL     1      16.252  -3.443  15.324  1.00  0.00    -0.366 OA
ATOM     45  H   UNL     1      15.529  -2.953  14.839  1.00  0.00     0.213 HD
ENDBRANCH  36  44
ENDBRANCH  30  31
ENDBRANCH   4  30
TORSDOF 18
ENDMDL
MODEL 6
REMARK VINA RESULT:    -6.420      2.484      5.021
REMARK INTER + INTRA:         -14.763
REMARK INTER:                 -11.362
REMARK INTRA:                  -3.401
REMARK UNBOUND:                -3.652
REMARK SMILES OC[C@@H]1O[C@H](O)[C@H](O)[C@H](O)[C@H]1O[C@H]1O[C@@H](CO)[C@@H](O[C@H]2O[C@H](CO)[C@@H](O)[C@H](O)[C@H]2O)[C@@H](O)[C@@H]1O
REMARK SMILES IDX 18 1 15 2 14 3 13 4 33 5 31 6 19 7 20 8 22 9 25 10 21 11
REMARK SMILES IDX 27 12 29 13 23 14 24 15 26 17 28 19 30 21 16 23 17 24 32 26
REMARK SMILES IDX 34 28 12 30 11 31 3 32 9 33 4 34 7 35 5 36 2 37 1 38 10 40
REMARK SMILES IDX 8 42 6 44
REMARK H PARENT 24 16 26 18 28 20 30 22 17 25 32 27 34 29 1 39 10 41 8 43 6 45
REMARK Flexibility Score: inf
ROOT
ATOM      1  C   UNL     1      18.688  -1.941  23.606  1.00  0.00     0.184 C 
ATOM      2  C   UNL     1      19.344  -3.391  23.351  1.00  0.00     0.178 C 
ATOM      3  O   UNL     1      18.833  -3.752  22.113  1.00  0.00    -0.341 OA
ATOM      4  C   UNL     1      17.501  -4.205  22.287  1.00  0.00     0.282 C 
ATOM      5  C   UNL     1      16.710  -3.604  23.602  1.00  0.00     0.202 C 
ATOM      6  C   UNL     1      17.420  -2.382  24.313  1.00  0.00     0.180 C 
ENDROOT
BRANCH   1   7
ATOM      7  O   UNL     1      18.171  -1.393  22.370  1.00  0.00    -0.341 OA
BRANCH   7   8
ATOM      8  C   UNL     1      17.846  -0.029  22.171  1.00  0.00     0.282 C 
ATOM      9  C   UNL     1      18.423   2.104  21.202  1.00  0.00     0.178 C 
ATOM     10  C   UNL     1      17.115   2.129  20.318  1.00  0.00     0.177 C 
ATOM     11  O   UNL     1      18.842   0.714  21.407  1.00  0.00    -0.341 OA
ATOM     12  C   UNL     1      16.441   0.714  20.260  1.00  0.00     0.179 C 
ATOM     13  C   UNL     1      16.381   0.201  21.697  1.00  0.00     0.202 C 
BRANCH   9  14
ATOM     14  C   UNL     1      18.354   2.884  22.462  1.00  0.00     0.191 C 
BRANCH  14  15
ATOM     15  O   UNL     1      18.881   4.230  22.310  1.00  0.00    -0.394 OA
ATOM     16  H   UNL     1      19.270   4.499  23.212  1.00  0.00     0.210 HD
ENDBRANCH  14  15
ENDBRANCH   9  14
BRANCH  10  17
ATOM     17  O   UNL     1      17.439   2.492  19.005  1.00  0.00    -0.387 OA
ATOM     18  H   UNL     1      18.427   2.515  18.922  1.00  0.00     0.211 HD
ENDBRANCH  10  17
BRANCH  12  19
ATOM     19  O   UNL     1      15.147   0.867  19.716  1.00  0.00    -0.387 OA
ATOM     20  H   UNL     1      14.648   1.483  20.351  1.00  0.00     0.211 HD
ENDBRANCH  12  19
BRANCH  13  21
ATOM     21  O   UNL     1      15.618  -1.007  21.766  1.00  0.00    -0.385 OA
ATOM     22  H   UNL     1      14.711  -0.798  21.322  1.00  0.00     0.211 HD
ENDBRANCH  13  21
ENDBRANCH   7   8
ENDBRANCH   1   7
BRANCH   2  23
ATOM     23  C   UNL     1      20.873  -3.602  23.368  1.00  0.00     0.191 C 
BRANCH  23  24
ATOM     24  O   UNL     1      21.271  -3.238  22.070  1.00  0.00    -0.394 OA
ATOM     25  H   UNL     1      20.733  -3.773  21.464  1.00  0.00     0.210 HD
ENDBRANCH  23  24
ENDBRANCH   2  23
BRANCH   6  26
ATOM     26  O   UNL     1      16.438  -1.352  24.564  1.00  0.00    -0.387 OA
ATOM     27  H   UNL     1      16.886  -0.559  24.966  1.00  0.00     0.211 HD
ENDBRANCH   6  26
BRANCH   5  28
ATOM     28  O   UNL     1      16.510  -4.541  24.573  1.00  0.00    -0.385 OA
ATOM     29  H   UNL     1      16.273  -5.451  24.136  1.00  0.00     0.211 HD
ENDBRANCH   5  28
BRANCH   4  30
ATOM     30  O   UNL     1      16.751  -4.037  21.031  1.00  0.00    -0.341 OA
BRANCH  30  31
ATOM     31  C   UNL     1      17.680  -4.078  19.844  1.00  0.00     0.184 C 
ATOM     32  C   UNL     1      17.991  -5.206  18.841  1.00  0.00     0.178 C 
ATOM     33  C   UNL     1      17.540  -2.865  18.824  1.00  0.00     0.180 C 
ATOM     34  O   UNL     1      19.403  -5.113  18.554  1.00  0.00    -0.342 OA
ATOM     35  C   UNL     1      18.985  -2.355  18.713  1.00  0.00     0.201 C 
ATOM     36  C   UNL     1      19.900  -3.716  18.323  1.00  0.00     0.279 C 
BRANCH  32  37
ATOM     37  C   UNL     1      17.117  -6.526  19.003  1.00  0.00     0.191 C 
BRANCH  37  38
ATOM     38  O   UNL     1      15.790  -6.263  19.339  1.00  0.00    -0.394 OA
ATOM     39  H   UNL     1      15.699  -5.260  19.430  1.00  0.00     0.210 HD
ENDBRANCH  37  38
ENDBRANCH  32  37
BRANCH  33  40
ATOM     40  O   UNL     1      16.569  -1.854  18.991  1.00  0.00    -0.387 OA
ATOM     41  H   UNL     1      16.060  -2.065  19.843  1.00  0.00     0.211 HD
ENDBRANCH  33  40
BRANCH  35  42
ATOM     42  O   UNL     1      19.481  -1.993  19.930  1.00  0.00    -0.385 OA
ATOM     43  H   UNL     1      19.894  -2.871  20.264  1.00  0.00     0.211 HD
ENDBRANCH  35  42
BRANCH  36  44
ATOM     44  O   UNL     1      21.092  -3.625  19.085  1.00  0.00    -0.366 OA
ATOM     45  H   UNL     1      21.267  -4.545  19.433  1.00  0.00     0.213 HD
ENDBRANCH  36  44
ENDBRANCH  30  31
ENDBRANCH   4  30
TORSDOF 18
ENDMDL
MODEL 7
REMARK VINA RESULT:    -6.195      2.767      5.389
REMARK INTER + INTRA:         -14.374
REMARK INTER:                 -10.861
REMARK INTRA:                  -3.513
REMARK UNBOUND:                -3.652
REMARK SMILES OC[C@@H]1O[C@H](O)[C@H](O)[C@H](O)[C@H]1O[C@H]1O[C@@H](CO)[C@@H](O[C@H]2O[C@H](CO)[C@@H](O)[C@H](O)[C@H]2O)[C@@H](O)[C@@H]1O
REMARK SMILES IDX 18 1 15 2 14 3 13 4 33 5 31 6 19 7 20 8 22 9 25 10 21 11
REMARK SMILES IDX 27 12 29 13 23 14 24 15 26 17 28 19 30 21 16 23 17 24 32 26
REMARK SMILES IDX 34 28 12 30 11 31 3 32 9 33 4 34 7 35 5 36 2 37 1 38 10 40
REMARK SMILES IDX 8 42 6 44
REMARK H PARENT 24 16 26 18 28 20 30 22 17 25 32 27 34 29 1 39 10 41 8 43 6 45
REMARK Flexibility Score: inf
ROOT
ATOM      1  C   UNL     1      18.639  -1.979  24.156  1.00  0.00     0.184 C 
ATOM      2  C   UNL     1      19.266  -3.428  23.833  1.00  0.00     0.178 C 
ATOM      3  O   UNL     1      18.786  -3.699  22.560  1.00  0.00    -0.341 OA
ATOM      4  C   UNL     1      17.438  -4.126  22.665  1.00  0.00     0.282 C 
ATOM      5  C   UNL     1      16.621  -3.585  23.989  1.00  0.00     0.202 C 
ATOM      6  C   UNL     1      17.338  -2.428  24.796  1.00  0.00     0.180 C 
ENDROOT
BRANCH   1   7
ATOM      7  O   UNL     1      18.176  -1.343  22.941  1.00  0.00    -0.341 OA
BRANCH   7   8
ATOM      8  C   UNL     1      18.197   0.053  22.708  1.00  0.00     0.282 C 
ATOM      9  C   UNL     1      17.415   2.253  23.320  1.00  0.00     0.178 C 
ATOM     10  C   UNL     1      18.875   2.744  23.670  1.00  0.00     0.177 C 
ATOM     11  O   UNL     1      17.313   0.815  23.584  1.00  0.00    -0.341 OA
ATOM     12  C   UNL     1      19.865   1.536  23.803  1.00  0.00     0.179 C 
ATOM     13  C   UNL     1      19.632   0.645  22.585  1.00  0.00     0.202 C 
BRANCH   9  14
ATOM     14  C   UNL     1      16.922   2.635  21.974  1.00  0.00     0.191 C 
BRANCH  14  15
ATOM     15  O   UNL     1      17.898   3.411  21.226  1.00  0.00    -0.394 OA
ATOM     16  H   UNL     1      17.509   3.559  20.297  1.00  0.00     0.210 HD
ENDBRANCH  14  15
ENDBRANCH   9  14
BRANCH  10  17
ATOM     17  O   UNL     1      18.866   3.415  24.899  1.00  0.00    -0.387 OA
ATOM     18  H   UNL     1      19.026   4.379  24.729  1.00  0.00     0.211 HD
ENDBRANCH  10  17
BRANCH  12  19
ATOM     19  O   UNL     1      21.181   2.047  23.820  1.00  0.00    -0.387 OA
ATOM     20  H   UNL     1      21.697   1.511  23.127  1.00  0.00     0.211 HD
ENDBRANCH  12  19
BRANCH  13  21
ATOM     21  O   UNL     1      20.616  -0.391  22.526  1.00  0.00    -0.385 OA
ATOM     22  H   UNL     1      21.530   0.077  22.625  1.00  0.00     0.211 HD
ENDBRANCH  13  21
ENDBRANCH   7   8
ENDBRANCH   1   7
BRANCH   2  23
ATOM     23  C   UNL     1      20.788  -3.681  23.883  1.00  0.00     0.191 C 
BRANCH  23  24
ATOM     24  O   UNL     1      21.228  -3.301  22.603  1.00  0.00    -0.394 OA
ATOM     25  H   UNL     1      22.171  -3.087  22.696  1.00  0.00     0.210 HD
ENDBRANCH  23  24
ENDBRANCH   2  23
BRANCH   6  26
ATOM     26  O   UNL     1      16.374  -1.389  25.080  1.00  0.00    -0.387 OA
ATOM     27  H   UNL     1      16.565  -0.597  24.508  1.00  0.00     0.211 HD
ENDBRANCH   6  26
BRANCH   5  28
ATOM     28  O   UNL     1      16.366  -4.574  24.894  1.00  0.00    -0.385 OA
ATOM     29  H   UNL     1      16.281  -4.165  25.843  1.00  0.00     0.211 HD
ENDBRANCH   5  28
BRANCH   4  30
ATOM     30  O   UNL     1      16.734  -3.861  21.399  1.00  0.00    -0.341 OA
BRANCH  30  31
ATOM     31  C   UNL     1      17.687  -3.924  20.232  1.00  0.00     0.184 C 
ATOM     32  C   UNL     1      17.938  -5.030  19.189  1.00  0.00     0.178 C 
ATOM     33  C   UNL     1      17.666  -2.663  19.263  1.00  0.00     0.180 C 
ATOM     34  O   UNL     1      19.361  -5.034  18.939  1.00  0.00    -0.342 OA
ATOM     35  C   UNL     1      19.148  -2.261  19.207  1.00  0.00     0.201 C 
ATOM     36  C   UNL     1      19.967  -3.670  18.780  1.00  0.00     0.279 C 
BRANCH  32  37
ATOM     37  C   UNL     1      16.964  -6.285  19.274  1.00  0.00     0.191 C 
BRANCH  37  38
ATOM     38  O   UNL     1      15.623  -5.927  19.399  1.00  0.00    -0.394 OA
ATOM     39  H   UNL     1      15.364  -5.444  18.548  1.00  0.00     0.210 HD
ENDBRANCH  37  38
ENDBRANCH  32  37
BRANCH  33  40
ATOM     40  O   UNL     1      16.770  -1.588  19.452  1.00  0.00    -0.387 OA
ATOM     41  H   UNL     1      17.200  -0.763  19.046  1.00  0.00     0.211 HD
ENDBRANCH  33  40
BRANCH  35  42
ATOM     42  O   UNL     1      19.638  -1.988  20.450  1.00  0.00    -0.385 OA
ATOM     43  H   UNL     1      20.651  -2.017  20.293  1.00  0.00     0.211 HD
ENDBRANCH  35  42
BRANCH  36  44
ATOM     44  O   UNL     1      21.143  -3.702  19.572  1.00  0.00    -0.366 OA
ATOM     45  H   UNL     1      21.806  -3.119  19.102  1.00  0.00     0.213 HD
ENDBRANCH  36  44
ENDBRANCH  30  31
ENDBRANCH   4  30
TORSDOF 18
ENDMDL
MODEL 8
REMARK VINA RESULT:    -6.147      2.081      6.951
REMARK INTER + INTRA:         -14.292
REMARK INTER:                 -10.912
REMARK INTRA:                  -3.380
REMARK UNBOUND:                -3.652
REMARK SMILES OC[C@@H]1O[C@H](O)[C@H](O)[C@H](O)[C@H]1O[C@H]1O[C@@H](CO)[C@@H](O[C@H]2O[C@H](CO)[C@@H](O)[C@H](O)[C@H]2O)[C@@H](O)[C@@H]1O
REMARK SMILES IDX 18 1 15 2 14 3 13 4 33 5 31 6 19 7 20 8 22 9 25 10 21 11
REMARK SMILES IDX 27 12 29 13 23 14 24 15 26 17 28 19 30 21 16 23 17 24 32 26
REMARK SMILES IDX 34 28 12 30 11 31 3 32 9 33 4 34 7 35 5 36 2 37 1 38 10 40
REMARK SMILES IDX 8 42 6 44
REMARK H PARENT 24 16 26 18 28 20 30 22 17 25 32 27 34 29 1 39 10 41 8 43 6 45
REMARK Flexibility Score: inf
ROOT
ATOM      1  C   UNL     1      19.871  -1.132  20.420  1.00  0.00     0.184 C 
ATOM      2  C   UNL     1      20.401  -0.979  21.933  1.00  0.00     0.178 C 
ATOM      3  O   UNL     1      19.286  -1.307  22.690  1.00  0.00    -0.341 OA
ATOM      4  C   UNL     1      18.409  -0.193  22.713  1.00  0.00     0.282 C 
ATOM      5  C   UNL     1      18.526   0.831  21.428  1.00  0.00     0.202 C 
ATOM      6  C   UNL     1      19.369   0.284  20.205  1.00  0.00     0.180 C 
ENDROOT
BRANCH   1   7
ATOM      7  O   UNL     1      18.642  -1.897  20.387  1.00  0.00    -0.341 OA
BRANCH   7   8
ATOM      8  C   UNL     1      18.451  -3.075  19.625  1.00  0.00     0.282 C 
ATOM      9  C   UNL     1      18.035  -5.452  19.578  1.00  0.00     0.178 C 
ATOM     10  C   UNL     1      16.677  -5.264  18.796  1.00  0.00     0.177 C 
ATOM     11  O   UNL     1      18.270  -4.280  20.427  1.00  0.00    -0.341 OA
ATOM     12  C   UNL     1      16.199  -3.771  18.837  1.00  0.00     0.179 C 
ATOM     13  C   UNL     1      17.411  -2.915  18.477  1.00  0.00     0.202 C 
BRANCH   9  14
ATOM     14  C   UNL     1      19.206  -5.810  18.741  1.00  0.00     0.191 C 
BRANCH  14  15
ATOM     15  O   UNL     1      20.396  -6.069  19.535  1.00  0.00    -0.394 OA
ATOM     16  H   UNL     1      20.629  -7.052  19.406  1.00  0.00     0.210 HD
ENDBRANCH  14  15
ENDBRANCH   9  14
BRANCH  10  17
ATOM     17  O   UNL     1      15.676  -6.040  19.392  1.00  0.00    -0.387 OA
ATOM     18  H   UNL     1      16.030  -6.958  19.523  1.00  0.00     0.211 HD
ENDBRANCH  10  17
BRANCH  12  19
ATOM     19  O   UNL     1      15.162  -3.616  17.890  1.00  0.00    -0.387 OA
ATOM     20  H   UNL     1      14.436  -4.272  18.163  1.00  0.00     0.211 HD
ENDBRANCH  12  19
BRANCH  13  21
ATOM     21  O   UNL     1      17.027  -1.547  18.313  1.00  0.00    -0.385 OA
ATOM     22  H   UNL     1      16.166  -1.423  18.868  1.00  0.00     0.211 HD
ENDBRANCH  13  21
ENDBRANCH   7   8
ENDBRANCH   1   7
BRANCH   2  23
ATOM     23  C   UNL     1      21.630  -1.761  22.445  1.00  0.00     0.191 C 
BRANCH  23  24
ATOM     24  O   UNL     1      21.190  -3.096  22.454  1.00  0.00    -0.394 OA
ATOM     25  H   UNL     1      21.166  -3.364  23.387  1.00  0.00     0.210 HD
ENDBRANCH  23  24
ENDBRANCH   2  23
BRANCH   6  26
ATOM     26  O   UNL     1      18.632   0.523  18.985  1.00  0.00    -0.387 OA
ATOM     27  H   UNL     1      18.061   1.330  19.097  1.00  0.00     0.211 HD
ENDBRANCH   6  26
BRANCH   5  28
ATOM     28  O   UNL     1      19.079   2.033  21.759  1.00  0.00    -0.385 OA
ATOM     29  H   UNL     1      19.485   2.476  20.914  1.00  0.00     0.211 HD
ENDBRANCH   5  28
BRANCH   4  30
ATOM     30  O   UNL     1      17.032  -0.651  22.966  1.00  0.00    -0.341 OA
BRANCH  30  31
ATOM     31  C   UNL     1      17.018  -1.771  23.976  1.00  0.00     0.184 C 
ATOM     32  C   UNL     1      16.617  -1.788  25.464  1.00  0.00     0.178 C 
ATOM     33  C   UNL     1      16.295  -3.108  23.505  1.00  0.00     0.180 C 
ATOM     34  O   UNL     1      17.544  -2.677  26.123  1.00  0.00    -0.342 OA
ATOM     35  C   UNL     1      17.366  -4.177  23.773  1.00  0.00     0.201 C 
ATOM     36  C   UNL     1      17.814  -3.954  25.382  1.00  0.00     0.279 C 
BRANCH  32  37
ATOM     37  C   UNL     1      16.011  -0.427  26.024  1.00  0.00     0.191 C 
BRANCH  37  38
ATOM     38  O   UNL     1      16.730   0.697  25.622  1.00  0.00    -0.394 OA
ATOM     39  H   UNL     1      17.439   0.864  26.324  1.00  0.00     0.210 HD
ENDBRANCH  37  38
ENDBRANCH  32  37
BRANCH  33  40
ATOM     40  O   UNL     1      15.658  -3.212  22.250  1.00  0.00    -0.387 OA
ATOM     41  H   UNL     1      14.863  -2.581  22.263  1.00  0.00     0.211 HD
ENDBRANCH  33  40
BRANCH  35  42
ATOM     42  O   UNL     1      18.518  -3.909  23.095  1.00  0.00    -0.385 OA
ATOM     43  H   UNL     1      18.364  -4.398  22.206  1.00  0.00     0.211 HD
ENDBRANCH  35  42
BRANCH  36  44
ATOM     44  O   UNL     1      19.222  -4.108  25.427  1.00  0.00    -0.366 OA
ATOM     45  H   UNL     1      19.493  -4.420  24.516  1.00  0.00     0.213 HD
ENDBRANCH  36  44
ENDBRANCH  30  31
ENDBRANCH   4  30
TORSDOF 18
ENDMDL
MODEL 9
REMARK VINA RESULT:    -6.107     10.069     13.300
REMARK INTER + INTRA:         -14.222
REMARK INTER:                 -10.562
REMARK INTRA:                  -3.660
REMARK UNBOUND:                -3.652
REMARK SMILES OC[C@@H]1O[C@H](O)[C@H](O)[C@H](O)[C@H]1O[C@H]1O[C@@H](CO)[C@@H](O[C@H]2O[C@H](CO)[C@@H](O)[C@H](O)[C@H]2O)[C@@H](O)[C@@H]1O
REMARK SMILES IDX 18 1 15 2 14 3 13 4 33 5 31 6 19 7 20 8 22 9 25 10 21 11
REMARK SMILES IDX 27 12 29 13 23 14 24 15 26 17 28 19 30 21 16 23 17 24 32 26
REMARK SMILES IDX 34 28 12 30 11 31 3 32 9 33 4 34 7 35 5 36 2 37 1 38 10 40
REMARK SMILES IDX 8 42 6 44
REMARK H PARENT 24 16 26 18 28 20 30 22 17 25 32 27 34 29 1 39 10 41 8 43 6 45
REMARK Flexibility Score: inf
ROOT
ATOM      1  C   UNL     1       6.001   0.251  17.627  1.00  0.00     0.184 C 
ATOM      2  C   UNL     1       4.752   0.850  16.803  1.00  0.00     0.178 C 
ATOM      3  O   UNL     1       5.302   1.132  15.562  1.00  0.00    -0.341 OA
ATOM      4  C   UNL     1       6.032   2.344  15.654  1.00  0.00     0.282 C 
ATOM      5  C   UNL     1       6.605   2.718  17.152  1.00  0.00     0.202 C 
ATOM      6  C   UNL     1       6.535   1.545  18.212  1.00  0.00     0.180 C 
ENDROOT
BRANCH   1   7
ATOM      7  O   UNL     1       7.065  -0.136  16.725  1.00  0.00    -0.341 OA
BRANCH   7   8
ATOM      8  C   UNL     1       8.002  -1.166  16.984  1.00  0.00     0.282 C 
ATOM      9  C   UNL     1       8.678  -3.460  16.665  1.00  0.00     0.178 C 
ATOM     10  C   UNL     1      10.022  -3.033  15.956  1.00  0.00     0.177 C 
ATOM     11  O   UNL     1       7.648  -2.453  16.395  1.00  0.00    -0.341 OA
ATOM     12  C   UNL     1       9.986  -1.524  15.532  1.00  0.00     0.179 C 
ATOM     13  C   UNL     1       9.480  -0.742  16.741  1.00  0.00     0.202 C 
BRANCH   9  14
ATOM     14  C   UNL     1       8.799  -3.800  18.104  1.00  0.00     0.191 C 
BRANCH  14  15
ATOM     15  O   UNL     1       8.585  -5.215  18.359  1.00  0.00    -0.394 OA
ATOM     16  H   UNL     1       7.610  -5.411  18.144  1.00  0.00     0.210 HD
ENDBRANCH  14  15
ENDBRANCH   9  14
BRANCH  10  17
ATOM     17  O   UNL     1      10.206  -3.791  14.794  1.00  0.00    -0.387 OA
ATOM     18  H   UNL     1      10.881  -3.336  14.228  1.00  0.00     0.211 HD
ENDBRANCH  10  17
BRANCH  12  19
ATOM     19  O   UNL     1      11.298  -1.135  15.182  1.00  0.00    -0.387 OA
ATOM     20  H   UNL     1      11.319  -0.122  15.261  1.00  0.00     0.211 HD
ENDBRANCH  12  19
BRANCH  13  21
ATOM     21  O   UNL     1       9.584   0.666  16.507  1.00  0.00    -0.385 OA
ATOM     22  H   UNL     1       8.777   1.094  16.986  1.00  0.00     0.211 HD
ENDBRANCH  13  21
ENDBRANCH   7   8
ENDBRANCH   1   7
BRANCH   2  23
ATOM     23  C   UNL     1       3.441   0.053  16.626  1.00  0.00     0.191 C 
BRANCH  23  24
ATOM     24  O   UNL     1       3.499  -0.384  15.291  1.00  0.00    -0.394 OA
ATOM     25  H   UNL     1       2.672  -0.090  14.876  1.00  0.00     0.210 HD
ENDBRANCH  23  24
ENDBRANCH   2  23
BRANCH   6  26
ATOM     26  O   UNL     1       7.802   1.459  18.900  1.00  0.00    -0.387 OA
ATOM     27  H   UNL     1       7.914   0.544  19.274  1.00  0.00     0.211 HD
ENDBRANCH   6  26
BRANCH   5  28
ATOM     28  O   UNL     1       5.955   3.776  17.718  1.00  0.00    -0.385 OA
ATOM     29  H   UNL     1       5.437   3.459  18.559  1.00  0.00     0.211 HD
ENDBRANCH   5  28
BRANCH   4  30
ATOM     30  O   UNL     1       7.070   2.379  14.610  1.00  0.00    -0.341 OA
BRANCH  30  31
ATOM     31  C   UNL     1       6.646   1.575  13.406  1.00  0.00     0.184 C 
ATOM     32  C   UNL     1       6.039   2.013  12.059  1.00  0.00     0.178 C 
ATOM     33  C   UNL     1       7.718   0.528  12.871  1.00  0.00     0.180 C 
ATOM     34  O   UNL     1       5.069   1.003  11.706  1.00  0.00    -0.342 OA
ATOM     35  C   UNL     1       6.910  -0.778  12.821  1.00  0.00     0.201 C 
ATOM     36  C   UNL     1       5.534  -0.407  11.921  1.00  0.00     0.279 C 
BRANCH  32  37
ATOM     37  C   UNL     1       5.930   3.585  11.837  1.00  0.00     0.191 C 
BRANCH  37  38
ATOM     38  O   UNL     1       7.066   4.276  12.257  1.00  0.00    -0.394 OA
ATOM     39  H   UNL     1       7.478   3.740  13.010  1.00  0.00     0.210 HD
ENDBRANCH  37  38
ENDBRANCH  32  37
BRANCH  33  40
ATOM     40  O   UNL     1       9.000   0.407  13.450  1.00  0.00    -0.387 OA
ATOM     41  H   UNL     1       8.933  -0.288  14.187  1.00  0.00     0.211 HD
ENDBRANCH  33  40
BRANCH  35  42
ATOM     42  O   UNL     1       6.397  -1.095  14.044  1.00  0.00    -0.385 OA
ATOM     43  H   UNL     1       7.216  -0.992  14.654  1.00  0.00     0.211 HD
ENDBRANCH  35  42
BRANCH  36  44
ATOM     44  O   UNL     1       4.450  -1.052  12.568  1.00  0.00    -0.366 OA
ATOM     45  H   UNL     1       4.637  -2.032  12.506  1.00  0.00     0.213 HD
ENDBRANCH  36  44
ENDBRANCH  30  31
ENDBRANCH   4  30
TORSDOF 18
ENDMDL
