MODEL 1
REMARK VINA RESULT:    -2.045      0.000      0.000
REMARK INTER + INTRA:          -3.227
REMARK INTER:                  -2.763
REMARK INTRA:                  -0.464
REMARK UNBOUND:                -0.464
REMARK SMILES O=c1c(-c2ccc(O)cc2)coc2c([C@H]3O[C@H](CO)[C@@H](O)[C@H](O)[C@H]3O)c(O)ccc12
REMARK SMILES IDX 3 1 11 2 12 3 13 4 30 5 2 6 1 7 29 8 28 9 26 10 14 11 4 12
REMARK SMILES IDX 5 13 6 14 7 15 10 16 9 17 8 18 15 20 24 21 16 22 22 23 17 24
REMARK SMILES IDX 20 25 25 26 23 28 18 30 19 31 21 33 27 35
REMARK H PARENT 8 19 25 27 23 29 19 32 21 34 27 36
REMARK Flexibility Score: inf
ROOT
ATOM      1  C   UNL     1       0.089 -17.632  14.377  1.00  0.00     0.065 A 
ATOM      2  C   UNL     1       0.136 -17.877  12.999  1.00  0.00     0.208 A 
ATOM      3  O   UNL     1      -0.874 -17.532  12.210  1.00  0.00    -0.463 OA
ATOM      4  C   UNL     1      -1.981 -16.940  12.654  1.00  0.00     0.147 A 
ATOM      5  C   UNL     1      -2.113 -16.661  14.035  1.00  0.00     0.066 A 
ATOM      6  C   UNL     1      -1.056 -17.003  14.899  1.00  0.00     0.200 A 
ATOM      7  O   UNL     1      -1.127 -16.734  16.130  1.00  0.00    -0.288 OA
ATOM      8  C   UNL     1      -3.284 -16.055  14.511  1.00  0.00     0.020 A 
ATOM      9  C   UNL     1      -4.326 -15.765  13.637  1.00  0.00     0.047 A 
ATOM     10  C   UNL     1      -4.224 -16.052  12.273  1.00  0.00     0.125 A 
ATOM     11  C   UNL     1      -3.020 -16.599  11.749  1.00  0.00     0.069 A 
ENDROOT
BRANCH   1  12
ATOM     12  C   UNL     1       1.229 -18.030  15.240  1.00  0.00    -0.011 A 
ATOM     13  C   UNL     1       1.012 -18.378  16.586  1.00  0.00     0.013 A 
ATOM     14  C   UNL     1       2.085 -18.744  17.404  1.00  0.00     0.047 A 
ATOM     15  C   UNL     1       3.389 -18.762  16.890  1.00  0.00     0.115 A 
ATOM     16  C   UNL     1       2.541 -18.045  14.735  1.00  0.00     0.013 A 
ATOM     17  C   UNL     1       3.612 -18.410  15.555  1.00  0.00     0.047 A 
BRANCH  15  18
ATOM     18  O   UNL     1       4.466 -19.125  17.695  1.00  0.00    -0.508 OA
ATOM     19  H   UNL     1       4.376 -19.841  18.408  1.00  0.00     0.293 HD
ENDBRANCH  15  18
ENDBRANCH   1  12
BRANCH  11  20
ATOM     20  C   UNL     1      -2.871 -16.863  10.251  1.00  0.00     0.188 C 
ATOM     21  C   UNL     1      -2.418 -15.580   9.524  1.00  0.00     0.179 C 
ATOM     22  O   UNL     1      -4.087 -17.353   9.711  1.00  0.00    -0.362 OA
ATOM     23  C   UNL     1      -2.185 -15.883   8.040  1.00  0.00     0.177 C 
ATOM     24  C   UNL     1      -3.989 -17.719   8.340  1.00  0.00     0.176 C 
ATOM     25  C   UNL     1      -3.408 -16.604   7.424  1.00  0.00     0.177 C 
BRANCH  21  26
ATOM     26  O   UNL     1      -3.392 -14.573   9.644  1.00  0.00    -0.387 OA
ATOM     27  H   UNL     1      -3.361 -14.035   8.810  1.00  0.00     0.211 HD
ENDBRANCH  21  26
BRANCH  23  28
ATOM     28  O   UNL     1      -1.021 -16.656   7.895  1.00  0.00    -0.387 OA
ATOM     29  H   UNL     1      -1.002 -16.975   6.956  1.00  0.00     0.211 HD
ENDBRANCH  23  28
BRANCH  24  30
ATOM     30  C   UNL     1      -3.382 -19.125   8.136  1.00  0.00     0.191 C 
BRANCH  30  31
ATOM     31  O   UNL     1      -2.091 -19.072   7.600  1.00  0.00    -0.394 OA
ATOM     32  H   UNL     1      -1.759 -18.152   7.766  1.00  0.00     0.210 HD
ENDBRANCH  30  31
ENDBRANCH  24  30
BRANCH  25  33
ATOM     33  O   UNL     1      -4.420 -15.660   7.173  1.00  0.00    -0.388 OA
ATOM     34  H   UNL     1      -5.017 -15.656   7.966  1.00  0.00     0.211 HD
ENDBRANCH  25  33
ENDBRANCH  11  20
BRANCH  10  35
ATOM     35  O   UNL     1      -5.347 -15.791  11.483  1.00  0.00    -0.507 OA
ATOM     36  H   UNL     1      -5.392 -15.953  10.486  1.00  0.00     0.293 HD
ENDBRANCH  10  35
TORSDOF 9
ENDMDL
MODEL 2
REMARK VINA RESULT:    -1.279      1.039      1.468
REMARK INTER + INTRA:          -2.192
REMARK INTER:                  -3.021
REMARK INTRA:                   0.829
REMARK UNBOUND:                -0.464
REMARK SMILES O=c1c(-c2ccc(O)cc2)coc2c([C@H]3O[C@H](CO)[C@@H](O)[C@H](O)[C@H]3O)c(O)ccc12
REMARK SMILES IDX 3 1 11 2 12 3 13 4 30 5 2 6 1 7 29 8 28 9 26 10 14 11 4 12
REMARK SMILES IDX 5 13 6 14 7 15 10 16 9 17 8 18 15 20 24 21 16 22 22 23 17 24
REMARK SMILES IDX 20 25 25 26 23 28 18 30 19 31 21 33 27 35
REMARK H PARENT 8 19 25 27 23 29 19 32 21 34 27 36
REMARK Flexibility Score: inf
ROOT
ATOM      1  C   UNL     1      -0.144 -17.590  14.083  1.00  0.00     0.065 A 
ATOM      2  C   UNL     1      -0.193 -17.789  12.697  1.00  0.00     0.208 A 
ATOM      3  O   UNL     1      -1.261 -17.434  11.995  1.00  0.00    -0.463 OA
ATOM      4  C   UNL     1      -2.341 -16.874  12.536  1.00  0.00     0.147 A 
ATOM      5  C   UNL     1      -2.376 -16.641  13.931  1.00  0.00     0.066 A 
ATOM      6  C   UNL     1      -1.257 -16.996  14.706  1.00  0.00     0.200 A 
ATOM      7  O   UNL     1      -1.242 -16.768  15.947  1.00  0.00    -0.288 OA
ATOM      8  C   UNL     1      -3.518 -16.070  14.509  1.00  0.00     0.020 A 
ATOM      9  C   UNL     1      -4.624 -15.766  13.722  1.00  0.00     0.047 A 
ATOM     10  C   UNL     1      -4.616 -16.008  12.346  1.00  0.00     0.125 A 
ATOM     11  C   UNL     1      -3.447 -16.519  11.719  1.00  0.00     0.069 A 
ENDROOT
BRANCH   1  12
ATOM     12  C   UNL     1       1.060 -17.999  14.849  1.00  0.00    -0.011 A 
ATOM     13  C   UNL     1       1.048 -17.975  16.255  1.00  0.00     0.013 A 
ATOM     14  C   UNL     1       2.184 -18.350  16.979  1.00  0.00     0.047 A 
ATOM     15  C   UNL     1       3.348 -18.748  16.307  1.00  0.00     0.115 A 
ATOM     16  C   UNL     1       2.234 -18.394  14.183  1.00  0.00     0.013 A 
ATOM     17  C   UNL     1       3.369 -18.768  14.910  1.00  0.00     0.047 A 
BRANCH  15  18
ATOM     18  O   UNL     1       4.485 -19.125  17.018  1.00  0.00    -0.508 OA
ATOM     19  H   UNL     1       5.412 -19.048  16.612  1.00  0.00     0.293 HD
ENDBRANCH  15  18
ENDBRANCH   1  12
BRANCH  11  20
ATOM     20  C   UNL     1      -3.402 -16.732  10.206  1.00  0.00     0.188 C 
ATOM     21  C   UNL     1      -1.940 -16.836   9.724  1.00  0.00     0.179 C 
ATOM     22  O   UNL     1      -4.087 -15.684   9.539  1.00  0.00    -0.362 OA
ATOM     23  C   UNL     1      -1.914 -17.140   8.222  1.00  0.00     0.177 C 
ATOM     24  C   UNL     1      -4.173 -15.874   8.132  1.00  0.00     0.176 C 
ATOM     25  C   UNL     1      -2.806 -16.146   7.440  1.00  0.00     0.177 C 
BRANCH  21  26
ATOM     26  O   UNL     1      -1.253 -15.635   9.966  1.00  0.00    -0.387 OA
ATOM     27  H   UNL     1      -1.019 -15.619  10.931  1.00  0.00     0.211 HD
ENDBRANCH  21  26
BRANCH  23  28
ATOM     28  O   UNL     1      -2.326 -18.464   8.003  1.00  0.00    -0.387 OA
ATOM     29  H   UNL     1      -3.119 -18.619   8.581  1.00  0.00     0.211 HD
ENDBRANCH  23  28
BRANCH  24  30
ATOM     30  C   UNL     1      -5.321 -16.826   7.724  1.00  0.00     0.191 C 
BRANCH  30  31
ATOM     31  O   UNL     1      -6.315 -16.909   8.704  1.00  0.00    -0.394 OA
ATOM     32  H   UNL     1      -6.150 -17.755   9.196  1.00  0.00     0.210 HD
ENDBRANCH  30  31
ENDBRANCH  24  30
BRANCH  25  33
ATOM     33  O   UNL     1      -2.125 -14.924   7.304  1.00  0.00    -0.388 OA
ATOM     34  H   UNL     1      -1.942 -14.799   6.336  1.00  0.00     0.211 HD
ENDBRANCH  25  33
ENDBRANCH  11  20
BRANCH  10  35
ATOM     35  O   UNL     1      -5.796 -15.738  11.647  1.00  0.00    -0.507 OA
ATOM     36  H   UNL     1      -6.388 -14.936  11.815  1.00  0.00     0.293 HD
ENDBRANCH  10  35
TORSDOF 9
ENDMDL
MODEL 3
REMARK VINA RESULT:    -1.204      1.000      2.019
REMARK INTER + INTRA:          -2.091
REMARK INTER:                  -2.451
REMARK INTRA:                   0.360
REMARK UNBOUND:                -0.464
REMARK SMILES O=c1c(-c2ccc(O)cc2)coc2c([C@H]3O[C@H](CO)[C@@H](O)[C@H](O)[C@H]3O)c(O)ccc12
REMARK SMILES IDX 3 1 11 2 12 3 13 4 30 5 2 6 1 7 29 8 28 9 26 10 14 11 4 12
REMARK SMILES IDX 5 13 6 14 7 15 10 16 9 17 8 18 15 20 24 21 16 22 22 23 17 24
REMARK SMILES IDX 20 25 25 26 23 28 18 30 19 31 21 33 27 35
REMARK H PARENT 8 19 25 27 23 29 19 32 21 34 27 36
REMARK Flexibility Score: inf
ROOT
ATOM      1  C   UNL     1      -0.202 -17.549  14.102  1.00  0.00     0.065 A 
ATOM      2  C   UNL     1      -0.260 -17.715  12.712  1.00  0.00     0.208 A 
ATOM      3  O   UNL     1      -1.336 -17.350  12.027  1.00  0.00    -0.463 OA
ATOM      4  C   UNL     1      -2.415 -16.809  12.589  1.00  0.00     0.147 A 
ATOM      5  C   UNL     1      -2.441 -16.611  13.990  1.00  0.00     0.066 A 
ATOM      6  C   UNL     1      -1.313 -16.977  14.747  1.00  0.00     0.200 A 
ATOM      7  O   UNL     1      -1.291 -16.778  15.993  1.00  0.00    -0.288 OA
ATOM      8  C   UNL     1      -3.582 -16.060  14.590  1.00  0.00     0.020 A 
ATOM      9  C   UNL     1      -4.696 -15.745  13.819  1.00  0.00     0.047 A 
ATOM     10  C   UNL     1      -4.697 -15.954  12.437  1.00  0.00     0.125 A 
ATOM     11  C   UNL     1      -3.529 -16.442  11.789  1.00  0.00     0.069 A 
ENDROOT
BRANCH   1  12
ATOM     12  C   UNL     1       1.011 -17.969  14.849  1.00  0.00    -0.011 A 
ATOM     13  C   UNL     1       1.067 -17.825  16.247  1.00  0.00     0.013 A 
ATOM     14  C   UNL     1       2.211 -18.210  16.952  1.00  0.00     0.047 A 
ATOM     15  C   UNL     1       3.316 -18.737  16.269  1.00  0.00     0.115 A 
ATOM     16  C   UNL     1       2.126 -18.492  14.171  1.00  0.00     0.013 A 
ATOM     17  C   UNL     1       3.269 -18.876  14.879  1.00  0.00     0.047 A 
BRANCH  15  18
ATOM     18  O   UNL     1       4.461 -19.125  16.961  1.00  0.00    -0.508 OA
ATOM     19  H   UNL     1       5.239 -18.488  17.095  1.00  0.00     0.293 HD
ENDBRANCH  15  18
ENDBRANCH   1  12
BRANCH  11  20
ATOM     20  C   UNL     1      -3.494 -16.619  10.272  1.00  0.00     0.188 C 
ATOM     21  C   UNL     1      -4.236 -17.909   9.866  1.00  0.00     0.179 C 
ATOM     22  O   UNL     1      -2.155 -16.631   9.805  1.00  0.00    -0.362 OA
ATOM     23  C   UNL     1      -4.272 -18.024   8.338  1.00  0.00     0.177 C 
ATOM     24  C   UNL     1      -2.052 -16.688   8.388  1.00  0.00     0.176 C 
ATOM     25  C   UNL     1      -2.856 -17.850   7.737  1.00  0.00     0.177 C 
BRANCH  21  26
ATOM     26  O   UNL     1      -3.593 -19.038  10.401  1.00  0.00    -0.387 OA
ATOM     27  H   UNL     1      -2.615 -18.871  10.347  1.00  0.00     0.211 HD
ENDBRANCH  21  26
BRANCH  23  28
ATOM     28  O   UNL     1      -5.160 -17.071   7.815  1.00  0.00    -0.387 OA
ATOM     29  H   UNL     1      -4.678 -16.204   7.804  1.00  0.00     0.211 HD
ENDBRANCH  23  28
BRANCH  24  30
ATOM     30  C   UNL     1      -2.227 -15.307   7.717  1.00  0.00     0.191 C 
BRANCH  30  31
ATOM     31  O   UNL     1      -3.108 -15.352   6.631  1.00  0.00    -0.394 OA
ATOM     32  H   UNL     1      -3.883 -14.783   6.879  1.00  0.00     0.210 HD
ENDBRANCH  30  31
ENDBRANCH  24  30
BRANCH  25  33
ATOM     33  O   UNL     1      -2.133 -19.044   7.908  1.00  0.00    -0.388 OA
ATOM     34  H   UNL     1      -2.341 -19.382   8.818  1.00  0.00     0.211 HD
ENDBRANCH  25  33
ENDBRANCH  11  20
BRANCH  10  35
ATOM     35  O   UNL     1      -5.884 -15.675  11.753  1.00  0.00    -0.507 OA
ATOM     36  H   UNL     1      -6.334 -16.312  11.110  1.00  0.00     0.293 HD
ENDBRANCH  10  35
TORSDOF 9
ENDMDL
MODEL 4
REMARK VINA RESULT:    -0.120      1.097      1.207
REMARK INTER + INTRA:          -0.626
REMARK INTER:                  -0.857
REMARK INTRA:                   0.231
REMARK UNBOUND:                -0.464
REMARK SMILES O=c1c(-c2ccc(O)cc2)coc2c([C@H]3O[C@H](CO)[C@@H](O)[C@H](O)[C@H]3O)c(O)ccc12
REMARK SMILES IDX 3 1 11 2 12 3 13 4 30 5 2 6 1 7 29 8 28 9 26 10 14 11 4 12
REMARK SMILES IDX 5 13 6 14 7 15 10 16 9 17 8 18 15 20 24 21 16 22 22 23 17 24
REMARK SMILES IDX 20 25 25 26 23 28 18 30 19 31 21 33 27 35
REMARK H PARENT 8 19 25 27 23 29 19 32 21 34 27 36
REMARK Flexibility Score: inf
ROOT
ATOM      1  C   UNL     1      -0.800 -17.457  13.670  1.00  0.00     0.065 A 
ATOM      2  C   UNL     1      -0.652 -17.509  12.278  1.00  0.00     0.208 A 
ATOM      3  O   UNL     1      -1.640 -17.138  11.473  1.00  0.00    -0.463 OA
ATOM      4  C   UNL     1      -2.817 -16.698  11.913  1.00  0.00     0.147 A 
ATOM      5  C   UNL     1      -3.052 -16.619  13.306  1.00  0.00     0.066 A 
ATOM      6  C   UNL     1      -2.023 -16.994  14.189  1.00  0.00     0.200 A 
ATOM      7  O   UNL     1      -2.188 -16.899  15.437  1.00  0.00    -0.288 OA
ATOM      8  C   UNL     1      -4.296 -16.175  13.774  1.00  0.00     0.020 A 
ATOM      9  C   UNL     1      -5.307 -15.849  12.876  1.00  0.00     0.047 A 
ATOM     10  C   UNL     1      -5.101 -15.941  11.497  1.00  0.00     0.125 A 
ATOM     11  C   UNL     1      -3.828 -16.318  10.990  1.00  0.00     0.069 A 
ENDROOT
BRANCH   1  12
ATOM     12  C   UNL     1       0.318 -17.880  14.550  1.00  0.00    -0.011 A 
ATOM     13  C   UNL     1       0.195 -17.782  15.948  1.00  0.00     0.013 A 
ATOM     14  C   UNL     1       1.250 -18.171  16.779  1.00  0.00     0.047 A 
ATOM     15  C   UNL     1       2.442 -18.656  16.226  1.00  0.00     0.115 A 
ATOM     16  C   UNL     1       1.520 -18.362  14.003  1.00  0.00     0.013 A 
ATOM     17  C   UNL     1       2.573 -18.749  14.837  1.00  0.00     0.047 A 
BRANCH  15  18
ATOM     18  O   UNL     1       3.500 -19.047  17.044  1.00  0.00    -0.508 OA
ATOM     19  H   UNL     1       3.820 -18.463  17.809  1.00  0.00     0.293 HD
ENDBRANCH  15  18
ENDBRANCH   1  12
BRANCH  11  20
ATOM     20  C   UNL     1      -3.569 -16.365   9.485  1.00  0.00     0.188 C 
ATOM     21  C   UNL     1      -3.349 -14.940   8.935  1.00  0.00     0.179 C 
ATOM     22  O   UNL     1      -4.643 -17.009   8.819  1.00  0.00    -0.362 OA
ATOM     23  C   UNL     1      -3.001 -15.011   7.444  1.00  0.00     0.177 C 
ATOM     24  C   UNL     1      -4.420 -17.180   7.424  1.00  0.00     0.176 C 
ATOM     25  C   UNL     1      -4.033 -15.872   6.676  1.00  0.00     0.177 C 
BRANCH  21  26
ATOM     26  O   UNL     1      -4.506 -14.160   9.105  1.00  0.00    -0.387 OA
ATOM     27  H   UNL     1      -5.154 -14.707   9.621  1.00  0.00     0.211 HD
ENDBRANCH  21  26
BRANCH  23  28
ATOM     28  O   UNL     1      -1.704 -15.524   7.288  1.00  0.00    -0.387 OA
ATOM     29  H   UNL     1      -1.360 -15.720   8.198  1.00  0.00     0.211 HD
ENDBRANCH  23  28
BRANCH  24  30
ATOM     30  C   UNL     1      -3.540 -18.409   7.103  1.00  0.00     0.191 C 
BRANCH  30  31
ATOM     31  O   UNL     1      -2.819 -18.852   8.218  1.00  0.00    -0.394 OA
ATOM     32  H   UNL     1      -3.264 -19.685   8.521  1.00  0.00     0.210 HD
ENDBRANCH  30  31
ENDBRANCH  24  30
BRANCH  25  33
ATOM     33  O   UNL     1      -5.201 -15.115   6.468  1.00  0.00    -0.388 OA
ATOM     34  H   UNL     1      -5.956 -15.757   6.411  1.00  0.00     0.211 HD
ENDBRANCH  25  33
ENDBRANCH  11  20
BRANCH  10  35
ATOM     35  O   UNL     1      -6.195 -15.662  10.672  1.00  0.00    -0.507 OA
ATOM     36  H   UNL     1      -7.135 -15.500  11.006  1.00  0.00     0.293 HD
ENDBRANCH  10  35
TORSDOF 9
ENDMDL
