MODEL 1
REMARK VINA RESULT:    -6.724      0.000      0.000
REMARK INTER + INTRA:         -11.855
REMARK INTER:                  -9.868
REMARK INTRA:                  -1.986
REMARK UNBOUND:                -1.986
REMARK SMILES O=c1c(O[C@@H]2O[C@@H](CO)[C@H](O)[C@@H](O)[C@@H]2O)c(-c2ccc(O)c(O)c2)oc2cc(O)cc(O)c12
REMARK SMILES IDX 4 1 3 2 16 3 25 4 2 5 26 6 1 7 33 8 27 9 31 10 28 11 30 12
REMARK SMILES IDX 17 13 18 14 19 15 20 16 24 17 22 18 21 19 23 21 32 23 29 25
REMARK SMILES IDX 5 27 14 28 6 29 12 30 7 31 10 32 15 33 13 35 8 37 9 38 11 40
REMARK H PARENT 21 20 23 22 32 24 29 26 15 34 13 36 9 39 11 41
REMARK Flexibility Score: inf
ROOT
ATOM      1  O   UNL     1     135.297 140.705 142.424  1.00  0.00    -0.454 OA
ENDROOT
BRANCH   1   2
ATOM      2  C   UNL     1     135.228 139.676 143.386  1.00  0.00     0.214 A 
ATOM      3  C   UNL     1     134.067 138.874 143.415  1.00  0.00     0.180 A 
ATOM      4  O   UNL     1     133.973 137.857 144.264  1.00  0.00    -0.452 OA
ATOM      5  C   UNL     1     136.265 139.380 144.302  1.00  0.00     0.239 A 
ATOM      6  C   UNL     1     134.923 137.547 145.136  1.00  0.00     0.146 A 
ATOM      7  O   UNL     1     137.319 140.067 144.314  1.00  0.00    -0.285 OA
ATOM      8  C   UNL     1     136.116 138.302 145.201  1.00  0.00     0.111 A 
ATOM      9  C   UNL     1     134.726 136.461 145.994  1.00  0.00     0.094 A 
ATOM     10  C   UNL     1     137.105 137.943 146.149  1.00  0.00     0.134 A 
ATOM     11  C   UNL     1     135.706 136.112 146.928  1.00  0.00     0.123 A 
ATOM     12  C   UNL     1     136.888 136.851 147.003  1.00  0.00     0.093 A 
BRANCH   3  13
ATOM     13  C   UNL     1     132.932 139.115 142.496  1.00  0.00     0.025 A 
ATOM     14  C   UNL     1     131.773 139.775 142.928  1.00  0.00     0.016 A 
ATOM     15  C   UNL     1     130.711 139.985 142.048  1.00  0.00     0.051 A 
ATOM     16  C   UNL     1     130.776 139.525 140.727  1.00  0.00     0.157 A 
ATOM     17  C   UNL     1     132.992 138.631 141.180  1.00  0.00     0.062 A 
ATOM     18  C   UNL     1     131.930 138.834 140.289  1.00  0.00     0.158 A 
BRANCH  16  19
ATOM     19  O   UNL     1     129.681 139.771 139.896  1.00  0.00    -0.504 OA
ATOM     20  H   UNL     1     129.694 139.641 138.894  1.00  0.00     0.293 HD
ENDBRANCH  16  19
BRANCH  18  21
ATOM     21  O   UNL     1     132.064 138.336 138.992  1.00  0.00    -0.504 OA
ATOM     22  H   UNL     1     131.390 138.490 138.256  1.00  0.00     0.293 HD
ENDBRANCH  18  21
ENDBRANCH   3  13
BRANCH  10  23
ATOM     23  O   UNL     1     138.298 138.660 146.251  1.00  0.00    -0.507 OA
ATOM     24  H   UNL     1     138.670 139.191 145.472  1.00  0.00     0.293 HD
ENDBRANCH  10  23
BRANCH  11  25
ATOM     25  O   UNL     1     135.516 135.031 147.786  1.00  0.00    -0.508 OA
ATOM     26  H   UNL     1     136.288 134.441 148.074  1.00  0.00     0.293 HD
ENDBRANCH  11  25
ENDBRANCH   1   2
BRANCH   1  27
ATOM     27  C   UNL     1     134.902 142.072 142.579  1.00  0.00     0.339 C 
ATOM     28  C   UNL     1     136.090 143.008 142.286  1.00  0.00     0.214 C 
ATOM     29  O   UNL     1     133.791 142.394 141.755  1.00  0.00    -0.332 OA
ATOM     30  C   UNL     1     136.467 142.943 140.801  1.00  0.00     0.180 C 
ATOM     31  C   UNL     1     134.087 142.220 140.378  1.00  0.00     0.179 C 
ATOM     32  C   UNL     1     135.220 143.175 139.931  1.00  0.00     0.177 C 
BRANCH  28  33
ATOM     33  O   UNL     1     137.200 142.641 143.065  1.00  0.00    -0.384 OA
ATOM     34  H   UNL     1     137.219 143.257 143.843  1.00  0.00     0.211 HD
ENDBRANCH  28  33
BRANCH  30  35
ATOM     35  O   UNL     1     137.433 143.926 140.528  1.00  0.00    -0.387 OA
ATOM     36  H   UNL     1     138.284 143.450 140.338  1.00  0.00     0.211 HD
ENDBRANCH  30  35
BRANCH  31  37
ATOM     37  C   UNL     1     132.801 142.452 139.576  1.00  0.00     0.191 C 
BRANCH  37  38
ATOM     38  O   UNL     1     132.989 142.096 138.234  1.00  0.00    -0.394 OA
ATOM     39  H   UNL     1     132.784 142.909 137.702  1.00  0.00     0.210 HD
ENDBRANCH  37  38
ENDBRANCH  31  37
BRANCH  32  40
ATOM     40  O   UNL     1     135.553 142.936 138.586  1.00  0.00    -0.387 OA
ATOM     41  H   UNL     1     136.336 142.326 138.582  1.00  0.00     0.211 HD
ENDBRANCH  32  40
ENDBRANCH   1  27
TORSDOF 12
ENDMDL
MODEL 2
REMARK VINA RESULT:    -6.483      7.985     12.206
REMARK INTER + INTRA:         -11.501
REMARK INTER:                  -9.401
REMARK INTRA:                  -2.100
REMARK UNBOUND:                -1.986
REMARK SMILES O=c1c(O[C@@H]2O[C@@H](CO)[C@H](O)[C@@H](O)[C@@H]2O)c(-c2ccc(O)c(O)c2)oc2cc(O)cc(O)c12
REMARK SMILES IDX 4 1 3 2 16 3 25 4 2 5 26 6 1 7 33 8 27 9 31 10 28 11 30 12
REMARK SMILES IDX 17 13 18 14 19 15 20 16 24 17 22 18 21 19 23 21 32 23 29 25
REMARK SMILES IDX 5 27 14 28 6 29 12 30 7 31 10 32 15 33 13 35 8 37 9 38 11 40
REMARK H PARENT 21 20 23 22 32 24 29 26 15 34 13 36 9 39 11 41
REMARK Flexibility Score: inf
ROOT
ATOM      1  O   UNL     1     137.168 131.595 146.621  1.00  0.00    -0.454 OA
ENDROOT
BRANCH   1   2
ATOM      2  C   UNL     1     138.005 130.585 146.102  1.00  0.00     0.214 A 
ATOM      3  C   UNL     1     138.926 129.973 146.979  1.00  0.00     0.180 A 
ATOM      4  O   UNL     1     139.698 128.979 146.556  1.00  0.00    -0.452 OA
ATOM      5  C   UNL     1     137.955 130.129 144.764  1.00  0.00     0.239 A 
ATOM      6  C   UNL     1     139.681 128.522 145.311  1.00  0.00     0.146 A 
ATOM      7  O   UNL     1     137.150 130.644 143.944  1.00  0.00    -0.285 OA
ATOM      8  C   UNL     1     138.808 129.083 144.351  1.00  0.00     0.111 A 
ATOM      9  C   UNL     1     140.540 127.476 144.962  1.00  0.00     0.094 A 
ATOM     10  C   UNL     1     138.822 128.571 143.029  1.00  0.00     0.134 A 
ATOM     11  C   UNL     1     140.548 126.976 143.656  1.00  0.00     0.123 A 
ATOM     12  C   UNL     1     139.693 127.522 142.698  1.00  0.00     0.093 A 
BRANCH   3  13
ATOM     13  C   UNL     1     139.048 130.390 148.394  1.00  0.00     0.025 A 
ATOM     14  C   UNL     1     140.143 131.144 148.838  1.00  0.00     0.016 A 
ATOM     15  C   UNL     1     140.244 131.521 150.178  1.00  0.00     0.051 A 
ATOM     16  C   UNL     1     139.265 131.138 151.103  1.00  0.00     0.157 A 
ATOM     17  C   UNL     1     138.077 129.984 149.322  1.00  0.00     0.062 A 
ATOM     18  C   UNL     1     138.170 130.354 150.670  1.00  0.00     0.158 A 
BRANCH  16  19
ATOM     19  O   UNL     1     139.423 131.551 152.428  1.00  0.00    -0.504 OA
ATOM     20  H   UNL     1     138.702 132.013 152.963  1.00  0.00     0.293 HD
ENDBRANCH  16  19
BRANCH  18  21
ATOM     21  O   UNL     1     137.162 129.925 151.534  1.00  0.00    -0.504 OA
ATOM     22  H   UNL     1     137.081 130.217 152.497  1.00  0.00     0.293 HD
ENDBRANCH  18  21
ENDBRANCH   3  13
BRANCH  10  23
ATOM     23  O   UNL     1     137.980 129.094 142.046  1.00  0.00    -0.507 OA
ATOM     24  H   UNL     1     137.014 129.330 142.242  1.00  0.00     0.293 HD
ENDBRANCH  10  23
BRANCH  11  25
ATOM     25  O   UNL     1     141.402 125.933 143.301  1.00  0.00    -0.508 OA
ATOM     26  H   UNL     1     141.679 125.225 143.970  1.00  0.00     0.293 HD
ENDBRANCH  11  25
ENDBRANCH   1   2
BRANCH   1  27
ATOM     27  C   UNL     1     137.441 132.997 146.703  1.00  0.00     0.339 C 
ATOM     28  C   UNL     1     136.357 133.798 145.955  1.00  0.00     0.214 C 
ATOM     29  O   UNL     1     137.551 133.433 148.049  1.00  0.00    -0.332 OA
ATOM     30  C   UNL     1     135.012 133.683 146.683  1.00  0.00     0.180 C 
ATOM     31  C   UNL     1     136.349 133.220 148.773  1.00  0.00     0.179 C 
ATOM     32  C   UNL     1     135.186 134.044 148.168  1.00  0.00     0.177 C 
BRANCH  28  33
ATOM     33  O   UNL     1     136.219 133.317 144.643  1.00  0.00    -0.384 OA
ATOM     34  H   UNL     1     137.031 132.783 144.446  1.00  0.00     0.211 HD
ENDBRANCH  28  33
BRANCH  30  35
ATOM     35  O   UNL     1     134.088 134.554 146.082  1.00  0.00    -0.387 OA
ATOM     36  H   UNL     1     133.200 134.112 146.134  1.00  0.00     0.211 HD
ENDBRANCH  30  35
BRANCH  31  37
ATOM     37  C   UNL     1     136.600 133.586 150.241  1.00  0.00     0.191 C 
BRANCH  37  38
ATOM     38  O   UNL     1     135.861 132.749 151.088  1.00  0.00    -0.394 OA
ATOM     39  H   UNL     1     135.542 131.998 150.523  1.00  0.00     0.210 HD
ENDBRANCH  37  38
ENDBRANCH  31  37
BRANCH  32  40
ATOM     40  O   UNL     1     133.988 133.762 148.848  1.00  0.00    -0.387 OA
ATOM     41  H   UNL     1     134.012 134.264 149.705  1.00  0.00     0.211 HD
ENDBRANCH  32  40
ENDBRANCH   1  27
TORSDOF 12
ENDMDL
MODEL 3
REMARK VINA RESULT:    -6.471      6.571     11.541
REMARK INTER + INTRA:         -11.484
REMARK INTER:                 -10.159
REMARK INTRA:                  -1.325
REMARK UNBOUND:                -1.986
REMARK SMILES O=c1c(O[C@@H]2O[C@@H](CO)[C@H](O)[C@@H](O)[C@@H]2O)c(-c2ccc(O)c(O)c2)oc2cc(O)cc(O)c12
REMARK SMILES IDX 4 1 3 2 16 3 25 4 2 5 26 6 1 7 33 8 27 9 31 10 28 11 30 12
REMARK SMILES IDX 17 13 18 14 19 15 20 16 24 17 22 18 21 19 23 21 32 23 29 25
REMARK SMILES IDX 5 27 14 28 6 29 12 30 7 31 10 32 15 33 13 35 8 37 9 38 11 40
REMARK H PARENT 21 20 23 22 32 24 29 26 15 34 13 36 9 39 11 41
REMARK Flexibility Score: inf
ROOT
ATOM      1  O   UNL     1     138.955 132.824 148.510  1.00  0.00    -0.454 OA
ENDROOT
BRANCH   1   2
ATOM      2  C   UNL     1     139.809 132.943 147.394  1.00  0.00     0.214 A 
ATOM      3  C   UNL     1     139.459 133.870 146.390  1.00  0.00     0.180 A 
ATOM      4  O   UNL     1     140.257 134.061 145.345  1.00  0.00    -0.452 OA
ATOM      5  C   UNL     1     141.009 132.211 147.238  1.00  0.00     0.239 A 
ATOM      6  C   UNL     1     141.390 133.397 145.162  1.00  0.00     0.146 A 
ATOM      7  O   UNL     1     141.364 131.373 148.107  1.00  0.00    -0.285 OA
ATOM      8  C   UNL     1     141.818 132.431 146.101  1.00  0.00     0.111 A 
ATOM      9  C   UNL     1     142.157 133.665 144.024  1.00  0.00     0.094 A 
ATOM     10  C   UNL     1     143.032 131.738 145.869  1.00  0.00     0.134 A 
ATOM     11  C   UNL     1     143.354 132.977 143.801  1.00  0.00     0.123 A 
ATOM     12  C   UNL     1     143.786 132.020 144.720  1.00  0.00     0.093 A 
BRANCH   3  13
ATOM     13  C   UNL     1     138.220 134.675 146.471  1.00  0.00     0.025 A 
ATOM     14  C   UNL     1     136.976 134.133 146.116  1.00  0.00     0.016 A 
ATOM     15  C   UNL     1     135.821 134.911 146.192  1.00  0.00     0.051 A 
ATOM     16  C   UNL     1     135.885 136.247 146.604  1.00  0.00     0.157 A 
ATOM     17  C   UNL     1     138.293 136.021 146.861  1.00  0.00     0.062 A 
ATOM     18  C   UNL     1     137.139 136.811 146.938  1.00  0.00     0.158 A 
BRANCH  16  19
ATOM     19  O   UNL     1     134.691 136.970 146.663  1.00  0.00    -0.504 OA
ATOM     20  H   UNL     1     133.955 136.899 145.975  1.00  0.00     0.293 HD
ENDBRANCH  16  19
BRANCH  18  21
ATOM     21  O   UNL     1     137.284 138.138 147.346  1.00  0.00    -0.504 OA
ATOM     22  H   UNL     1     137.924 138.792 146.920  1.00  0.00     0.293 HD
ENDBRANCH  18  21
ENDBRANCH   3  13
BRANCH  10  23
ATOM     23  O   UNL     1     143.494 130.775 146.767  1.00  0.00    -0.507 OA
ATOM     24  H   UNL     1     143.395 130.889 147.770  1.00  0.00     0.293 HD
ENDBRANCH  10  23
BRANCH  11  25
ATOM     25  O   UNL     1     144.122 133.240 142.669  1.00  0.00    -0.508 OA
ATOM     26  H   UNL     1     144.981 133.774 142.724  1.00  0.00     0.293 HD
ENDBRANCH  11  25
ENDBRANCH   1   2
BRANCH   1  27
ATOM     27  C   UNL     1     139.138 133.390 149.812  1.00  0.00     0.339 C 
ATOM     28  C   UNL     1     137.774 133.721 150.449  1.00  0.00     0.214 C 
ATOM     29  O   UNL     1     139.894 132.533 150.655  1.00  0.00    -0.332 OA
ATOM     30  C   UNL     1     137.003 132.432 150.758  1.00  0.00     0.180 C 
ATOM     31  C   UNL     1     139.249 131.284 150.852  1.00  0.00     0.179 C 
ATOM     32  C   UNL     1     137.889 131.471 151.569  1.00  0.00     0.177 C 
BRANCH  28  33
ATOM     33  O   UNL     1     137.015 134.521 149.579  1.00  0.00    -0.384 OA
ATOM     34  H   UNL     1     137.161 134.167 148.664  1.00  0.00     0.211 HD
ENDBRANCH  28  33
BRANCH  30  35
ATOM     35  O   UNL     1     135.847 132.752 151.489  1.00  0.00    -0.387 OA
ATOM     36  H   UNL     1     135.116 132.179 151.137  1.00  0.00     0.211 HD
ENDBRANCH  30  35
BRANCH  31  37
ATOM     37  C   UNL     1     140.191 130.377 151.652  1.00  0.00     0.191 C 
BRANCH  37  38
ATOM     38  O   UNL     1     140.930 131.130 152.575  1.00  0.00    -0.394 OA
ATOM     39  H   UNL     1     141.148 131.985 152.121  1.00  0.00     0.210 HD
ENDBRANCH  37  38
ENDBRANCH  31  37
BRANCH  32  40
ATOM     40  O   UNL     1     137.230 130.234 151.687  1.00  0.00    -0.387 OA
ATOM     41  H   UNL     1     136.842 130.024 150.797  1.00  0.00     0.211 HD
ENDBRANCH  32  40
ENDBRANCH   1  27
TORSDOF 12
ENDMDL
MODEL 4
REMARK VINA RESULT:    -6.453      5.494      9.161
REMARK INTER + INTRA:         -11.458
REMARK INTER:                  -9.429
REMARK INTRA:                  -2.028
REMARK UNBOUND:                -1.986
REMARK SMILES O=c1c(O[C@@H]2O[C@@H](CO)[C@H](O)[C@@H](O)[C@@H]2O)c(-c2ccc(O)c(O)c2)oc2cc(O)cc(O)c12
REMARK SMILES IDX 4 1 3 2 16 3 25 4 2 5 26 6 1 7 33 8 27 9 31 10 28 11 30 12
REMARK SMILES IDX 17 13 18 14 19 15 20 16 24 17 22 18 21 19 23 21 32 23 29 25
REMARK SMILES IDX 5 27 14 28 6 29 12 30 7 31 10 32 15 33 13 35 8 37 9 38 11 40
REMARK H PARENT 21 20 23 22 32 24 29 26 15 34 13 36 9 39 11 41
REMARK Flexibility Score: inf
ROOT
ATOM      1  O   UNL     1     136.402 134.322 147.837  1.00  0.00    -0.454 OA
ENDROOT
BRANCH   1   2
ATOM      2  C   UNL     1     137.533 133.700 148.407  1.00  0.00     0.214 A 
ATOM      3  C   UNL     1     138.746 133.748 147.689  1.00  0.00     0.180 A 
ATOM      4  O   UNL     1     139.854 133.227 148.205  1.00  0.00    -0.452 OA
ATOM      5  C   UNL     1     137.529 133.059 149.668  1.00  0.00     0.239 A 
ATOM      6  C   UNL     1     139.892 132.619 149.383  1.00  0.00     0.146 A 
ATOM      7  O   UNL     1     136.471 132.990 150.346  1.00  0.00    -0.285 OA
ATOM      8  C   UNL     1     138.725 132.501 150.171  1.00  0.00     0.111 A 
ATOM      9  C   UNL     1     141.107 132.096 149.836  1.00  0.00     0.094 A 
ATOM     10  C   UNL     1     138.805 131.840 151.421  1.00  0.00     0.134 A 
ATOM     11  C   UNL     1     141.179 131.445 151.071  1.00  0.00     0.123 A 
ATOM     12  C   UNL     1     140.033 131.320 151.857  1.00  0.00     0.093 A 
BRANCH   3  13
ATOM     13  C   UNL     1     138.840 134.396 146.361  1.00  0.00     0.025 A 
ATOM     14  C   UNL     1     139.092 133.647 145.203  1.00  0.00     0.016 A 
ATOM     15  C   UNL     1     139.185 134.277 143.962  1.00  0.00     0.051 A 
ATOM     16  C   UNL     1     139.046 135.666 143.854  1.00  0.00     0.157 A 
ATOM     17  C   UNL     1     138.724 135.791 146.261  1.00  0.00     0.062 A 
ATOM     18  C   UNL     1     138.818 136.433 145.020  1.00  0.00     0.158 A 
BRANCH  16  19
ATOM     19  O   UNL     1     139.145 136.235 142.582  1.00  0.00    -0.504 OA
ATOM     20  H   UNL     1     140.012 136.547 142.170  1.00  0.00     0.293 HD
ENDBRANCH  16  19
BRANCH  18  21
ATOM     21  O   UNL     1     138.680 137.822 144.994  1.00  0.00    -0.504 OA
ATOM     22  H   UNL     1     138.256 138.361 145.735  1.00  0.00     0.293 HD
ENDBRANCH  18  21
ENDBRANCH   3  13
BRANCH  10  23
ATOM     23  O   UNL     1     137.678 131.697 152.233  1.00  0.00    -0.507 OA
ATOM     24  H   UNL     1     137.089 130.872 152.188  1.00  0.00     0.293 HD
ENDBRANCH  10  23
BRANCH  11  25
ATOM     25  O   UNL     1     142.387 130.921 151.528  1.00  0.00    -0.508 OA
ATOM     26  H   UNL     1     142.682 129.982 151.286  1.00  0.00     0.293 HD
ENDBRANCH  11  25
ENDBRANCH   1   2
BRANCH   1  27
ATOM     27  C   UNL     1     135.355 133.704 147.082  1.00  0.00     0.339 C 
ATOM     28  C   UNL     1     133.984 134.027 147.705  1.00  0.00     0.214 C 
ATOM     29  O   UNL     1     135.393 134.093 145.717  1.00  0.00    -0.332 OA
ATOM     30  C   UNL     1     133.664 135.519 147.547  1.00  0.00     0.180 C 
ATOM     31  C   UNL     1     135.222 135.493 145.562  1.00  0.00     0.179 C 
ATOM     32  C   UNL     1     133.832 135.940 146.077  1.00  0.00     0.177 C 
BRANCH  28  33
ATOM     33  O   UNL     1     133.980 133.692 149.069  1.00  0.00    -0.384 OA
ATOM     34  H   UNL     1     133.567 132.793 149.141  1.00  0.00     0.211 HD
ENDBRANCH  28  33
BRANCH  30  35
ATOM     35  O   UNL     1     132.345 135.754 147.966  1.00  0.00    -0.387 OA
ATOM     36  H   UNL     1     131.761 135.152 147.433  1.00  0.00     0.211 HD
ENDBRANCH  30  35
BRANCH  31  37
ATOM     37  C   UNL     1     135.415 135.840 144.081  1.00  0.00     0.191 C 
BRANCH  37  38
ATOM     38  O   UNL     1     135.766 137.189 143.935  1.00  0.00    -0.394 OA
ATOM     39  H   UNL     1     135.115 137.703 144.480  1.00  0.00     0.210 HD
ENDBRANCH  37  38
ENDBRANCH  31  37
BRANCH  32  40
ATOM     40  O   UNL     1     133.709 137.338 145.987  1.00  0.00    -0.387 OA
ATOM     41  H   UNL     1     132.827 137.529 145.573  1.00  0.00     0.211 HD
ENDBRANCH  32  40
ENDBRANCH   1  27
TORSDOF 12
ENDMDL
MODEL 5
REMARK VINA RESULT:    -6.354      5.609     12.338
REMARK INTER + INTRA:         -11.312
REMARK INTER:                  -9.551
REMARK INTRA:                  -1.761
REMARK UNBOUND:                -1.986
REMARK SMILES O=c1c(O[C@@H]2O[C@@H](CO)[C@H](O)[C@@H](O)[C@@H]2O)c(-c2ccc(O)c(O)c2)oc2cc(O)cc(O)c12
REMARK SMILES IDX 4 1 3 2 16 3 25 4 2 5 26 6 1 7 33 8 27 9 31 10 28 11 30 12
REMARK SMILES IDX 17 13 18 14 19 15 20 16 24 17 22 18 21 19 23 21 32 23 29 25
REMARK SMILES IDX 5 27 14 28 6 29 12 30 7 31 10 32 15 33 13 35 8 37 9 38 11 40
REMARK H PARENT 21 20 23 22 32 24 29 26 15 34 13 36 9 39 11 41
REMARK Flexibility Score: inf
ROOT
ATOM      1  O   UNL     1     138.414 132.932 148.598  1.00  0.00    -0.454 OA
ENDROOT
BRANCH   1   2
ATOM      2  C   UNL     1     138.384 133.822 147.505  1.00  0.00     0.214 A 
ATOM      3  C   UNL     1     139.418 133.729 146.548  1.00  0.00     0.180 A 
ATOM      4  O   UNL     1     139.408 134.506 145.471  1.00  0.00    -0.452 OA
ATOM      5  C   UNL     1     137.365 134.780 147.294  1.00  0.00     0.239 A 
ATOM      6  C   UNL     1     138.471 135.415 145.236  1.00  0.00     0.146 A 
ATOM      7  O   UNL     1     136.423 134.901 148.119  1.00  0.00    -0.285 OA
ATOM      8  C   UNL     1     137.404 135.600 146.144  1.00  0.00     0.111 A 
ATOM      9  C   UNL     1     138.554 136.189 144.075  1.00  0.00     0.094 A 
ATOM     10  C   UNL     1     136.425 136.584 145.862  1.00  0.00     0.134 A 
ATOM     11  C   UNL     1     137.584 137.159 143.803  1.00  0.00     0.123 A 
ATOM     12  C   UNL     1     136.527 137.353 144.693  1.00  0.00     0.093 A 
BRANCH   3  13
ATOM     13  C   UNL     1     140.525 132.758 146.691  1.00  0.00     0.025 A 
ATOM     14  C   UNL     1     140.480 131.506 146.060  1.00  0.00     0.016 A 
ATOM     15  C   UNL     1     141.530 130.601 146.214  1.00  0.00     0.051 A 
ATOM     16  C   UNL     1     142.636 130.918 147.013  1.00  0.00     0.157 A 
ATOM     17  C   UNL     1     141.619 133.070 147.512  1.00  0.00     0.062 A 
ATOM     18  C   UNL     1     142.678 132.168 147.675  1.00  0.00     0.158 A 
BRANCH  16  19
ATOM     19  O   UNL     1     143.656 129.970 147.122  1.00  0.00    -0.504 OA
ATOM     20  H   UNL     1     144.512 130.121 147.635  1.00  0.00     0.293 HD
ENDBRANCH  16  19
BRANCH  18  21
ATOM     21  O   UNL     1     143.739 132.551 148.496  1.00  0.00    -0.504 OA
ATOM     22  H   UNL     1     144.030 132.041 149.318  1.00  0.00     0.293 HD
ENDBRANCH  18  21
ENDBRANCH   3  13
BRANCH  10  23
ATOM     23  O   UNL     1     135.354 136.804 146.730  1.00  0.00    -0.507 OA
ATOM     24  H   UNL     1     134.441 137.087 146.391  1.00  0.00     0.293 HD
ENDBRANCH  10  23
BRANCH  11  25
ATOM     25  O   UNL     1     137.661 137.935 142.648  1.00  0.00    -0.508 OA
ATOM     26  H   UNL     1     137.030 137.788 141.868  1.00  0.00     0.293 HD
ENDBRANCH  11  25
ENDBRANCH   1   2
BRANCH   1  27
ATOM     27  C   UNL     1     138.445 133.262 149.990  1.00  0.00     0.339 C 
ATOM     28  C   UNL     1     137.251 132.616 150.720  1.00  0.00     0.214 C 
ATOM     29  O   UNL     1     139.673 132.878 150.592  1.00  0.00    -0.332 OA
ATOM     30  C   UNL     1     137.402 131.089 150.742  1.00  0.00     0.180 C 
ATOM     31  C   UNL     1     139.885 131.477 150.511  1.00  0.00     0.179 C 
ATOM     32  C   UNL     1     138.789 130.706 151.286  1.00  0.00     0.177 C 
BRANCH  28  33
ATOM     33  O   UNL     1     136.049 132.956 150.079  1.00  0.00    -0.384 OA
ATOM     34  H   UNL     1     135.638 132.107 149.774  1.00  0.00     0.211 HD
ENDBRANCH  28  33
BRANCH  30  35
ATOM     35  O   UNL     1     136.398 130.540 151.556  1.00  0.00    -0.387 OA
ATOM     36  H   UNL     1     136.855 130.098 152.319  1.00  0.00     0.211 HD
ENDBRANCH  30  35
BRANCH  31  37
ATOM     37  C   UNL     1     141.285 131.171 151.056  1.00  0.00     0.191 C 
BRANCH  37  38
ATOM     38  O   UNL     1     141.234 130.937 152.436  1.00  0.00    -0.394 OA
ATOM     39  H   UNL     1     141.395 131.815 152.871  1.00  0.00     0.210 HD
ENDBRANCH  37  38
ENDBRANCH  31  37
BRANCH  32  40
ATOM     40  O   UNL     1     138.971 129.320 151.131  1.00  0.00    -0.387 OA
ATOM     41  H   UNL     1     139.927 129.127 151.318  1.00  0.00     0.211 HD
ENDBRANCH  32  40
ENDBRANCH   1  27
TORSDOF 12
ENDMDL
MODEL 6
REMARK VINA RESULT:    -6.243      7.742     12.392
REMARK INTER + INTRA:         -11.149
REMARK INTER:                 -10.244
REMARK INTRA:                  -0.905
REMARK UNBOUND:                -1.986
REMARK SMILES O=c1c(O[C@@H]2O[C@@H](CO)[C@H](O)[C@@H](O)[C@@H]2O)c(-c2ccc(O)c(O)c2)oc2cc(O)cc(O)c12
REMARK SMILES IDX 4 1 3 2 16 3 25 4 2 5 26 6 1 7 33 8 27 9 31 10 28 11 30 12
REMARK SMILES IDX 17 13 18 14 19 15 20 16 24 17 22 18 21 19 23 21 32 23 29 25
REMARK SMILES IDX 5 27 14 28 6 29 12 30 7 31 10 32 15 33 13 35 8 37 9 38 11 40
REMARK H PARENT 21 20 23 22 32 24 29 26 15 34 13 36 9 39 11 41
REMARK Flexibility Score: inf
ROOT
ATOM      1  O   UNL     1     139.450 131.399 146.795  1.00  0.00    -0.454 OA
ENDROOT
BRANCH   1   2
ATOM      2  C   UNL     1     138.259 132.059 147.163  1.00  0.00     0.214 A 
ATOM      3  C   UNL     1     138.032 132.297 148.536  1.00  0.00     0.180 A 
ATOM      4  O   UNL     1     136.955 132.963 148.933  1.00  0.00    -0.452 OA
ATOM      5  C   UNL     1     137.295 132.524 146.238  1.00  0.00     0.239 A 
ATOM      6  C   UNL     1     136.029 133.416 148.098  1.00  0.00     0.146 A 
ATOM      7  O   UNL     1     137.453 132.336 145.004  1.00  0.00    -0.285 OA
ATOM      8  C   UNL     1     136.153 133.210 146.705  1.00  0.00     0.111 A 
ATOM      9  C   UNL     1     134.925 134.100 148.617  1.00  0.00     0.094 A 
ATOM     10  C   UNL     1     135.141 133.705 145.846  1.00  0.00     0.134 A 
ATOM     11  C   UNL     1     133.930 134.585 147.762  1.00  0.00     0.123 A 
ATOM     12  C   UNL     1     134.041 134.387 146.385  1.00  0.00     0.093 A 
BRANCH   3  13
ATOM     13  C   UNL     1     138.986 131.842 149.572  1.00  0.00     0.025 A 
ATOM     14  C   UNL     1     138.620 130.884 150.528  1.00  0.00     0.016 A 
ATOM     15  C   UNL     1     139.531 130.475 151.502  1.00  0.00     0.051 A 
ATOM     16  C   UNL     1     140.817 131.026 151.553  1.00  0.00     0.157 A 
ATOM     17  C   UNL     1     140.266 132.415 149.634  1.00  0.00     0.062 A 
ATOM     18  C   UNL     1     141.188 132.013 150.609  1.00  0.00     0.158 A 
BRANCH  16  19
ATOM     19  O   UNL     1     141.683 130.570 152.549  1.00  0.00    -0.504 OA
ATOM     20  H   UNL     1     142.542 131.036 152.806  1.00  0.00     0.293 HD
ENDBRANCH  16  19
BRANCH  18  21
ATOM     21  O   UNL     1     142.446 132.616 150.604  1.00  0.00    -0.504 OA
ATOM     22  H   UNL     1     142.655 133.481 150.127  1.00  0.00     0.293 HD
ENDBRANCH  18  21
ENDBRANCH   3  13
BRANCH  10  23
ATOM     23  O   UNL     1     135.220 133.525 144.464  1.00  0.00    -0.507 OA
ATOM     24  H   UNL     1     134.504 133.877 143.838  1.00  0.00     0.293 HD
ENDBRANCH  10  23
BRANCH  11  25
ATOM     25  O   UNL     1     132.828 135.267 148.272  1.00  0.00    -0.508 OA
ATOM     26  H   UNL     1     132.628 136.225 148.007  1.00  0.00     0.293 HD
ENDBRANCH  11  25
ENDBRANCH   1   2
BRANCH   1  27
ATOM     27  C   UNL     1     140.253 131.634 145.633  1.00  0.00     0.339 C 
ATOM     28  C   UNL     1     141.469 132.509 145.992  1.00  0.00     0.214 C 
ATOM     29  O   UNL     1     140.667 130.418 145.027  1.00  0.00    -0.332 OA
ATOM     30  C   UNL     1     142.431 131.737 146.904  1.00  0.00     0.180 C 
ATOM     31  C   UNL     1     141.459 129.634 145.906  1.00  0.00     0.179 C 
ATOM     32  C   UNL     1     142.767 130.373 146.279  1.00  0.00     0.177 C 
BRANCH  28  33
ATOM     33  O   UNL     1     141.049 133.680 146.642  1.00  0.00    -0.384 OA
ATOM     34  H   UNL     1     140.446 134.156 146.014  1.00  0.00     0.211 HD
ENDBRANCH  28  33
BRANCH  30  35
ATOM     35  O   UNL     1     143.605 132.489 147.075  1.00  0.00    -0.387 OA
ATOM     36  H   UNL     1     143.344 133.332 147.532  1.00  0.00     0.211 HD
ENDBRANCH  30  35
BRANCH  31  37
ATOM     37  C   UNL     1     141.742 128.289 145.226  1.00  0.00     0.191 C 
BRANCH  37  38
ATOM     38  O   UNL     1     142.382 127.415 146.116  1.00  0.00    -0.394 OA
ATOM     39  H   UNL     1     141.693 126.761 146.403  1.00  0.00     0.210 HD
ENDBRANCH  37  38
ENDBRANCH  31  37
BRANCH  32  40
ATOM     40  O   UNL     1     143.502 129.616 147.210  1.00  0.00    -0.387 OA
ATOM     41  H   UNL     1     142.846 129.135 147.779  1.00  0.00     0.211 HD
ENDBRANCH  32  40
ENDBRANCH   1  27
TORSDOF 12
ENDMDL
MODEL 7
REMARK VINA RESULT:    -6.209      9.845     12.784
REMARK INTER + INTRA:         -11.100
REMARK INTER:                  -9.528
REMARK INTRA:                  -1.571
REMARK UNBOUND:                -1.986
REMARK SMILES O=c1c(O[C@@H]2O[C@@H](CO)[C@H](O)[C@@H](O)[C@@H]2O)c(-c2ccc(O)c(O)c2)oc2cc(O)cc(O)c12
REMARK SMILES IDX 4 1 3 2 16 3 25 4 2 5 26 6 1 7 33 8 27 9 31 10 28 11 30 12
REMARK SMILES IDX 17 13 18 14 19 15 20 16 24 17 22 18 21 19 23 21 32 23 29 25
REMARK SMILES IDX 5 27 14 28 6 29 12 30 7 31 10 32 15 33 13 35 8 37 9 38 11 40
REMARK H PARENT 21 20 23 22 32 24 29 26 15 34 13 36 9 39 11 41
REMARK Flexibility Score: inf
ROOT
ATOM      1  O   UNL     1     140.234 129.824 145.567  1.00  0.00    -0.454 OA
ENDROOT
BRANCH   1   2
ATOM      2  C   UNL     1     139.868 130.335 146.829  1.00  0.00     0.214 A 
ATOM      3  C   UNL     1     140.418 131.572 147.226  1.00  0.00     0.180 A 
ATOM      4  O   UNL     1     140.064 132.126 148.381  1.00  0.00    -0.452 OA
ATOM      5  C   UNL     1     138.960 129.697 147.707  1.00  0.00     0.239 A 
ATOM      6  C   UNL     1     139.216 131.561 149.229  1.00  0.00     0.146 A 
ATOM      7  O   UNL     1     138.444 128.592 147.397  1.00  0.00    -0.285 OA
ATOM      8  C   UNL     1     138.627 130.311 148.934  1.00  0.00     0.111 A 
ATOM      9  C   UNL     1     138.914 132.221 150.424  1.00  0.00     0.094 A 
ATOM     10  C   UNL     1     137.729 129.737 149.868  1.00  0.00     0.134 A 
ATOM     11  C   UNL     1     138.027 131.648 151.342  1.00  0.00     0.123 A 
ATOM     12  C   UNL     1     137.440 130.414 151.063  1.00  0.00     0.093 A 
BRANCH   3  13
ATOM     13  C   UNL     1     141.378 132.307 146.372  1.00  0.00     0.025 A 
ATOM     14  C   UNL     1     142.748 132.009 146.396  1.00  0.00     0.016 A 
ATOM     15  C   UNL     1     143.638 132.719 145.589  1.00  0.00     0.051 A 
ATOM     16  C   UNL     1     143.183 133.749 144.758  1.00  0.00     0.157 A 
ATOM     17  C   UNL     1     140.920 133.355 145.559  1.00  0.00     0.062 A 
ATOM     18  C   UNL     1     141.806 134.075 144.747  1.00  0.00     0.158 A 
BRANCH  16  19
ATOM     19  O   UNL     1     144.124 134.418 143.972  1.00  0.00    -0.504 OA
ATOM     20  H   UNL     1     143.987 134.639 142.996  1.00  0.00     0.293 HD
ENDBRANCH  16  19
BRANCH  18  21
ATOM     21  O   UNL     1     141.279 135.096 143.955  1.00  0.00    -0.504 OA
ATOM     22  H   UNL     1     140.356 135.488 144.079  1.00  0.00     0.293 HD
ENDBRANCH  18  21
ENDBRANCH   3  13
BRANCH  10  23
ATOM     23  O   UNL     1     137.124 128.504 149.621  1.00  0.00    -0.507 OA
ATOM     24  H   UNL     1     136.949 128.174 148.678  1.00  0.00     0.293 HD
ENDBRANCH  10  23
BRANCH  11  25
ATOM     25  O   UNL     1     137.722 132.301 152.535  1.00  0.00    -0.508 OA
ATOM     26  H   UNL     1     137.829 133.304 152.633  1.00  0.00     0.293 HD
ENDBRANCH  11  25
ENDBRANCH   1   2
BRANCH   1  27
ATOM     27  C   UNL     1     139.473 129.867 144.355  1.00  0.00     0.339 C 
ATOM     28  C   UNL     1     140.412 129.874 143.134  1.00  0.00     0.214 C 
ATOM     29  O   UNL     1     138.550 128.790 144.276  1.00  0.00    -0.332 OA
ATOM     30  C   UNL     1     141.142 128.530 143.014  1.00  0.00     0.180 C 
ATOM     31  C   UNL     1     139.206 127.532 144.289  1.00  0.00     0.179 C 
ATOM     32  C   UNL     1     140.126 127.376 143.053  1.00  0.00     0.177 C 
BRANCH  28  33
ATOM     33  O   UNL     1     141.355 130.908 143.254  1.00  0.00    -0.384 OA
ATOM     34  H   UNL     1     141.512 131.040 144.224  1.00  0.00     0.211 HD
ENDBRANCH  28  33
BRANCH  30  35
ATOM     35  O   UNL     1     141.856 128.501 141.805  1.00  0.00    -0.387 OA
ATOM     36  H   UNL     1     142.192 127.573 141.691  1.00  0.00     0.211 HD
ENDBRANCH  30  35
BRANCH  31  37
ATOM     37  C   UNL     1     138.137 126.433 144.341  1.00  0.00     0.191 C 
BRANCH  37  38
ATOM     38  O   UNL     1     137.792 126.149 145.670  1.00  0.00    -0.394 OA
ATOM     39  H   UNL     1     138.617 126.284 146.204  1.00  0.00     0.210 HD
ENDBRANCH  37  38
ENDBRANCH  31  37
BRANCH  32  40
ATOM     40  O   UNL     1     140.826 126.157 143.122  1.00  0.00    -0.387 OA
ATOM     41  H   UNL     1     141.697 126.344 143.560  1.00  0.00     0.211 HD
ENDBRANCH  32  40
ENDBRANCH   1  27
TORSDOF 12
ENDMDL
MODEL 8
REMARK VINA RESULT:    -6.183      4.884     10.900
REMARK INTER + INTRA:         -11.062
REMARK INTER:                  -9.116
REMARK INTRA:                  -1.946
REMARK UNBOUND:                -1.986
REMARK SMILES O=c1c(O[C@@H]2O[C@@H](CO)[C@H](O)[C@@H](O)[C@@H]2O)c(-c2ccc(O)c(O)c2)oc2cc(O)cc(O)c12
REMARK SMILES IDX 4 1 3 2 16 3 25 4 2 5 26 6 1 7 33 8 27 9 31 10 28 11 30 12
REMARK SMILES IDX 17 13 18 14 19 15 20 16 24 17 22 18 21 19 23 21 32 23 29 25
REMARK SMILES IDX 5 27 14 28 6 29 12 30 7 31 10 32 15 33 13 35 8 37 9 38 11 40
REMARK H PARENT 21 20 23 22 32 24 29 26 15 34 13 36 9 39 11 41
REMARK Flexibility Score: inf
ROOT
ATOM      1  O   UNL     1     139.774 134.136 146.973  1.00  0.00    -0.454 OA
ENDROOT
BRANCH   1   2
ATOM      2  C   UNL     1     138.577 134.777 146.589  1.00  0.00     0.214 A 
ATOM      3  C   UNL     1     137.433 134.576 147.390  1.00  0.00     0.180 A 
ATOM      4  O   UNL     1     136.296 135.200 147.106  1.00  0.00    -0.452 OA
ATOM      5  C   UNL     1     138.465 135.633 145.469  1.00  0.00     0.239 A 
ATOM      6  C   UNL     1     136.150 136.010 146.066  1.00  0.00     0.146 A 
ATOM      7  O   UNL     1     139.457 135.843 144.724  1.00  0.00    -0.285 OA
ATOM      8  C   UNL     1     137.231 136.261 145.191  1.00  0.00     0.111 A 
ATOM      9  C   UNL     1     134.908 136.614 145.848  1.00  0.00     0.094 A 
ATOM     10  C   UNL     1     137.035 137.128 144.088  1.00  0.00     0.134 A 
ATOM     11  C   UNL     1     134.721 137.470 144.757  1.00  0.00     0.123 A 
ATOM     12  C   UNL     1     135.780 137.723 143.884  1.00  0.00     0.093 A 
BRANCH   3  13
ATOM     13  C   UNL     1     137.461 133.695 148.579  1.00  0.00     0.025 A 
ATOM     14  C   UNL     1     137.772 134.198 149.851  1.00  0.00     0.016 A 
ATOM     15  C   UNL     1     137.800 133.349 150.957  1.00  0.00     0.051 A 
ATOM     16  C   UNL     1     137.538 131.981 150.815  1.00  0.00     0.157 A 
ATOM     17  C   UNL     1     137.221 132.320 148.428  1.00  0.00     0.062 A 
ATOM     18  C   UNL     1     137.250 131.459 149.532  1.00  0.00     0.158 A 
BRANCH  16  19
ATOM     19  O   UNL     1     137.578 131.186 151.963  1.00  0.00    -0.504 OA
ATOM     20  H   UNL     1     136.974 131.319 152.761  1.00  0.00     0.293 HD
ENDBRANCH  16  19
BRANCH  18  21
ATOM     21  O   UNL     1     136.989 130.106 149.310  1.00  0.00    -0.504 OA
ATOM     22  H   UNL     1     136.062 129.720 149.200  1.00  0.00     0.293 HD
ENDBRANCH  18  21
ENDBRANCH   3  13
BRANCH  10  23
ATOM     23  O   UNL     1     138.072 137.404 143.196  1.00  0.00    -0.507 OA
ATOM     24  H   UNL     1     138.345 138.354 142.972  1.00  0.00     0.293 HD
ENDBRANCH  10  23
BRANCH  11  25
ATOM     25  O   UNL     1     133.486 138.075 144.533  1.00  0.00    -0.508 OA
ATOM     26  H   UNL     1     132.663 137.529 144.305  1.00  0.00     0.293 HD
ENDBRANCH  11  25
ENDBRANCH   1   2
BRANCH   1  27
ATOM     27  C   UNL     1     140.263 132.866 146.529  1.00  0.00     0.339 C 
ATOM     28  C   UNL     1     141.670 133.019 145.920  1.00  0.00     0.214 C 
ATOM     29  O   UNL     1     140.269 131.910 147.579  1.00  0.00    -0.332 OA
ATOM     30  C   UNL     1     142.684 133.398 147.007  1.00  0.00     0.180 C 
ATOM     31  C   UNL     1     141.110 132.308 148.650  1.00  0.00     0.179 C 
ATOM     32  C   UNL     1     142.583 132.416 148.185  1.00  0.00     0.177 C 
BRANCH  28  33
ATOM     33  O   UNL     1     141.662 134.008 144.923  1.00  0.00    -0.384 OA
ATOM     34  H   UNL     1     141.401 134.857 145.366  1.00  0.00     0.211 HD
ENDBRANCH  28  33
BRANCH  30  35
ATOM     35  O   UNL     1     143.978 133.364 146.461  1.00  0.00    -0.387 OA
ATOM     36  H   UNL     1     143.947 132.745 145.685  1.00  0.00     0.211 HD
ENDBRANCH  30  35
BRANCH  31  37
ATOM     37  C   UNL     1     140.949 131.294 149.790  1.00  0.00     0.191 C 
BRANCH  37  38
ATOM     38  O   UNL     1     141.190 131.906 151.028  1.00  0.00    -0.394 OA
ATOM     39  H   UNL     1     142.175 131.906 151.148  1.00  0.00     0.210 HD
ENDBRANCH  37  38
ENDBRANCH  31  37
BRANCH  32  40
ATOM     40  O   UNL     1     143.389 132.885 149.238  1.00  0.00    -0.387 OA
ATOM     41  H   UNL     1     143.554 132.117 149.846  1.00  0.00     0.211 HD
ENDBRANCH  32  40
ENDBRANCH   1  27
TORSDOF 12
ENDMDL
MODEL 9
REMARK VINA RESULT:    -6.141      8.455     12.822
REMARK INTER + INTRA:         -11.000
REMARK INTER:                  -9.941
REMARK INTRA:                  -1.058
REMARK UNBOUND:                -1.986
REMARK SMILES O=c1c(O[C@@H]2O[C@@H](CO)[C@H](O)[C@@H](O)[C@@H]2O)c(-c2ccc(O)c(O)c2)oc2cc(O)cc(O)c12
REMARK SMILES IDX 4 1 3 2 16 3 25 4 2 5 26 6 1 7 33 8 27 9 31 10 28 11 30 12
REMARK SMILES IDX 17 13 18 14 19 15 20 16 24 17 22 18 21 19 23 21 32 23 29 25
REMARK SMILES IDX 5 27 14 28 6 29 12 30 7 31 10 32 15 33 13 35 8 37 9 38 11 40
REMARK H PARENT 21 20 23 22 32 24 29 26 15 34 13 36 9 39 11 41
REMARK Flexibility Score: inf
ROOT
ATOM      1  O   UNL     1     138.827 130.233 146.608  1.00  0.00    -0.454 OA
ENDROOT
BRANCH   1   2
ATOM      2  C   UNL     1     137.821 131.142 146.996  1.00  0.00     0.214 A 
ATOM      3  C   UNL     1     138.065 131.958 148.121  1.00  0.00     0.180 A 
ATOM      4  O   UNL     1     137.175 132.870 148.495  1.00  0.00    -0.452 OA
ATOM      5  C   UNL     1     136.597 131.306 146.306  1.00  0.00     0.239 A 
ATOM      6  C   UNL     1     136.018 133.056 147.875  1.00  0.00     0.146 A 
ATOM      7  O   UNL     1     136.334 130.602 145.297  1.00  0.00    -0.285 OA
ATOM      8  C   UNL     1     135.670 132.274 146.750  1.00  0.00     0.111 A 
ATOM      9  C   UNL     1     135.144 134.037 148.352  1.00  0.00     0.094 A 
ATOM     10  C   UNL     1     134.422 132.499 146.118  1.00  0.00     0.134 A 
ATOM     11  C   UNL     1     133.914 134.254 147.723  1.00  0.00     0.123 A 
ATOM     12  C   UNL     1     133.558 133.487 146.613  1.00  0.00     0.093 A 
BRANCH   3  13
ATOM     13  C   UNL     1     139.317 131.851 148.902  1.00  0.00     0.025 A 
ATOM     14  C   UNL     1     139.408 131.007 150.019  1.00  0.00     0.016 A 
ATOM     15  C   UNL     1     140.594 130.926 150.748  1.00  0.00     0.051 A 
ATOM     16  C   UNL     1     141.707 131.697 150.390  1.00  0.00     0.157 A 
ATOM     17  C   UNL     1     140.422 132.643 148.554  1.00  0.00     0.062 A 
ATOM     18  C   UNL     1     141.617 132.571 149.281  1.00  0.00     0.158 A 
BRANCH  16  19
ATOM     19  O   UNL     1     142.866 131.567 151.157  1.00  0.00    -0.504 OA
ATOM     20  H   UNL     1     142.961 131.918 152.099  1.00  0.00     0.293 HD
ENDBRANCH  16  19
BRANCH  18  21
ATOM     21  O   UNL     1     142.679 133.379 148.869  1.00  0.00    -0.504 OA
ATOM     22  H   UNL     1     143.235 133.942 149.496  1.00  0.00     0.293 HD
ENDBRANCH  18  21
ENDBRANCH   3  13
BRANCH  10  23
ATOM     23  O   UNL     1     134.034 131.751 145.005  1.00  0.00    -0.507 OA
ATOM     24  H   UNL     1     133.291 131.063 145.057  1.00  0.00     0.293 HD
ENDBRANCH  10  23
BRANCH  11  25
ATOM     25  O   UNL     1     133.038 135.230 148.194  1.00  0.00    -0.508 OA
ATOM     26  H   UNL     1     133.302 135.862 148.942  1.00  0.00     0.293 HD
ENDBRANCH  11  25
ENDBRANCH   1   2
BRANCH   1  27
ATOM     27  C   UNL     1     139.407 130.076 145.308  1.00  0.00     0.339 C 
ATOM     28  C   UNL     1     140.877 129.629 145.429  1.00  0.00     0.214 C 
ATOM     29  O   UNL     1     138.666 129.165 144.510  1.00  0.00    -0.332 OA
ATOM     30  C   UNL     1     140.956 128.206 145.997  1.00  0.00     0.180 C 
ATOM     31  C   UNL     1     138.627 127.869 145.087  1.00  0.00     0.179 C 
ATOM     32  C   UNL     1     140.049 127.265 145.186  1.00  0.00     0.177 C 
BRANCH  28  33
ATOM     33  O   UNL     1     141.583 130.506 146.268  1.00  0.00    -0.384 OA
ATOM     34  H   UNL     1     141.059 131.347 146.308  1.00  0.00     0.211 HD
ENDBRANCH  28  33
BRANCH  30  35
ATOM     35  O   UNL     1     142.287 127.761 145.936  1.00  0.00    -0.387 OA
ATOM     36  H   UNL     1     142.602 127.919 145.007  1.00  0.00     0.211 HD
ENDBRANCH  30  35
BRANCH  31  37
ATOM     37  C   UNL     1     137.698 126.992 144.238  1.00  0.00     0.191 C 
BRANCH  37  38
ATOM     38  O   UNL     1     137.060 126.035 145.039  1.00  0.00    -0.394 OA
ATOM     39  H   UNL     1     137.270 126.278 145.978  1.00  0.00     0.210 HD
ENDBRANCH  37  38
ENDBRANCH  31  37
BRANCH  32  40
ATOM     40  O   UNL     1     140.001 126.015 145.830  1.00  0.00    -0.387 OA
ATOM     41  H   UNL     1     140.928 125.660 145.851  1.00  0.00     0.211 HD
ENDBRANCH  32  40
ENDBRANCH   1  27
TORSDOF 12
ENDMDL
