MODEL 1
REMARK VINA RESULT:    -3.118      0.000      0.000
REMARK INTER + INTRA:         -13.848
REMARK INTER:                  -8.223
REMARK INTRA:                  -5.625
REMARK UNBOUND:                -5.625
REMARK SMILES CCCCCCCCCCCCCCCCCCCCCCCCCCCCCC(=O)[O-]
REMARK SMILES IDX 16 1 17 2 18 3 19 4 20 5 21 6 22 7 23 8 24 9 25 10 26 11
REMARK SMILES IDX 27 12 28 13 29 14 30 15 31 16 32 17 15 18 14 19 13 20 12 21
REMARK SMILES IDX 11 22 10 23 9 24 8 25 7 26 6 27 5 28 4 29 3 30 2 31 1 32
REMARK H PARENT
REMARK Flexibility Score: inf
ROOT
ATOM      1  C   UNL     1      57.503  27.156  53.880  1.00  0.00     0.000 C 
ENDROOT
BRANCH   1   2
ATOM      2  C   UNL     1      58.772  27.587  53.120  1.00  0.00     0.000 C 
BRANCH   2   3
ATOM      3  C   UNL     1      59.321  28.974  53.502  1.00  0.00     0.000 C 
BRANCH   3   4
ATOM      4  C   UNL     1      59.464  29.915  52.297  1.00  0.00     0.000 C 
BRANCH   4   5
ATOM      5  C   UNL     1      58.320  29.700  51.299  1.00  0.00     0.000 C 
BRANCH   5   6
ATOM      6  C   UNL     1      58.854  29.577  49.865  1.00  0.00     0.000 C 
BRANCH   6   7
ATOM      7  C   UNL     1      59.482  28.202  49.576  1.00  0.00     0.000 C 
BRANCH   7   8
ATOM      8  C   UNL     1      61.007  28.123  49.796  1.00  0.00     0.000 C 
BRANCH   8   9
ATOM      9  C   UNL     1      61.524  26.770  50.328  1.00  0.00     0.000 C 
BRANCH   9  10
ATOM     10  C   UNL     1      60.440  25.691  50.506  1.00  0.00     0.000 C 
BRANCH  10  11
ATOM     11  C   UNL     1      60.763  24.706  51.643  1.00  0.00     0.000 C 
BRANCH  11  12
ATOM     12  C   UNL     1      59.521  23.907  52.084  1.00  0.00     0.000 C 
BRANCH  12  13
ATOM     13  C   UNL     1      59.728  22.383  52.088  1.00  0.00     0.006 C 
BRANCH  13  14
ATOM     14  C   UNL     1      60.880  21.904  51.186  1.00  0.00     0.053 C 
BRANCH  14  15
ATOM     15  C   UNL     1      60.439  21.636  49.776  1.00  0.00     0.041 C 
ATOM     16  O   UNL     1      59.621  20.711  49.530  1.00  0.00    -0.550 OA
ATOM     17  O   UNL     1      60.986  22.363  48.723  1.00  0.00    -0.550 OA
ENDBRANCH  14  15
ENDBRANCH  13  14
ENDBRANCH  12  13
ENDBRANCH  11  12
ENDBRANCH  10  11
ENDBRANCH   9  10
ENDBRANCH   8   9
ENDBRANCH   7   8
ENDBRANCH   6   7
ENDBRANCH   5   6
ENDBRANCH   4   5
ENDBRANCH   3   4
ENDBRANCH   2   3
ENDBRANCH   1   2
BRANCH   1  18
ATOM     18  C   UNL     1      56.326  26.680  52.997  1.00  0.00     0.000 C 
BRANCH  18  19
ATOM     19  C   UNL     1      56.766  26.088  51.640  1.00  0.00     0.000 C 
BRANCH  19  20
ATOM     20  C   UNL     1      56.212  26.857  50.421  1.00  0.00     0.000 C 
BRANCH  20  21
ATOM     21  C   UNL     1      54.684  26.722  50.320  1.00  0.00     0.000 C 
BRANCH  21  22
ATOM     22  C   UNL     1      53.967  28.090  50.312  1.00  0.00     0.000 C 
BRANCH  22  23
ATOM     23  C   UNL     1      54.854  29.252  50.797  1.00  0.00     0.000 C 
BRANCH  23  24
ATOM     24  C   UNL     1      54.403  29.902  52.117  1.00  0.00    -0.000 C 
BRANCH  24  25
ATOM     25  C   UNL     1      53.434  29.013  52.915  1.00  0.00    -0.000 C 
BRANCH  25  26
ATOM     26  C   UNL     1      53.733  29.003  54.427  1.00  0.00    -0.000 C 
BRANCH  26  27
ATOM     27  C   UNL     1      55.039  29.705  54.846  1.00  0.00    -0.000 C 
BRANCH  27  28
ATOM     28  C   UNL     1      54.804  30.931  55.742  1.00  0.00    -0.000 C 
BRANCH  28  29
ATOM     29  C   UNL     1      56.064  31.802  55.825  1.00  0.00    -0.000 C 
BRANCH  29  30
ATOM     30  C   UNL     1      57.072  31.502  54.703  1.00  0.00    -0.000 C 
BRANCH  30  31
ATOM     31  C   UNL     1      57.045  32.528  53.552  1.00  0.00    -0.003 C 
ATOM     32  C   UNL     1      58.334  33.341  53.475  1.00  0.00     0.004 C 
ENDBRANCH  30  31
ENDBRANCH  29  30
ENDBRANCH  28  29
ENDBRANCH  27  28
ENDBRANCH  26  27
ENDBRANCH  25  26
ENDBRANCH  24  25
ENDBRANCH  23  24
ENDBRANCH  22  23
ENDBRANCH  21  22
ENDBRANCH  20  21
ENDBRANCH  19  20
ENDBRANCH  18  19
ENDBRANCH   1  18
TORSDOF 28
ENDMDL
MODEL 2
REMARK VINA RESULT:    -3.041      2.510      5.365
REMARK INTER + INTRA:         -13.645
REMARK INTER:                  -8.982
REMARK INTRA:                  -4.663
REMARK UNBOUND:                -5.625
REMARK SMILES CCCCCCCCCCCCCCCCCCCCCCCCCCCCCC(=O)[O-]
REMARK SMILES IDX 16 1 17 2 18 3 19 4 20 5 21 6 22 7 23 8 24 9 25 10 26 11
REMARK SMILES IDX 27 12 28 13 29 14 30 15 31 16 32 17 15 18 14 19 13 20 12 21
REMARK SMILES IDX 11 22 10 23 9 24 8 25 7 26 6 27 5 28 4 29 3 30 2 31 1 32
REMARK H PARENT
REMARK Flexibility Score: inf
ROOT
ATOM      1  C   UNL     1      61.378  26.199  50.603  1.00  0.00     0.000 C 
ENDROOT
BRANCH   1   2
ATOM      2  C   UNL     1      61.863  26.007  52.053  1.00  0.00     0.000 C 
BRANCH   2   3
ATOM      3  C   UNL     1      60.914  26.556  53.135  1.00  0.00     0.000 C 
BRANCH   3   4
ATOM      4  C   UNL     1      60.608  25.535  54.240  1.00  0.00     0.000 C 
BRANCH   4   5
ATOM      5  C   UNL     1      59.471  24.598  53.815  1.00  0.00     0.000 C 
BRANCH   5   6
ATOM      6  C   UNL     1      59.990  23.175  53.568  1.00  0.00     0.000 C 
BRANCH   6   7
ATOM      7  C   UNL     1      59.780  22.705  52.117  1.00  0.00     0.000 C 
BRANCH   7   8
ATOM      8  C   UNL     1      61.059  22.240  51.391  1.00  0.00     0.000 C 
BRANCH   8   9
ATOM      9  C   UNL     1      60.872  21.871  49.905  1.00  0.00     0.000 C 
BRANCH   9  10
ATOM     10  C   UNL     1      59.660  20.968  49.611  1.00  0.00     0.000 C 
BRANCH  10  11
ATOM     11  C   UNL     1      59.703  19.642  50.390  1.00  0.00     0.000 C 
BRANCH  11  12
ATOM     12  C   UNL     1      58.385  18.853  50.257  1.00  0.00     0.000 C 
BRANCH  12  13
ATOM     13  C   UNL     1      57.615  18.700  51.580  1.00  0.00     0.006 C 
BRANCH  13  14
ATOM     14  C   UNL     1      56.139  19.127  51.500  1.00  0.00     0.053 C 
BRANCH  14  15
ATOM     15  C   UNL     1      55.612  19.641  52.809  1.00  0.00     0.041 C 
ATOM     16  O   UNL     1      56.042  20.725  53.286  1.00  0.00    -0.550 OA
ATOM     17  O   UNL     1      54.696  18.889  53.537  1.00  0.00    -0.550 OA
ENDBRANCH  14  15
ENDBRANCH  13  14
ENDBRANCH  12  13
ENDBRANCH  11  12
ENDBRANCH  10  11
ENDBRANCH   9  10
ENDBRANCH   8   9
ENDBRANCH   7   8
ENDBRANCH   6   7
ENDBRANCH   5   6
ENDBRANCH   4   5
ENDBRANCH   3   4
ENDBRANCH   2   3
ENDBRANCH   1   2
BRANCH   1  18
ATOM     18  C   UNL     1      59.912  25.789  50.330  1.00  0.00     0.000 C 
BRANCH  18  19
ATOM     19  C   UNL     1      59.013  26.959  49.873  1.00  0.00     0.000 C 
BRANCH  19  20
ATOM     20  C   UNL     1      59.802  28.230  49.488  1.00  0.00     0.000 C 
BRANCH  20  21
ATOM     21  C   UNL     1      58.921  29.486  49.583  1.00  0.00     0.000 C 
BRANCH  21  22
ATOM     22  C   UNL     1      57.615  29.236  50.369  1.00  0.00     0.000 C 
BRANCH  22  23
ATOM     23  C   UNL     1      57.639  29.807  51.798  1.00  0.00     0.000 C 
BRANCH  23  24
ATOM     24  C   UNL     1      57.890  28.768  52.906  1.00  0.00    -0.000 C 
BRANCH  24  25
ATOM     25  C   UNL     1      56.621  27.983  53.281  1.00  0.00    -0.000 C 
BRANCH  25  26
ATOM     26  C   UNL     1      56.659  26.515  52.811  1.00  0.00    -0.000 C 
BRANCH  26  27
ATOM     27  C   UNL     1      55.412  26.036  52.044  1.00  0.00    -0.000 C 
BRANCH  27  28
ATOM     28  C   UNL     1      55.524  26.235  50.525  1.00  0.00    -0.000 C 
BRANCH  28  29
ATOM     29  C   UNL     1      54.191  26.705  49.931  1.00  0.00    -0.000 C 
BRANCH  29  30
ATOM     30  C   UNL     1      53.389  27.596  50.894  1.00  0.00    -0.000 C 
BRANCH  30  31
ATOM     31  C   UNL     1      53.085  29.001  50.334  1.00  0.00    -0.003 C 
ATOM     32  C   UNL     1      54.049  30.056  50.869  1.00  0.00     0.004 C 
ENDBRANCH  30  31
ENDBRANCH  29  30
ENDBRANCH  28  29
ENDBRANCH  27  28
ENDBRANCH  26  27
ENDBRANCH  25  26
ENDBRANCH  24  25
ENDBRANCH  23  24
ENDBRANCH  22  23
ENDBRANCH  21  22
ENDBRANCH  20  21
ENDBRANCH  19  20
ENDBRANCH  18  19
ENDBRANCH   1  18
TORSDOF 28
ENDMDL
MODEL 3
REMARK VINA RESULT:    -2.962      3.233      6.189
REMARK INTER + INTRA:         -13.436
REMARK INTER:                  -7.229
REMARK INTRA:                  -6.207
REMARK UNBOUND:                -5.625
REMARK SMILES CCCCCCCCCCCCCCCCCCCCCCCCCCCCCC(=O)[O-]
REMARK SMILES IDX 16 1 17 2 18 3 19 4 20 5 21 6 22 7 23 8 24 9 25 10 26 11
REMARK SMILES IDX 27 12 28 13 29 14 30 15 31 16 32 17 15 18 14 19 13 20 12 21
REMARK SMILES IDX 11 22 10 23 9 24 8 25 7 26 6 27 5 28 4 29 3 30 2 31 1 32
REMARK H PARENT
REMARK Flexibility Score: inf
ROOT
ATOM      1  C   UNL     1      59.151  29.184  50.652  1.00  0.00     0.000 C 
ENDROOT
BRANCH   1   2
ATOM      2  C   UNL     1      58.779  27.759  50.199  1.00  0.00     0.000 C 
BRANCH   2   3
ATOM      3  C   UNL     1      59.975  26.819  49.956  1.00  0.00     0.000 C 
BRANCH   3   4
ATOM      4  C   UNL     1      61.326  27.548  49.987  1.00  0.00     0.000 C 
BRANCH   4   5
ATOM      5  C   UNL     1      62.392  26.690  50.680  1.00  0.00     0.000 C 
BRANCH   5   6
ATOM      6  C   UNL     1      61.756  25.483  51.384  1.00  0.00     0.000 C 
BRANCH   6   7
ATOM      7  C   UNL     1      61.934  25.519  52.912  1.00  0.00     0.000 C 
BRANCH   7   8
ATOM      8  C   UNL     1      60.665  25.888  53.707  1.00  0.00     0.000 C 
BRANCH   8   9
ATOM      9  C   UNL     1      60.246  27.370  53.623  1.00  0.00     0.000 C 
BRANCH   9  10
ATOM     10  C   UNL     1      61.125  28.336  54.438  1.00  0.00     0.000 C 
BRANCH  10  11
ATOM     11  C   UNL     1      62.263  28.952  53.605  1.00  0.00     0.000 C 
BRANCH  11  12
ATOM     12  C   UNL     1      61.900  30.356  53.083  1.00  0.00     0.000 C 
BRANCH  12  13
ATOM     13  C   UNL     1      62.365  30.624  51.641  1.00  0.00     0.006 C 
BRANCH  13  14
ATOM     14  C   UNL     1      61.778  31.904  51.020  1.00  0.00     0.053 C 
BRANCH  14  15
ATOM     15  C   UNL     1      62.495  32.322  49.768  1.00  0.00     0.041 C 
ATOM     16  O   UNL     1      62.206  33.409  49.203  1.00  0.00    -0.550 OA
ATOM     17  O   UNL     1      63.434  31.476  49.186  1.00  0.00    -0.550 OA
ENDBRANCH  14  15
ENDBRANCH  13  14
ENDBRANCH  12  13
ENDBRANCH  11  12
ENDBRANCH  10  11
ENDBRANCH   9  10
ENDBRANCH   8   9
ENDBRANCH   7   8
ENDBRANCH   6   7
ENDBRANCH   5   6
ENDBRANCH   4   5
ENDBRANCH   3   4
ENDBRANCH   2   3
ENDBRANCH   1   2
BRANCH   1  18
ATOM     18  C   UNL     1      58.011  29.992  51.312  1.00  0.00     0.000 C 
BRANCH  18  19
ATOM     19  C   UNL     1      58.439  30.739  52.595  1.00  0.00     0.000 C 
BRANCH  19  20
ATOM     20  C   UNL     1      57.748  30.217  53.874  1.00  0.00     0.000 C 
BRANCH  20  21
ATOM     21  C   UNL     1      56.765  29.079  53.556  1.00  0.00     0.000 C 
BRANCH  21  22
ATOM     22  C   UNL     1      55.301  29.457  53.867  1.00  0.00     0.000 C 
BRANCH  22  23
ATOM     23  C   UNL     1      55.024  30.969  53.780  1.00  0.00     0.000 C 
BRANCH  23  24
ATOM     24  C   UNL     1      54.046  31.385  52.666  1.00  0.00    -0.000 C 
BRANCH  24  25
ATOM     25  C   UNL     1      53.246  30.196  52.107  1.00  0.00    -0.000 C 
BRANCH  25  26
ATOM     26  C   UNL     1      53.576  29.888  50.633  1.00  0.00    -0.000 C 
BRANCH  26  27
ATOM     27  C   UNL     1      53.746  28.394  50.294  1.00  0.00    -0.000 C 
BRANCH  27  28
ATOM     28  C   UNL     1      55.202  27.914  50.402  1.00  0.00    -0.000 C 
BRANCH  28  29
ATOM     29  C   UNL     1      55.265  26.426  50.766  1.00  0.00    -0.000 C 
BRANCH  29  30
ATOM     30  C   UNL     1      54.693  26.128  52.162  1.00  0.00    -0.000 C 
BRANCH  30  31
ATOM     31  C   UNL     1      55.706  25.469  53.122  1.00  0.00    -0.003 C 
ATOM     32  C   UNL     1      57.127  25.494  52.567  1.00  0.00     0.004 C 
ENDBRANCH  30  31
ENDBRANCH  29  30
ENDBRANCH  28  29
ENDBRANCH  27  28
ENDBRANCH  26  27
ENDBRANCH  25  26
ENDBRANCH  24  25
ENDBRANCH  23  24
ENDBRANCH  22  23
ENDBRANCH  21  22
ENDBRANCH  20  21
ENDBRANCH  19  20
ENDBRANCH  18  19
ENDBRANCH   1  18
TORSDOF 28
ENDMDL
MODEL 4
REMARK VINA RESULT:    -2.918      1.624      4.043
REMARK INTER + INTRA:         -13.320
REMARK INTER:                  -7.285
REMARK INTRA:                  -6.036
REMARK UNBOUND:                -5.625
REMARK SMILES CCCCCCCCCCCCCCCCCCCCCCCCCCCCCC(=O)[O-]
REMARK SMILES IDX 16 1 17 2 18 3 19 4 20 5 21 6 22 7 23 8 24 9 25 10 26 11
REMARK SMILES IDX 27 12 28 13 29 14 30 15 31 16 32 17 15 18 14 19 13 20 12 21
REMARK SMILES IDX 11 22 10 23 9 24 8 25 7 26 6 27 5 28 4 29 3 30 2 31 1 32
REMARK H PARENT
REMARK Flexibility Score: inf
ROOT
ATOM      1  C   UNL     1      54.790  30.040  54.335  1.00  0.00     0.000 C 
ENDROOT
BRANCH   1   2
ATOM      2  C   UNL     1      54.976  31.561  54.167  1.00  0.00     0.000 C 
BRANCH   2   3
ATOM      3  C   UNL     1      56.440  32.029  54.054  1.00  0.00     0.000 C 
BRANCH   3   4
ATOM      4  C   UNL     1      57.439  30.864  53.989  1.00  0.00     0.000 C 
BRANCH   4   5
ATOM      5  C   UNL     1      57.952  30.668  52.558  1.00  0.00     0.000 C 
BRANCH   5   6
ATOM      6  C   UNL     1      59.430  30.250  52.554  1.00  0.00     0.000 C 
BRANCH   6   7
ATOM      7  C   UNL     1      60.030  30.187  51.138  1.00  0.00     0.000 C 
BRANCH   7   8
ATOM      8  C   UNL     1      59.020  29.869  50.016  1.00  0.00     0.000 C 
BRANCH   8   9
ATOM      9  C   UNL     1      59.162  28.470  49.383  1.00  0.00     0.000 C 
BRANCH   9  10
ATOM     10  C   UNL     1      59.111  27.301  50.384  1.00  0.00     0.000 C 
BRANCH  10  11
ATOM     11  C   UNL     1      60.123  26.190  50.055  1.00  0.00     0.000 C 
BRANCH  11  12
ATOM     12  C   UNL     1      61.471  26.408  50.772  1.00  0.00     0.000 C 
BRANCH  12  13
ATOM     13  C   UNL     1      62.197  25.103  51.142  1.00  0.00     0.006 C 
BRANCH  13  14
ATOM     14  C   UNL     1      61.480  23.828  50.663  1.00  0.00     0.053 C 
BRANCH  14  15
ATOM     15  C   UNL     1      61.191  22.870  51.783  1.00  0.00     0.041 C 
ATOM     16  O   UNL     1      62.003  22.743  52.737  1.00  0.00    -0.550 OA
ATOM     17  O   UNL     1      60.057  22.065  51.738  1.00  0.00    -0.550 OA
ENDBRANCH  14  15
ENDBRANCH  13  14
ENDBRANCH  12  13
ENDBRANCH  11  12
ENDBRANCH  10  11
ENDBRANCH   9  10
ENDBRANCH   8   9
ENDBRANCH   7   8
ENDBRANCH   6   7
ENDBRANCH   5   6
ENDBRANCH   4   5
ENDBRANCH   3   4
ENDBRANCH   2   3
ENDBRANCH   1   2
BRANCH   1  18
ATOM     18  C   UNL     1      54.006  29.337  53.203  1.00  0.00     0.000 C 
BRANCH  18  19
ATOM     19  C   UNL     1      54.011  30.112  51.867  1.00  0.00     0.000 C 
BRANCH  19  20
ATOM     20  C   UNL     1      54.249  29.215  50.633  1.00  0.00     0.000 C 
BRANCH  20  21
ATOM     21  C   UNL     1      55.577  28.449  50.744  1.00  0.00     0.000 C 
BRANCH  21  22
ATOM     22  C   UNL     1      55.436  26.960  50.361  1.00  0.00     0.000 C 
BRANCH  22  23
ATOM     23  C   UNL     1      54.001  26.558  49.974  1.00  0.00     0.000 C 
BRANCH  23  24
ATOM     24  C   UNL     1      53.382  25.451  50.845  1.00  0.00    -0.000 C 
BRANCH  24  25
ATOM     25  C   UNL     1      53.210  25.878  52.313  1.00  0.00    -0.000 C 
BRANCH  25  26
ATOM     26  C   UNL     1      54.109  25.084  53.281  1.00  0.00    -0.000 C 
BRANCH  26  27
ATOM     27  C   UNL     1      55.115  25.926  54.089  1.00  0.00    -0.000 C 
BRANCH  27  28
ATOM     28  C   UNL     1      56.562  25.772  53.597  1.00  0.00    -0.000 C 
BRANCH  28  29
ATOM     29  C   UNL     1      57.303  27.115  53.636  1.00  0.00    -0.000 C 
BRANCH  29  30
ATOM     30  C   UNL     1      58.764  26.977  54.095  1.00  0.00    -0.000 C 
BRANCH  30  31
ATOM     31  C   UNL     1      59.415  25.635  53.704  1.00  0.00    -0.003 C 
ATOM     32  C   UNL     1      60.248  25.046  54.838  1.00  0.00     0.004 C 
ENDBRANCH  30  31
ENDBRANCH  29  30
ENDBRANCH  28  29
ENDBRANCH  27  28
ENDBRANCH  26  27
ENDBRANCH  25  26
ENDBRANCH  24  25
ENDBRANCH  23  24
ENDBRANCH  22  23
ENDBRANCH  21  22
ENDBRANCH  20  21
ENDBRANCH  19  20
ENDBRANCH  18  19
ENDBRANCH   1  18
TORSDOF 28
ENDMDL
MODEL 5
REMARK VINA RESULT:    -2.915      1.911      4.643
REMARK INTER + INTRA:         -13.311
REMARK INTER:                  -8.235
REMARK INTRA:                  -5.076
REMARK UNBOUND:                -5.625
REMARK SMILES CCCCCCCCCCCCCCCCCCCCCCCCCCCCCC(=O)[O-]
REMARK SMILES IDX 16 1 17 2 18 3 19 4 20 5 21 6 22 7 23 8 24 9 25 10 26 11
REMARK SMILES IDX 27 12 28 13 29 14 30 15 31 16 32 17 15 18 14 19 13 20 12 21
REMARK SMILES IDX 11 22 10 23 9 24 8 25 7 26 6 27 5 28 4 29 3 30 2 31 1 32
REMARK H PARENT
REMARK Flexibility Score: inf
ROOT
ATOM      1  C   UNL     1      59.135  25.971  53.539  1.00  0.00     0.000 C 
ENDROOT
BRANCH   1   2
ATOM      2  C   UNL     1      60.284  26.970  53.300  1.00  0.00     0.000 C 
BRANCH   2   3
ATOM      3  C   UNL     1      61.664  26.329  53.058  1.00  0.00     0.000 C 
BRANCH   3   4
ATOM      4  C   UNL     1      62.374  26.885  51.815  1.00  0.00     0.000 C 
BRANCH   4   5
ATOM      5  C   UNL     1      62.352  25.863  50.672  1.00  0.00     0.000 C 
BRANCH   5   6
ATOM      6  C   UNL     1      62.048  24.453  51.198  1.00  0.00     0.000 C 
BRANCH   6   7
ATOM      7  C   UNL     1      61.095  23.665  50.282  1.00  0.00     0.000 C 
BRANCH   7   8
ATOM      8  C   UNL     1      60.305  22.538  50.979  1.00  0.00     0.000 C 
BRANCH   8   9
ATOM      9  C   UNL     1      60.594  22.368  52.484  1.00  0.00     0.000 C 
BRANCH   9  10
ATOM     10  C   UNL     1      59.342  22.232  53.371  1.00  0.00     0.000 C 
BRANCH  10  11
ATOM     11  C   UNL     1      59.035  20.772  53.746  1.00  0.00     0.000 C 
BRANCH  11  12
ATOM     12  C   UNL     1      60.203  19.829  53.395  1.00  0.00     0.000 C 
BRANCH  12  13
ATOM     13  C   UNL     1      59.778  18.578  52.606  1.00  0.00     0.006 C 
BRANCH  13  14
ATOM     14  C   UNL     1      60.167  18.613  51.118  1.00  0.00     0.053 C 
BRANCH  14  15
ATOM     15  C   UNL     1      58.975  18.712  50.209  1.00  0.00     0.041 C 
ATOM     16  O   UNL     1      59.012  18.212  49.054  1.00  0.00    -0.550 OA
ATOM     17  O   UNL     1      57.847  19.419  50.613  1.00  0.00    -0.550 OA
ENDBRANCH  14  15
ENDBRANCH  13  14
ENDBRANCH  12  13
ENDBRANCH  11  12
ENDBRANCH  10  11
ENDBRANCH   9  10
ENDBRANCH   8   9
ENDBRANCH   7   8
ENDBRANCH   6   7
ENDBRANCH   5   6
ENDBRANCH   4   5
ENDBRANCH   3   4
ENDBRANCH   2   3
ENDBRANCH   1   2
BRANCH   1  18
ATOM     18  C   UNL     1      58.370  25.521  52.273  1.00  0.00     0.000 C 
BRANCH  18  19
ATOM     19  C   UNL     1      58.070  26.670  51.285  1.00  0.00     0.000 C 
BRANCH  19  20
ATOM     20  C   UNL     1      58.875  26.581  49.971  1.00  0.00     0.000 C 
BRANCH  20  21
ATOM     21  C   UNL     1      59.478  27.942  49.589  1.00  0.00     0.000 C 
BRANCH  21  22
ATOM     22  C   UNL     1      58.746  29.123  50.262  1.00  0.00     0.000 C 
BRANCH  22  23
ATOM     23  C   UNL     1      59.685  30.072  51.029  1.00  0.00     0.000 C 
BRANCH  23  24
ATOM     24  C   UNL     1      59.139  30.568  52.381  1.00  0.00    -0.000 C 
BRANCH  24  25
ATOM     25  C   UNL     1      57.909  29.773  52.851  1.00  0.00    -0.000 C 
BRANCH  25  26
ATOM     26  C   UNL     1      56.650  30.647  53.006  1.00  0.00    -0.000 C 
BRANCH  26  27
ATOM     27  C   UNL     1      55.312  29.883  53.012  1.00  0.00    -0.000 C 
BRANCH  27  28
ATOM     28  C   UNL     1      54.433  30.196  51.790  1.00  0.00    -0.000 C 
BRANCH  28  29
ATOM     29  C   UNL     1      54.659  29.171  50.672  1.00  0.00    -0.000 C 
BRANCH  29  30
ATOM     30  C   UNL     1      53.369  28.447  50.256  1.00  0.00    -0.000 C 
BRANCH  30  31
ATOM     31  C   UNL     1      53.427  26.916  50.441  1.00  0.00    -0.003 C 
ATOM     32  C   UNL     1      54.744  26.326  49.946  1.00  0.00     0.004 C 
ENDBRANCH  30  31
ENDBRANCH  29  30
ENDBRANCH  28  29
ENDBRANCH  27  28
ENDBRANCH  26  27
ENDBRANCH  25  26
ENDBRANCH  24  25
ENDBRANCH  23  24
ENDBRANCH  22  23
ENDBRANCH  21  22
ENDBRANCH  20  21
ENDBRANCH  19  20
ENDBRANCH  18  19
ENDBRANCH   1  18
TORSDOF 28
ENDMDL
MODEL 6
REMARK VINA RESULT:    -2.913      1.571      4.122
REMARK INTER + INTRA:         -13.307
REMARK INTER:                  -6.908
REMARK INTRA:                  -6.399
REMARK UNBOUND:                -5.625
REMARK SMILES CCCCCCCCCCCCCCCCCCCCCCCCCCCCCC(=O)[O-]
REMARK SMILES IDX 16 1 17 2 18 3 19 4 20 5 21 6 22 7 23 8 24 9 25 10 26 11
REMARK SMILES IDX 27 12 28 13 29 14 30 15 31 16 32 17 15 18 14 19 13 20 12 21
REMARK SMILES IDX 11 22 10 23 9 24 8 25 7 26 6 27 5 28 4 29 3 30 2 31 1 32
REMARK H PARENT
REMARK Flexibility Score: inf
ROOT
ATOM      1  C   UNL     1      54.630  26.715  50.120  1.00  0.00     0.000 C 
ENDROOT
BRANCH   1   2
ATOM      2  C   UNL     1      55.914  26.406  50.914  1.00  0.00     0.000 C 
BRANCH   2   3
ATOM      3  C   UNL     1      55.689  25.711  52.270  1.00  0.00     0.000 C 
BRANCH   3   4
ATOM      4  C   UNL     1      56.622  26.232  53.373  1.00  0.00     0.000 C 
BRANCH   4   5
ATOM      5  C   UNL     1      57.453  27.418  52.868  1.00  0.00     0.000 C 
BRANCH   5   6
ATOM      6  C   UNL     1      58.733  27.588  53.697  1.00  0.00     0.000 C 
BRANCH   6   7
ATOM      7  C   UNL     1      59.184  29.055  53.808  1.00  0.00     0.000 C 
BRANCH   7   8
ATOM      8  C   UNL     1      58.264  30.074  53.103  1.00  0.00     0.000 C 
BRANCH   8   9
ATOM      9  C   UNL     1      58.646  30.403  51.645  1.00  0.00     0.000 C 
BRANCH   9  10
ATOM     10  C   UNL     1      60.149  30.284  51.329  1.00  0.00     0.000 C 
BRANCH  10  11
ATOM     11  C   UNL     1      60.440  29.302  50.182  1.00  0.00     0.000 C 
BRANCH  11  12
ATOM     12  C   UNL     1      59.155  28.628  49.661  1.00  0.00     0.000 C 
BRANCH  12  13
ATOM     13  C   UNL     1      59.219  27.091  49.647  1.00  0.00     0.006 C 
BRANCH  13  14
ATOM     14  C   UNL     1      60.366  26.503  50.489  1.00  0.00     0.053 C 
BRANCH  14  15
ATOM     15  C   UNL     1      60.183  25.040  50.777  1.00  0.00     0.041 C 
ATOM     16  O   UNL     1      59.222  24.648  51.490  1.00  0.00    -0.550 OA
ATOM     17  O   UNL     1      61.115  24.116  50.316  1.00  0.00    -0.550 OA
ENDBRANCH  14  15
ENDBRANCH  13  14
ENDBRANCH  12  13
ENDBRANCH  11  12
ENDBRANCH  10  11
ENDBRANCH   9  10
ENDBRANCH   8   9
ENDBRANCH   7   8
ENDBRANCH   6   7
ENDBRANCH   5   6
ENDBRANCH   4   5
ENDBRANCH   3   4
ENDBRANCH   2   3
ENDBRANCH   1   2
BRANCH   1  18
ATOM     18  C   UNL     1      53.999  28.101  50.386  1.00  0.00     0.000 C 
BRANCH  18  19
ATOM     19  C   UNL     1      55.029  29.195  50.745  1.00  0.00     0.000 C 
BRANCH  19  20
ATOM     20  C   UNL     1      54.776  29.855  52.118  1.00  0.00     0.000 C 
BRANCH  20  21
ATOM     21  C   UNL     1      53.983  28.925  53.050  1.00  0.00     0.000 C 
BRANCH  21  22
ATOM     22  C   UNL     1      53.939  29.441  54.505  1.00  0.00     0.000 C 
BRANCH  22  23
ATOM     23  C   UNL     1      55.098  28.923  55.377  1.00  0.00     0.000 C 
BRANCH  23  24
ATOM     24  C   UNL     1      56.083  30.006  55.852  1.00  0.00    -0.000 C 
BRANCH  24  25
ATOM     25  C   UNL     1      55.405  31.089  56.709  1.00  0.00    -0.000 C 
BRANCH  25  26
ATOM     26  C   UNL     1      55.611  32.513  56.155  1.00  0.00    -0.000 C 
BRANCH  26  27
ATOM     27  C   UNL     1      54.954  32.790  54.789  1.00  0.00    -0.000 C 
BRANCH  27  28
ATOM     28  C   UNL     1      55.976  32.998  53.660  1.00  0.00    -0.000 C 
BRANCH  28  29
ATOM     29  C   UNL     1      57.317  33.491  54.215  1.00  0.00    -0.000 C 
BRANCH  29  30
ATOM     30  C   UNL     1      57.964  34.576  53.339  1.00  0.00    -0.000 C 
BRANCH  30  31
ATOM     31  C   UNL     1      59.500  34.647  53.468  1.00  0.00    -0.003 C 
ATOM     32  C   UNL     1      60.137  33.262  53.529  1.00  0.00     0.004 C 
ENDBRANCH  30  31
ENDBRANCH  29  30
ENDBRANCH  28  29
ENDBRANCH  27  28
ENDBRANCH  26  27
ENDBRANCH  25  26
ENDBRANCH  24  25
ENDBRANCH  23  24
ENDBRANCH  22  23
ENDBRANCH  21  22
ENDBRANCH  20  21
ENDBRANCH  19  20
ENDBRANCH  18  19
ENDBRANCH   1  18
TORSDOF 28
ENDMDL
MODEL 7
REMARK VINA RESULT:    -2.874      3.125      6.710
REMARK INTER + INTRA:         -13.204
REMARK INTER:                  -7.368
REMARK INTRA:                  -5.835
REMARK UNBOUND:                -5.625
REMARK SMILES CCCCCCCCCCCCCCCCCCCCCCCCCCCCCC(=O)[O-]
REMARK SMILES IDX 16 1 17 2 18 3 19 4 20 5 21 6 22 7 23 8 24 9 25 10 26 11
REMARK SMILES IDX 27 12 28 13 29 14 30 15 31 16 32 17 15 18 14 19 13 20 12 21
REMARK SMILES IDX 11 22 10 23 9 24 8 25 7 26 6 27 5 28 4 29 3 30 2 31 1 32
REMARK H PARENT
REMARK Flexibility Score: inf
ROOT
ATOM      1  C   UNL     1      56.184  27.430  50.757  1.00  0.00     0.000 C 
ENDROOT
BRANCH   1   2
ATOM      2  C   UNL     1      54.785  26.963  50.310  1.00  0.00     0.000 C 
BRANCH   2   3
ATOM      3  C   UNL     1      53.611  27.596  51.081  1.00  0.00     0.000 C 
BRANCH   3   4
ATOM      4  C   UNL     1      53.008  28.812  50.362  1.00  0.00     0.000 C 
BRANCH   4   5
ATOM      5  C   UNL     1      53.181  30.082  51.204  1.00  0.00     0.000 C 
BRANCH   5   6
ATOM      6  C   UNL     1      53.702  29.747  52.609  1.00  0.00     0.000 C 
BRANCH   6   7
ATOM      7  C   UNL     1      54.711  30.782  53.135  1.00  0.00     0.000 C 
BRANCH   7   8
ATOM      8  C   UNL     1      54.298  32.255  52.935  1.00  0.00     0.000 C 
BRANCH   8   9
ATOM      9  C   UNL     1      55.347  33.297  53.376  1.00  0.00     0.000 C 
BRANCH   9  10
ATOM     10  C   UNL     1      56.441  32.754  54.314  1.00  0.00     0.000 C 
BRANCH  10  11
ATOM     11  C   UNL     1      57.847  32.832  53.695  1.00  0.00     0.000 C 
BRANCH  11  12
ATOM     12  C   UNL     1      58.385  31.439  53.310  1.00  0.00     0.000 C 
BRANCH  12  13
ATOM     13  C   UNL     1      59.872  31.231  53.649  1.00  0.00     0.006 C 
BRANCH  13  14
ATOM     14  C   UNL     1      60.703  30.647  52.493  1.00  0.00     0.053 C 
BRANCH  14  15
ATOM     15  C   UNL     1      61.314  31.708  51.624  1.00  0.00     0.041 C 
ATOM     16  O   UNL     1      61.394  32.897  52.032  1.00  0.00    -0.550 OA
ATOM     17  O   UNL     1      61.733  31.399  50.334  1.00  0.00    -0.550 OA
ENDBRANCH  14  15
ENDBRANCH  13  14
ENDBRANCH  12  13
ENDBRANCH  11  12
ENDBRANCH  10  11
ENDBRANCH   9  10
ENDBRANCH   8   9
ENDBRANCH   7   8
ENDBRANCH   6   7
ENDBRANCH   5   6
ENDBRANCH   4   5
ENDBRANCH   3   4
ENDBRANCH   2   3
ENDBRANCH   1   2
BRANCH   1  18
ATOM     18  C   UNL     1      56.525  28.905  50.447  1.00  0.00     0.000 C 
BRANCH  18  19
ATOM     19  C   UNL     1      58.004  29.270  50.703  1.00  0.00     0.000 C 
BRANCH  19  20
ATOM     20  C   UNL     1      58.879  29.237  49.430  1.00  0.00     0.000 C 
BRANCH  20  21
ATOM     21  C   UNL     1      60.084  28.299  49.602  1.00  0.00     0.000 C 
BRANCH  21  22
ATOM     22  C   UNL     1      59.667  26.862  49.984  1.00  0.00     0.000 C 
BRANCH  22  23
ATOM     23  C   UNL     1      60.349  26.343  51.262  1.00  0.00     0.000 C 
BRANCH  23  24
ATOM     24  C   UNL     1      59.403  26.122  52.456  1.00  0.00    -0.000 C 
BRANCH  24  25
ATOM     25  C   UNL     1      59.427  27.293  53.455  1.00  0.00    -0.000 C 
BRANCH  25  26
ATOM     26  C   UNL     1      58.019  27.726  53.908  1.00  0.00    -0.000 C 
BRANCH  26  27
ATOM     27  C   UNL     1      57.873  28.023  55.413  1.00  0.00    -0.000 C 
BRANCH  27  28
ATOM     28  C   UNL     1      56.784  29.063  55.720  1.00  0.00    -0.000 C 
BRANCH  28  29
ATOM     29  C   UNL     1      57.300  30.130  56.694  1.00  0.00    -0.000 C 
BRANCH  29  30
ATOM     30  C   UNL     1      56.174  30.801  57.496  1.00  0.00    -0.000 C 
BRANCH  30  31
ATOM     31  C   UNL     1      54.780  30.660  56.849  1.00  0.00    -0.003 C 
ATOM     32  C   UNL     1      53.957  31.939  56.970  1.00  0.00     0.004 C 
ENDBRANCH  30  31
ENDBRANCH  29  30
ENDBRANCH  28  29
ENDBRANCH  27  28
ENDBRANCH  26  27
ENDBRANCH  25  26
ENDBRANCH  24  25
ENDBRANCH  23  24
ENDBRANCH  22  23
ENDBRANCH  21  22
ENDBRANCH  20  21
ENDBRANCH  19  20
ENDBRANCH  18  19
ENDBRANCH   1  18
TORSDOF 28
ENDMDL
MODEL 8
REMARK VINA RESULT:    -2.868      4.698      8.070
REMARK INTER + INTRA:         -13.188
REMARK INTER:                  -8.134
REMARK INTRA:                  -5.053
REMARK UNBOUND:                -5.625
REMARK SMILES CCCCCCCCCCCCCCCCCCCCCCCCCCCCCC(=O)[O-]
REMARK SMILES IDX 16 1 17 2 18 3 19 4 20 5 21 6 22 7 23 8 24 9 25 10 26 11
REMARK SMILES IDX 27 12 28 13 29 14 30 15 31 16 32 17 15 18 14 19 13 20 12 21
REMARK SMILES IDX 11 22 10 23 9 24 8 25 7 26 6 27 5 28 4 29 3 30 2 31 1 32
REMARK H PARENT
REMARK Flexibility Score: inf
ROOT
ATOM      1  C   UNL     1      54.084  30.001  50.731  1.00  0.00     0.000 C 
ENDROOT
BRANCH   1   2
ATOM      2  C   UNL     1      53.671  30.913  51.903  1.00  0.00     0.000 C 
BRANCH   2   3
ATOM      3  C   UNL     1      53.609  30.219  53.277  1.00  0.00     0.000 C 
BRANCH   3   4
ATOM      4  C   UNL     1      54.484  30.905  54.336  1.00  0.00     0.000 C 
BRANCH   4   5
ATOM      5  C   UNL     1      55.476  31.872  53.679  1.00  0.00     0.000 C 
BRANCH   5   6
ATOM      6  C   UNL     1      56.343  32.575  54.733  1.00  0.00     0.000 C 
BRANCH   6   7
ATOM      7  C   UNL     1      55.877  32.296  56.173  1.00  0.00     0.000 C 
BRANCH   7   8
ATOM      8  C   UNL     1      56.965  31.732  57.111  1.00  0.00     0.000 C 
BRANCH   8   9
ATOM      9  C   UNL     1      57.998  30.807  56.436  1.00  0.00     0.000 C 
BRANCH   9  10
ATOM     10  C   UNL     1      58.935  30.067  57.409  1.00  0.00     0.000 C 
BRANCH  10  11
ATOM     11  C   UNL     1      59.109  30.807  58.747  1.00  0.00     0.000 C 
BRANCH  11  12
ATOM     12  C   UNL     1      60.514  31.427  58.884  1.00  0.00     0.000 C 
BRANCH  12  13
ATOM     13  C   UNL     1      61.656  30.396  58.844  1.00  0.00     0.006 C 
BRANCH  13  14
ATOM     14  C   UNL     1      61.981  29.767  60.210  1.00  0.00     0.053 C 
BRANCH  14  15
ATOM     15  C   UNL     1      63.297  30.233  60.765  1.00  0.00     0.041 C 
ATOM     16  O   UNL     1      63.600  31.455  60.741  1.00  0.00    -0.550 OA
ATOM     17  O   UNL     1      64.219  29.309  61.244  1.00  0.00    -0.550 OA
ENDBRANCH  14  15
ENDBRANCH  13  14
ENDBRANCH  12  13
ENDBRANCH  11  12
ENDBRANCH  10  11
ENDBRANCH   9  10
ENDBRANCH   8   9
ENDBRANCH   7   8
ENDBRANCH   6   7
ENDBRANCH   5   6
ENDBRANCH   4   5
ENDBRANCH   3   4
ENDBRANCH   2   3
ENDBRANCH   1   2
BRANCH   1  18
ATOM     18  C   UNL     1      53.233  28.723  50.550  1.00  0.00     0.000 C 
BRANCH  18  19
ATOM     19  C   UNL     1      54.071  27.442  50.345  1.00  0.00     0.000 C 
BRANCH  19  20
ATOM     20  C   UNL     1      55.595  27.682  50.417  1.00  0.00     0.000 C 
BRANCH  20  21
ATOM     21  C   UNL     1      56.310  26.533  51.145  1.00  0.00     0.000 C 
BRANCH  21  22
ATOM     22  C   UNL     1      56.758  26.923  52.571  1.00  0.00     0.000 C 
BRANCH  22  23
ATOM     23  C   UNL     1      56.807  28.443  52.806  1.00  0.00     0.000 C 
BRANCH  23  24
ATOM     24  C   UNL     1      58.189  28.992  53.203  1.00  0.00    -0.000 C 
BRANCH  24  25
ATOM     25  C   UNL     1      58.538  30.303  52.475  1.00  0.00    -0.000 C 
BRANCH  25  26
ATOM     26  C   UNL     1      59.483  30.093  51.276  1.00  0.00    -0.000 C 
BRANCH  26  27
ATOM     27  C   UNL     1      58.788  29.889  49.916  1.00  0.00    -0.000 C 
BRANCH  27  28
ATOM     28  C   UNL     1      59.038  28.498  49.313  1.00  0.00    -0.000 C 
BRANCH  28  29
ATOM     29  C   UNL     1      60.212  27.799  50.010  1.00  0.00    -0.000 C 
BRANCH  29  30
ATOM     30  C   UNL     1      59.895  26.347  50.402  1.00  0.00    -0.000 C 
BRANCH  30  31
ATOM     31  C   UNL     1      60.278  25.996  51.855  1.00  0.00    -0.003 C 
ATOM     32  C   UNL     1      61.251  27.007  52.454  1.00  0.00     0.004 C 
ENDBRANCH  30  31
ENDBRANCH  29  30
ENDBRANCH  28  29
ENDBRANCH  27  28
ENDBRANCH  26  27
ENDBRANCH  25  26
ENDBRANCH  24  25
ENDBRANCH  23  24
ENDBRANCH  22  23
ENDBRANCH  21  22
ENDBRANCH  20  21
ENDBRANCH  19  20
ENDBRANCH  18  19
ENDBRANCH   1  18
TORSDOF 28
ENDMDL
MODEL 9
REMARK VINA RESULT:    -2.859      1.720      5.318
REMARK INTER + INTRA:         -13.163
REMARK INTER:                  -6.552
REMARK INTRA:                  -6.611
REMARK UNBOUND:                -5.625
REMARK SMILES CCCCCCCCCCCCCCCCCCCCCCCCCCCCCC(=O)[O-]
REMARK SMILES IDX 16 1 17 2 18 3 19 4 20 5 21 6 22 7 23 8 24 9 25 10 26 11
REMARK SMILES IDX 27 12 28 13 29 14 30 15 31 16 32 17 15 18 14 19 13 20 12 21
REMARK SMILES IDX 11 22 10 23 9 24 8 25 7 26 6 27 5 28 4 29 3 30 2 31 1 32
REMARK H PARENT
REMARK Flexibility Score: inf
ROOT
ATOM      1  C   UNL     1      54.654  26.700  50.211  1.00  0.00     0.000 C 
ENDROOT
BRANCH   1   2
ATOM      2  C   UNL     1      53.478  27.682  50.380  1.00  0.00     0.000 C 
BRANCH   2   3
ATOM      3  C   UNL     1      53.872  29.172  50.402  1.00  0.00     0.000 C 
BRANCH   3   4
ATOM      4  C   UNL     1      53.058  29.992  51.414  1.00  0.00     0.000 C 
BRANCH   4   5
ATOM      5  C   UNL     1      53.981  30.863  52.275  1.00  0.00     0.000 C 
BRANCH   5   6
ATOM      6  C   UNL     1      55.075  30.018  52.942  1.00  0.00     0.000 C 
BRANCH   6   7
ATOM      7  C   UNL     1      54.682  29.534  54.349  1.00  0.00     0.000 C 
BRANCH   7   8
ATOM      8  C   UNL     1      54.063  28.122  54.404  1.00  0.00     0.000 C 
BRANCH   8   9
ATOM      9  C   UNL     1      54.929  27.053  55.100  1.00  0.00     0.000 C 
BRANCH   9  10
ATOM     10  C   UNL     1      56.310  27.546  55.569  1.00  0.00     0.000 C 
BRANCH  10  11
ATOM     11  C   UNL     1      57.423  26.509  55.337  1.00  0.00     0.000 C 
BRANCH  11  12
ATOM     12  C   UNL     1      56.854  25.136  54.926  1.00  0.00     0.000 C 
BRANCH  12  13
ATOM     13  C   UNL     1      57.931  24.103  54.551  1.00  0.00     0.006 C 
BRANCH  13  14
ATOM     14  C   UNL     1      58.193  23.991  53.039  1.00  0.00     0.053 C 
BRANCH  14  15
ATOM     15  C   UNL     1      59.601  23.572  52.724  1.00  0.00     0.041 C 
ATOM     16  O   UNL     1      59.937  23.311  51.539  1.00  0.00    -0.550 OA
ATOM     17  O   UNL     1      60.524  23.401  53.751  1.00  0.00    -0.550 OA
ENDBRANCH  14  15
ENDBRANCH  13  14
ENDBRANCH  12  13
ENDBRANCH  11  12
ENDBRANCH  10  11
ENDBRANCH   9  10
ENDBRANCH   8   9
ENDBRANCH   7   8
ENDBRANCH   6   7
ENDBRANCH   5   6
ENDBRANCH   4   5
ENDBRANCH   3   4
ENDBRANCH   2   3
ENDBRANCH   1   2
BRANCH   1  18
ATOM     18  C   UNL     1      55.390  26.312  51.514  1.00  0.00     0.000 C 
BRANCH  18  19
ATOM     19  C   UNL     1      56.706  27.088  51.739  1.00  0.00     0.000 C 
BRANCH  19  20
ATOM     20  C   UNL     1      57.326  27.646  50.439  1.00  0.00     0.000 C 
BRANCH  20  21
ATOM     21  C   UNL     1      57.538  29.165  50.526  1.00  0.00     0.000 C 
BRANCH  21  22
ATOM     22  C   UNL     1      58.809  29.630  49.781  1.00  0.00     0.000 C 
BRANCH  22  23
ATOM     23  C   UNL     1      59.710  28.470  49.320  1.00  0.00     0.000 C 
BRANCH  23  24
ATOM     24  C   UNL     1      61.031  28.329  50.096  1.00  0.00    -0.000 C 
BRANCH  24  25
ATOM     25  C   UNL     1      61.271  26.896  50.603  1.00  0.00    -0.000 C 
BRANCH  25  26
ATOM     26  C   UNL     1      61.376  26.810  52.138  1.00  0.00    -0.000 C 
BRANCH  26  27
ATOM     27  C   UNL     1      60.090  27.170  52.908  1.00  0.00    -0.000 C 
BRANCH  27  28
ATOM     28  C   UNL     1      60.256  28.396  53.819  1.00  0.00    -0.000 C 
BRANCH  28  29
ATOM     29  C   UNL     1      59.098  29.385  53.628  1.00  0.00    -0.000 C 
BRANCH  29  30
ATOM     30  C   UNL     1      58.814  30.221  54.885  1.00  0.00    -0.000 C 
BRANCH  30  31
ATOM     31  C   UNL     1      58.588  31.720  54.598  1.00  0.00    -0.003 C 
ATOM     32  C   UNL     1      58.117  31.968  53.168  1.00  0.00     0.004 C 
ENDBRANCH  30  31
ENDBRANCH  29  30
ENDBRANCH  28  29
ENDBRANCH  27  28
ENDBRANCH  26  27
ENDBRANCH  25  26
ENDBRANCH  24  25
ENDBRANCH  23  24
ENDBRANCH  22  23
ENDBRANCH  21  22
ENDBRANCH  20  21
ENDBRANCH  19  20
ENDBRANCH  18  19
ENDBRANCH   1  18
TORSDOF 28
ENDMDL
