MODEL 1
REMARK VINA RESULT:     4.517      0.000      0.000
REMARK INTER + INTRA:           4.852
REMARK INTER:                   4.913
REMARK INTRA:                  -0.060
REMARK UNBOUND:                -0.060
REMARK SMILES COc1cc2ccc(=O)oc2cc1O
REMARK SMILES IDX 3 1 13 2 12 3 11 4 5 5 4 6 6 7 7 8 8 9 9 10 10 11 2 12 1 13
REMARK SMILES IDX 14 14
REMARK H PARENT 14 15
REMARK Flexibility Score: inf
ROOT
ATOM      1  C   UNL     1      -4.748  -1.529   0.790  1.00  0.00     0.161 A 
ATOM      2  C   UNL     1      -5.300  -1.620   2.078  1.00  0.00     0.161 A 
ATOM      3  C   UNL     1      -4.616  -1.089   3.181  1.00  0.00     0.098 A 
ATOM      4  C   UNL     1      -3.378  -0.465   3.008  1.00  0.00     0.142 A 
ATOM      5  C   UNL     1      -2.816  -0.370   1.718  1.00  0.00     0.022 A 
ATOM      6  C   UNL     1      -3.498  -0.900   0.615  1.00  0.00     0.062 A 
ATOM      7  C   UNL     1      -1.575   0.261   1.578  1.00  0.00     0.019 A 
ATOM      8  C   UNL     1      -0.935   0.772   2.706  1.00  0.00     0.094 A 
ATOM      9  C   UNL     1      -1.553   0.640   3.955  1.00  0.00     0.336 A 
ATOM     10  O   UNL     1      -0.992   1.095   4.985  1.00  0.00    -0.246 OA
ATOM     11  O   UNL     1      -2.735   0.036   4.060  1.00  0.00    -0.423 OA
ENDROOT
BRANCH   1  12
ATOM     12  O   UNL     1      -5.466  -2.074  -0.285  1.00  0.00    -0.493 OA
ATOM     13  C   UNL     1      -4.995  -3.125  -1.122  1.00  0.00     0.278 C 
ENDBRANCH   1  12
BRANCH   2  14
ATOM     14  O   UNL     1      -6.535  -2.243   2.252  1.00  0.00    -0.504 OA
ATOM     15  H   UNL     1      -7.065  -2.598   1.466  1.00  0.00     0.293 HD
ENDBRANCH   2  14
TORSDOF 2
ENDMDL
MODEL 2
REMARK VINA RESULT:     4.818      1.329      5.376
REMARK INTER + INTRA:           5.180
REMARK INTER:                   4.400
REMARK INTRA:                   0.780
REMARK UNBOUND:                -0.060
REMARK SMILES COc1cc2ccc(=O)oc2cc1O
REMARK SMILES IDX 3 1 13 2 12 3 11 4 5 5 4 6 6 7 7 8 8 9 9 10 10 11 2 12 1 13
REMARK SMILES IDX 14 14
REMARK H PARENT 14 15
REMARK Flexibility Score: inf
ROOT
ATOM      1  C   UNL     1      -2.851  -0.049   3.449  1.00  0.00     0.161 A 
ATOM      2  C   UNL     1      -2.324   0.313   2.199  1.00  0.00     0.161 A 
ATOM      3  C   UNL     1      -2.829  -0.263   1.024  1.00  0.00     0.098 A 
ATOM      4  C   UNL     1      -3.860  -1.203   1.087  1.00  0.00     0.142 A 
ATOM      5  C   UNL     1      -4.396  -1.573   2.339  1.00  0.00     0.022 A 
ATOM      6  C   UNL     1      -3.892  -0.998   3.513  1.00  0.00     0.062 A 
ATOM      7  C   UNL     1      -5.428  -2.516   2.369  1.00  0.00     0.019 A 
ATOM      8  C   UNL     1      -5.893  -3.060   1.173  1.00  0.00     0.094 A 
ATOM      9  C   UNL     1      -5.314  -2.646  -0.032  1.00  0.00     0.336 A 
ATOM     10  O   UNL     1      -5.721  -3.125  -1.122  1.00  0.00    -0.246 OA
ATOM     11  O   UNL     1      -4.334  -1.746  -0.032  1.00  0.00    -0.423 OA
ENDROOT
BRANCH   1  12
ATOM     12  O   UNL     1      -2.317   0.553   4.599  1.00  0.00    -0.493 OA
ATOM     13  C   UNL     1      -0.978   1.021   4.716  1.00  0.00     0.278 C 
ENDBRANCH   1  12
BRANCH   2  14
ATOM     14  O   UNL     1      -1.295   1.251   2.133  1.00  0.00    -0.504 OA
ATOM     15  H   UNL     1      -0.951   1.598   1.246  1.00  0.00     0.293 HD
ENDBRANCH   2  14
TORSDOF 2
ENDMDL
MODEL 3
REMARK VINA RESULT:     5.785      1.238      4.866
REMARK INTER + INTRA:           6.232
REMARK INTER:                   6.274
REMARK INTRA:                  -0.043
REMARK UNBOUND:                -0.060
REMARK SMILES COc1cc2ccc(=O)oc2cc1O
REMARK SMILES IDX 3 1 13 2 12 3 11 4 5 5 4 6 6 7 7 8 8 9 9 10 10 11 2 12 1 13
REMARK SMILES IDX 14 14
REMARK H PARENT 14 15
REMARK Flexibility Score: inf
ROOT
ATOM      1  C   UNL     1      -2.022   0.188   2.519  1.00  0.00     0.161 A 
ATOM      2  C   UNL     1      -2.848  -0.038   3.632  1.00  0.00     0.161 A 
ATOM      3  C   UNL     1      -4.037  -0.769   3.493  1.00  0.00     0.098 A 
ATOM      4  C   UNL     1      -4.409  -1.278   2.247  1.00  0.00     0.142 A 
ATOM      5  C   UNL     1      -3.585  -1.056   1.124  1.00  0.00     0.022 A 
ATOM      6  C   UNL     1      -2.397  -0.326   1.261  1.00  0.00     0.062 A 
ATOM      7  C   UNL     1      -3.985  -1.579  -0.110  1.00  0.00     0.019 A 
ATOM      8  C   UNL     1      -5.176  -2.298  -0.195  1.00  0.00     0.094 A 
ATOM      9  C   UNL     1      -5.943  -2.479   0.961  1.00  0.00     0.336 A 
ATOM     10  O   UNL     1      -7.022  -3.125   0.905  1.00  0.00    -0.246 OA
ATOM     11  O   UNL     1      -5.539  -1.971   2.123  1.00  0.00    -0.423 OA
ENDROOT
BRANCH   1  12
ATOM     12  O   UNL     1      -0.841   0.924   2.703  1.00  0.00    -0.493 OA
ATOM     13  C   UNL     1       0.425   0.354   3.021  1.00  0.00     0.278 C 
ENDBRANCH   1  12
BRANCH   2  14
ATOM     14  O   UNL     1      -2.478   0.470   4.876  1.00  0.00    -0.504 OA
ATOM     15  H   UNL     1      -2.260  -0.142   5.654  1.00  0.00     0.293 HD
ENDBRANCH   2  14
TORSDOF 2
ENDMDL
MODEL 4
REMARK VINA RESULT:     7.308      1.253      2.246
REMARK INTER + INTRA:           7.889
REMARK INTER:                   7.549
REMARK INTRA:                   0.339
REMARK UNBOUND:                -0.060
REMARK SMILES COc1cc2ccc(=O)oc2cc1O
REMARK SMILES IDX 3 1 13 2 12 3 11 4 5 5 4 6 6 7 7 8 8 9 9 10 10 11 2 12 1 13
REMARK SMILES IDX 14 14
REMARK H PARENT 14 15
REMARK Flexibility Score: inf
ROOT
ATOM      1  C   UNL     1      -5.043  -1.362   1.396  1.00  0.00     0.161 A 
ATOM      2  C   UNL     1      -4.154  -1.120   0.336  1.00  0.00     0.161 A 
ATOM      3  C   UNL     1      -2.887  -0.573   0.587  1.00  0.00     0.098 A 
ATOM      4  C   UNL     1      -2.499  -0.263   1.892  1.00  0.00     0.142 A 
ATOM      5  C   UNL     1      -3.387  -0.503   2.963  1.00  0.00     0.022 A 
ATOM      6  C   UNL     1      -4.652  -1.049   2.714  1.00  0.00     0.062 A 
ATOM      7  C   UNL     1      -2.969  -0.182   4.258  1.00  0.00     0.019 A 
ATOM      8  C   UNL     1      -1.700   0.360   4.454  1.00  0.00     0.094 A 
ATOM      9  C   UNL     1      -0.873   0.571   3.345  1.00  0.00     0.336 A 
ATOM     10  O   UNL     1       0.276   1.059   3.500  1.00  0.00    -0.246 OA
ATOM     11  O   UNL     1      -1.295   0.256   2.122  1.00  0.00    -0.423 OA
ENDROOT
BRANCH   1  12
ATOM     12  O   UNL     1      -6.301  -1.911   1.100  1.00  0.00    -0.493 OA
ATOM     13  C   UNL     1      -6.503  -3.125   0.385  1.00  0.00     0.278 C 
ENDBRANCH   1  12
BRANCH   2  14
ATOM     14  O   UNL     1      -4.539  -1.429  -0.967  1.00  0.00    -0.504 OA
ATOM     15  H   UNL     1      -5.514  -1.525  -1.223  1.00  0.00     0.293 HD
ENDBRANCH   2  14
TORSDOF 2
ENDMDL
MODEL 5
REMARK VINA RESULT:     7.407      1.203      4.865
REMARK INTER + INTRA:           7.997
REMARK INTER:                   7.861
REMARK INTRA:                   0.136
REMARK UNBOUND:                -0.060
REMARK SMILES COc1cc2ccc(=O)oc2cc1O
REMARK SMILES IDX 3 1 13 2 12 3 11 4 5 5 4 6 6 7 7 8 8 9 9 10 10 11 2 12 1 13
REMARK SMILES IDX 14 14
REMARK H PARENT 14 15
REMARK Flexibility Score: inf
ROOT
ATOM      1  C   UNL     1      -1.379   0.217   2.585  1.00  0.00     0.161 A 
ATOM      2  C   UNL     1      -2.161   0.299   3.748  1.00  0.00     0.161 A 
ATOM      3  C   UNL     1      -3.487  -0.159   3.743  1.00  0.00     0.098 A 
ATOM      4  C   UNL     1      -4.041  -0.699   2.580  1.00  0.00     0.142 A 
ATOM      5  C   UNL     1      -3.262  -0.785   1.407  1.00  0.00     0.022 A 
ATOM      6  C   UNL     1      -1.938  -0.329   1.411  1.00  0.00     0.062 A 
ATOM      7  C   UNL     1      -3.845  -1.332   0.260  1.00  0.00     0.019 A 
ATOM      8  C   UNL     1      -5.168  -1.771   0.306  1.00  0.00     0.094 A 
ATOM      9  C   UNL     1      -5.880  -1.654   1.505  1.00  0.00     0.336 A 
ATOM     10  O   UNL     1      -7.074  -2.046   1.567  1.00  0.00    -0.246 OA
ATOM     11  O   UNL     1      -5.300  -1.131   2.583  1.00  0.00    -0.423 OA
ENDROOT
BRANCH   1  12
ATOM     12  O   UNL     1      -0.057   0.686   2.635  1.00  0.00    -0.493 OA
ATOM     13  C   UNL     1       0.996   0.055   3.356  1.00  0.00     0.278 C 
ENDBRANCH   1  12
BRANCH   2  14
ATOM     14  O   UNL     1      -1.611   0.838   4.909  1.00  0.00    -0.504 OA
ATOM     15  H   UNL     1      -1.105   0.263   5.572  1.00  0.00     0.293 HD
ENDBRANCH   2  14
TORSDOF 2
ENDMDL
MODEL 6
REMARK VINA RESULT:     7.419      0.636      0.636
REMARK INTER + INTRA:           8.009
REMARK INTER:                   8.057
REMARK INTRA:                  -0.048
REMARK UNBOUND:                -0.060
REMARK SMILES COc1cc2ccc(=O)oc2cc1O
REMARK SMILES IDX 3 1 13 2 12 3 11 4 5 5 4 6 6 7 7 8 8 9 9 10 10 11 2 12 1 13
REMARK SMILES IDX 14 14
REMARK H PARENT 14 15
REMARK Flexibility Score: inf
ROOT
ATOM      1  C   UNL     1      -4.769  -1.225   1.192  1.00  0.00     0.161 A 
ATOM      2  C   UNL     1      -5.037  -1.466   2.549  1.00  0.00     0.161 A 
ATOM      3  C   UNL     1      -4.123  -1.063   3.533  1.00  0.00     0.098 A 
ATOM      4  C   UNL     1      -2.937  -0.419   3.172  1.00  0.00     0.142 A 
ATOM      5  C   UNL     1      -2.660  -0.172   1.811  1.00  0.00     0.022 A 
ATOM      6  C   UNL     1      -3.573  -0.574   0.827  1.00  0.00     0.062 A 
ATOM      7  C   UNL     1      -1.465   0.476   1.482  1.00  0.00     0.019 A 
ATOM      8  C   UNL     1      -0.589   0.855   2.497  1.00  0.00     0.094 A 
ATOM      9  C   UNL     1      -0.930   0.578   3.826  1.00  0.00     0.336 A 
ATOM     10  O   UNL     1      -0.153   0.913   4.757  1.00  0.00    -0.246 OA
ATOM     11  O   UNL     1      -2.074  -0.039   4.112  1.00  0.00    -0.423 OA
ENDROOT
BRANCH   1  12
ATOM     12  O   UNL     1      -5.712  -1.644   0.240  1.00  0.00    -0.493 OA
ATOM     13  C   UNL     1      -5.393  -2.047  -1.087  1.00  0.00     0.278 C 
ENDBRANCH   1  12
BRANCH   2  14
ATOM     14  O   UNL     1      -6.219  -2.109   2.912  1.00  0.00    -0.504 OA
ATOM     15  H   UNL     1      -7.053  -2.046   2.341  1.00  0.00     0.293 HD
ENDBRANCH   2  14
TORSDOF 2
ENDMDL
