MODEL 1
REMARK VINA RESULT:    -3.447      0.000      0.000
REMARK INTER + INTRA:          -4.126
REMARK INTER:                  -4.051
REMARK INTRA:                  -0.075
REMARK UNBOUND:                -0.075
REMARK SMILES O=C([O-])CCC(=O)[O-]
REMARK SMILES IDX 4 1 2 2 1 3 3 4 5 5 6 6 7 7 8 8
REMARK H PARENT
REMARK Flexibility Score: inf
ROOT
ATOM      1  C   UNL     1      -1.555   5.290  -1.182  1.00  0.00     0.059 C 
ENDROOT
BRANCH   1   2
ATOM      2  C   UNL     1      -0.621   6.426  -1.467  1.00  0.00     0.042 C 
ATOM      3  O   UNL     1      -0.772   7.125  -2.503  1.00  0.00    -0.550 OA
ATOM      4  O   UNL     1       0.392   6.738  -0.567  1.00  0.00    -0.550 OA
ENDBRANCH   1   2
BRANCH   1   5
ATOM      5  C   UNL     1      -3.006   5.655  -1.512  1.00  0.00     0.059 C 
BRANCH   5   6
ATOM      6  C   UNL     1      -3.848   5.746  -0.276  1.00  0.00     0.042 C 
ATOM      7  O   UNL     1      -5.092   5.921  -0.369  1.00  0.00    -0.550 OA
ATOM      8  O   UNL     1      -3.265   5.599   0.976  1.00  0.00    -0.550 OA
ENDBRANCH   5   6
ENDBRANCH   1   5
TORSDOF 3
ENDMDL
MODEL 2
REMARK VINA RESULT:    -3.327      1.206      3.921
REMARK INTER + INTRA:          -3.986
REMARK INTER:                  -3.879
REMARK INTRA:                  -0.107
REMARK UNBOUND:                -0.075
REMARK SMILES O=C([O-])CCC(=O)[O-]
REMARK SMILES IDX 4 1 2 2 1 3 3 4 5 5 6 6 7 7 8 8
REMARK H PARENT
REMARK Flexibility Score: inf
ROOT
ATOM      1  C   UNL     1      -3.191   5.983  -0.111  1.00  0.00     0.059 C 
ENDROOT
BRANCH   1   2
ATOM      2  C   UNL     1      -4.507   5.634  -0.737  1.00  0.00     0.042 C 
ATOM      3  O   UNL     1      -4.571   5.364  -1.965  1.00  0.00    -0.550 OA
ATOM      4  O   UNL     1      -5.654   5.568   0.044  1.00  0.00    -0.550 OA
ENDBRANCH   1   2
BRANCH   1   5
ATOM      5  C   UNL     1      -2.049   5.139  -0.688  1.00  0.00     0.059 C 
BRANCH   5   6
ATOM      6  C   UNL     1      -1.029   5.991  -1.381  1.00  0.00     0.042 C 
ATOM      7  O   UNL     1      -1.109   6.191  -2.622  1.00  0.00    -0.550 OA
ATOM      8  O   UNL     1      -0.014   6.594  -0.650  1.00  0.00    -0.550 OA
ENDBRANCH   5   6
ENDBRANCH   1   5
TORSDOF 3
ENDMDL
MODEL 3
REMARK VINA RESULT:    -3.262     14.648     15.381
REMARK INTER + INTRA:          -3.909
REMARK INTER:                  -3.873
REMARK INTRA:                  -0.035
REMARK UNBOUND:                -0.075
REMARK SMILES O=C([O-])CCC(=O)[O-]
REMARK SMILES IDX 4 1 2 2 1 3 3 4 5 5 6 6 7 7 8 8
REMARK H PARENT
REMARK Flexibility Score: inf
ROOT
ATOM      1  C   UNL     1       2.656  -5.657  -8.254  1.00  0.00     0.059 C 
ENDROOT
BRANCH   1   2
ATOM      2  C   UNL     1       1.850  -4.509  -7.729  1.00  0.00     0.042 C 
ATOM      3  O   UNL     1       1.598  -4.424  -6.499  1.00  0.00    -0.550 OA
ATOM      4  O   UNL     1       1.412  -3.513  -8.593  1.00  0.00    -0.550 OA
ENDBRANCH   1   2
BRANCH   1   5
ATOM      5  C   UNL     1       1.978  -6.320  -9.458  1.00  0.00     0.059 C 
BRANCH   5   6
ATOM      6  C   UNL     1       2.073  -7.814  -9.391  1.00  0.00     0.042 C 
ATOM      7  O   UNL     1       3.012  -8.361  -8.752  1.00  0.00    -0.550 OA
ATOM      8  O   UNL     1       1.105  -8.602 -10.001  1.00  0.00    -0.550 OA
ENDBRANCH   5   6
ENDBRANCH   1   5
TORSDOF 3
ENDMDL
MODEL 4
REMARK VINA RESULT:    -3.208      1.587      4.048
REMARK INTER + INTRA:          -3.846
REMARK INTER:                  -3.759
REMARK INTRA:                  -0.087
REMARK UNBOUND:                -0.075
REMARK SMILES O=C([O-])CCC(=O)[O-]
REMARK SMILES IDX 4 1 2 2 1 3 3 4 5 5 6 6 7 7 8 8
REMARK H PARENT
REMARK Flexibility Score: inf
ROOT
ATOM      1  C   UNL     1      -4.603   5.306  -1.761  1.00  0.00     0.059 C 
ENDROOT
BRANCH   1   2
ATOM      2  C   UNL     1      -5.605   6.003  -0.892  1.00  0.00     0.042 C 
ATOM      3  O   UNL     1      -6.068   7.123  -1.233  1.00  0.00    -0.550 OA
ATOM      4  O   UNL     1      -6.056   5.397   0.274  1.00  0.00    -0.550 OA
ENDBRANCH   1   2
BRANCH   1   5
ATOM      5  C   UNL     1      -3.293   6.095  -1.859  1.00  0.00     0.059 C 
BRANCH   5   6
ATOM      6  C   UNL     1      -2.226   5.504  -0.989  1.00  0.00     0.042 C 
ATOM      7  O   UNL     1      -1.088   5.250  -1.466  1.00  0.00    -0.550 OA
ATOM      8  O   UNL     1      -2.476   5.271   0.358  1.00  0.00    -0.550 OA
ENDBRANCH   5   6
ENDBRANCH   1   5
TORSDOF 3
ENDMDL
MODEL 5
REMARK VINA RESULT:    -3.170      1.736      2.794
REMARK INTER + INTRA:          -3.801
REMARK INTER:                  -3.688
REMARK INTRA:                  -0.113
REMARK UNBOUND:                -0.075
REMARK SMILES O=C([O-])CCC(=O)[O-]
REMARK SMILES IDX 4 1 2 2 1 3 3 4 5 5 6 6 7 7 8 8
REMARK H PARENT
REMARK Flexibility Score: inf
ROOT
ATOM      1  C   UNL     1      -3.729   5.608  -1.499  1.00  0.00     0.059 C 
ENDROOT
BRANCH   1   2
ATOM      2  C   UNL     1      -2.543   5.297  -0.639  1.00  0.00     0.042 C 
ATOM      3  O   UNL     1      -1.412   5.117  -1.162  1.00  0.00    -0.550 OA
ATOM      4  O   UNL     1      -2.679   5.246   0.743  1.00  0.00    -0.550 OA
ENDBRANCH   1   2
BRANCH   1   5
ATOM      5  C   UNL     1      -4.633   6.664  -0.855  1.00  0.00     0.059 C 
BRANCH   5   6
ATOM      6  C   UNL     1      -6.012   6.133  -0.606  1.00  0.00     0.042 C 
ATOM      7  O   UNL     1      -6.229   5.367   0.370  1.00  0.00    -0.550 OA
ATOM      8  O   UNL     1      -7.065   6.515  -1.428  1.00  0.00    -0.550 OA
ENDBRANCH   5   6
ENDBRANCH   1   5
TORSDOF 3
ENDMDL
MODEL 6
REMARK VINA RESULT:    -3.139      1.668      2.375
REMARK INTER + INTRA:          -3.765
REMARK INTER:                  -3.647
REMARK INTRA:                  -0.118
REMARK UNBOUND:                -0.075
REMARK SMILES O=C([O-])CCC(=O)[O-]
REMARK SMILES IDX 4 1 2 2 1 3 3 4 5 5 6 6 7 7 8 8
REMARK H PARENT
REMARK Flexibility Score: inf
ROOT
ATOM      1  C   UNL     1      -1.472   5.649  -1.938  1.00  0.00     0.059 C 
ENDROOT
BRANCH   1   2
ATOM      2  C   UNL     1      -0.955   6.246  -0.664  1.00  0.00     0.042 C 
ATOM      3  O   UNL     1      -1.669   6.237   0.373  1.00  0.00    -0.550 OA
ATOM      4  O   UNL     1       0.329   6.774  -0.613  1.00  0.00    -0.550 OA
ENDBRANCH   1   2
BRANCH   1   5
ATOM      5  C   UNL     1      -2.468   6.581  -2.636  1.00  0.00     0.059 C 
BRANCH   5   6
ATOM      6  C   UNL     1      -3.866   6.046  -2.568  1.00  0.00     0.042 C 
ATOM      7  O   UNL     1      -4.192   5.241  -1.655  1.00  0.00    -0.550 OA
ATOM      8  O   UNL     1      -4.818   6.467  -3.488  1.00  0.00    -0.550 OA
ENDBRANCH   5   6
ENDBRANCH   1   5
TORSDOF 3
ENDMDL
MODEL 7
REMARK VINA RESULT:    -3.122     16.918     17.889
REMARK INTER + INTRA:          -3.744
REMARK INTER:                  -3.626
REMARK INTRA:                  -0.118
REMARK UNBOUND:                -0.075
REMARK SMILES O=C([O-])CCC(=O)[O-]
REMARK SMILES IDX 4 1 2 2 1 3 3 4 5 5 6 6 7 7 8 8
REMARK H PARENT
REMARK Flexibility Score: inf
ROOT
ATOM      1  C   UNL     1       3.989  -8.650  -8.080  1.00  0.00     0.059 C 
ENDROOT
BRANCH   1   2
ATOM      2  C   UNL     1       2.941  -7.733  -8.633  1.00  0.00     0.042 C 
ATOM      3  O   UNL     1       2.992  -6.498  -8.395  1.00  0.00    -0.550 OA
ATOM      4  O   UNL     1       1.932  -8.238  -9.444  1.00  0.00    -0.550 OA
ENDBRANCH   1   2
BRANCH   1   5
ATOM      5  C   UNL     1       5.116  -8.895  -9.090  1.00  0.00     0.059 C 
BRANCH   5   6
ATOM      6  C   UNL     1       6.372  -8.178  -8.699  1.00  0.00     0.042 C 
ATOM      7  O   UNL     1       7.437  -8.825  -8.510  1.00  0.00    -0.550 OA
ATOM      8  O   UNL     1       6.377  -6.794  -8.582  1.00  0.00    -0.550 OA
ENDBRANCH   5   6
ENDBRANCH   1   5
TORSDOF 3
ENDMDL
MODEL 8
REMARK VINA RESULT:    -3.112      1.630      3.685
REMARK INTER + INTRA:          -3.732
REMARK INTER:                  -3.615
REMARK INTRA:                  -0.117
REMARK UNBOUND:                -0.075
REMARK SMILES O=C([O-])CCC(=O)[O-]
REMARK SMILES IDX 4 1 2 2 1 3 3 4 5 5 6 6 7 7 8 8
REMARK H PARENT
REMARK Flexibility Score: inf
ROOT
ATOM      1  C   UNL     1      -2.518   6.671  -2.614  1.00  0.00     0.059 C 
ENDROOT
BRANCH   1   2
ATOM      2  C   UNL     1      -3.918   6.153  -2.482  1.00  0.00     0.042 C 
ATOM      3  O   UNL     1      -4.176   5.225  -1.671  1.00  0.00    -0.550 OA
ATOM      4  O   UNL     1      -4.944   6.723  -3.227  1.00  0.00    -0.550 OA
ENDBRANCH   1   2
BRANCH   1   5
ATOM      5  C   UNL     1      -1.502   5.724  -1.967  1.00  0.00     0.059 C 
BRANCH   5   6
ATOM      6  C   UNL     1      -0.969   6.281  -0.682  1.00  0.00     0.042 C 
ATOM      7  O   UNL     1      -1.683   6.272   0.356  1.00  0.00    -0.550 OA
ATOM      8  O   UNL     1       0.329   6.771  -0.620  1.00  0.00    -0.550 OA
ENDBRANCH   5   6
ENDBRANCH   1   5
TORSDOF 3
ENDMDL
MODEL 9
REMARK VINA RESULT:    -3.111     16.973     17.621
REMARK INTER + INTRA:          -3.732
REMARK INTER:                  -3.619
REMARK INTRA:                  -0.112
REMARK UNBOUND:                -0.075
REMARK SMILES O=C([O-])CCC(=O)[O-]
REMARK SMILES IDX 4 1 2 2 1 3 3 4 5 5 6 6 7 7 8 8
REMARK H PARENT
REMARK Flexibility Score: inf
ROOT
ATOM      1  C   UNL     1       5.155  -8.953  -9.018  1.00  0.00     0.059 C 
ENDROOT
BRANCH   1   2
ATOM      2  C   UNL     1       6.434  -8.235  -8.711  1.00  0.00     0.042 C 
ATOM      3  O   UNL     1       7.519  -8.871  -8.654  1.00  0.00    -0.550 OA
ATOM      4  O   UNL     1       6.432  -6.857  -8.527  1.00  0.00    -0.550 OA
ENDBRANCH   1   2
BRANCH   1   5
ATOM      5  C   UNL     1       4.054  -8.603  -8.012  1.00  0.00     0.059 C 
BRANCH   5   6
ATOM      6  C   UNL     1       2.985  -7.759  -8.635  1.00  0.00     0.042 C 
ATOM      7  O   UNL     1       2.956  -6.517  -8.425  1.00  0.00    -0.550 OA
ATOM      8  O   UNL     1       2.044  -8.337  -9.478  1.00  0.00    -0.550 OA
ENDBRANCH   5   6
ENDBRANCH   1   5
TORSDOF 3
ENDMDL
