MODEL 1
REMARK VINA RESULT:    -4.524      0.000      0.000
REMARK INTER + INTRA:          -9.866
REMARK INTER:                  -8.490
REMARK INTRA:                  -1.376
REMARK UNBOUND:                -1.376
REMARK SMILES O=C([O-])CCCCCCCCCCCCCCC(=O)[O-]
REMARK SMILES IDX 10 1 9 2 8 3 7 4 6 5 5 6 4 7 2 8 1 9 3 10 11 11 12 12 13 13
REMARK SMILES IDX 14 14 15 15 16 16 17 17 18 18 19 19 20 20
REMARK H PARENT
REMARK Flexibility Score: inf
ROOT
ATOM      1  C   UNL     1     -14.857   8.541  29.153  1.00  0.00     0.000 C 
ENDROOT
BRANCH   1   2
ATOM      2  C   UNL     1     -14.205   8.710  27.771  1.00  0.00     0.000 C 
BRANCH   2   3
ATOM      3  C   UNL     1     -12.915   7.884  27.620  1.00  0.00     0.000 C 
BRANCH   3   4
ATOM      4  C   UNL     1     -11.671   8.642  28.109  1.00  0.00     0.000 C 
BRANCH   4   5
ATOM      5  C   UNL     1     -11.038   7.996  29.354  1.00  0.00     0.000 C 
BRANCH   5   6
ATOM      6  C   UNL     1     -10.842   6.475  29.208  1.00  0.00     0.006 C 
BRANCH   6   7
ATOM      7  C   UNL     1     -11.635   5.643  30.231  1.00  0.00     0.053 C 
BRANCH   7   8
ATOM      8  C   UNL     1     -10.750   4.809  31.106  1.00  0.00     0.041 C 
ATOM      9  O   UNL     1     -11.207   3.785  31.680  1.00  0.00    -0.550 OA
ATOM     10  O   UNL     1      -9.421   5.167  31.292  1.00  0.00    -0.550 OA
ENDBRANCH   7   8
ENDBRANCH   6   7
ENDBRANCH   5   6
ENDBRANCH   4   5
ENDBRANCH   3   4
ENDBRANCH   2   3
ENDBRANCH   1   2
BRANCH   1  11
ATOM     11  C   UNL     1     -15.022   7.066  29.552  1.00  0.00     0.000 C 
BRANCH  11  12
ATOM     12  C   UNL     1     -16.209   6.889  30.512  1.00  0.00     0.000 C 
BRANCH  12  13
ATOM     13  C   UNL     1     -16.312   5.459  31.069  1.00  0.00     0.000 C 
BRANCH  13  14
ATOM     14  C   UNL     1     -14.939   4.801  31.270  1.00  0.00     0.000 C 
BRANCH  14  15
ATOM     15  C   UNL     1     -14.993   3.751  32.387  1.00  0.00     0.000 C 
BRANCH  15  16
ATOM     16  C   UNL     1     -16.388   3.124  32.488  1.00  0.00     0.006 C 
BRANCH  16  17
ATOM     17  C   UNL     1     -16.728   2.771  33.940  1.00  0.00     0.053 C 
BRANCH  17  18
ATOM     18  C   UNL     1     -16.270   1.383  34.263  1.00  0.00     0.041 C 
ATOM     19  O   UNL     1     -16.248   0.500  33.367  1.00  0.00    -0.550 OA
ATOM     20  O   UNL     1     -15.911   1.055  35.564  1.00  0.00    -0.550 OA
ENDBRANCH  17  18
ENDBRANCH  16  17
ENDBRANCH  15  16
ENDBRANCH  14  15
ENDBRANCH  13  14
ENDBRANCH  12  13
ENDBRANCH  11  12
ENDBRANCH   1  11
TORSDOF 15
ENDMDL
MODEL 2
REMARK VINA RESULT:    -4.240      1.705      2.798
REMARK INTER + INTRA:          -9.333
REMARK INTER:                  -7.904
REMARK INTRA:                  -1.430
REMARK UNBOUND:                -1.376
REMARK SMILES O=C([O-])CCCCCCCCCCCCCCC(=O)[O-]
REMARK SMILES IDX 10 1 9 2 8 3 7 4 6 5 5 6 4 7 2 8 1 9 3 10 11 11 12 12 13 13
REMARK SMILES IDX 14 14 15 15 16 16 17 17 18 18 19 19 20 20
REMARK H PARENT
REMARK Flexibility Score: inf
ROOT
ATOM      1  C   UNL     1     -13.327   6.951  28.485  1.00  0.00     0.000 C 
ENDROOT
BRANCH   1   2
ATOM      2  C   UNL     1     -12.746   5.651  29.063  1.00  0.00     0.000 C 
BRANCH   2   3
ATOM      3  C   UNL     1     -11.510   5.896  29.946  1.00  0.00     0.000 C 
BRANCH   3   4
ATOM      4  C   UNL     1     -11.471   4.972  31.173  1.00  0.00     0.000 C 
BRANCH   4   5
ATOM      5  C   UNL     1     -12.117   3.602  30.901  1.00  0.00     0.000 C 
BRANCH   5   6
ATOM      6  C   UNL     1     -11.229   2.421  31.338  1.00  0.00     0.006 C 
BRANCH   6   7
ATOM      7  C   UNL     1      -9.778   2.510  30.833  1.00  0.00     0.053 C 
BRANCH   7   8
ATOM      8  C   UNL     1      -8.776   2.474  31.946  1.00  0.00     0.041 C 
ATOM      9  O   UNL     1      -8.555   3.504  32.636  1.00  0.00    -0.550 OA
ATOM     10  O   UNL     1      -8.080   1.301  32.216  1.00  0.00    -0.550 OA
ENDBRANCH   7   8
ENDBRANCH   6   7
ENDBRANCH   5   6
ENDBRANCH   4   5
ENDBRANCH   3   4
ENDBRANCH   2   3
ENDBRANCH   1   2
BRANCH   1  11
ATOM     11  C   UNL     1     -14.662   7.342  29.137  1.00  0.00     0.000 C 
BRANCH  11  12
ATOM     12  C   UNL     1     -15.324   6.126  29.804  1.00  0.00     0.000 C 
BRANCH  12  13
ATOM     13  C   UNL     1     -16.274   6.519  30.947  1.00  0.00     0.000 C 
BRANCH  13  14
ATOM     14  C   UNL     1     -16.684   5.322  31.816  1.00  0.00     0.000 C 
BRANCH  14  15
ATOM     15  C   UNL     1     -15.587   4.250  31.824  1.00  0.00     0.000 C 
BRANCH  15  16
ATOM     16  C   UNL     1     -15.569   3.489  33.155  1.00  0.00     0.006 C 
BRANCH  16  17
ATOM     17  C   UNL     1     -16.900   2.769  33.394  1.00  0.00     0.053 C 
BRANCH  17  18
ATOM     18  C   UNL     1     -16.664   1.408  33.970  1.00  0.00     0.041 C 
ATOM     19  O   UNL     1     -17.061   0.384  33.356  1.00  0.00    -0.550 OA
ATOM     20  O   UNL     1     -16.046   1.274  35.207  1.00  0.00    -0.550 OA
ENDBRANCH  17  18
ENDBRANCH  16  17
ENDBRANCH  15  16
ENDBRANCH  14  15
ENDBRANCH  13  14
ENDBRANCH  12  13
ENDBRANCH  11  12
ENDBRANCH   1  11
TORSDOF 15
ENDMDL
MODEL 3
REMARK VINA RESULT:    -4.237      1.606      5.583
REMARK INTER + INTRA:          -9.328
REMARK INTER:                  -7.817
REMARK INTRA:                  -1.511
REMARK UNBOUND:                -1.376
REMARK SMILES O=C([O-])CCCCCCCCCCCCCCC(=O)[O-]
REMARK SMILES IDX 10 1 9 2 8 3 7 4 6 5 5 6 4 7 2 8 1 9 3 10 11 11 12 12 13 13
REMARK SMILES IDX 14 14 15 15 16 16 17 17 18 18 19 19 20 20
REMARK H PARENT
REMARK Flexibility Score: inf
ROOT
ATOM      1  C   UNL     1     -12.925   8.212  27.673  1.00  0.00     0.000 C 
ENDROOT
BRANCH   1   2
ATOM      2  C   UNL     1     -14.431   8.407  27.911  1.00  0.00     0.000 C 
BRANCH   2   3
ATOM      3  C   UNL     1     -14.832   8.184  29.380  1.00  0.00     0.000 C 
BRANCH   3   4
ATOM      4  C   UNL     1     -15.214   6.725  29.671  1.00  0.00     0.000 C 
BRANCH   4   5
ATOM      5  C   UNL     1     -16.308   6.604  30.746  1.00  0.00     0.000 C 
BRANCH   5   6
ATOM      6  C   UNL     1     -16.367   5.205  31.390  1.00  0.00     0.006 C 
BRANCH   6   7
ATOM      7  C   UNL     1     -14.989   4.548  31.580  1.00  0.00     0.053 C 
BRANCH   7   8
ATOM      8  C   UNL     1     -15.050   3.315  32.429  1.00  0.00     0.041 C 
ATOM      9  O   UNL     1     -15.505   3.374  33.602  1.00  0.00    -0.550 OA
ATOM     10  O   UNL     1     -14.595   2.103  31.926  1.00  0.00    -0.550 OA
ENDBRANCH   7   8
ENDBRANCH   6   7
ENDBRANCH   5   6
ENDBRANCH   4   5
ENDBRANCH   3   4
ENDBRANCH   2   3
ENDBRANCH   1   2
BRANCH   1  11
ATOM     11  C   UNL     1     -12.069   8.760  28.825  1.00  0.00     0.000 C 
BRANCH  11  12
ATOM     12  C   UNL     1     -10.858   7.850  29.088  1.00  0.00     0.000 C 
BRANCH  12  13
ATOM     13  C   UNL     1     -11.156   6.369  28.802  1.00  0.00     0.000 C 
BRANCH  13  14
ATOM     14  C   UNL     1     -11.658   5.615  30.042  1.00  0.00     0.000 C 
BRANCH  14  15
ATOM     15  C   UNL     1     -10.656   5.731  31.197  1.00  0.00     0.000 C 
BRANCH  15  16
ATOM     16  C   UNL     1      -9.329   5.047  30.847  1.00  0.00     0.006 C 
BRANCH  16  17
ATOM     17  C   UNL     1      -8.903   4.077  31.952  1.00  0.00     0.053 C 
BRANCH  17  18
ATOM     18  C   UNL     1      -9.052   2.660  31.493  1.00  0.00     0.041 C 
ATOM     19  O   UNL     1      -8.448   1.734  32.094  1.00  0.00    -0.550 OA
ATOM     20  O   UNL     1      -9.823   2.369  30.374  1.00  0.00    -0.550 OA
ENDBRANCH  17  18
ENDBRANCH  16  17
ENDBRANCH  15  16
ENDBRANCH  14  15
ENDBRANCH  13  14
ENDBRANCH  12  13
ENDBRANCH  11  12
ENDBRANCH   1  11
TORSDOF 15
ENDMDL
MODEL 4
REMARK VINA RESULT:    -4.212      1.837      2.990
REMARK INTER + INTRA:          -9.282
REMARK INTER:                  -7.716
REMARK INTRA:                  -1.566
REMARK UNBOUND:                -1.376
REMARK SMILES O=C([O-])CCCCCCCCCCCCCCC(=O)[O-]
REMARK SMILES IDX 10 1 9 2 8 3 7 4 6 5 5 6 4 7 2 8 1 9 3 10 11 11 12 12 13 13
REMARK SMILES IDX 14 14 15 15 16 16 17 17 18 18 19 19 20 20
REMARK H PARENT
REMARK Flexibility Score: inf
ROOT
ATOM      1  C   UNL     1     -12.290   8.331  28.084  1.00  0.00     0.000 C 
ENDROOT
BRANCH   1   2
ATOM      2  C   UNL     1     -11.003   8.977  28.623  1.00  0.00     0.000 C 
BRANCH   2   3
ATOM      3  C   UNL     1     -10.225   8.045  29.569  1.00  0.00     0.000 C 
BRANCH   3   4
ATOM      4  C   UNL     1     -10.744   6.600  29.530  1.00  0.00     0.000 C 
BRANCH   4   5
ATOM      5  C   UNL     1     -10.643   5.899  30.897  1.00  0.00     0.000 C 
BRANCH   5   6
ATOM      6  C   UNL     1     -11.613   4.711  31.037  1.00  0.00     0.006 C 
BRANCH   6   7
ATOM      7  C   UNL     1     -10.917   3.341  31.110  1.00  0.00     0.053 C 
BRANCH   7   8
ATOM      8  C   UNL     1     -11.804   2.218  30.668  1.00  0.00     0.041 C 
ATOM      9  O   UNL     1     -12.670   2.407  29.773  1.00  0.00    -0.550 OA
ATOM     10  O   UNL     1     -11.678   0.963  31.251  1.00  0.00    -0.550 OA
ENDBRANCH   7   8
ENDBRANCH   6   7
ENDBRANCH   5   6
ENDBRANCH   4   5
ENDBRANCH   3   4
ENDBRANCH   2   3
ENDBRANCH   1   2
BRANCH   1  11
ATOM     11  C   UNL     1     -13.551   9.125  28.459  1.00  0.00     0.000 C 
BRANCH  11  12
ATOM     12  C   UNL     1     -14.659   8.187  28.964  1.00  0.00     0.000 C 
BRANCH  12  13
ATOM     13  C   UNL     1     -14.277   6.702  28.847  1.00  0.00     0.000 C 
BRANCH  13  14
ATOM     14  C   UNL     1     -14.826   5.856  30.006  1.00  0.00     0.000 C 
BRANCH  14  15
ATOM     15  C   UNL     1     -16.084   6.497  30.604  1.00  0.00     0.000 C 
BRANCH  15  16
ATOM     16  C   UNL     1     -16.750   5.562  31.621  1.00  0.00     0.006 C 
BRANCH  16  17
ATOM     17  C   UNL     1     -16.504   4.094  31.260  1.00  0.00     0.053 C 
BRANCH  17  18
ATOM     18  C   UNL     1     -16.110   3.314  32.475  1.00  0.00     0.041 C 
ATOM     19  O   UNL     1     -16.919   3.182  33.431  1.00  0.00    -0.550 OA
ATOM     20  O   UNL     1     -14.835   2.772  32.570  1.00  0.00    -0.550 OA
ENDBRANCH  17  18
ENDBRANCH  16  17
ENDBRANCH  15  16
ENDBRANCH  14  15
ENDBRANCH  13  14
ENDBRANCH  12  13
ENDBRANCH  11  12
ENDBRANCH   1  11
TORSDOF 15
ENDMDL
MODEL 5
REMARK VINA RESULT:    -4.203      1.413      2.037
REMARK INTER + INTRA:          -9.264
REMARK INTER:                  -8.397
REMARK INTRA:                  -0.867
REMARK UNBOUND:                -1.376
REMARK SMILES O=C([O-])CCCCCCCCCCCCCCC(=O)[O-]
REMARK SMILES IDX 10 1 9 2 8 3 7 4 6 5 5 6 4 7 2 8 1 9 3 10 11 11 12 12 13 13
REMARK SMILES IDX 14 14 15 15 16 16 17 17 18 18 19 19 20 20
REMARK H PARENT
REMARK Flexibility Score: inf
ROOT
ATOM      1  C   UNL     1     -14.945   8.560  29.123  1.00  0.00     0.000 C 
ENDROOT
BRANCH   1   2
ATOM      2  C   UNL     1     -14.353   8.804  27.726  1.00  0.00     0.000 C 
BRANCH   2   3
ATOM      3  C   UNL     1     -13.109   7.942  27.451  1.00  0.00     0.000 C 
BRANCH   3   4
ATOM      4  C   UNL     1     -11.832   8.540  28.061  1.00  0.00     0.000 C 
BRANCH   4   5
ATOM      5  C   UNL     1     -11.211   7.633  29.138  1.00  0.00     0.000 C 
BRANCH   5   6
ATOM      6  C   UNL     1     -10.127   8.344  29.971  1.00  0.00     0.006 C 
BRANCH   6   7
ATOM      7  C   UNL     1      -8.759   8.428  29.273  1.00  0.00     0.053 C 
BRANCH   7   8
ATOM      8  C   UNL     1      -7.793   7.396  29.769  1.00  0.00     0.041 C 
ATOM      9  O   UNL     1      -6.569   7.670  29.873  1.00  0.00    -0.550 OA
ATOM     10  O   UNL     1      -8.247   6.128  30.109  1.00  0.00    -0.550 OA
ENDBRANCH   7   8
ENDBRANCH   6   7
ENDBRANCH   5   6
ENDBRANCH   4   5
ENDBRANCH   3   4
ENDBRANCH   2   3
ENDBRANCH   1   2
BRANCH   1  11
ATOM     11  C   UNL     1     -15.071   7.067  29.460  1.00  0.00     0.000 C 
BRANCH  11  12
ATOM     12  C   UNL     1     -16.176   6.831  30.502  1.00  0.00     0.000 C 
BRANCH  12  13
ATOM     13  C   UNL     1     -16.208   5.382  31.014  1.00  0.00     0.000 C 
BRANCH  13  14
ATOM     14  C   UNL     1     -14.804   4.789  31.207  1.00  0.00     0.000 C 
BRANCH  14  15
ATOM     15  C   UNL     1     -14.812   3.703  32.290  1.00  0.00     0.000 C 
BRANCH  15  16
ATOM     16  C   UNL     1     -16.218   3.120  32.477  1.00  0.00     0.006 C 
BRANCH  16  17
ATOM     17  C   UNL     1     -16.486   2.794  33.949  1.00  0.00     0.053 C 
BRANCH  17  18
ATOM     18  C   UNL     1     -16.099   1.381  34.253  1.00  0.00     0.041 C 
ATOM     19  O   UNL     1     -16.059   0.525  33.331  1.00  0.00    -0.550 OA
ATOM     20  O   UNL     1     -15.825   1.001  35.561  1.00  0.00    -0.550 OA
ENDBRANCH  17  18
ENDBRANCH  16  17
ENDBRANCH  15  16
ENDBRANCH  14  15
ENDBRANCH  13  14
ENDBRANCH  12  13
ENDBRANCH  11  12
ENDBRANCH   1  11
TORSDOF 15
ENDMDL
MODEL 6
REMARK VINA RESULT:    -4.171      2.062      5.749
REMARK INTER + INTRA:          -9.205
REMARK INTER:                  -7.757
REMARK INTRA:                  -1.448
REMARK UNBOUND:                -1.376
REMARK SMILES O=C([O-])CCCCCCCCCCCCCCC(=O)[O-]
REMARK SMILES IDX 10 1 9 2 8 3 7 4 6 5 5 6 4 7 2 8 1 9 3 10 11 11 12 12 13 13
REMARK SMILES IDX 14 14 15 15 16 16 17 17 18 18 19 19 20 20
REMARK H PARENT
REMARK Flexibility Score: inf
ROOT
ATOM      1  C   UNL     1     -14.503   7.270  29.235  1.00  0.00     0.000 C 
ENDROOT
BRANCH   1   2
ATOM      2  C   UNL     1     -15.443   6.132  29.662  1.00  0.00     0.000 C 
BRANCH   2   3
ATOM      3  C   UNL     1     -16.291   6.495  30.893  1.00  0.00     0.000 C 
BRANCH   3   4
ATOM      4  C   UNL     1     -16.768   5.255  31.666  1.00  0.00     0.000 C 
BRANCH   4   5
ATOM      5  C   UNL     1     -15.831   4.048  31.480  1.00  0.00     0.000 C 
BRANCH   5   6
ATOM      6  C   UNL     1     -15.137   3.619  32.787  1.00  0.00     0.006 C 
BRANCH   6   7
ATOM      7  C   UNL     1     -16.108   3.141  33.881  1.00  0.00     0.053 C 
BRANCH   7   8
ATOM      8  C   UNL     1     -16.024   1.665  34.123  1.00  0.00     0.041 C 
ATOM      9  O   UNL     1     -15.808   0.876  33.166  1.00  0.00    -0.550 OA
ATOM     10  O   UNL     1     -16.192   1.162  35.407  1.00  0.00    -0.550 OA
ENDBRANCH   7   8
ENDBRANCH   6   7
ENDBRANCH   5   6
ENDBRANCH   4   5
ENDBRANCH   3   4
ENDBRANCH   2   3
ENDBRANCH   1   2
BRANCH   1  11
ATOM     11  C   UNL     1     -13.409   6.801  28.263  1.00  0.00     0.000 C 
BRANCH  11  12
ATOM     12  C   UNL     1     -12.867   5.422  28.674  1.00  0.00     0.000 C 
BRANCH  12  13
ATOM     13  C   UNL     1     -11.517   5.510  29.405  1.00  0.00     0.000 C 
BRANCH  13  14
ATOM     14  C   UNL     1     -11.627   5.158  30.896  1.00  0.00     0.000 C 
BRANCH  14  15
ATOM     15  C   UNL     1     -11.976   3.676  31.085  1.00  0.00     0.000 C 
BRANCH  15  16
ATOM     16  C   UNL     1     -10.725   2.852  31.413  1.00  0.00     0.006 C 
BRANCH  16  17
ATOM     17  C   UNL     1     -10.584   1.664  30.457  1.00  0.00     0.053 C 
BRANCH  17  18
ATOM     18  C   UNL     1     -10.301   0.408  31.219  1.00  0.00     0.041 C 
ATOM     19  O   UNL     1      -9.151   0.197  31.687  1.00  0.00    -0.550 OA
ATOM     20  O   UNL     1     -11.295  -0.551  31.375  1.00  0.00    -0.550 OA
ENDBRANCH  17  18
ENDBRANCH  16  17
ENDBRANCH  15  16
ENDBRANCH  14  15
ENDBRANCH  13  14
ENDBRANCH  12  13
ENDBRANCH  11  12
ENDBRANCH   1  11
TORSDOF 15
ENDMDL
MODEL 7
REMARK VINA RESULT:    -4.166      2.291      5.779
REMARK INTER + INTRA:          -9.195
REMARK INTER:                  -7.861
REMARK INTRA:                  -1.334
REMARK UNBOUND:                -1.376
REMARK SMILES O=C([O-])CCCCCCCCCCCCCCC(=O)[O-]
REMARK SMILES IDX 10 1 9 2 8 3 7 4 6 5 5 6 4 7 2 8 1 9 3 10 11 11 12 12 13 13
REMARK SMILES IDX 14 14 15 15 16 16 17 17 18 18 19 19 20 20
REMARK H PARENT
REMARK Flexibility Score: inf
ROOT
ATOM      1  C   UNL     1     -11.038   6.318  29.240  1.00  0.00     0.000 C 
ENDROOT
BRANCH   1   2
ATOM      2  C   UNL     1     -11.277   5.640  30.599  1.00  0.00     0.000 C 
BRANCH   2   3
ATOM      3  C   UNL     1     -12.663   4.980  30.696  1.00  0.00     0.000 C 
BRANCH   3   4
ATOM      4  C   UNL     1     -12.616   3.612  31.394  1.00  0.00     0.000 C 
BRANCH   4   5
ATOM      5  C   UNL     1     -13.998   2.941  31.471  1.00  0.00     0.000 C 
BRANCH   5   6
ATOM      6  C   UNL     1     -13.940   1.417  31.254  1.00  0.00     0.006 C 
BRANCH   6   7
ATOM      7  C   UNL     1     -15.233   0.680  31.645  1.00  0.00     0.053 C 
BRANCH   7   8
ATOM      8  C   UNL     1     -16.066   1.454  32.620  1.00  0.00     0.041 C 
ATOM      9  O   UNL     1     -17.118   2.031  32.239  1.00  0.00    -0.550 OA
ATOM     10  O   UNL     1     -15.674   1.543  33.950  1.00  0.00    -0.550 OA
ENDBRANCH   7   8
ENDBRANCH   6   7
ENDBRANCH   5   6
ENDBRANCH   4   5
ENDBRANCH   3   4
ENDBRANCH   2   3
ENDBRANCH   1   2
BRANCH   1  11
ATOM     11  C   UNL     1     -10.584   7.779  29.379  1.00  0.00     0.000 C 
BRANCH  11  12
ATOM     12  C   UNL     1     -11.585   8.730  28.705  1.00  0.00     0.000 C 
BRANCH  12  13
ATOM     13  C   UNL     1     -12.600   7.991  27.817  1.00  0.00     0.000 C 
BRANCH  13  14
ATOM     14  C   UNL     1     -13.924   8.756  27.667  1.00  0.00     0.000 C 
BRANCH  14  15
ATOM     15  C   UNL     1     -14.750   8.680  28.956  1.00  0.00     0.000 C 
BRANCH  15  16
ATOM     16  C   UNL     1     -14.969   7.225  29.387  1.00  0.00     0.006 C 
BRANCH  16  17
ATOM     17  C   UNL     1     -16.081   7.125  30.436  1.00  0.00     0.053 C 
BRANCH  17  18
ATOM     18  C   UNL     1     -16.412   5.692  30.714  1.00  0.00     0.041 C 
ATOM     19  O   UNL     1     -16.627   5.310  31.894  1.00  0.00    -0.550 OA
ATOM     20  O   UNL     1     -16.440   4.771  29.674  1.00  0.00    -0.550 OA
ENDBRANCH  17  18
ENDBRANCH  16  17
ENDBRANCH  15  16
ENDBRANCH  14  15
ENDBRANCH  13  14
ENDBRANCH  12  13
ENDBRANCH  11  12
ENDBRANCH   1  11
TORSDOF 15
ENDMDL
MODEL 8
REMARK VINA RESULT:    -4.122      1.883      5.773
REMARK INTER + INTRA:          -9.112
REMARK INTER:                  -7.255
REMARK INTRA:                  -1.857
REMARK UNBOUND:                -1.376
REMARK SMILES O=C([O-])CCCCCCCCCCCCCCC(=O)[O-]
REMARK SMILES IDX 10 1 9 2 8 3 7 4 6 5 5 6 4 7 2 8 1 9 3 10 11 11 12 12 13 13
REMARK SMILES IDX 14 14 15 15 16 16 17 17 18 18 19 19 20 20
REMARK H PARENT
REMARK Flexibility Score: inf
ROOT
ATOM      1  C   UNL     1     -14.129   6.692  28.886  1.00  0.00     0.000 C 
ENDROOT
BRANCH   1   2
ATOM      2  C   UNL     1     -15.128   7.648  29.558  1.00  0.00     0.000 C 
BRANCH   2   3
ATOM      3  C   UNL     1     -16.095   6.922  30.510  1.00  0.00     0.000 C 
BRANCH   3   4
ATOM      4  C   UNL     1     -15.896   5.398  30.500  1.00  0.00     0.000 C 
BRANCH   4   5
ATOM      5  C   UNL     1     -16.409   4.728  31.787  1.00  0.00     0.000 C 
BRANCH   5   6
ATOM      6  C   UNL     1     -15.323   3.913  32.514  1.00  0.00     0.006 C 
BRANCH   6   7
ATOM      7  C   UNL     1     -13.999   3.805  31.739  1.00  0.00     0.053 C 
BRANCH   7   8
ATOM      8  C   UNL     1     -13.745   2.424  31.218  1.00  0.00     0.041 C 
ATOM      9  O   UNL     1     -14.688   1.744  30.735  1.00  0.00    -0.550 OA
ATOM     10  O   UNL     1     -12.466   1.885  31.274  1.00  0.00    -0.550 OA
ENDBRANCH   7   8
ENDBRANCH   6   7
ENDBRANCH   5   6
ENDBRANCH   4   5
ENDBRANCH   3   4
ENDBRANCH   2   3
ENDBRANCH   1   2
BRANCH   1  11
ATOM     11  C   UNL     1     -13.141   7.422  27.965  1.00  0.00     0.000 C 
BRANCH  11  12
ATOM     12  C   UNL     1     -12.702   8.759  28.581  1.00  0.00     0.000 C 
BRANCH  12  13
ATOM     13  C   UNL     1     -11.195   9.018  28.426  1.00  0.00     0.000 C 
BRANCH  13  14
ATOM     14  C   UNL     1     -10.410   8.746  29.718  1.00  0.00     0.000 C 
BRANCH  14  15
ATOM     15  C   UNL     1      -9.860   7.315  29.734  1.00  0.00     0.000 C 
BRANCH  15  16
ATOM     16  C   UNL     1     -10.624   6.440  30.734  1.00  0.00     0.006 C 
BRANCH  16  17
ATOM     17  C   UNL     1     -10.834   5.027  30.179  1.00  0.00     0.053 C 
BRANCH  17  18
ATOM     18  C   UNL     1      -9.852   4.075  30.786  1.00  0.00     0.041 C 
ATOM     19  O   UNL     1      -9.421   4.269  31.953  1.00  0.00    -0.550 OA
ATOM     20  O   UNL     1      -9.379   2.999  30.045  1.00  0.00    -0.550 OA
ENDBRANCH  17  18
ENDBRANCH  16  17
ENDBRANCH  15  16
ENDBRANCH  14  15
ENDBRANCH  13  14
ENDBRANCH  12  13
ENDBRANCH  11  12
ENDBRANCH   1  11
TORSDOF 15
ENDMDL
MODEL 9
REMARK VINA RESULT:    -4.073      1.655      2.934
REMARK INTER + INTRA:          -9.021
REMARK INTER:                  -7.282
REMARK INTRA:                  -1.740
REMARK UNBOUND:                -1.376
REMARK SMILES O=C([O-])CCCCCCCCCCCCCCC(=O)[O-]
REMARK SMILES IDX 10 1 9 2 8 3 7 4 6 5 5 6 4 7 2 8 1 9 3 10 11 11 12 12 13 13
REMARK SMILES IDX 14 14 15 15 16 16 17 17 18 18 19 19 20 20
REMARK H PARENT
REMARK Flexibility Score: inf
ROOT
ATOM      1  C   UNL     1     -11.924   8.731  28.218  1.00  0.00     0.000 C 
ENDROOT
BRANCH   1   2
ATOM      2  C   UNL     1     -10.969   9.025  29.386  1.00  0.00     0.000 C 
BRANCH   2   3
ATOM      3  C   UNL     1     -10.025   7.849  29.689  1.00  0.00     0.000 C 
BRANCH   3   4
ATOM      4  C   UNL     1     -10.639   6.490  29.317  1.00  0.00     0.000 C 
BRANCH   4   5
ATOM      5  C   UNL     1     -11.400   5.846  30.488  1.00  0.00     0.000 C 
BRANCH   5   6
ATOM      6  C   UNL     1     -10.516   4.917  31.342  1.00  0.00     0.006 C 
BRANCH   6   7
ATOM      7  C   UNL     1     -10.360   3.499  30.763  1.00  0.00     0.053 C 
BRANCH   7   8
ATOM      8  C   UNL     1      -9.457   2.635  31.589  1.00  0.00     0.041 C 
ATOM      9  O   UNL     1      -9.623   1.387  31.616  1.00  0.00    -0.550 OA
ATOM     10  O   UNL     1      -8.438   3.211  32.337  1.00  0.00    -0.550 OA
ENDBRANCH   7   8
ENDBRANCH   6   7
ENDBRANCH   5   6
ENDBRANCH   4   5
ENDBRANCH   3   4
ENDBRANCH   2   3
ENDBRANCH   1   2
BRANCH   1  11
ATOM     11  C   UNL     1     -13.399   8.936  28.596  1.00  0.00     0.000 C 
BRANCH  11  12
ATOM     12  C   UNL     1     -14.136   7.589  28.676  1.00  0.00     0.000 C 
BRANCH  12  13
ATOM     13  C   UNL     1     -15.256   7.588  29.729  1.00  0.00     0.000 C 
BRANCH  13  14
ATOM     14  C   UNL     1     -15.585   6.179  30.244  1.00  0.00     0.000 C 
BRANCH  14  15
ATOM     15  C   UNL     1     -14.944   5.108  29.354  1.00  0.00     0.000 C 
BRANCH  15  16
ATOM     16  C   UNL     1     -14.404   3.943  30.193  1.00  0.00     0.006 C 
BRANCH  16  17
ATOM     17  C   UNL     1     -14.533   4.240  31.691  1.00  0.00     0.053 C 
BRANCH  17  18
ATOM     18  C   UNL     1     -14.948   3.010  32.435  1.00  0.00     0.041 C 
ATOM     19  O   UNL     1     -15.560   3.110  33.531  1.00  0.00    -0.550 OA
ATOM     20  O   UNL     1     -14.621   1.754  31.940  1.00  0.00    -0.550 OA
ENDBRANCH  17  18
ENDBRANCH  16  17
ENDBRANCH  15  16
ENDBRANCH  14  15
ENDBRANCH  13  14
ENDBRANCH  12  13
ENDBRANCH  11  12
ENDBRANCH   1  11
TORSDOF 15
ENDMDL
