MODEL 1
REMARK VINA RESULT:    -5.273      0.000      0.000
REMARK INTER + INTRA:          -5.678
REMARK INTER:                  -5.581
REMARK INTRA:                  -0.097
REMARK UNBOUND:                -0.097
REMARK SMILES C=C(C)[C@@H]1CC=C(C)C(=O)C1
REMARK SMILES IDX 8 1 7 2 6 3 5 4 4 5 11 6 9 7 10 8 2 9 1 10 3 11
REMARK H PARENT
REMARK Flexibility Score: inf
ROOT
ATOM      1  C   UNL     1      25.220  54.185  10.132  1.00  0.00     0.048 C 
ATOM      2  C   UNL     1      26.413  54.981  10.583  1.00  0.00    -0.012 C 
ATOM      3  C   UNL     1      26.287  56.298  10.822  1.00  0.00    -0.019 C 
ATOM      4  C   UNL     1      27.445  57.139  11.293  1.00  0.00     0.036 C 
ATOM      5  C   UNL     1      28.777  56.620  10.718  1.00  0.00     0.025 C 
ATOM      6  C   UNL     1      28.962  55.130  11.058  1.00  0.00     0.089 C 
ATOM      7  C   UNL     1      27.750  54.339  10.645  1.00  0.00     0.158 C 
ATOM      8  O   UNL     1      27.877  53.112  10.387  1.00  0.00    -0.295 OA
ENDROOT
BRANCH   5   9
ATOM      9  C   UNL     1      29.958  57.456  11.194  1.00  0.00    -0.077 C 
ATOM     10  C   UNL     1      31.225  57.076  10.954  1.00  0.00     0.008 C 
ATOM     11  C   UNL     1      29.721  58.738  11.950  1.00  0.00     0.039 C 
ENDBRANCH   5   9
TORSDOF 1
ENDMDL
MODEL 2
REMARK VINA RESULT:    -5.178      7.793      8.832
REMARK INTER + INTRA:          -5.578
REMARK INTER:                  -5.481
REMARK INTRA:                  -0.097
REMARK UNBOUND:                -0.097
REMARK SMILES C=C(C)[C@@H]1CC=C(C)C(=O)C1
REMARK SMILES IDX 8 1 7 2 6 3 5 4 4 5 11 6 9 7 10 8 2 9 1 10 3 11
REMARK H PARENT
REMARK Flexibility Score: inf
ROOT
ATOM      1  C   UNL     1      24.978  51.623  17.380  1.00  0.00     0.048 C 
ATOM      2  C   UNL     1      26.251  50.937  16.967  1.00  0.00    -0.012 C 
ATOM      3  C   UNL     1      26.244  49.620  16.696  1.00  0.00    -0.019 C 
ATOM      4  C   UNL     1      27.486  48.888  16.260  1.00  0.00     0.036 C 
ATOM      5  C   UNL     1      28.745  49.499  16.905  1.00  0.00     0.025 C 
ATOM      6  C   UNL     1      28.821  51.007  16.604  1.00  0.00     0.089 C 
ATOM      7  C   UNL     1      27.532  51.687  16.978  1.00  0.00     0.158 C 
ATOM      8  O   UNL     1      27.546  52.914  17.266  1.00  0.00    -0.295 OA
ENDROOT
BRANCH   5   9
ATOM      9  C   UNL     1      30.010  48.774  16.465  1.00  0.00    -0.077 C 
ATOM     10  C   UNL     1      31.229  49.241  16.781  1.00  0.00     0.008 C 
ATOM     11  C   UNL     1      29.912  47.504  15.660  1.00  0.00     0.039 C 
ENDBRANCH   5   9
TORSDOF 1
ENDMDL
MODEL 3
REMARK VINA RESULT:    -5.123      1.432      2.446
REMARK INTER + INTRA:          -5.520
REMARK INTER:                  -5.425
REMARK INTRA:                  -0.095
REMARK UNBOUND:                -0.097
REMARK SMILES C=C(C)[C@@H]1CC=C(C)C(=O)C1
REMARK SMILES IDX 8 1 7 2 6 3 5 4 4 5 11 6 9 7 10 8 2 9 1 10 3 11
REMARK H PARENT
REMARK Flexibility Score: inf
ROOT
ATOM      1  C   UNL     1      28.196  52.825  10.477  1.00  0.00     0.048 C 
ATOM      2  C   UNL     1      28.402  54.270  10.836  1.00  0.00    -0.012 C 
ATOM      3  C   UNL     1      29.626  54.708  11.178  1.00  0.00    -0.019 C 
ATOM      4  C   UNL     1      29.891  56.148  11.529  1.00  0.00     0.036 C 
ATOM      5  C   UNL     1      28.665  56.787  12.211  1.00  0.00     0.025 C 
ATOM      6  C   UNL     1      27.416  56.622  11.326  1.00  0.00     0.089 C 
ATOM      7  C   UNL     1      27.234  55.182  10.932  1.00  0.00     0.158 C 
ATOM      8  O   UNL     1      26.079  54.765  10.646  1.00  0.00    -0.295 OA
ENDROOT
BRANCH   5   9
ATOM      9  C   UNL     1      28.916  58.248  12.562  1.00  0.00    -0.077 C 
ATOM     10  C   UNL     1      29.804  58.989  11.878  1.00  0.00     0.008 C 
ATOM     11  C   UNL     1      28.162  58.892  13.697  1.00  0.00     0.039 C 
ENDBRANCH   5   9
TORSDOF 1
ENDMDL
MODEL 4
REMARK VINA RESULT:    -5.116      2.333      4.866
REMARK INTER + INTRA:          -5.512
REMARK INTER:                  -5.419
REMARK INTRA:                  -0.093
REMARK UNBOUND:                -0.097
REMARK SMILES C=C(C)[C@@H]1CC=C(C)C(=O)C1
REMARK SMILES IDX 8 1 7 2 6 3 5 4 4 5 11 6 9 7 10 8 2 9 1 10 3 11
REMARK H PARENT
REMARK Flexibility Score: inf
ROOT
ATOM      1  C   UNL     1      30.104  59.003  12.143  1.00  0.00     0.048 C 
ATOM      2  C   UNL     1      29.008  58.001  11.905  1.00  0.00    -0.012 C 
ATOM      3  C   UNL     1      29.078  57.171  10.850  1.00  0.00    -0.019 C 
ATOM      4  C   UNL     1      28.017  56.138  10.574  1.00  0.00     0.036 C 
ATOM      5  C   UNL     1      26.630  56.632  11.030  1.00  0.00     0.025 C 
ATOM      6  C   UNL     1      26.671  57.046  12.512  1.00  0.00     0.089 C 
ATOM      7  C   UNL     1      27.795  58.015  12.760  1.00  0.00     0.158 C 
ATOM      8  O   UNL     1      27.711  58.817  13.729  1.00  0.00    -0.295 OA
ENDROOT
BRANCH   5   9
ATOM      9  C   UNL     1      25.549  55.593  10.766  1.00  0.00    -0.077 C 
ATOM     10  C   UNL     1      25.475  54.462  11.489  1.00  0.00     0.008 C 
ATOM     11  C   UNL     1      24.533  55.819   9.676  1.00  0.00     0.039 C 
ENDBRANCH   5   9
TORSDOF 1
ENDMDL
MODEL 5
REMARK VINA RESULT:    -5.079      3.216      4.652
REMARK INTER + INTRA:          -5.473
REMARK INTER:                  -5.379
REMARK INTRA:                  -0.094
REMARK UNBOUND:                -0.097
REMARK SMILES C=C(C)[C@@H]1CC=C(C)C(=O)C1
REMARK SMILES IDX 8 1 7 2 6 3 5 4 4 5 11 6 9 7 10 8 2 9 1 10 3 11
REMARK H PARENT
REMARK Flexibility Score: inf
ROOT
ATOM      1  C   UNL     1      23.743  52.245   7.613  1.00  0.00     0.048 C 
ATOM      2  C   UNL     1      25.099  52.399   8.244  1.00  0.00    -0.012 C 
ATOM      3  C   UNL     1      26.085  51.542   7.929  1.00  0.00    -0.019 C 
ATOM      4  C   UNL     1      27.467  51.661   8.517  1.00  0.00     0.036 C 
ATOM      5  C   UNL     1      27.412  52.222   9.950  1.00  0.00     0.025 C 
ATOM      6  C   UNL     1      26.651  53.561   9.971  1.00  0.00     0.089 C 
ATOM      7  C   UNL     1      25.312  53.418   9.302  1.00  0.00     0.158 C 
ATOM      8  O   UNL     1      24.378  54.201   9.625  1.00  0.00    -0.295 OA
ENDROOT
BRANCH   5   9
ATOM      9  C   UNL     1      28.804  52.357  10.554  1.00  0.00    -0.077 C 
ATOM     10  C   UNL     1      29.707  51.367  10.457  1.00  0.00     0.008 C 
ATOM     11  C   UNL     1      29.195  53.620  11.279  1.00  0.00     0.039 C 
ENDBRANCH   5   9
TORSDOF 1
ENDMDL
MODEL 6
REMARK VINA RESULT:    -5.059      2.053      4.342
REMARK INTER + INTRA:          -5.452
REMARK INTER:                  -5.355
REMARK INTRA:                  -0.097
REMARK UNBOUND:                -0.097
REMARK SMILES C=C(C)[C@@H]1CC=C(C)C(=O)C1
REMARK SMILES IDX 8 1 7 2 6 3 5 4 4 5 11 6 9 7 10 8 2 9 1 10 3 11
REMARK H PARENT
REMARK Flexibility Score: inf
ROOT
ATOM      1  C   UNL     1      29.375  59.044  12.100  1.00  0.00     0.048 C 
ATOM      2  C   UNL     1      29.144  57.650  11.588  1.00  0.00    -0.012 C 
ATOM      3  C   UNL     1      27.889  57.196  11.425  1.00  0.00    -0.019 C 
ATOM      4  C   UNL     1      27.600  55.815  10.899  1.00  0.00     0.036 C 
ATOM      5  C   UNL     1      28.691  54.817  11.333  1.00  0.00     0.025 C 
ATOM      6  C   UNL     1      30.081  55.326  10.906  1.00  0.00     0.089 C 
ATOM      7  C   UNL     1      30.296  56.737  11.381  1.00  0.00     0.158 C 
ATOM      8  O   UNL     1      31.472  57.149  11.568  1.00  0.00    -0.295 OA
ENDROOT
BRANCH   5   9
ATOM      9  C   UNL     1      28.417  53.417  10.799  1.00  0.00    -0.077 C 
ATOM     10  C   UNL     1      27.241  53.105  10.228  1.00  0.00     0.008 C 
ATOM     11  C   UNL     1      29.474  52.348  10.903  1.00  0.00     0.039 C 
ENDBRANCH   5   9
TORSDOF 1
ENDMDL
MODEL 7
REMARK VINA RESULT:    -5.026      7.359      8.269
REMARK INTER + INTRA:          -5.417
REMARK INTER:                  -5.321
REMARK INTRA:                  -0.096
REMARK UNBOUND:                -0.097
REMARK SMILES C=C(C)[C@@H]1CC=C(C)C(=O)C1
REMARK SMILES IDX 8 1 7 2 6 3 5 4 4 5 11 6 9 7 10 8 2 9 1 10 3 11
REMARK H PARENT
REMARK Flexibility Score: inf
ROOT
ATOM      1  C   UNL     1      29.567  47.044  15.500  1.00  0.00     0.048 C 
ATOM      2  C   UNL     1      29.353  48.446  15.999  1.00  0.00    -0.012 C 
ATOM      3  C   UNL     1      28.104  48.908  16.179  1.00  0.00    -0.019 C 
ATOM      4  C   UNL     1      27.833  50.298  16.695  1.00  0.00     0.036 C 
ATOM      5  C   UNL     1      28.921  51.283  16.229  1.00  0.00     0.025 C 
ATOM      6  C   UNL     1      30.315  50.772  16.637  1.00  0.00     0.089 C 
ATOM      7  C   UNL     1      30.514  49.354  16.174  1.00  0.00     0.158 C 
ATOM      8  O   UNL     1      31.685  48.933  15.972  1.00  0.00    -0.295 OA
ENDROOT
BRANCH   5   9
ATOM      9  C   UNL     1      28.665  52.691  16.751  1.00  0.00    -0.077 C 
ATOM     10  C   UNL     1      27.495  53.021  17.325  1.00  0.00     0.008 C 
ATOM     11  C   UNL     1      29.732  53.748  16.632  1.00  0.00     0.039 C 
ENDBRANCH   5   9
TORSDOF 1
ENDMDL
MODEL 8
REMARK VINA RESULT:    -4.988      8.012      9.289
REMARK INTER + INTRA:          -5.377
REMARK INTER:                  -5.283
REMARK INTRA:                  -0.094
REMARK UNBOUND:                -0.097
REMARK SMILES C=C(C)[C@@H]1CC=C(C)C(=O)C1
REMARK SMILES IDX 8 1 7 2 6 3 5 4 4 5 11 6 9 7 10 8 2 9 1 10 3 11
REMARK H PARENT
REMARK Flexibility Score: inf
ROOT
ATOM      1  C   UNL     1      30.152  47.004  15.150  1.00  0.00     0.048 C 
ATOM      2  C   UNL     1      29.149  48.037  15.582  1.00  0.00    -0.012 C 
ATOM      3  C   UNL     1      29.406  48.814  16.648  1.00  0.00    -0.019 C 
ATOM      4  C   UNL     1      28.444  49.877  17.113  1.00  0.00     0.036 C 
ATOM      5  C   UNL     1      26.986  49.462  16.841  1.00  0.00     0.025 C 
ATOM      6  C   UNL     1      26.798  49.115  15.353  1.00  0.00     0.089 C 
ATOM      7  C   UNL     1      27.828  48.113  14.909  1.00  0.00     0.158 C 
ATOM      8  O   UNL     1      27.571  47.361  13.931  1.00  0.00    -0.295 OA
ENDROOT
BRANCH   5   9
ATOM      9  C   UNL     1      26.003  50.532  17.298  1.00  0.00    -0.077 C 
ATOM     10  C   UNL     1      26.245  51.837  17.091  1.00  0.00     0.008 C 
ATOM     11  C   UNL     1      24.727  50.138  17.997  1.00  0.00     0.039 C 
ENDBRANCH   5   9
TORSDOF 1
ENDMDL
MODEL 9
REMARK VINA RESULT:    -4.921      2.131      4.482
REMARK INTER + INTRA:          -5.305
REMARK INTER:                  -5.210
REMARK INTRA:                  -0.096
REMARK UNBOUND:                -0.097
REMARK SMILES C=C(C)[C@@H]1CC=C(C)C(=O)C1
REMARK SMILES IDX 8 1 7 2 6 3 5 4 4 5 11 6 9 7 10 8 2 9 1 10 3 11
REMARK H PARENT
REMARK Flexibility Score: inf
ROOT
ATOM      1  C   UNL     1      29.725  59.015  11.965  1.00  0.00     0.048 C 
ATOM      2  C   UNL     1      29.463  57.541  11.823  1.00  0.00    -0.012 C 
ATOM      3  C   UNL     1      30.314  56.775  11.119  1.00  0.00    -0.019 C 
ATOM      4  C   UNL     1      30.109  55.291  10.960  1.00  0.00     0.036 C 
ATOM      5  C   UNL     1      28.609  54.939  10.934  1.00  0.00     0.025 C 
ATOM      6  C   UNL     1      27.908  55.494  12.187  1.00  0.00     0.089 C 
ATOM      7  C   UNL     1      28.204  56.959  12.353  1.00  0.00     0.158 C 
ATOM      8  O   UNL     1      27.387  57.683  12.983  1.00  0.00    -0.295 OA
ENDROOT
BRANCH   5   9
ATOM      9  C   UNL     1      28.388  53.439  10.783  1.00  0.00    -0.077 C 
ATOM     10  C   UNL     1      29.384  52.561  10.989  1.00  0.00     0.008 C 
ATOM     11  C   UNL     1      27.030  52.910  10.397  1.00  0.00     0.039 C 
ENDBRANCH   5   9
TORSDOF 1
ENDMDL
