MODEL 1
REMARK VINA RESULT:    -4.574      0.000      0.000
REMARK INTER + INTRA:          -5.414
REMARK INTER:                  -5.376
REMARK INTRA:                  -0.038
REMARK UNBOUND:                -0.038
REMARK SMILES O=C([O-])CCC(=O)[O-]
REMARK SMILES IDX 4 1 2 2 1 3 3 4 5 5 6 6 7 7 8 8
REMARK H PARENT
REMARK Flexibility Score: inf
ROOT
ATOM      1  C   UNL     1      -5.590   6.388   3.702  1.00  0.00     0.059 C 
ENDROOT
BRANCH   1   2
ATOM      2  C   UNL     1      -6.710   6.134   2.741  1.00  0.00     0.042 C 
ATOM      3  O   UNL     1      -6.584   6.442   1.526  1.00  0.00    -0.550 OA
ATOM      4  O   UNL     1      -7.907   5.595   3.194  1.00  0.00    -0.550 OA
ENDBRANCH   1   2
BRANCH   1   5
ATOM      5  C   UNL     1      -5.519   5.305   4.785  1.00  0.00     0.059 C 
BRANCH   5   6
ATOM      6  C   UNL     1      -4.106   5.033   5.203  1.00  0.00     0.042 C 
ATOM      7  O   UNL     1      -3.865   4.211   6.126  1.00  0.00    -0.550 OA
ATOM      8  O   UNL     1      -3.058   5.719   4.602  1.00  0.00    -0.550 OA
ENDBRANCH   5   6
ENDBRANCH   1   5
TORSDOF 3
ENDMDL
MODEL 2
REMARK VINA RESULT:    -4.541      0.181      4.337
REMARK INTER + INTRA:          -5.375
REMARK INTER:                  -5.337
REMARK INTRA:                  -0.038
REMARK UNBOUND:                -0.038
REMARK SMILES O=C([O-])CCC(=O)[O-]
REMARK SMILES IDX 4 1 2 2 1 3 3 4 5 5 6 6 7 7 8 8
REMARK H PARENT
REMARK Flexibility Score: inf
ROOT
ATOM      1  C   UNL     1      -5.362   5.262   4.772  1.00  0.00     0.059 C 
ENDROOT
BRANCH   1   2
ATOM      2  C   UNL     1      -3.918   5.024   5.091  1.00  0.00     0.042 C 
ATOM      3  O   UNL     1      -3.593   4.157   5.946  1.00  0.00    -0.550 OA
ATOM      4  O   UNL     1      -2.935   5.786   4.475  1.00  0.00    -0.550 OA
ENDBRANCH   1   2
BRANCH   1   5
ATOM      5  C   UNL     1      -5.535   6.384   3.743  1.00  0.00     0.059 C 
BRANCH   5   6
ATOM      6  C   UNL     1      -6.677   6.110   2.812  1.00  0.00     0.042 C 
ATOM      7  O   UNL     1      -6.612   6.465   1.606  1.00  0.00    -0.550 OA
ATOM      8  O   UNL     1      -7.832   5.501   3.288  1.00  0.00    -0.550 OA
ENDBRANCH   5   6
ENDBRANCH   1   5
TORSDOF 3
ENDMDL
MODEL 3
REMARK VINA RESULT:    -4.527     10.996     11.363
REMARK INTER + INTRA:          -5.359
REMARK INTER:                  -5.247
REMARK INTRA:                  -0.112
REMARK UNBOUND:                -0.038
REMARK SMILES O=C([O-])CCC(=O)[O-]
REMARK SMILES IDX 4 1 2 2 1 3 3 4 5 5 6 6 7 7 8 8
REMARK H PARENT
REMARK Flexibility Score: inf
ROOT
ATOM      1  C   UNL     1      -2.891  -0.808  -4.229  1.00  0.00     0.059 C 
ENDROOT
BRANCH   1   2
ATOM      2  C   UNL     1      -3.108  -0.458  -2.789  1.00  0.00     0.042 C 
ATOM      3  O   UNL     1      -2.562  -1.140  -1.882  1.00  0.00    -0.550 OA
ATOM      4  O   UNL     1      -3.946   0.596  -2.448  1.00  0.00    -0.550 OA
ENDBRANCH   1   2
BRANCH   1   5
ATOM      5  C   UNL     1      -1.401  -0.956  -4.555  1.00  0.00     0.059 C 
BRANCH   5   6
ATOM      6  C   UNL     1      -1.041  -2.378  -4.862  1.00  0.00     0.042 C 
ATOM      7  O   UNL     1      -1.398  -3.304  -4.087  1.00  0.00    -0.550 OA
ATOM      8  O   UNL     1      -0.275  -2.677  -5.982  1.00  0.00    -0.550 OA
ENDBRANCH   5   6
ENDBRANCH   1   5
TORSDOF 3
ENDMDL
MODEL 4
REMARK VINA RESULT:    -4.515     11.032     11.527
REMARK INTER + INTRA:          -5.344
REMARK INTER:                  -5.230
REMARK INTRA:                  -0.114
REMARK UNBOUND:                -0.038
REMARK SMILES O=C([O-])CCC(=O)[O-]
REMARK SMILES IDX 4 1 2 2 1 3 3 4 5 5 6 6 7 7 8 8
REMARK H PARENT
REMARK Flexibility Score: inf
ROOT
ATOM      1  C   UNL     1      -1.385  -0.990  -4.558  1.00  0.00     0.059 C 
ENDROOT
BRANCH   1   2
ATOM      2  C   UNL     1      -1.034  -2.409  -4.887  1.00  0.00     0.042 C 
ATOM      3  O   UNL     1      -1.374  -3.341  -4.112  1.00  0.00    -0.550 OA
ATOM      4  O   UNL     1      -0.297  -2.696  -6.028  1.00  0.00    -0.550 OA
ENDBRANCH   1   2
BRANCH   1   5
ATOM      5  C   UNL     1      -2.872  -0.841  -4.219  1.00  0.00     0.059 C 
BRANCH   5   6
ATOM      6  C   UNL     1      -3.079  -0.503  -2.774  1.00  0.00     0.042 C 
ATOM      7  O   UNL     1      -2.522  -1.190  -1.877  1.00  0.00    -0.550 OA
ATOM      8  O   UNL     1      -3.919   0.543  -2.416  1.00  0.00    -0.550 OA
ENDBRANCH   5   6
ENDBRANCH   1   5
TORSDOF 3
ENDMDL
MODEL 5
REMARK VINA RESULT:    -4.467     11.602     11.927
REMARK INTER + INTRA:          -5.288
REMARK INTER:                  -5.209
REMARK INTRA:                  -0.079
REMARK UNBOUND:                -0.038
REMARK SMILES O=C([O-])CCC(=O)[O-]
REMARK SMILES IDX 4 1 2 2 1 3 3 4 5 5 6 6 7 7 8 8
REMARK H PARENT
REMARK Flexibility Score: inf
ROOT
ATOM      1  C   UNL     1      -2.708  -2.039  -2.762  1.00  0.00     0.059 C 
ENDROOT
BRANCH   1   2
ATOM      2  C   UNL     1      -4.030  -2.582  -3.211  1.00  0.00     0.042 C 
ATOM      3  O   UNL     1      -4.834  -1.848  -3.844  1.00  0.00    -0.550 OA
ATOM      4  O   UNL     1      -4.389  -3.886  -2.896  1.00  0.00    -0.550 OA
ENDBRANCH   1   2
BRANCH   1   5
ATOM      5  C   UNL     1      -1.929  -1.415  -3.925  1.00  0.00     0.059 C 
BRANCH   5   6
ATOM      6  C   UNL     1      -1.114  -2.438  -4.656  1.00  0.00     0.042 C 
ATOM      7  O   UNL     1      -0.555  -2.142  -5.745  1.00  0.00    -0.550 OA
ATOM      8  O   UNL     1      -1.008  -3.730  -4.157  1.00  0.00    -0.550 OA
ENDBRANCH   5   6
ENDBRANCH   1   5
TORSDOF 3
ENDMDL
MODEL 6
REMARK VINA RESULT:    -4.450     11.545     12.075
REMARK INTER + INTRA:          -5.269
REMARK INTER:                  -5.184
REMARK INTRA:                  -0.084
REMARK UNBOUND:                -0.038
REMARK SMILES O=C([O-])CCC(=O)[O-]
REMARK SMILES IDX 4 1 2 2 1 3 3 4 5 5 6 6 7 7 8 8
REMARK H PARENT
REMARK Flexibility Score: inf
ROOT
ATOM      1  C   UNL     1      -1.880  -1.392  -3.990  1.00  0.00     0.059 C 
ENDROOT
BRANCH   1   2
ATOM      2  C   UNL     1      -1.104  -2.497  -4.638  1.00  0.00     0.042 C 
ATOM      3  O   UNL     1      -0.531  -2.304  -5.743  1.00  0.00    -0.550 OA
ATOM      4  O   UNL     1      -1.047  -3.750  -4.043  1.00  0.00    -0.550 OA
ENDBRANCH   1   2
BRANCH   1   5
ATOM      5  C   UNL     1      -2.655  -1.891  -2.765  1.00  0.00     0.059 C 
BRANCH   5   6
ATOM      6  C   UNL     1      -4.011  -2.407  -3.142  1.00  0.00     0.042 C 
ATOM      7  O   UNL     1      -4.897  -1.616  -3.559  1.00  0.00    -0.550 OA
ATOM      8  O   UNL     1      -4.309  -3.756  -2.991  1.00  0.00    -0.550 OA
ENDBRANCH   5   6
ENDBRANCH   1   5
TORSDOF 3
ENDMDL
MODEL 7
REMARK VINA RESULT:    -4.427      9.702     10.196
REMARK INTER + INTRA:          -5.241
REMARK INTER:                  -5.104
REMARK INTRA:                  -0.137
REMARK UNBOUND:                -0.038
REMARK SMILES O=C([O-])CCC(=O)[O-]
REMARK SMILES IDX 4 1 2 2 1 3 3 4 5 5 6 6 7 7 8 8
REMARK H PARENT
REMARK Flexibility Score: inf
ROOT
ATOM      1  C   UNL     1      -5.351  -0.921  -2.736  1.00  0.00     0.059 C 
ENDROOT
BRANCH   1   2
ATOM      2  C   UNL     1      -4.372  -0.058  -2.000  1.00  0.00     0.042 C 
ATOM      3  O   UNL     1      -3.449   0.528  -2.626  1.00  0.00    -0.550 OA
ATOM      4  O   UNL     1      -4.455   0.067  -0.620  1.00  0.00    -0.550 OA
ENDBRANCH   1   2
BRANCH   1   5
ATOM      5  C   UNL     1      -4.660  -1.770  -3.808  1.00  0.00     0.059 C 
BRANCH   5   6
ATOM      6  C   UNL     1      -3.980  -2.965  -3.212  1.00  0.00     0.042 C 
ATOM      7  O   UNL     1      -2.727  -2.983  -3.084  1.00  0.00    -0.550 OA
ATOM      8  O   UNL     1      -4.725  -4.076  -2.838  1.00  0.00    -0.550 OA
ENDBRANCH   5   6
ENDBRANCH   1   5
TORSDOF 3
ENDMDL
MODEL 8
REMARK VINA RESULT:    -4.390      9.754     10.297
REMARK INTER + INTRA:          -5.198
REMARK INTER:                  -5.063
REMARK INTRA:                  -0.135
REMARK UNBOUND:                -0.038
REMARK SMILES O=C([O-])CCC(=O)[O-]
REMARK SMILES IDX 4 1 2 2 1 3 3 4 5 5 6 6 7 7 8 8
REMARK H PARENT
REMARK Flexibility Score: inf
ROOT
ATOM      1  C   UNL     1      -4.647  -1.840  -3.822  1.00  0.00     0.059 C 
ENDROOT
BRANCH   1   2
ATOM      2  C   UNL     1      -4.017  -3.048  -3.200  1.00  0.00     0.042 C 
ATOM      3  O   UNL     1      -2.768  -3.102  -3.045  1.00  0.00    -0.550 OA
ATOM      4  O   UNL     1      -4.804  -4.130  -2.828  1.00  0.00    -0.550 OA
ENDBRANCH   1   2
BRANCH   1   5
ATOM      5  C   UNL     1      -5.328  -0.955  -2.772  1.00  0.00     0.059 C 
BRANCH   5   6
ATOM      6  C   UNL     1      -4.343  -0.067  -2.075  1.00  0.00     0.042 C 
ATOM      7  O   UNL     1      -3.408   0.474  -2.722  1.00  0.00    -0.550 OA
ATOM      8  O   UNL     1      -4.431   0.129  -0.703  1.00  0.00    -0.550 OA
ENDBRANCH   5   6
ENDBRANCH   1   5
TORSDOF 3
ENDMDL
MODEL 9
REMARK VINA RESULT:    -4.311      9.693     10.336
REMARK INTER + INTRA:          -5.105
REMARK INTER:                  -5.029
REMARK INTRA:                  -0.076
REMARK UNBOUND:                -0.038
REMARK SMILES O=C([O-])CCC(=O)[O-]
REMARK SMILES IDX 4 1 2 2 1 3 3 4 5 5 6 6 7 7 8 8
REMARK H PARENT
REMARK Flexibility Score: inf
ROOT
ATOM      1  C   UNL     1      -3.037  -0.963  -3.917  1.00  0.00     0.059 C 
ENDROOT
BRANCH   1   2
ATOM      2  C   UNL     1      -2.147  -2.069  -3.438  1.00  0.00     0.042 C 
ATOM      3  O   UNL     1      -1.694  -2.915  -4.254  1.00  0.00    -0.550 OA
ATOM      4  O   UNL     1      -1.851  -2.188  -2.087  1.00  0.00    -0.550 OA
ENDBRANCH   1   2
BRANCH   1   5
ATOM      5  C   UNL     1      -3.291   0.073  -2.816  1.00  0.00     0.059 C 
BRANCH   5   6
ATOM      6  C   UNL     1      -4.622  -0.132  -2.160  1.00  0.00     0.042 C 
ATOM      7  O   UNL     1      -5.565  -0.673  -2.795  1.00  0.00    -0.550 OA
ATOM      8  O   UNL     1      -4.834   0.312  -0.861  1.00  0.00    -0.550 OA
ENDBRANCH   5   6
ENDBRANCH   1   5
TORSDOF 3
ENDMDL
