MODEL 1
REMARK VINA RESULT:    -5.340      0.000      0.000
REMARK INTER + INTRA:         -10.762
REMARK INTER:                  -9.710
REMARK INTRA:                  -1.052
REMARK UNBOUND:                -1.052
REMARK SMILES CCCCCC=CCC=CCCCCCCCC(=O)[O-]
REMARK SMILES IDX 11 1 12 2 13 3 14 4 15 5 16 6 17 7 18 8 19 9 20 10 10 11
REMARK SMILES IDX 9 12 8 13 7 14 6 15 5 16 4 17 3 18 2 19 1 20
REMARK H PARENT
REMARK Flexibility Score: inf
ROOT
ATOM      1  C   UNL     1       1.028  -1.384  17.358  1.00  0.00     0.027 C 
ENDROOT
BRANCH   1   2
ATOM      2  C   UNL     1       2.291  -0.610  16.959  1.00  0.00     0.004 C 
BRANCH   2   3
ATOM      3  C   UNL     1       1.994   0.873  16.674  1.00  0.00     0.000 C 
BRANCH   3   4
ATOM      4  C   UNL     1       3.175   1.790  17.028  1.00  0.00     0.000 C 
BRANCH   4   5
ATOM      5  C   UNL     1       3.465   1.829  18.537  1.00  0.00     0.000 C 
BRANCH   5   6
ATOM      6  C   UNL     1       4.479   2.933  18.872  1.00  0.00     0.006 C 
BRANCH   6   7
ATOM      7  C   UNL     1       5.639   2.981  17.870  1.00  0.00     0.053 C 
BRANCH   7   8
ATOM      8  C   UNL     1       6.880   2.352  18.423  1.00  0.00     0.041 C 
ATOM      9  O   UNL     1       7.853   2.098  17.665  1.00  0.00    -0.550 OA
ATOM     10  O   UNL     1       6.977   2.078  19.782  1.00  0.00    -0.550 OA
ENDBRANCH   7   8
ENDBRANCH   6   7
ENDBRANCH   5   6
ENDBRANCH   4   5
ENDBRANCH   3   4
ENDBRANCH   2   3
ENDBRANCH   1   2
BRANCH   1  11
ATOM     11  C   UNL     1       0.968  -1.610  18.846  1.00  0.00    -0.031 C 
ATOM     12  C   UNL     1       1.377  -2.760  19.402  1.00  0.00    -0.027 C 
BRANCH  12  13
ATOM     13  C   UNL     1       1.361  -2.966  20.890  1.00  0.00     0.054 C 
BRANCH  13  14
ATOM     14  C   UNL     1       1.533  -4.425  21.220  1.00  0.00    -0.027 C 
ATOM     15  C   UNL     1       2.434  -4.907  22.098  1.00  0.00    -0.031 C 
BRANCH  15  16
ATOM     16  C   UNL     1       3.454  -4.065  22.827  1.00  0.00     0.027 C 
BRANCH  16  17
ATOM     17  C   UNL     1       4.708  -4.872  23.193  1.00  0.00     0.004 C 
BRANCH  17  18
ATOM     18  C   UNL     1       5.704  -4.956  22.027  1.00  0.00     0.000 C 
BRANCH  18  19
ATOM     19  C   UNL     1       6.214  -3.563  21.641  1.00  0.00    -0.003 C 
ATOM     20  C   UNL     1       6.969  -2.913  22.797  1.00  0.00     0.004 C 
ENDBRANCH  18  19
ENDBRANCH  17  18
ENDBRANCH  16  17
ENDBRANCH  15  16
ENDBRANCH  13  14
ENDBRANCH  12  13
ENDBRANCH   1  11
TORSDOF 14
ENDMDL
MODEL 2
REMARK VINA RESULT:    -4.829     12.496     15.280
REMARK INTER + INTRA:          -9.833
REMARK INTER:                  -8.437
REMARK INTRA:                  -1.397
REMARK UNBOUND:                -1.052
REMARK SMILES CCCCCC=CCC=CCCCCCCCC(=O)[O-]
REMARK SMILES IDX 11 1 12 2 13 3 14 4 15 5 16 6 17 7 18 8 19 9 20 10 10 11
REMARK SMILES IDX 9 12 8 13 7 14 6 15 5 16 4 17 3 18 2 19 1 20
REMARK H PARENT
REMARK Flexibility Score: inf
ROOT
ATOM      1  C   UNL     1       9.219  -7.756  27.206  1.00  0.00     0.027 C 
ENDROOT
BRANCH   1   2
ATOM      2  C   UNL     1      10.523  -6.965  27.042  1.00  0.00     0.004 C 
BRANCH   2   3
ATOM      3  C   UNL     1      11.539  -7.704  26.152  1.00  0.00     0.000 C 
BRANCH   3   4
ATOM      4  C   UNL     1      10.871  -8.444  24.983  1.00  0.00     0.000 C 
BRANCH   4   5
ATOM      5  C   UNL     1      11.461  -9.844  24.752  1.00  0.00     0.000 C 
BRANCH   5   6
ATOM      6  C   UNL     1      11.804 -10.522  26.087  1.00  0.00     0.006 C 
BRANCH   6   7
ATOM      7  C   UNL     1      12.815 -11.663  25.917  1.00  0.00     0.053 C 
BRANCH   7   8
ATOM      8  C   UNL     1      12.139 -12.992  25.783  1.00  0.00     0.041 C 
ATOM      9  O   UNL     1      12.143 -13.805  26.745  1.00  0.00    -0.550 OA
ATOM     10  O   UNL     1      11.473 -13.321  24.608  1.00  0.00    -0.550 OA
ENDBRANCH   7   8
ENDBRANCH   6   7
ENDBRANCH   5   6
ENDBRANCH   4   5
ENDBRANCH   3   4
ENDBRANCH   2   3
ENDBRANCH   1   2
BRANCH   1  11
ATOM     11  C   UNL     1       9.004  -8.174  28.637  1.00  0.00    -0.031 C 
ATOM     12  C   UNL     1       9.922  -8.888  29.308  1.00  0.00    -0.027 C 
BRANCH  12  13
ATOM     13  C   UNL     1       9.727  -9.264  30.750  1.00  0.00     0.054 C 
BRANCH  13  14
ATOM     14  C   UNL     1      10.143  -8.129  31.648  1.00  0.00    -0.027 C 
ATOM     15  C   UNL     1      10.592  -8.280  32.909  1.00  0.00    -0.031 C 
BRANCH  15  16
ATOM     16  C   UNL     1      10.678  -9.602  33.635  1.00  0.00     0.027 C 
BRANCH  16  17
ATOM     17  C   UNL     1       9.519  -9.789  34.625  1.00  0.00     0.004 C 
BRANCH  17  18
ATOM     18  C   UNL     1       8.819 -11.144  34.447  1.00  0.00     0.000 C 
BRANCH  18  19
ATOM     19  C   UNL     1       8.041 -11.190  33.127  1.00  0.00    -0.003 C 
ATOM     20  C   UNL     1       6.538 -11.255  33.377  1.00  0.00     0.004 C 
ENDBRANCH  18  19
ENDBRANCH  17  18
ENDBRANCH  16  17
ENDBRANCH  15  16
ENDBRANCH  13  14
ENDBRANCH  12  13
ENDBRANCH   1  11
TORSDOF 14
ENDMDL
MODEL 3
REMARK VINA RESULT:    -4.827     13.821     17.073
REMARK INTER + INTRA:          -9.829
REMARK INTER:                  -6.955
REMARK INTRA:                  -2.874
REMARK UNBOUND:                -1.052
REMARK SMILES CCCCCC=CCC=CCCCCCCCC(=O)[O-]
REMARK SMILES IDX 11 1 12 2 13 3 14 4 15 5 16 6 17 7 18 8 19 9 20 10 10 11
REMARK SMILES IDX 9 12 8 13 7 14 6 15 5 16 4 17 3 18 2 19 1 20
REMARK H PARENT
REMARK Flexibility Score: inf
ROOT
ATOM      1  C   UNL     1      17.194 -14.040  26.232  1.00  0.00     0.027 C 
ENDROOT
BRANCH   1   2
ATOM      2  C   UNL     1      17.355 -12.733  25.445  1.00  0.00     0.004 C 
BRANCH   2   3
ATOM      3  C   UNL     1      16.036 -11.944  25.360  1.00  0.00     0.000 C 
BRANCH   3   4
ATOM      4  C   UNL     1      16.171 -10.655  24.535  1.00  0.00     0.000 C 
BRANCH   4   5
ATOM      5  C   UNL     1      15.122  -9.597  24.911  1.00  0.00     0.000 C 
BRANCH   5   6
ATOM      6  C   UNL     1      13.987 -10.219  25.737  1.00  0.00     0.006 C 
BRANCH   6   7
ATOM      7  C   UNL     1      12.604  -9.915  25.147  1.00  0.00     0.053 C 
BRANCH   7   8
ATOM      8  C   UNL     1      11.560  -9.783  26.212  1.00  0.00     0.041 C 
ATOM      9  O   UNL     1      10.591  -8.995  26.056  1.00  0.00    -0.550 OA
ATOM     10  O   UNL     1      11.637 -10.558  27.364  1.00  0.00    -0.550 OA
ENDBRANCH   7   8
ENDBRANCH   6   7
ENDBRANCH   5   6
ENDBRANCH   4   5
ENDBRANCH   3   4
ENDBRANCH   2   3
ENDBRANCH   1   2
BRANCH   1  11
ATOM     11  C   UNL     1      15.744 -14.350  26.495  1.00  0.00    -0.031 C 
ATOM     12  C   UNL     1      15.103 -15.331  25.840  1.00  0.00    -0.027 C 
BRANCH  12  13
ATOM     13  C   UNL     1      13.670 -15.671  26.138  1.00  0.00     0.054 C 
BRANCH  13  14
ATOM     14  C   UNL     1      12.888 -14.422  26.450  1.00  0.00    -0.027 C 
ATOM     15  C   UNL     1      12.199 -13.706  25.540  1.00  0.00    -0.031 C 
BRANCH  15  16
ATOM     16  C   UNL     1      12.167 -14.007  24.061  1.00  0.00     0.027 C 
BRANCH  16  17
ATOM     17  C   UNL     1      13.055 -13.044  23.259  1.00  0.00     0.004 C 
BRANCH  17  18
ATOM     18  C   UNL     1      14.286 -13.748  22.669  1.00  0.00     0.000 C 
BRANCH  18  19
ATOM     19  C   UNL     1      14.001 -15.232  22.417  1.00  0.00    -0.003 C 
ATOM     20  C   UNL     1      15.296 -16.032  22.313  1.00  0.00     0.004 C 
ENDBRANCH  18  19
ENDBRANCH  17  18
ENDBRANCH  16  17
ENDBRANCH  15  16
ENDBRANCH  13  14
ENDBRANCH  12  13
ENDBRANCH   1  11
TORSDOF 14
ENDMDL
MODEL 4
REMARK VINA RESULT:    -4.786     12.327     14.917
REMARK INTER + INTRA:          -9.754
REMARK INTER:                  -7.746
REMARK INTRA:                  -2.009
REMARK UNBOUND:                -1.052
REMARK SMILES CCCCCC=CCC=CCCCCCCCC(=O)[O-]
REMARK SMILES IDX 11 1 12 2 13 3 14 4 15 5 16 6 17 7 18 8 19 9 20 10 10 11
REMARK SMILES IDX 9 12 8 13 7 14 6 15 5 16 4 17 3 18 2 19 1 20
REMARK H PARENT
REMARK Flexibility Score: inf
ROOT
ATOM      1  C   UNL     1      11.466  -9.840  24.219  1.00  0.00     0.027 C 
ENDROOT
BRANCH   1   2
ATOM      2  C   UNL     1      12.432  -8.873  24.917  1.00  0.00     0.004 C 
BRANCH   2   3
ATOM      3  C   UNL     1      11.707  -7.951  25.914  1.00  0.00     0.000 C 
BRANCH   3   4
ATOM      4  C   UNL     1      10.409  -8.570  26.455  1.00  0.00     0.000 C 
BRANCH   4   5
ATOM      5  C   UNL     1      10.602  -9.259  27.815  1.00  0.00     0.000 C 
BRANCH   5   6
ATOM      6  C   UNL     1       9.441  -8.931  28.766  1.00  0.00     0.006 C 
BRANCH   6   7
ATOM      7  C   UNL     1       8.414  -7.988  28.126  1.00  0.00     0.053 C 
BRANCH   7   8
ATOM      8  C   UNL     1       7.029  -8.244  28.635  1.00  0.00     0.041 C 
ATOM      9  O   UNL     1       6.856  -8.875  29.710  1.00  0.00    -0.550 OA
ATOM     10  O   UNL     1       5.930  -7.754  27.939  1.00  0.00    -0.550 OA
ENDBRANCH   7   8
ENDBRANCH   6   7
ENDBRANCH   5   6
ENDBRANCH   4   5
ENDBRANCH   3   4
ENDBRANCH   2   3
ENDBRANCH   1   2
BRANCH   1  11
ATOM     11  C   UNL     1      11.752 -11.270  24.594  1.00  0.00    -0.031 C 
ATOM     12  C   UNL     1      11.498 -12.284  23.752  1.00  0.00    -0.027 C 
BRANCH  12  13
ATOM     13  C   UNL     1      11.828 -13.706  24.109  1.00  0.00     0.054 C 
BRANCH  13  14
ATOM     14  C   UNL     1      12.075 -13.832  25.589  1.00  0.00    -0.027 C 
ATOM     15  C   UNL     1      13.135 -14.460  26.134  1.00  0.00    -0.031 C 
BRANCH  15  16
ATOM     16  C   UNL     1      14.194 -15.194  25.346  1.00  0.00     0.027 C 
BRANCH  16  17
ATOM     17  C   UNL     1      15.466 -14.352  25.172  1.00  0.00     0.004 C 
BRANCH  17  18
ATOM     18  C   UNL     1      15.545 -13.704  23.782  1.00  0.00     0.000 C 
BRANCH  18  19
ATOM     19  C   UNL     1      15.263 -12.200  23.862  1.00  0.00    -0.003 C 
ATOM     20  C   UNL     1      15.441 -11.681  25.286  1.00  0.00     0.004 C 
ENDBRANCH  18  19
ENDBRANCH  17  18
ENDBRANCH  16  17
ENDBRANCH  15  16
ENDBRANCH  13  14
ENDBRANCH  12  13
ENDBRANCH   1  11
TORSDOF 14
ENDMDL
MODEL 5
REMARK VINA RESULT:    -4.777     11.591     15.926
REMARK INTER + INTRA:          -9.739
REMARK INTER:                  -7.437
REMARK INTRA:                  -2.303
REMARK UNBOUND:                -1.052
REMARK SMILES CCCCCC=CCC=CCCCCCCCC(=O)[O-]
REMARK SMILES IDX 11 1 12 2 13 3 14 4 15 5 16 6 17 7 18 8 19 9 20 10 10 11
REMARK SMILES IDX 9 12 8 13 7 14 6 15 5 16 4 17 3 18 2 19 1 20
REMARK H PARENT
REMARK Flexibility Score: inf
ROOT
ATOM      1  C   UNL     1      15.738 -11.235  24.569  1.00  0.00     0.027 C 
ENDROOT
BRANCH   1   2
ATOM      2  C   UNL     1      14.790 -10.149  25.094  1.00  0.00     0.004 C 
BRANCH   2   3
ATOM      3  C   UNL     1      13.800 -10.700  26.136  1.00  0.00     0.000 C 
BRANCH   3   4
ATOM      4  C   UNL     1      12.442  -9.982  26.098  1.00  0.00     0.000 C 
BRANCH   4   5
ATOM      5  C   UNL     1      11.544 -10.348  27.290  1.00  0.00     0.000 C 
BRANCH   5   6
ATOM      6  C   UNL     1      10.492  -9.257  27.539  1.00  0.00     0.006 C 
BRANCH   6   7
ATOM      7  C   UNL     1      10.942  -7.886  27.020  1.00  0.00     0.053 C 
BRANCH   7   8
ATOM      8  C   UNL     1       9.786  -6.952  26.837  1.00  0.00     0.041 C 
ATOM      9  O   UNL     1       8.645  -7.264  27.266  1.00  0.00    -0.550 OA
ATOM     10  O   UNL     1       9.977  -5.718  26.224  1.00  0.00    -0.550 OA
ENDBRANCH   7   8
ENDBRANCH   6   7
ENDBRANCH   5   6
ENDBRANCH   4   5
ENDBRANCH   3   4
ENDBRANCH   2   3
ENDBRANCH   1   2
BRANCH   1  11
ATOM     11  C   UNL     1      15.739 -12.445  25.466  1.00  0.00    -0.031 C 
ATOM     12  C   UNL     1      16.149 -13.646  25.029  1.00  0.00    -0.027 C 
BRANCH  12  13
ATOM     13  C   UNL     1      16.195 -14.842  25.938  1.00  0.00     0.054 C 
BRANCH  13  14
ATOM     14  C   UNL     1      15.184 -15.870  25.505  1.00  0.00    -0.027 C 
ATOM     15  C   UNL     1      13.893 -15.880  25.891  1.00  0.00    -0.031 C 
BRANCH  15  16
ATOM     16  C   UNL     1      13.286 -14.905  26.872  1.00  0.00     0.027 C 
BRANCH  16  17
ATOM     17  C   UNL     1      12.296 -13.948  26.191  1.00  0.00     0.004 C 
BRANCH  17  18
ATOM     18  C   UNL     1      12.443 -13.955  24.662  1.00  0.00     0.000 C 
BRANCH  18  19
ATOM     19  C   UNL     1      11.477 -12.956  24.015  1.00  0.00    -0.003 C 
ATOM     20  C   UNL     1      12.045 -12.410  22.708  1.00  0.00     0.004 C 
ENDBRANCH  18  19
ENDBRANCH  17  18
ENDBRANCH  16  17
ENDBRANCH  15  16
ENDBRANCH  13  14
ENDBRANCH  12  13
ENDBRANCH   1  11
TORSDOF 14
ENDMDL
MODEL 6
REMARK VINA RESULT:    -4.774     14.041     16.587
REMARK INTER + INTRA:          -9.733
REMARK INTER:                  -8.306
REMARK INTRA:                  -1.427
REMARK UNBOUND:                -1.052
REMARK SMILES CCCCCC=CCC=CCCCCCCCC(=O)[O-]
REMARK SMILES IDX 11 1 12 2 13 3 14 4 15 5 16 6 17 7 18 8 19 9 20 10 10 11
REMARK SMILES IDX 9 12 8 13 7 14 6 15 5 16 4 17 3 18 2 19 1 20
REMARK H PARENT
REMARK Flexibility Score: inf
ROOT
ATOM      1  C   UNL     1       9.579  -8.942  28.154  1.00  0.00     0.027 C 
ENDROOT
BRANCH   1   2
ATOM      2  C   UNL     1      10.860  -8.563  27.399  1.00  0.00     0.004 C 
BRANCH   2   3
ATOM      3  C   UNL     1      11.260  -9.630  26.365  1.00  0.00     0.000 C 
BRANCH   3   4
ATOM      4  C   UNL     1      11.826 -10.901  27.017  1.00  0.00     0.000 C 
BRANCH   4   5
ATOM      5  C   UNL     1      12.549 -11.812  26.013  1.00  0.00     0.000 C 
BRANCH   5   6
ATOM      6  C   UNL     1      12.208 -13.288  26.268  1.00  0.00     0.006 C 
BRANCH   6   7
ATOM      7  C   UNL     1      12.880 -14.224  25.255  1.00  0.00     0.053 C 
BRANCH   7   8
ATOM      8  C   UNL     1      13.983 -15.021  25.879  1.00  0.00     0.041 C 
ATOM      9  O   UNL     1      13.856 -16.263  26.036  1.00  0.00    -0.550 OA
ATOM     10  O   UNL     1      15.168 -14.398  26.253  1.00  0.00    -0.550 OA
ENDBRANCH   7   8
ENDBRANCH   6   7
ENDBRANCH   5   6
ENDBRANCH   4   5
ENDBRANCH   3   4
ENDBRANCH   2   3
ENDBRANCH   1   2
BRANCH   1  11
ATOM     11  C   UNL     1       9.433  -8.149  29.425  1.00  0.00    -0.031 C 
ATOM     12  C   UNL     1       9.914  -8.598  30.595  1.00  0.00    -0.027 C 
BRANCH  12  13
ATOM     13  C   UNL     1       9.810  -7.784  31.854  1.00  0.00     0.054 C 
BRANCH  13  14
ATOM     14  C   UNL     1      10.930  -8.133  32.798  1.00  0.00    -0.027 C 
ATOM     15  C   UNL     1      10.764  -8.762  33.978  1.00  0.00    -0.031 C 
BRANCH  15  16
ATOM     16  C   UNL     1       9.426  -9.147  34.562  1.00  0.00     0.027 C 
BRANCH  16  17
ATOM     17  C   UNL     1       9.173 -10.659  34.470  1.00  0.00     0.004 C 
BRANCH  17  18
ATOM     18  C   UNL     1       8.019 -10.995  33.513  1.00  0.00     0.000 C 
BRANCH  18  19
ATOM     19  C   UNL     1       8.553 -11.465  32.155  1.00  0.00    -0.003 C 
ATOM     20  C   UNL     1       9.989 -11.967  32.272  1.00  0.00     0.004 C 
ENDBRANCH  18  19
ENDBRANCH  17  18
ENDBRANCH  16  17
ENDBRANCH  15  16
ENDBRANCH  13  14
ENDBRANCH  12  13
ENDBRANCH   1  11
TORSDOF 14
ENDMDL
MODEL 7
REMARK VINA RESULT:    -4.774      8.229     12.345
REMARK INTER + INTRA:          -9.733
REMARK INTER:                  -8.424
REMARK INTRA:                  -1.309
REMARK UNBOUND:                -1.052
REMARK SMILES CCCCCC=CCC=CCCCCCCCC(=O)[O-]
REMARK SMILES IDX 11 1 12 2 13 3 14 4 15 5 16 6 17 7 18 8 19 9 20 10 10 11
REMARK SMILES IDX 9 12 8 13 7 14 6 15 5 16 4 17 3 18 2 19 1 20
REMARK H PARENT
REMARK Flexibility Score: inf
ROOT
ATOM      1  C   UNL     1      10.341  -7.592  27.545  1.00  0.00     0.027 C 
ENDROOT
BRANCH   1   2
ATOM      2  C   UNL     1      11.334  -6.610  26.909  1.00  0.00     0.004 C 
BRANCH   2   3
ATOM      3  C   UNL     1      10.700  -5.810  25.757  1.00  0.00     0.000 C 
BRANCH   3   4
ATOM      4  C   UNL     1       9.440  -6.486  25.193  1.00  0.00     0.000 C 
BRANCH   4   5
ATOM      5  C   UNL     1       8.436  -5.478  24.612  1.00  0.00     0.000 C 
BRANCH   5   6
ATOM      6  C   UNL     1       7.789  -6.026  23.331  1.00  0.00     0.006 C 
BRANCH   6   7
ATOM      7  C   UNL     1       6.463  -5.329  23.005  1.00  0.00     0.053 C 
BRANCH   7   8
ATOM      8  C   UNL     1       6.484  -4.695  21.649  1.00  0.00     0.041 C 
ATOM      9  O   UNL     1       6.320  -5.398  20.618  1.00  0.00    -0.550 OA
ATOM     10  O   UNL     1       6.649  -3.320  21.524  1.00  0.00    -0.550 OA
ENDBRANCH   7   8
ENDBRANCH   6   7
ENDBRANCH   5   6
ENDBRANCH   4   5
ENDBRANCH   3   4
ENDBRANCH   2   3
ENDBRANCH   1   2
BRANCH   1  11
ATOM     11  C   UNL     1      10.782  -9.019  27.356  1.00  0.00    -0.031 C 
ATOM     12  C   UNL     1      11.679  -9.363  26.419  1.00  0.00    -0.027 C 
BRANCH  12  13
ATOM     13  C   UNL     1      12.153 -10.780  26.264  1.00  0.00     0.054 C 
BRANCH  13  14
ATOM     14  C   UNL     1      13.605 -10.807  25.865  1.00  0.00    -0.027 C 
ATOM     15  C   UNL     1      14.275 -11.918  25.503  1.00  0.00    -0.031 C 
BRANCH  15  16
ATOM     16  C   UNL     1      13.692 -13.311  25.511  1.00  0.00     0.027 C 
BRANCH  16  17
ATOM     17  C   UNL     1      13.791 -13.983  24.134  1.00  0.00     0.004 C 
BRANCH  17  18
ATOM     18  C   UNL     1      13.108 -13.154  23.036  1.00  0.00     0.000 C 
BRANCH  18  19
ATOM     19  C   UNL     1      11.591 -13.108  23.248  1.00  0.00    -0.003 C 
ATOM     20  C   UNL     1      11.005 -11.792  22.743  1.00  0.00     0.004 C 
ENDBRANCH  18  19
ENDBRANCH  17  18
ENDBRANCH  16  17
ENDBRANCH  15  16
ENDBRANCH  13  14
ENDBRANCH  12  13
ENDBRANCH   1  11
TORSDOF 14
ENDMDL
MODEL 8
REMARK VINA RESULT:    -4.721     10.035     12.955
REMARK INTER + INTRA:          -9.637
REMARK INTER:                  -7.915
REMARK INTRA:                  -1.722
REMARK UNBOUND:                -1.052
REMARK SMILES CCCCCC=CCC=CCCCCCCCC(=O)[O-]
REMARK SMILES IDX 11 1 12 2 13 3 14 4 15 5 16 6 17 7 18 8 19 9 20 10 10 11
REMARK SMILES IDX 9 12 8 13 7 14 6 15 5 16 4 17 3 18 2 19 1 20
REMARK H PARENT
REMARK Flexibility Score: inf
ROOT
ATOM      1  C   UNL     1      12.976  -3.959  25.625  1.00  0.00     0.027 C 
ENDROOT
BRANCH   1   2
ATOM      2  C   UNL     1      11.802  -4.871  26.005  1.00  0.00     0.004 C 
BRANCH   2   3
ATOM      3  C   UNL     1      10.509  -4.490  25.262  1.00  0.00     0.000 C 
BRANCH   3   4
ATOM      4  C   UNL     1       9.391  -5.527  25.452  1.00  0.00     0.000 C 
BRANCH   4   5
ATOM      5  C   UNL     1       9.870  -6.967  25.210  1.00  0.00     0.000 C 
BRANCH   5   6
ATOM      6  C   UNL     1       9.964  -7.743  26.532  1.00  0.00     0.006 C 
BRANCH   6   7
ATOM      7  C   UNL     1       8.760  -7.483  27.446  1.00  0.00     0.053 C 
BRANCH   7   8
ATOM      8  C   UNL     1       8.704  -8.454  28.585  1.00  0.00     0.041 C 
ATOM      9  O   UNL     1       9.709  -9.157  28.868  1.00  0.00    -0.550 OA
ATOM     10  O   UNL     1       7.553  -8.557  29.357  1.00  0.00    -0.550 OA
ENDBRANCH   7   8
ENDBRANCH   6   7
ENDBRANCH   5   6
ENDBRANCH   4   5
ENDBRANCH   3   4
ENDBRANCH   2   3
ENDBRANCH   1   2
BRANCH   1  11
ATOM     11  C   UNL     1      12.589  -2.505  25.697  1.00  0.00    -0.031 C 
ATOM     12  C   UNL     1      12.656  -1.814  26.845  1.00  0.00    -0.027 C 
BRANCH  12  13
ATOM     13  C   UNL     1      12.316  -0.351  26.905  1.00  0.00     0.054 C 
BRANCH  13  14
ATOM     14  C   UNL     1      11.347   0.007  25.809  1.00  0.00    -0.027 C 
ATOM     15  C   UNL     1      11.577   0.937  24.862  1.00  0.00    -0.031 C 
BRANCH  15  16
ATOM     16  C   UNL     1      12.809   1.808  24.799  1.00  0.00     0.027 C 
BRANCH  16  17
ATOM     17  C   UNL     1      13.696   1.462  23.594  1.00  0.00     0.004 C 
BRANCH  17  18
ATOM     18  C   UNL     1      14.396   0.105  23.762  1.00  0.00     0.000 C 
BRANCH  18  19
ATOM     19  C   UNL     1      15.763   0.273  24.435  1.00  0.00    -0.003 C 
ATOM     20  C   UNL     1      15.887  -0.628  25.661  1.00  0.00     0.004 C 
ENDBRANCH  18  19
ENDBRANCH  17  18
ENDBRANCH  16  17
ENDBRANCH  15  16
ENDBRANCH  13  14
ENDBRANCH  12  13
ENDBRANCH   1  11
TORSDOF 14
ENDMDL
MODEL 9
REMARK VINA RESULT:    -4.683     13.293     15.905
REMARK INTER + INTRA:          -9.568
REMARK INTER:                  -7.955
REMARK INTRA:                  -1.613
REMARK UNBOUND:                -1.052
REMARK SMILES CCCCCC=CCC=CCCCCCCCC(=O)[O-]
REMARK SMILES IDX 11 1 12 2 13 3 14 4 15 5 16 6 17 7 18 8 19 9 20 10 10 11
REMARK SMILES IDX 9 12 8 13 7 14 6 15 5 16 4 17 3 18 2 19 1 20
REMARK H PARENT
REMARK Flexibility Score: inf
ROOT
ATOM      1  C   UNL     1      11.375  -9.426  24.629  1.00  0.00     0.027 C 
ENDROOT
BRANCH   1   2
ATOM      2  C   UNL     1      10.908  -8.814  25.956  1.00  0.00     0.004 C 
BRANCH   2   3
ATOM      3  C   UNL     1      11.355  -9.651  27.168  1.00  0.00     0.000 C 
BRANCH   3   4
ATOM      4  C   UNL     1      10.254  -9.789  28.229  1.00  0.00     0.000 C 
BRANCH   4   5
ATOM      5  C   UNL     1       9.866  -8.443  28.861  1.00  0.00     0.000 C 
BRANCH   5   6
ATOM      6  C   UNL     1       8.888  -8.646  30.028  1.00  0.00     0.006 C 
BRANCH   6   7
ATOM      7  C   UNL     1       9.408  -9.661  31.053  1.00  0.00     0.053 C 
BRANCH   7   8
ATOM      8  C   UNL     1       9.755  -9.011  32.356  1.00  0.00     0.041 C 
ATOM      9  O   UNL     1       9.111  -9.298  33.399  1.00  0.00    -0.550 OA
ATOM     10  O   UNL     1      10.814  -8.113  32.428  1.00  0.00    -0.550 OA
ENDBRANCH   7   8
ENDBRANCH   6   7
ENDBRANCH   5   6
ENDBRANCH   4   5
ENDBRANCH   3   4
ENDBRANCH   2   3
ENDBRANCH   1   2
BRANCH   1  11
ATOM     11  C   UNL     1      11.872 -10.835  24.817  1.00  0.00    -0.031 C 
ATOM     12  C   UNL     1      11.636 -11.793  23.908  1.00  0.00    -0.027 C 
BRANCH  12  13
ATOM     13  C   UNL     1      12.174 -13.186  24.073  1.00  0.00     0.054 C 
BRANCH  13  14
ATOM     14  C   UNL     1      12.284 -13.536  25.534  1.00  0.00    -0.027 C 
ATOM     15  C   UNL     1      13.132 -14.455  26.036  1.00  0.00    -0.031 C 
BRANCH  15  16
ATOM     16  C   UNL     1      14.046 -15.322  25.203  1.00  0.00     0.027 C 
BRANCH  16  17
ATOM     17  C   UNL     1      15.526 -15.083  25.537  1.00  0.00     0.004 C 
BRANCH  17  18
ATOM     18  C   UNL     1      15.787 -13.647  26.014  1.00  0.00     0.000 C 
BRANCH  18  19
ATOM     19  C   UNL     1      16.231 -12.755  24.849  1.00  0.00    -0.003 C 
ATOM     20  C   UNL     1      15.567 -11.383  24.923  1.00  0.00     0.004 C 
ENDBRANCH  18  19
ENDBRANCH  17  18
ENDBRANCH  16  17
ENDBRANCH  15  16
ENDBRANCH  13  14
ENDBRANCH  12  13
ENDBRANCH   1  11
TORSDOF 14
ENDMDL
