MODEL 1
REMARK VINA RESULT:    -2.854      0.000      0.000
REMARK INTER + INTRA:         -10.246
REMARK INTER:                  -6.192
REMARK INTRA:                  -4.054
REMARK UNBOUND:                -4.054
REMARK SMILES CCCCCCCCCCCCCCCCCCCCCC(=O)[O-]
REMARK SMILES IDX 12 1 11 2 10 3 9 4 8 5 7 6 6 7 5 8 4 9 3 10 2 11 1 12 13 13
REMARK SMILES IDX 14 14 15 15 16 16 17 17 18 18 19 19 20 20 21 21 22 22 23 23
REMARK SMILES IDX 24 24
REMARK H PARENT
REMARK Flexibility Score: inf
ROOT
ATOM      1  C   UNL     1      16.033  -3.606 201.507  1.00  0.00     0.000 C 
ENDROOT
BRANCH   1   2
ATOM      2  C   UNL     1      17.092  -2.503 201.314  1.00  0.00     0.000 C 
BRANCH   2   3
ATOM      3  C   UNL     1      17.769  -2.048 202.625  1.00  0.00     0.000 C 
BRANCH   3   4
ATOM      4  C   UNL     1      18.526  -0.718 202.465  1.00  0.00    -0.000 C 
BRANCH   4   5
ATOM      5  C   UNL     1      17.978   0.395 203.378  1.00  0.00    -0.000 C 
BRANCH   5   6
ATOM      6  C   UNL     1      16.485   0.271 203.749  1.00  0.00    -0.000 C 
BRANCH   6   7
ATOM      7  C   UNL     1      15.600   1.483 203.390  1.00  0.00    -0.000 C 
BRANCH   7   8
ATOM      8  C   UNL     1      14.395   1.165 202.476  1.00  0.00    -0.000 C 
BRANCH   8   9
ATOM      9  C   UNL     1      14.780   0.559 201.114  1.00  0.00    -0.000 C 
BRANCH   9  10
ATOM     10  C   UNL     1      13.577   0.288 200.189  1.00  0.00    -0.000 C 
BRANCH  10  11
ATOM     11  C   UNL     1      13.993  -0.408 198.884  1.00  0.00    -0.003 C 
ATOM     12  C   UNL     1      15.507  -0.367 198.694  1.00  0.00     0.004 C 
ENDBRANCH  10  11
ENDBRANCH   9  10
ENDBRANCH   8   9
ENDBRANCH   7   8
ENDBRANCH   6   7
ENDBRANCH   5   6
ENDBRANCH   4   5
ENDBRANCH   3   4
ENDBRANCH   2   3
ENDBRANCH   1   2
BRANCH   1  13
ATOM     13  C   UNL     1      14.662  -3.311 200.875  1.00  0.00     0.000 C 
BRANCH  13  14
ATOM     14  C   UNL     1      13.537  -2.987 201.878  1.00  0.00     0.000 C 
BRANCH  14  15
ATOM     15  C   UNL     1      14.051  -2.514 203.255  1.00  0.00     0.000 C 
BRANCH  15  16
ATOM     16  C   UNL     1      12.948  -1.841 204.091  1.00  0.00     0.000 C 
BRANCH  16  17
ATOM     17  C   UNL     1      11.590  -1.822 203.369  1.00  0.00     0.000 C 
BRANCH  17  18
ATOM     18  C   UNL     1      11.134  -0.397 203.006  1.00  0.00     0.000 C 
BRANCH  18  19
ATOM     19  C   UNL     1      10.346  -0.349 201.688  1.00  0.00     0.000 C 
BRANCH  19  20
ATOM     20  C   UNL     1      10.369  -1.693 200.938  1.00  0.00     0.006 C 
BRANCH  20  21
ATOM     21  C   UNL     1      10.247  -1.512 199.420  1.00  0.00     0.053 C 
BRANCH  21  22
ATOM     22  C   UNL     1       8.861  -1.107 199.015  1.00  0.00     0.041 C 
ATOM     23  O   UNL     1       7.861  -1.691 199.509  1.00  0.00    -0.550 OA
ATOM     24  O   UNL     1       8.675  -0.079 198.098  1.00  0.00    -0.550 OA
ENDBRANCH  21  22
ENDBRANCH  20  21
ENDBRANCH  19  20
ENDBRANCH  18  19
ENDBRANCH  17  18
ENDBRANCH  16  17
ENDBRANCH  15  16
ENDBRANCH  14  15
ENDBRANCH  13  14
ENDBRANCH   1  13
TORSDOF 20
ENDMDL
MODEL 2
REMARK VINA RESULT:    -2.844      1.937      4.421
REMARK INTER + INTRA:         -10.223
REMARK INTER:                  -6.324
REMARK INTRA:                  -3.899
REMARK UNBOUND:                -4.054
REMARK SMILES CCCCCCCCCCCCCCCCCCCCCC(=O)[O-]
REMARK SMILES IDX 12 1 11 2 10 3 9 4 8 5 7 6 6 7 5 8 4 9 3 10 2 11 1 12 13 13
REMARK SMILES IDX 14 14 15 15 16 16 17 17 18 18 19 19 20 20 21 21 22 22 23 23
REMARK SMILES IDX 24 24
REMARK H PARENT
REMARK Flexibility Score: inf
ROOT
ATOM      1  C   UNL     1      16.157  -2.218 200.730  1.00  0.00     0.000 C 
ENDROOT
BRANCH   1   2
ATOM      2  C   UNL     1      15.694  -3.537 201.382  1.00  0.00     0.000 C 
BRANCH   2   3
ATOM      3  C   UNL     1      14.474  -3.381 202.314  1.00  0.00     0.000 C 
BRANCH   3   4
ATOM      4  C   UNL     1      14.017  -1.917 202.444  1.00  0.00    -0.000 C 
BRANCH   4   5
ATOM      5  C   UNL     1      13.244  -1.645 203.748  1.00  0.00    -0.000 C 
BRANCH   5   6
ATOM      6  C   UNL     1      11.730  -1.399 203.581  1.00  0.00    -0.000 C 
BRANCH   6   7
ATOM      7  C   UNL     1      11.042  -2.182 202.443  1.00  0.00    -0.000 C 
BRANCH   7   8
ATOM      8  C   UNL     1      10.421  -1.307 201.331  1.00  0.00    -0.000 C 
BRANCH   8   9
ATOM      9  C   UNL     1      10.495  -1.929 199.925  1.00  0.00    -0.000 C 
BRANCH   9  10
ATOM     10  C   UNL     1      11.931  -2.084 199.386  1.00  0.00    -0.000 C 
BRANCH  10  11
ATOM     11  C   UNL     1      12.349  -3.558 199.262  1.00  0.00    -0.003 C 
ATOM     12  C   UNL     1      13.596  -3.707 198.396  1.00  0.00     0.004 C 
ENDBRANCH  10  11
ENDBRANCH   9  10
ENDBRANCH   8   9
ENDBRANCH   7   8
ENDBRANCH   6   7
ENDBRANCH   5   6
ENDBRANCH   4   5
ENDBRANCH   3   4
ENDBRANCH   2   3
ENDBRANCH   1   2
BRANCH   1  13
ATOM     13  C   UNL     1      17.542  -1.720 201.177  1.00  0.00     0.000 C 
BRANCH  13  14
ATOM     14  C   UNL     1      17.795  -1.772 202.696  1.00  0.00     0.000 C 
BRANCH  14  15
ATOM     15  C   UNL     1      17.925  -0.380 203.351  1.00  0.00     0.000 C 
BRANCH  15  16
ATOM     16  C   UNL     1      16.565   0.183 203.801  1.00  0.00     0.000 C 
BRANCH  16  17
ATOM     17  C   UNL     1      16.254   1.550 203.169  1.00  0.00     0.000 C 
BRANCH  17  18
ATOM     18  C   UNL     1      14.747   1.770 202.948  1.00  0.00     0.000 C 
BRANCH  18  19
ATOM     19  C   UNL     1      14.335   1.595 201.478  1.00  0.00     0.000 C 
BRANCH  19  20
ATOM     20  C   UNL     1      12.817   1.408 201.309  1.00  0.00     0.006 C 
BRANCH  20  21
ATOM     21  C   UNL     1      12.012   2.327 202.237  1.00  0.00     0.053 C 
BRANCH  21  22
ATOM     22  C   UNL     1      10.545   2.279 201.933  1.00  0.00     0.041 C 
ATOM     23  O   UNL     1      10.128   2.548 200.776  1.00  0.00    -0.550 OA
ATOM     24  O   UNL     1       9.638   1.930 202.928  1.00  0.00    -0.550 OA
ENDBRANCH  21  22
ENDBRANCH  20  21
ENDBRANCH  19  20
ENDBRANCH  18  19
ENDBRANCH  17  18
ENDBRANCH  16  17
ENDBRANCH  15  16
ENDBRANCH  14  15
ENDBRANCH  13  14
ENDBRANCH   1  13
TORSDOF 20
ENDMDL
MODEL 3
REMARK VINA RESULT:    -2.835      2.069      4.470
REMARK INTER + INTRA:         -10.203
REMARK INTER:                  -6.414
REMARK INTRA:                  -3.790
REMARK UNBOUND:                -4.054
REMARK SMILES CCCCCCCCCCCCCCCCCCCCCC(=O)[O-]
REMARK SMILES IDX 12 1 11 2 10 3 9 4 8 5 7 6 6 7 5 8 4 9 3 10 2 11 1 12 13 13
REMARK SMILES IDX 14 14 15 15 16 16 17 17 18 18 19 19 20 20 21 21 22 22 23 23
REMARK SMILES IDX 24 24
REMARK H PARENT
REMARK Flexibility Score: inf
ROOT
ATOM      1  C   UNL     1      15.565  -0.975 203.048  1.00  0.00     0.000 C 
ENDROOT
BRANCH   1   2
ATOM      2  C   UNL     1      14.367  -1.946 203.061  1.00  0.00     0.000 C 
BRANCH   2   3
ATOM      3  C   UNL     1      13.293  -1.603 204.117  1.00  0.00     0.000 C 
BRANCH   3   4
ATOM      4  C   UNL     1      11.882  -1.507 203.510  1.00  0.00    -0.000 C 
BRANCH   4   5
ATOM      5  C   UNL     1      11.748  -2.279 202.184  1.00  0.00    -0.000 C 
BRANCH   5   6
ATOM      6  C   UNL     1      10.694  -1.727 201.201  1.00  0.00    -0.000 C 
BRANCH   6   7
ATOM      7  C   UNL     1      11.198  -1.431 199.773  1.00  0.00    -0.000 C 
BRANCH   7   8
ATOM      8  C   UNL     1      11.036   0.037 199.314  1.00  0.00    -0.000 C 
BRANCH   8   9
ATOM      9  C   UNL     1      12.327   0.871 199.404  1.00  0.00    -0.000 C 
BRANCH   9  10
ATOM     10  C   UNL     1      13.502   0.132 200.075  1.00  0.00    -0.000 C 
BRANCH  10  11
ATOM     11  C   UNL     1      14.535  -0.365 199.052  1.00  0.00    -0.003 C 
ATOM     12  C   UNL     1      14.974  -1.794 199.360  1.00  0.00     0.004 C 
ENDBRANCH  10  11
ENDBRANCH   9  10
ENDBRANCH   8   9
ENDBRANCH   7   8
ENDBRANCH   6   7
ENDBRANCH   5   6
ENDBRANCH   4   5
ENDBRANCH   3   4
ENDBRANCH   2   3
ENDBRANCH   1   2
BRANCH   1  13
ATOM     13  C   UNL     1      15.295   0.401 203.679  1.00  0.00     0.000 C 
BRANCH  13  14
ATOM     14  C   UNL     1      15.901   1.597 202.919  1.00  0.00     0.000 C 
BRANCH  14  15
ATOM     15  C   UNL     1      14.861   2.661 202.504  1.00  0.00     0.000 C 
BRANCH  15  16
ATOM     16  C   UNL     1      13.442   2.307 202.981  1.00  0.00     0.000 C 
BRANCH  16  17
ATOM     17  C   UNL     1      12.543   3.546 203.126  1.00  0.00     0.000 C 
BRANCH  17  18
ATOM     18  C   UNL     1      11.045   3.205 203.026  1.00  0.00     0.000 C 
BRANCH  18  19
ATOM     19  C   UNL     1      10.799   1.788 202.484  1.00  0.00     0.000 C 
BRANCH  19  20
ATOM     20  C   UNL     1       9.336   1.339 202.647  1.00  0.00     0.006 C 
BRANCH  20  21
ATOM     21  C   UNL     1       8.351   2.330 202.014  1.00  0.00     0.053 C 
BRANCH  21  22
ATOM     22  C   UNL     1       7.368   1.642 201.115  1.00  0.00     0.041 C 
ATOM     23  O   UNL     1       6.269   2.192 200.840  1.00  0.00    -0.550 OA
ATOM     24  O   UNL     1       7.670   0.397 200.575  1.00  0.00    -0.550 OA
ENDBRANCH  21  22
ENDBRANCH  20  21
ENDBRANCH  19  20
ENDBRANCH  18  19
ENDBRANCH  17  18
ENDBRANCH  16  17
ENDBRANCH  15  16
ENDBRANCH  14  15
ENDBRANCH  13  14
ENDBRANCH   1  13
TORSDOF 20
ENDMDL
MODEL 4
REMARK VINA RESULT:    -2.822      1.746      2.820
REMARK INTER + INTRA:         -10.175
REMARK INTER:                  -6.245
REMARK INTRA:                  -3.930
REMARK UNBOUND:                -4.054
REMARK SMILES CCCCCCCCCCCCCCCCCCCCCC(=O)[O-]
REMARK SMILES IDX 12 1 11 2 10 3 9 4 8 5 7 6 6 7 5 8 4 9 3 10 2 11 1 12 13 13
REMARK SMILES IDX 14 14 15 15 16 16 17 17 18 18 19 19 20 20 21 21 22 22 23 23
REMARK SMILES IDX 24 24
REMARK H PARENT
REMARK Flexibility Score: inf
ROOT
ATOM      1  C   UNL     1      17.041  -0.862 201.568  1.00  0.00     0.000 C 
ENDROOT
BRANCH   1   2
ATOM      2  C   UNL     1      17.399  -0.622 203.049  1.00  0.00     0.000 C 
BRANCH   2   3
ATOM      3  C   UNL     1      16.540   0.463 203.733  1.00  0.00     0.000 C 
BRANCH   3   4
ATOM      4  C   UNL     1      15.921   1.445 202.723  1.00  0.00    -0.000 C 
BRANCH   4   5
ATOM      5  C   UNL     1      14.388   1.534 202.840  1.00  0.00    -0.000 C 
BRANCH   5   6
ATOM      6  C   UNL     1      13.622   1.554 201.499  1.00  0.00    -0.000 C 
BRANCH   6   7
ATOM      7  C   UNL     1      14.495   1.602 200.227  1.00  0.00    -0.000 C 
BRANCH   7   8
ATOM      8  C   UNL     1      13.862   0.952 198.976  1.00  0.00    -0.000 C 
BRANCH   8   9
ATOM      9  C   UNL     1      13.086  -0.347 199.264  1.00  0.00    -0.000 C 
BRANCH   9  10
ATOM     10  C   UNL     1      12.783  -1.185 198.007  1.00  0.00    -0.000 C 
BRANCH  10  11
ATOM     11  C   UNL     1      13.377  -2.600 198.095  1.00  0.00    -0.003 C 
ATOM     12  C   UNL     1      12.499  -3.515 198.944  1.00  0.00     0.004 C 
ENDBRANCH  10  11
ENDBRANCH   9  10
ENDBRANCH   8   9
ENDBRANCH   7   8
ENDBRANCH   6   7
ENDBRANCH   5   6
ENDBRANCH   4   5
ENDBRANCH   3   4
ENDBRANCH   2   3
ENDBRANCH   1   2
BRANCH   1  13
ATOM     13  C   UNL     1      16.203  -2.123 201.296  1.00  0.00     0.000 C 
BRANCH  13  14
ATOM     14  C   UNL     1      14.708  -2.002 201.650  1.00  0.00     0.000 C 
BRANCH  14  15
ATOM     15  C   UNL     1      14.321  -2.719 202.962  1.00  0.00     0.000 C 
BRANCH  15  16
ATOM     16  C   UNL     1      13.567  -1.794 203.933  1.00  0.00     0.000 C 
BRANCH  16  17
ATOM     17  C   UNL     1      12.048  -2.034 203.916  1.00  0.00     0.000 C 
BRANCH  17  18
ATOM     18  C   UNL     1      11.315  -1.114 202.923  1.00  0.00     0.000 C 
BRANCH  18  19
ATOM     19  C   UNL     1      10.877  -1.853 201.649  1.00  0.00     0.000 C 
BRANCH  19  20
ATOM     20  C   UNL     1       9.721  -1.143 200.923  1.00  0.00     0.006 C 
BRANCH  20  21
ATOM     21  C   UNL     1       9.855   0.384 200.974  1.00  0.00     0.053 C 
BRANCH  21  22
ATOM     22  C   UNL     1       8.623   1.034 201.530  1.00  0.00     0.041 C 
ATOM     23  O   UNL     1       7.535   0.973 200.900  1.00  0.00    -0.550 OA
ATOM     24  O   UNL     1       8.677   1.701 202.749  1.00  0.00    -0.550 OA
ENDBRANCH  21  22
ENDBRANCH  20  21
ENDBRANCH  19  20
ENDBRANCH  18  19
ENDBRANCH  17  18
ENDBRANCH  16  17
ENDBRANCH  15  16
ENDBRANCH  14  15
ENDBRANCH  13  14
ENDBRANCH   1  13
TORSDOF 20
ENDMDL
MODEL 5
REMARK VINA RESULT:    -2.778      1.915      4.528
REMARK INTER + INTRA:         -10.080
REMARK INTER:                  -5.990
REMARK INTRA:                  -4.090
REMARK UNBOUND:                -4.054
REMARK SMILES CCCCCCCCCCCCCCCCCCCCCC(=O)[O-]
REMARK SMILES IDX 12 1 11 2 10 3 9 4 8 5 7 6 6 7 5 8 4 9 3 10 2 11 1 12 13 13
REMARK SMILES IDX 14 14 15 15 16 16 17 17 18 18 19 19 20 20 21 21 22 22 23 23
REMARK SMILES IDX 24 24
REMARK H PARENT
REMARK Flexibility Score: inf
ROOT
ATOM      1  C   UNL     1      10.579   0.147 201.728  1.00  0.00     0.000 C 
ENDROOT
BRANCH   1   2
ATOM      2  C   UNL     1      11.144   1.051 200.614  1.00  0.00     0.000 C 
BRANCH   2   3
ATOM      3  C   UNL     1      11.814   2.341 201.134  1.00  0.00     0.000 C 
BRANCH   3   4
ATOM      4  C   UNL     1      12.402   2.171 202.546  1.00  0.00    -0.000 C 
BRANCH   4   5
ATOM      5  C   UNL     1      13.364   3.308 202.934  1.00  0.00    -0.000 C 
BRANCH   5   6
ATOM      6  C   UNL     1      14.866   2.985 202.785  1.00  0.00    -0.000 C 
BRANCH   6   7
ATOM      7  C   UNL     1      15.343   1.680 203.456  1.00  0.00    -0.000 C 
BRANCH   7   8
ATOM      8  C   UNL     1      16.755   1.209 203.039  1.00  0.00    -0.000 C 
BRANCH   8   9
ATOM      9  C   UNL     1      17.223  -0.078 203.743  1.00  0.00    -0.000 C 
BRANCH   9  10
ATOM     10  C   UNL     1      18.252  -0.892 202.934  1.00  0.00    -0.000 C 
BRANCH  10  11
ATOM     11  C   UNL     1      18.119  -0.658 201.422  1.00  0.00    -0.003 C 
ATOM     12  C   UNL     1      18.191  -1.973 200.650  1.00  0.00     0.004 C 
ENDBRANCH  10  11
ENDBRANCH   9  10
ENDBRANCH   8   9
ENDBRANCH   7   8
ENDBRANCH   6   7
ENDBRANCH   5   6
ENDBRANCH   4   5
ENDBRANCH   3   4
ENDBRANCH   2   3
ENDBRANCH   1   2
BRANCH   1  13
ATOM     13  C   UNL     1      10.543  -1.354 201.394  1.00  0.00     0.000 C 
BRANCH  13  14
ATOM     14  C   UNL     1      11.168  -2.276 202.459  1.00  0.00     0.000 C 
BRANCH  14  15
ATOM     15  C   UNL     1      11.636  -1.530 203.728  1.00  0.00     0.000 C 
BRANCH  15  16
ATOM     16  C   UNL     1      13.155  -1.286 203.736  1.00  0.00     0.000 C 
BRANCH  16  17
ATOM     17  C   UNL     1      13.954  -2.533 203.320  1.00  0.00     0.000 C 
BRANCH  17  18
ATOM     18  C   UNL     1      14.771  -2.309 202.034  1.00  0.00     0.000 C 
BRANCH  18  19
ATOM     19  C   UNL     1      14.363  -1.026 201.293  1.00  0.00     0.000 C 
BRANCH  19  20
ATOM     20  C   UNL     1      14.638  -1.105 199.781  1.00  0.00     0.006 C 
BRANCH  20  21
ATOM     21  C   UNL     1      14.298  -2.483 199.201  1.00  0.00     0.053 C 
BRANCH  21  22
ATOM     22  C   UNL     1      12.850  -2.591 198.828  1.00  0.00     0.041 C 
ATOM     23  O   UNL     1      12.224  -3.667 199.019  1.00  0.00    -0.550 OA
ATOM     24  O   UNL     1      12.190  -1.499 198.276  1.00  0.00    -0.550 OA
ENDBRANCH  21  22
ENDBRANCH  20  21
ENDBRANCH  19  20
ENDBRANCH  18  19
ENDBRANCH  17  18
ENDBRANCH  16  17
ENDBRANCH  15  16
ENDBRANCH  14  15
ENDBRANCH  13  14
ENDBRANCH   1  13
TORSDOF 20
ENDMDL
MODEL 6
REMARK VINA RESULT:    -2.768      3.450      6.571
REMARK INTER + INTRA:         -10.059
REMARK INTER:                  -5.967
REMARK INTRA:                  -4.092
REMARK UNBOUND:                -4.054
REMARK SMILES CCCCCCCCCCCCCCCCCCCCCC(=O)[O-]
REMARK SMILES IDX 12 1 11 2 10 3 9 4 8 5 7 6 6 7 5 8 4 9 3 10 2 11 1 12 13 13
REMARK SMILES IDX 14 14 15 15 16 16 17 17 18 18 19 19 20 20 21 21 22 22 23 23
REMARK SMILES IDX 24 24
REMARK H PARENT
REMARK Flexibility Score: inf
ROOT
ATOM      1  C   UNL     1      13.197   0.145 199.951  1.00  0.00     0.000 C 
ENDROOT
BRANCH   1   2
ATOM      2  C   UNL     1      11.679   0.386 199.830  1.00  0.00     0.000 C 
BRANCH   2   3
ATOM      3  C   UNL     1      10.816  -0.818 200.266  1.00  0.00     0.000 C 
BRANCH   3   4
ATOM      4  C   UNL     1      10.542  -0.826 201.781  1.00  0.00    -0.000 C 
BRANCH   4   5
ATOM      5  C   UNL     1      11.087  -2.084 202.480  1.00  0.00    -0.000 C 
BRANCH   5   6
ATOM      6  C   UNL     1      11.842  -1.832 203.803  1.00  0.00    -0.000 C 
BRANCH   6   7
ATOM      7  C   UNL     1      13.323  -2.265 203.824  1.00  0.00    -0.000 C 
BRANCH   7   8
ATOM      8  C   UNL     1      14.055  -2.156 202.467  1.00  0.00    -0.000 C 
BRANCH   8   9
ATOM      9  C   UNL     1      14.664  -3.481 201.971  1.00  0.00    -0.000 C 
BRANCH   9  10
ATOM     10  C   UNL     1      14.638  -3.645 200.439  1.00  0.00    -0.000 C 
BRANCH  10  11
ATOM     11  C   UNL     1      13.208  -3.628 199.877  1.00  0.00    -0.003 C 
ATOM     12  C   UNL     1      13.193  -3.186 198.416  1.00  0.00     0.004 C 
ENDBRANCH  10  11
ENDBRANCH   9  10
ENDBRANCH   8   9
ENDBRANCH   7   8
ENDBRANCH   6   7
ENDBRANCH   5   6
ENDBRANCH   4   5
ENDBRANCH   3   4
ENDBRANCH   2   3
ENDBRANCH   1   2
BRANCH   1  13
ATOM     13  C   UNL     1      13.968   1.224 200.730  1.00  0.00     0.000 C 
BRANCH  13  14
ATOM     14  C   UNL     1      13.451   1.494 202.156  1.00  0.00     0.000 C 
BRANCH  14  15
ATOM     15  C   UNL     1      14.467   2.232 203.055  1.00  0.00     0.000 C 
BRANCH  15  16
ATOM     16  C   UNL     1      15.895   1.678 202.900  1.00  0.00     0.000 C 
BRANCH  16  17
ATOM     17  C   UNL     1      16.168   0.485 203.831  1.00  0.00     0.000 C 
BRANCH  17  18
ATOM     18  C   UNL     1      17.255  -0.456 203.282  1.00  0.00     0.000 C 
BRANCH  18  19
ATOM     19  C   UNL     1      17.209  -0.579 201.751  1.00  0.00     0.000 C 
BRANCH  19  20
ATOM     20  C   UNL     1      18.469  -1.247 201.174  1.00  0.00     0.006 C 
BRANCH  20  21
ATOM     21  C   UNL     1      18.147  -2.552 200.435  1.00  0.00     0.053 C 
BRANCH  21  22
ATOM     22  C   UNL     1      18.339  -3.753 201.312  1.00  0.00     0.041 C 
ATOM     23  O   UNL     1      18.129  -4.909 200.859  1.00  0.00    -0.550 OA
ATOM     24  O   UNL     1      18.759  -3.595 202.628  1.00  0.00    -0.550 OA
ENDBRANCH  21  22
ENDBRANCH  20  21
ENDBRANCH  19  20
ENDBRANCH  18  19
ENDBRANCH  17  18
ENDBRANCH  16  17
ENDBRANCH  15  16
ENDBRANCH  14  15
ENDBRANCH  13  14
ENDBRANCH   1  13
TORSDOF 20
ENDMDL
MODEL 7
REMARK VINA RESULT:    -2.760     17.097     18.949
REMARK INTER + INTRA:         -10.040
REMARK INTER:                  -6.413
REMARK INTRA:                  -3.628
REMARK UNBOUND:                -4.054
REMARK SMILES CCCCCCCCCCCCCCCCCCCCCC(=O)[O-]
REMARK SMILES IDX 12 1 11 2 10 3 9 4 8 5 7 6 6 7 5 8 4 9 3 10 2 11 1 12 13 13
REMARK SMILES IDX 14 14 15 15 16 16 17 17 18 18 19 19 20 20 21 21 22 22 23 23
REMARK SMILES IDX 24 24
REMARK H PARENT
REMARK Flexibility Score: inf
ROOT
ATOM      1  C   UNL     1      16.088 -14.779 186.632  1.00  0.00     0.000 C 
ENDROOT
BRANCH   1   2
ATOM      2  C   UNL     1      17.532 -15.318 186.596  1.00  0.00     0.000 C 
BRANCH   2   3
ATOM      3  C   UNL     1      18.610 -14.242 186.847  1.00  0.00     0.000 C 
BRANCH   3   4
ATOM      4  C   UNL     1      18.142 -12.835 186.434  1.00  0.00    -0.000 C 
BRANCH   4   5
ATOM      5  C   UNL     1      18.436 -11.769 187.507  1.00  0.00    -0.000 C 
BRANCH   5   6
ATOM      6  C   UNL     1      19.885 -11.239 187.534  1.00  0.00    -0.000 C 
BRANCH   6   7
ATOM      7  C   UNL     1      20.039  -9.704 187.513  1.00  0.00    -0.000 C 
BRANCH   7   8
ATOM      8  C   UNL     1      19.791  -9.041 186.139  1.00  0.00    -0.000 C 
BRANCH   8   9
ATOM      9  C   UNL     1      18.420  -8.353 186.009  1.00  0.00    -0.000 C 
BRANCH   9  10
ATOM     10  C   UNL     1      17.593  -8.833 184.800  1.00  0.00    -0.000 C 
BRANCH  10  11
ATOM     11  C   UNL     1      16.527  -7.807 184.382  1.00  0.00    -0.003 C 
ATOM     12  C   UNL     1      15.749  -7.295 185.591  1.00  0.00     0.004 C 
ENDBRANCH  10  11
ENDBRANCH   9  10
ENDBRANCH   8   9
ENDBRANCH   7   8
ENDBRANCH   6   7
ENDBRANCH   5   6
ENDBRANCH   4   5
ENDBRANCH   3   4
ENDBRANCH   2   3
ENDBRANCH   1   2
BRANCH   1  13
ATOM     13  C   UNL     1      15.223 -15.149 185.415  1.00  0.00     0.000 C 
BRANCH  13  14
ATOM     14  C   UNL     1      14.400 -13.989 184.821  1.00  0.00     0.000 C 
BRANCH  14  15
ATOM     15  C   UNL     1      15.208 -13.075 183.876  1.00  0.00     0.000 C 
BRANCH  15  16
ATOM     16  C   UNL     1      15.302 -11.630 184.398  1.00  0.00     0.000 C 
BRANCH  16  17
ATOM     17  C   UNL     1      14.370 -11.374 185.594  1.00  0.00     0.000 C 
BRANCH  17  18
ATOM     18  C   UNL     1      15.105 -10.748 186.793  1.00  0.00     0.000 C 
BRANCH  18  19
ATOM     19  C   UNL     1      14.330 -10.912 188.110  1.00  0.00     0.000 C 
BRANCH  19  20
ATOM     20  C   UNL     1      14.489 -12.316 188.717  1.00  0.00     0.006 C 
BRANCH  20  21
ATOM     21  C   UNL     1      13.146 -12.915 189.154  1.00  0.00     0.053 C 
BRANCH  21  22
ATOM     22  C   UNL     1      12.555 -13.794 188.093  1.00  0.00     0.041 C 
ATOM     23  O   UNL     1      12.839 -15.021 188.055  1.00  0.00    -0.550 OA
ATOM     24  O   UNL     1      11.684 -13.259 187.150  1.00  0.00    -0.550 OA
ENDBRANCH  21  22
ENDBRANCH  20  21
ENDBRANCH  19  20
ENDBRANCH  18  19
ENDBRANCH  17  18
ENDBRANCH  16  17
ENDBRANCH  15  16
ENDBRANCH  14  15
ENDBRANCH  13  14
ENDBRANCH   1  13
TORSDOF 20
ENDMDL
MODEL 8
REMARK VINA RESULT:    -2.740      2.212      2.874
REMARK INTER + INTRA:          -9.997
REMARK INTER:                  -6.464
REMARK INTRA:                  -3.533
REMARK UNBOUND:                -4.054
REMARK SMILES CCCCCCCCCCCCCCCCCCCCCC(=O)[O-]
REMARK SMILES IDX 12 1 11 2 10 3 9 4 8 5 7 6 6 7 5 8 4 9 3 10 2 11 1 12 13 13
REMARK SMILES IDX 14 14 15 15 16 16 17 17 18 18 19 19 20 20 21 21 22 22 23 23
REMARK SMILES IDX 24 24
REMARK H PARENT
REMARK Flexibility Score: inf
ROOT
ATOM      1  C   UNL     1      15.990  -3.354 201.375  1.00  0.00     0.000 C 
ENDROOT
BRANCH   1   2
ATOM      2  C   UNL     1      17.464  -2.997 201.656  1.00  0.00     0.000 C 
BRANCH   2   3
ATOM      3  C   UNL     1      17.654  -1.956 202.780  1.00  0.00     0.000 C 
BRANCH   3   4
ATOM      4  C   UNL     1      18.304  -0.656 202.273  1.00  0.00    -0.000 C 
BRANCH   4   5
ATOM      5  C   UNL     1      17.712   0.604 202.931  1.00  0.00    -0.000 C 
BRANCH   5   6
ATOM      6  C   UNL     1      16.431   0.377 203.763  1.00  0.00    -0.000 C 
BRANCH   6   7
ATOM      7  C   UNL     1      15.258   1.334 203.465  1.00  0.00    -0.000 C 
BRANCH   7   8
ATOM      8  C   UNL     1      14.668   1.222 202.040  1.00  0.00    -0.000 C 
BRANCH   8   9
ATOM      9  C   UNL     1      13.561   2.247 201.734  1.00  0.00    -0.000 C 
BRANCH   9  10
ATOM     10  C   UNL     1      12.776   2.708 202.977  1.00  0.00    -0.000 C 
BRANCH  10  11
ATOM     11  C   UNL     1      11.425   3.341 202.609  1.00  0.00    -0.003 C 
ATOM     12  C   UNL     1      11.300   3.538 201.101  1.00  0.00     0.004 C 
ENDBRANCH  10  11
ENDBRANCH   9  10
ENDBRANCH   8   9
ENDBRANCH   7   8
ENDBRANCH   6   7
ENDBRANCH   5   6
ENDBRANCH   4   5
ENDBRANCH   3   4
ENDBRANCH   2   3
ENDBRANCH   1   2
BRANCH   1  13
ATOM     13  C   UNL     1      14.959  -2.378 201.967  1.00  0.00     0.000 C 
BRANCH  13  14
ATOM     14  C   UNL     1      14.093  -2.954 203.104  1.00  0.00     0.000 C 
BRANCH  14  15
ATOM     15  C   UNL     1      13.376  -1.875 203.945  1.00  0.00     0.000 C 
BRANCH  15  16
ATOM     16  C   UNL     1      11.855  -1.866 203.711  1.00  0.00     0.000 C 
BRANCH  16  17
ATOM     17  C   UNL     1      11.394  -0.658 202.880  1.00  0.00     0.000 C 
BRANCH  17  18
ATOM     18  C   UNL     1      11.519  -0.900 201.365  1.00  0.00     0.000 C 
BRANCH  18  19
ATOM     19  C   UNL     1      10.518  -0.066 200.551  1.00  0.00     0.000 C 
BRANCH  19  20
ATOM     20  C   UNL     1       9.230   0.242 201.336  1.00  0.00     0.006 C 
BRANCH  20  21
ATOM     21  C   UNL     1       8.317   1.223 200.591  1.00  0.00     0.053 C 
BRANCH  21  22
ATOM     22  C   UNL     1       7.774   2.282 201.502  1.00  0.00     0.041 C 
ATOM     23  O   UNL     1       6.992   3.163 201.056  1.00  0.00    -0.550 OA
ATOM     24  O   UNL     1       8.124   2.290 202.848  1.00  0.00    -0.550 OA
ENDBRANCH  21  22
ENDBRANCH  20  21
ENDBRANCH  19  20
ENDBRANCH  18  19
ENDBRANCH  17  18
ENDBRANCH  16  17
ENDBRANCH  15  16
ENDBRANCH  14  15
ENDBRANCH  13  14
ENDBRANCH   1  13
TORSDOF 20
ENDMDL
MODEL 9
REMARK VINA RESULT:    -2.737     16.960     19.099
REMARK INTER + INTRA:          -9.992
REMARK INTER:                  -6.302
REMARK INTRA:                  -3.691
REMARK UNBOUND:                -4.054
REMARK SMILES CCCCCCCCCCCCCCCCCCCCCC(=O)[O-]
REMARK SMILES IDX 12 1 11 2 10 3 9 4 8 5 7 6 6 7 5 8 4 9 3 10 2 11 1 12 13 13
REMARK SMILES IDX 14 14 15 15 16 16 17 17 18 18 19 19 20 20 21 21 22 22 23 23
REMARK SMILES IDX 24 24
REMARK H PARENT
REMARK Flexibility Score: inf
ROOT
ATOM      1  C   UNL     1      18.358 -12.592 186.695  1.00  0.00     0.000 C 
ENDROOT
BRANCH   1   2
ATOM      2  C   UNL     1      18.355 -14.124 186.871  1.00  0.00     0.000 C 
BRANCH   2   3
ATOM      3  C   UNL     1      16.953 -14.726 187.106  1.00  0.00     0.000 C 
BRANCH   3   4
ATOM      4  C   UNL     1      16.295 -15.209 185.801  1.00  0.00    -0.000 C 
BRANCH   4   5
ATOM      5  C   UNL     1      14.826 -14.767 185.673  1.00  0.00    -0.000 C 
BRANCH   5   6
ATOM      6  C   UNL     1      14.525 -13.796 184.511  1.00  0.00    -0.000 C 
BRANCH   6   7
ATOM      7  C   UNL     1      15.575 -12.691 184.270  1.00  0.00    -0.000 C 
BRANCH   7   8
ATOM      8  C   UNL     1      15.067 -11.248 184.492  1.00  0.00    -0.000 C 
BRANCH   8   9
ATOM      9  C   UNL     1      14.362 -11.029 185.843  1.00  0.00    -0.000 C 
BRANCH   9  10
ATOM     10  C   UNL     1      15.327 -10.850 187.030  1.00  0.00    -0.000 C 
BRANCH  10  11
ATOM     11  C   UNL     1      14.950 -11.739 188.225  1.00  0.00    -0.003 C 
ATOM     12  C   UNL     1      13.571 -12.365 188.034  1.00  0.00     0.004 C 
ENDBRANCH  10  11
ENDBRANCH   9  10
ENDBRANCH   8   9
ENDBRANCH   7   8
ENDBRANCH   6   7
ENDBRANCH   5   6
ENDBRANCH   4   5
ENDBRANCH   3   4
ENDBRANCH   2   3
ENDBRANCH   1   2
BRANCH   1  13
ATOM     13  C   UNL     1      19.332 -11.833 187.611  1.00  0.00     0.000 C 
BRANCH  13  14
ATOM     14  C   UNL     1      19.711 -10.418 187.130  1.00  0.00     0.000 C 
BRANCH  14  15
ATOM     15  C   UNL     1      18.873  -9.296 187.780  1.00  0.00     0.000 C 
BRANCH  15  16
ATOM     16  C   UNL     1      18.238  -8.361 186.736  1.00  0.00     0.000 C 
BRANCH  16  17
ATOM     17  C   UNL     1      18.013  -9.056 185.383  1.00  0.00     0.000 C 
BRANCH  17  18
ATOM     18  C   UNL     1      17.164  -8.209 184.418  1.00  0.00     0.000 C 
BRANCH  18  19
ATOM     19  C   UNL     1      15.863  -7.706 185.064  1.00  0.00     0.000 C 
BRANCH  19  20
ATOM     20  C   UNL     1      14.945  -6.987 184.060  1.00  0.00     0.006 C 
BRANCH  20  21
ATOM     21  C   UNL     1      13.607  -7.712 183.875  1.00  0.00     0.053 C 
BRANCH  21  22
ATOM     22  C   UNL     1      12.464  -6.928 184.445  1.00  0.00     0.041 C 
ATOM     23  O   UNL     1      12.460  -5.671 184.376  1.00  0.00    -0.550 OA
ATOM     24  O   UNL     1      11.398  -7.588 185.047  1.00  0.00    -0.550 OA
ENDBRANCH  21  22
ENDBRANCH  20  21
ENDBRANCH  19  20
ENDBRANCH  18  19
ENDBRANCH  17  18
ENDBRANCH  16  17
ENDBRANCH  15  16
ENDBRANCH  14  15
ENDBRANCH  13  14
ENDBRANCH   1  13
TORSDOF 20
ENDMDL
