MODEL 1
REMARK VINA RESULT:    -4.386      0.000      0.000
REMARK INTER + INTRA:          -7.315
REMARK INTER:                  -6.309
REMARK INTRA:                  -1.006
REMARK UNBOUND:                -1.006
REMARK SMILES O=C(CO)[C@@H](O)[C@@H](O)[C@@H](O)CO
REMARK SMILES IDX 7 1 9 2 11 3 12 4 10 6 5 8 2 9 1 10 3 11 4 12 6 14 8 16
REMARK H PARENT 12 5 10 7 4 13 6 15 8 17
REMARK Flexibility Score: inf
ROOT
ATOM      1  C   UNL     1     -19.283 -26.945   0.281  1.00  0.00     0.181 C 
ENDROOT
BRANCH   1   2
ATOM      2  C   UNL     1     -18.602 -28.003   1.190  1.00  0.00     0.171 C 
BRANCH   2   3
ATOM      3  C   UNL     1     -17.836 -27.348   2.353  1.00  0.00     0.190 C 
BRANCH   3   4
ATOM      4  O   UNL     1     -16.522 -27.048   1.968  1.00  0.00    -0.394 OA
ATOM      5  H   UNL     1     -15.942 -27.707   2.431  1.00  0.00     0.210 HD
ENDBRANCH   3   4
ENDBRANCH   2   3
BRANCH   2   6
ATOM      6  O   UNL     1     -17.698 -28.762   0.426  1.00  0.00    -0.388 OA
ATOM      7  H   UNL     1     -18.064 -29.683   0.375  1.00  0.00     0.211 HD
ENDBRANCH   2   6
ENDBRANCH   1   2
BRANCH   1   8
ATOM      8  C   UNL     1     -20.836 -27.025   0.347  1.00  0.00     0.214 C 
BRANCH   8   9
ATOM      9  C   UNL     1     -21.421 -25.991   1.290  1.00  0.00     0.189 C 
ATOM     10  O   UNL     1     -21.343 -26.173   2.496  1.00  0.00    -0.294 OA
BRANCH   9  11
ATOM     11  C   UNL     1     -22.110 -24.750   0.784  1.00  0.00     0.234 C 
BRANCH  11  12
ATOM     12  O   UNL     1     -21.225 -23.991   0.007  1.00  0.00    -0.388 OA
ATOM     13  H   UNL     1     -21.587 -23.994  -0.918  1.00  0.00     0.211 HD
ENDBRANCH  11  12
ENDBRANCH   9  11
ENDBRANCH   8   9
BRANCH   8  14
ATOM     14  O   UNL     1     -21.427 -26.907  -0.923  1.00  0.00    -0.382 OA
ATOM     15  H   UNL     1     -20.737 -26.574  -1.554  1.00  0.00     0.211 HD
ENDBRANCH   8  14
ENDBRANCH   1   8
BRANCH   1  16
ATOM     16  O   UNL     1     -18.853 -25.649   0.624  1.00  0.00    -0.387 OA
ATOM     17  H   UNL     1     -19.627 -25.175   1.027  1.00  0.00     0.211 HD
ENDBRANCH   1  16
TORSDOF 10
ENDMDL
MODEL 2
REMARK VINA RESULT:    -4.367     15.434     16.858
REMARK INTER + INTRA:          -7.288
REMARK INTER:                  -6.323
REMARK INTRA:                  -0.965
REMARK UNBOUND:                -1.006
REMARK SMILES O=C(CO)[C@@H](O)[C@@H](O)[C@@H](O)CO
REMARK SMILES IDX 7 1 9 2 11 3 12 4 10 6 5 8 2 9 1 10 3 11 4 12 6 14 8 16
REMARK H PARENT 12 5 10 7 4 13 6 15 8 17
REMARK Flexibility Score: inf
ROOT
ATOM      1  C   UNL     1     -22.244 -28.722  17.943  1.00  0.00     0.181 C 
ENDROOT
BRANCH   1   2
ATOM      2  C   UNL     1     -21.190 -29.545  17.152  1.00  0.00     0.171 C 
BRANCH   2   3
ATOM      3  C   UNL     1     -21.815 -30.258  15.940  1.00  0.00     0.190 C 
BRANCH   3   4
ATOM      4  O   UNL     1     -22.202 -31.560  16.283  1.00  0.00    -0.394 OA
ATOM      5  H   UNL     1     -23.187 -31.532  16.400  1.00  0.00     0.210 HD
ENDBRANCH   3   4
ENDBRANCH   2   3
BRANCH   2   6
ATOM      6  O   UNL     1     -20.622 -30.512  18.000  1.00  0.00    -0.388 OA
ATOM      7  H   UNL     1     -20.180 -31.184  17.417  1.00  0.00     0.211 HD
ENDBRANCH   2   6
ENDBRANCH   1   2
BRANCH   1   8
ATOM      8  C   UNL     1     -22.084 -27.190  17.716  1.00  0.00     0.214 C 
BRANCH   8   9
ATOM      9  C   UNL     1     -23.016 -26.673  16.638  1.00  0.00     0.189 C 
ATOM     10  O   UNL     1     -22.738 -26.869  15.465  1.00  0.00    -0.294 OA
BRANCH   9  11
ATOM     11  C   UNL     1     -24.272 -25.909  16.970  1.00  0.00     0.234 C 
BRANCH  11  12
ATOM     12  O   UNL     1     -25.092 -26.672  17.811  1.00  0.00    -0.388 OA
ATOM     13  H   UNL     1     -24.631 -26.721  18.688  1.00  0.00     0.211 HD
ENDBRANCH  11  12
ENDBRANCH   9  11
ENDBRANCH   8   9
BRANCH   8  14
ATOM     14  O   UNL     1     -22.266 -26.458  18.903  1.00  0.00    -0.382 OA
ATOM     15  H   UNL     1     -22.807 -25.654  18.689  1.00  0.00     0.211 HD
ENDBRANCH   8  14
ENDBRANCH   1   8
BRANCH   1  16
ATOM     16  O   UNL     1     -23.547 -29.126  17.596  1.00  0.00    -0.387 OA
ATOM     17  H   UNL     1     -24.182 -28.537  18.082  1.00  0.00     0.211 HD
ENDBRANCH   1  16
TORSDOF 10
ENDMDL
MODEL 3
REMARK VINA RESULT:    -4.341     15.369     17.025
REMARK INTER + INTRA:          -7.250
REMARK INTER:                  -6.483
REMARK INTRA:                  -0.767
REMARK UNBOUND:                -1.006
REMARK SMILES O=C(CO)[C@@H](O)[C@@H](O)[C@@H](O)CO
REMARK SMILES IDX 7 1 9 2 11 3 12 4 10 6 5 8 2 9 1 10 3 11 4 12 6 14 8 16
REMARK H PARENT 12 5 10 7 4 13 6 15 8 17
REMARK Flexibility Score: inf
ROOT
ATOM      1  C   UNL     1     -22.362 -27.877  17.236  1.00  0.00     0.181 C 
ENDROOT
BRANCH   1   2
ATOM      2  C   UNL     1     -23.570 -27.625  18.180  1.00  0.00     0.171 C 
BRANCH   2   3
ATOM      3  C   UNL     1     -23.440 -26.287  18.928  1.00  0.00     0.190 C 
BRANCH   3   4
ATOM      4  O   UNL     1     -22.553 -25.434  18.257  1.00  0.00    -0.394 OA
ATOM      5  H   UNL     1     -22.919 -24.518  18.362  1.00  0.00     0.210 HD
ENDBRANCH   3   4
ENDBRANCH   2   3
BRANCH   2   6
ATOM      6  O   UNL     1     -23.648 -28.663  19.125  1.00  0.00    -0.388 OA
ATOM      7  H   UNL     1     -23.128 -29.427  18.759  1.00  0.00     0.211 HD
ENDBRANCH   2   6
ENDBRANCH   1   2
BRANCH   1   8
ATOM      8  C   UNL     1     -21.969 -29.382  17.173  1.00  0.00     0.214 C 
BRANCH   8   9
ATOM      9  C   UNL     1     -21.598 -29.815  15.768  1.00  0.00     0.189 C 
ATOM     10  O   UNL     1     -20.767 -29.171  15.146  1.00  0.00    -0.294 OA
BRANCH   9  11
ATOM     11  C   UNL     1     -22.235 -31.011  15.108  1.00  0.00     0.234 C 
BRANCH  11  12
ATOM     12  O   UNL     1     -22.864 -31.813  16.069  1.00  0.00    -0.388 OA
ATOM     13  H   UNL     1     -22.632 -32.753  15.849  1.00  0.00     0.211 HD
ENDBRANCH  11  12
ENDBRANCH   9  11
ENDBRANCH   8   9
BRANCH   8  14
ATOM     14  O   UNL     1     -20.929 -29.695  18.064  1.00  0.00    -0.382 OA
ATOM     15  H   UNL     1     -20.086 -29.758  17.544  1.00  0.00     0.211 HD
ENDBRANCH   8  14
ENDBRANCH   1   8
BRANCH   1  16
ATOM     16  O   UNL     1     -22.638 -27.397  15.942  1.00  0.00    -0.387 OA
ATOM     17  H   UNL     1     -23.366 -26.725  16.022  1.00  0.00     0.211 HD
ENDBRANCH   1  16
TORSDOF 10
ENDMDL
MODEL 4
REMARK VINA RESULT:    -4.325      1.475      4.195
REMARK INTER + INTRA:          -7.228
REMARK INTER:                  -6.455
REMARK INTRA:                  -0.773
REMARK UNBOUND:                -1.006
REMARK SMILES O=C(CO)[C@@H](O)[C@@H](O)[C@@H](O)CO
REMARK SMILES IDX 7 1 9 2 11 3 12 4 10 6 5 8 2 9 1 10 3 11 4 12 6 14 8 16
REMARK H PARENT 12 5 10 7 4 13 6 15 8 17
REMARK Flexibility Score: inf
ROOT
ATOM      1  C   UNL     1     -20.098 -26.825   0.913  1.00  0.00     0.181 C 
ENDROOT
BRANCH   1   2
ATOM      2  C   UNL     1     -20.243 -25.668  -0.114  1.00  0.00     0.171 C 
BRANCH   2   3
ATOM      3  C   UNL     1     -21.597 -25.718  -0.843  1.00  0.00     0.190 C 
BRANCH   3   4
ATOM      4  O   UNL     1     -22.525 -26.462  -0.102  1.00  0.00    -0.394 OA
ATOM      5  H   UNL     1     -23.396 -26.357  -0.567  1.00  0.00     0.210 HD
ENDBRANCH   3   4
ENDBRANCH   2   3
BRANCH   2   6
ATOM      6  O   UNL     1     -19.215 -25.759  -1.067  1.00  0.00    -0.388 OA
ATOM      7  H   UNL     1     -18.401 -25.366  -0.654  1.00  0.00     0.211 HD
ENDBRANCH   2   6
ENDBRANCH   1   2
BRANCH   1   8
ATOM      8  C   UNL     1     -18.613 -27.238   1.128  1.00  0.00     0.214 C 
BRANCH   8   9
ATOM      9  C   UNL     1     -18.307 -27.527   2.584  1.00  0.00     0.189 C 
ATOM     10  O   UNL     1     -19.016 -28.311   3.198  1.00  0.00    -0.294 OA
BRANCH   9  11
ATOM     11  C   UNL     1     -17.162 -26.865   3.305  1.00  0.00     0.234 C 
BRANCH  11  12
ATOM     12  O   UNL     1     -16.379 -26.137   2.399  1.00  0.00    -0.388 OA
ATOM     13  H   UNL     1     -15.470 -26.534   2.427  1.00  0.00     0.211 HD
ENDBRANCH  11  12
ENDBRANCH   9  11
ENDBRANCH   8   9
BRANCH   8  14
ATOM     14  O   UNL     1     -18.250 -28.338   0.331  1.00  0.00    -0.382 OA
ATOM     15  H   UNL     1     -17.589 -28.879   0.837  1.00  0.00     0.211 HD
ENDBRANCH   8  14
ENDBRANCH   1   8
BRANCH   1  16
ATOM     16  O   UNL     1     -20.682 -26.469   2.143  1.00  0.00    -0.387 OA
ATOM     17  H   UNL     1     -21.052 -27.296   2.549  1.00  0.00     0.211 HD
ENDBRANCH   1  16
TORSDOF 10
ENDMDL
MODEL 5
REMARK VINA RESULT:    -4.323      1.039      4.414
REMARK INTER + INTRA:          -7.224
REMARK INTER:                  -6.619
REMARK INTRA:                  -0.605
REMARK UNBOUND:                -1.006
REMARK SMILES O=C(CO)[C@@H](O)[C@@H](O)[C@@H](O)CO
REMARK SMILES IDX 7 1 9 2 11 3 12 4 10 6 5 8 2 9 1 10 3 11 4 12 6 14 8 16
REMARK H PARENT 12 5 10 7 4 13 6 15 8 17
REMARK Flexibility Score: inf
ROOT
ATOM      1  C   UNL     1     -19.927 -25.784   0.324  1.00  0.00     0.181 C 
ENDROOT
BRANCH   1   2
ATOM      2  C   UNL     1     -21.411 -25.556  -0.073  1.00  0.00     0.171 C 
BRANCH   2   3
ATOM      3  C   UNL     1     -22.022 -24.353   0.668  1.00  0.00     0.190 C 
BRANCH   3   4
ATOM      4  O   UNL     1     -21.440 -23.158   0.225  1.00  0.00    -0.394 OA
ATOM      5  H   UNL     1     -21.442 -22.545   1.006  1.00  0.00     0.210 HD
ENDBRANCH   3   4
ENDBRANCH   2   3
BRANCH   2   6
ATOM      6  O   UNL     1     -22.159 -26.704   0.240  1.00  0.00    -0.388 OA
ATOM      7  H   UNL     1     -22.413 -26.632   1.197  1.00  0.00     0.211 HD
ENDBRANCH   2   6
ENDBRANCH   1   2
BRANCH   1   8
ATOM      8  C   UNL     1     -19.724 -27.119   1.097  1.00  0.00     0.214 C 
BRANCH   8   9
ATOM      9  C   UNL     1     -18.259 -27.492   1.215  1.00  0.00     0.189 C 
ATOM     10  O   UNL     1     -17.770 -28.257   0.397  1.00  0.00    -0.294 OA
BRANCH   9  11
ATOM     11  C   UNL     1     -17.387 -26.958   2.322  1.00  0.00     0.234 C 
BRANCH  11  12
ATOM     12  O   UNL     1     -16.038 -27.206   2.035  1.00  0.00    -0.388 OA
ATOM     13  H   UNL     1     -15.836 -28.113   2.385  1.00  0.00     0.211 HD
ENDBRANCH  11  12
ENDBRANCH   9  11
ENDBRANCH   8   9
BRANCH   8  14
ATOM     14  O   UNL     1     -20.317 -27.088   2.371  1.00  0.00    -0.382 OA
ATOM     15  H   UNL     1     -20.383 -26.140   2.657  1.00  0.00     0.211 HD
ENDBRANCH   8  14
ENDBRANCH   1   8
BRANCH   1  16
ATOM     16  O   UNL     1     -19.102 -25.758  -0.817  1.00  0.00    -0.387 OA
ATOM     17  H   UNL     1     -18.543 -26.579  -0.800  1.00  0.00     0.211 HD
ENDBRANCH   1  16
TORSDOF 10
ENDMDL
MODEL 6
REMARK VINA RESULT:    -4.293      1.396      2.275
REMARK INTER + INTRA:          -7.181
REMARK INTER:                  -6.079
REMARK INTRA:                  -1.102
REMARK UNBOUND:                -1.006
REMARK SMILES O=C(CO)[C@@H](O)[C@@H](O)[C@@H](O)CO
REMARK SMILES IDX 7 1 9 2 11 3 12 4 10 6 5 8 2 9 1 10 3 11 4 12 6 14 8 16
REMARK H PARENT 12 5 10 7 4 13 6 15 8 17
REMARK Flexibility Score: inf
ROOT
ATOM      1  C   UNL     1     -20.547 -27.651   1.703  1.00  0.00     0.181 C 
ENDROOT
BRANCH   1   2
ATOM      2  C   UNL     1     -19.172 -28.328   1.958  1.00  0.00     0.171 C 
BRANCH   2   3
ATOM      3  C   UNL     1     -18.113 -27.311   2.420  1.00  0.00     0.190 C 
BRANCH   3   4
ATOM      4  O   UNL     1     -17.038 -27.281   1.521  1.00  0.00    -0.394 OA
ATOM      5  H   UNL     1     -17.433 -27.117   0.625  1.00  0.00     0.210 HD
ENDBRANCH   3   4
ENDBRANCH   2   3
BRANCH   2   6
ATOM      6  O   UNL     1     -18.725 -28.937   0.773  1.00  0.00    -0.388 OA
ATOM      7  H   UNL     1     -19.504 -28.983   0.159  1.00  0.00     0.211 HD
ENDBRANCH   2   6
ENDBRANCH   1   2
BRANCH   1   8
ATOM      8  C   UNL     1     -20.399 -26.168   1.255  1.00  0.00     0.214 C 
BRANCH   8   9
ATOM      9  C   UNL     1     -20.232 -26.041  -0.247  1.00  0.00     0.189 C 
ATOM     10  O   UNL     1     -19.181 -26.394  -0.762  1.00  0.00    -0.294 OA
BRANCH   9  11
ATOM     11  C   UNL     1     -21.318 -25.476  -1.125  1.00  0.00     0.234 C 
BRANCH  11  12
ATOM     12  O   UNL     1     -22.534 -26.119  -0.860  1.00  0.00    -0.388 OA
ATOM     13  H   UNL     1     -23.109 -25.977  -1.657  1.00  0.00     0.211 HD
ENDBRANCH  11  12
ENDBRANCH   9  11
ENDBRANCH   8   9
BRANCH   8  14
ATOM     14  O   UNL     1     -21.474 -25.374   1.689  1.00  0.00    -0.382 OA
ATOM     15  H   UNL     1     -22.308 -25.902   1.585  1.00  0.00     0.211 HD
ENDBRANCH   8  14
ENDBRANCH   1   8
BRANCH   1  16
ATOM     16  O   UNL     1     -21.281 -28.373   0.743  1.00  0.00    -0.387 OA
ATOM     17  H   UNL     1     -20.691 -29.091   0.393  1.00  0.00     0.211 HD
ENDBRANCH   1  16
TORSDOF 10
ENDMDL
MODEL 7
REMARK VINA RESULT:    -4.199     15.384     16.946
REMARK INTER + INTRA:          -7.046
REMARK INTER:                  -6.194
REMARK INTRA:                  -0.852
REMARK UNBOUND:                -1.006
REMARK SMILES O=C(CO)[C@@H](O)[C@@H](O)[C@@H](O)CO
REMARK SMILES IDX 7 1 9 2 11 3 12 4 10 6 5 8 2 9 1 10 3 11 4 12 6 14 8 16
REMARK H PARENT 12 5 10 7 4 13 6 15 8 17
REMARK Flexibility Score: inf
ROOT
ATOM      1  C   UNL     1     -23.248 -27.993  17.541  1.00  0.00     0.181 C 
ENDROOT
BRANCH   1   2
ATOM      2  C   UNL     1     -23.353 -26.481  17.881  1.00  0.00     0.171 C 
BRANCH   2   3
ATOM      3  C   UNL     1     -24.290 -25.741  16.908  1.00  0.00     0.190 C 
BRANCH   3   4
ATOM      4  O   UNL     1     -23.727 -25.695  15.626  1.00  0.00    -0.394 OA
ATOM      5  H   UNL     1     -24.390 -25.232  15.051  1.00  0.00     0.210 HD
ENDBRANCH   3   4
ENDBRANCH   2   3
BRANCH   2   6
ATOM      6  O   UNL     1     -22.077 -25.897  17.809  1.00  0.00    -0.388 OA
ATOM      7  H   UNL     1     -21.610 -26.116  18.658  1.00  0.00     0.211 HD
ENDBRANCH   2   6
ENDBRANCH   1   2
BRANCH   1   8
ATOM      8  C   UNL     1     -21.859 -28.367  16.948  1.00  0.00     0.214 C 
BRANCH   8   9
ATOM      9  C   UNL     1     -21.654 -29.868  16.880  1.00  0.00     0.189 C 
ATOM     10  O   UNL     1     -21.125 -30.440  17.821  1.00  0.00    -0.294 OA
BRANCH   9  11
ATOM     11  C   UNL     1     -22.070 -30.676  15.678  1.00  0.00     0.234 C 
BRANCH  11  12
ATOM     12  O   UNL     1     -22.865 -31.758  16.077  1.00  0.00    -0.388 OA
ATOM     13  H   UNL     1     -23.051 -32.289  15.260  1.00  0.00     0.211 HD
ENDBRANCH  11  12
ENDBRANCH   9  11
ENDBRANCH   8   9
BRANCH   8  14
ATOM     14  O   UNL     1     -21.654 -27.795  15.681  1.00  0.00    -0.382 OA
ATOM     15  H   UNL     1     -20.903 -28.275  15.244  1.00  0.00     0.211 HD
ENDBRANCH   8  14
ENDBRANCH   1   8
BRANCH   1  16
ATOM     16  O   UNL     1     -23.511 -28.774  18.683  1.00  0.00    -0.387 OA
ATOM     17  H   UNL     1     -24.416 -28.530  19.010  1.00  0.00     0.211 HD
ENDBRANCH   1  16
TORSDOF 10
ENDMDL
MODEL 8
REMARK VINA RESULT:    -4.156     14.820     16.528
REMARK INTER + INTRA:          -6.984
REMARK INTER:                  -5.679
REMARK INTRA:                  -1.305
REMARK UNBOUND:                -1.006
REMARK SMILES O=C(CO)[C@@H](O)[C@@H](O)[C@@H](O)CO
REMARK SMILES IDX 7 1 9 2 11 3 12 4 10 6 5 8 2 9 1 10 3 11 4 12 6 14 8 16
REMARK H PARENT 12 5 10 7 4 13 6 15 8 17
REMARK Flexibility Score: inf
ROOT
ATOM      1  C   UNL     1     -21.854 -27.714  17.809  1.00  0.00     0.181 C 
ENDROOT
BRANCH   1   2
ATOM      2  C   UNL     1     -23.395 -27.842  17.664  1.00  0.00     0.171 C 
BRANCH   2   3
ATOM      3  C   UNL     1     -24.054 -26.486  17.358  1.00  0.00     0.190 C 
BRANCH   3   4
ATOM      4  O   UNL     1     -23.830 -26.122  16.023  1.00  0.00    -0.394 OA
ATOM      5  H   UNL     1     -24.449 -26.676  15.479  1.00  0.00     0.210 HD
ENDBRANCH   3   4
ENDBRANCH   2   3
BRANCH   2   6
ATOM      6  O   UNL     1     -23.935 -28.345  18.860  1.00  0.00    -0.388 OA
ATOM      7  H   UNL     1     -24.137 -29.306  18.706  1.00  0.00     0.211 HD
ENDBRANCH   2   6
ENDBRANCH   1   2
BRANCH   1   8
ATOM      8  C   UNL     1     -21.091 -28.609  16.789  1.00  0.00     0.214 C 
BRANCH   8   9
ATOM      9  C   UNL     1     -20.685 -27.839  15.547  1.00  0.00     0.189 C 
ATOM     10  O   UNL     1     -21.548 -27.471  14.765  1.00  0.00    -0.294 OA
BRANCH   9  11
ATOM     11  C   UNL     1     -19.243 -27.527  15.240  1.00  0.00     0.234 C 
BRANCH  11  12
ATOM     12  O   UNL     1     -18.706 -26.702  16.237  1.00  0.00    -0.388 OA
ATOM     13  H   UNL     1     -18.782 -25.770  15.905  1.00  0.00     0.211 HD
ENDBRANCH  11  12
ENDBRANCH   9  11
ENDBRANCH   8   9
BRANCH   8  14
ATOM     14  O   UNL     1     -19.966 -29.225  17.363  1.00  0.00    -0.382 OA
ATOM     15  H   UNL     1     -19.437 -29.641  16.634  1.00  0.00     0.211 HD
ENDBRANCH   8  14
ENDBRANCH   1   8
BRANCH   1  16
ATOM     16  O   UNL     1     -21.454 -26.372  17.664  1.00  0.00    -0.387 OA
ATOM     17  H   UNL     1     -22.275 -25.812  17.685  1.00  0.00     0.211 HD
ENDBRANCH   1  16
TORSDOF 10
ENDMDL
MODEL 9
REMARK VINA RESULT:    -4.039      1.473      4.321
REMARK INTER + INTRA:          -6.816
REMARK INTER:                  -5.866
REMARK INTRA:                  -0.951
REMARK UNBOUND:                -1.006
REMARK SMILES O=C(CO)[C@@H](O)[C@@H](O)[C@@H](O)CO
REMARK SMILES IDX 7 1 9 2 11 3 12 4 10 6 5 8 2 9 1 10 3 11 4 12 6 14 8 16
REMARK H PARENT 12 5 10 7 4 13 6 15 8 17
REMARK Flexibility Score: inf
ROOT
ATOM      1  C   UNL     1     -21.268 -26.541   0.104  1.00  0.00     0.181 C 
ENDROOT
BRANCH   1   2
ATOM      2  C   UNL     1     -22.393 -25.777   0.854  1.00  0.00     0.171 C 
BRANCH   2   3
ATOM      3  C   UNL     1     -22.071 -24.278   0.991  1.00  0.00     0.190 C 
BRANCH   3   4
ATOM      4  O   UNL     1     -22.770 -23.724   2.072  1.00  0.00    -0.394 OA
ATOM      5  H   UNL     1     -23.679 -23.516   1.734  1.00  0.00     0.210 HD
ENDBRANCH   3   4
ENDBRANCH   2   3
BRANCH   2   6
ATOM      6  O   UNL     1     -22.551 -26.323   2.139  1.00  0.00    -0.388 OA
ATOM      7  H   UNL     1     -21.979 -25.790   2.752  1.00  0.00     0.211 HD
ENDBRANCH   2   6
ENDBRANCH   1   2
BRANCH   1   8
ATOM      8  C   UNL     1     -19.849 -26.055   0.520  1.00  0.00     0.214 C 
BRANCH   8   9
ATOM      9  C   UNL     1     -19.172 -27.022   1.471  1.00  0.00     0.189 C 
ATOM     10  O   UNL     1     -19.708 -27.283   2.538  1.00  0.00    -0.294 OA
BRANCH   9  11
ATOM     11  C   UNL     1     -17.846 -27.661   1.149  1.00  0.00     0.234 C 
BRANCH  11  12
ATOM     12  O   UNL     1     -17.984 -28.536   0.063  1.00  0.00    -0.388 OA
ATOM     13  H   UNL     1     -17.787 -29.446   0.406  1.00  0.00     0.211 HD
ENDBRANCH  11  12
ENDBRANCH   9  11
ENDBRANCH   8   9
BRANCH   8  14
ATOM     14  O   UNL     1     -19.024 -25.818  -0.594  1.00  0.00    -0.382 OA
ATOM     15  H   UNL     1     -18.988 -24.838  -0.747  1.00  0.00     0.211 HD
ENDBRANCH   8  14
ENDBRANCH   1   8
BRANCH   1  16
ATOM     16  O   UNL     1     -21.385 -27.928   0.320  1.00  0.00    -0.387 OA
ATOM     17  H   UNL     1     -21.119 -28.384  -0.522  1.00  0.00     0.211 HD
ENDBRANCH   1  16
TORSDOF 10
ENDMDL
