MODEL 1
REMARK VINA RESULT:    -5.311      0.000      0.000
REMARK INTER + INTRA:          -5.311
REMARK INTER:                  -5.311
REMARK INTRA:                   0.000
REMARK UNBOUND:                 0.000
REMARK SMILES CC(C)=C1CC[C@@H](C)CC1=O
REMARK SMILES IDX 8 1 7 2 6 3 5 4 4 5 2 6 1 7 3 8 10 9 11 10 9 11
REMARK H PARENT
REMARK Flexibility Score: inf
ROOT
ATOM      1  C   UNL     1      99.125 120.290 123.871  1.00  0.00     0.008 C 
ATOM      2  C   UNL     1      99.666 118.942 124.360  1.00  0.00    -0.006 C 
ATOM      3  C   UNL     1     100.655 119.145 125.519  1.00  0.00     0.008 C 
ATOM      4  C   UNL     1     101.129 117.802 126.089  1.00  0.00     0.039 C 
ATOM      5  C   UNL     1     101.672 116.871 125.014  1.00  0.00    -0.006 C 
ATOM      6  C   UNL     1     102.673 115.982 125.285  1.00  0.00    -0.070 C 
ATOM      7  C   UNL     1     103.259 115.092 124.213  1.00  0.00     0.039 C 
ATOM      8  C   UNL     1     103.271 115.873 126.669  1.00  0.00     0.039 C 
ATOM      9  C   UNL     1     100.970 116.911 123.697  1.00  0.00     0.159 C 
ATOM     10  O   UNL     1     100.876 115.882 122.974  1.00  0.00    -0.295 OA
ATOM     11  C   UNL     1     100.353 118.189 123.211  1.00  0.00     0.084 C 
ENDROOT
TORSDOF 0
ENDMDL
MODEL 2
REMARK VINA RESULT:    -5.185      1.551      2.841
REMARK INTER + INTRA:          -5.185
REMARK INTER:                  -5.185
REMARK INTRA:                   0.000
REMARK UNBOUND:                 0.000
REMARK SMILES CC(C)=C1CC[C@@H](C)CC1=O
REMARK SMILES IDX 8 1 7 2 6 3 5 4 4 5 2 6 1 7 3 8 10 9 11 10 9 11
REMARK H PARENT
REMARK Flexibility Score: inf
ROOT
ATOM      1  C   UNL     1      99.936 117.475 119.928  1.00  0.00     0.008 C 
ATOM      2  C   UNL     1      99.895 117.234 121.440  1.00  0.00    -0.006 C 
ATOM      3  C   UNL     1      99.913 118.569 122.201  1.00  0.00     0.008 C 
ATOM      4  C   UNL     1      99.768 118.352 123.713  1.00  0.00     0.039 C 
ATOM      5  C   UNL     1     100.782 117.355 124.259  1.00  0.00    -0.006 C 
ATOM      6  C   UNL     1     101.275 117.467 125.527  1.00  0.00    -0.070 C 
ATOM      7  C   UNL     1     102.322 116.517 126.061  1.00  0.00     0.039 C 
ATOM      8  C   UNL     1     100.820 118.575 126.450  1.00  0.00     0.039 C 
ATOM      9  C   UNL     1     101.107 116.199 123.371  1.00  0.00     0.159 C 
ATOM     10  O   UNL     1     101.400 115.070 123.849  1.00  0.00    -0.295 OA
ATOM     11  C   UNL     1     101.082 116.365 121.880  1.00  0.00     0.084 C 
ENDROOT
TORSDOF 0
ENDMDL
MODEL 3
REMARK VINA RESULT:    -5.179      1.896      2.835
REMARK INTER + INTRA:          -5.179
REMARK INTER:                  -5.179
REMARK INTRA:                   0.000
REMARK UNBOUND:                 0.000
REMARK SMILES CC(C)=C1CC[C@@H](C)CC1=O
REMARK SMILES IDX 8 1 7 2 6 3 5 4 4 5 2 6 1 7 3 8 10 9 11 10 9 11
REMARK H PARENT
REMARK Flexibility Score: inf
ROOT
ATOM      1  C   UNL     1      99.961 119.265 124.610  1.00  0.00     0.008 C 
ATOM      2  C   UNL     1     100.901 118.066 124.445  1.00  0.00    -0.006 C 
ATOM      3  C   UNL     1     100.200 116.931 123.682  1.00  0.00     0.008 C 
ATOM      4  C   UNL     1     101.158 115.761 123.417  1.00  0.00     0.039 C 
ATOM      5  C   UNL     1     101.848 115.275 124.684  1.00  0.00    -0.006 C 
ATOM      6  C   UNL     1     102.195 113.964 124.844  1.00  0.00    -0.070 C 
ATOM      7  C   UNL     1     102.829 113.458 126.120  1.00  0.00     0.039 C 
ATOM      8  C   UNL     1     101.925 112.944 123.762  1.00  0.00     0.039 C 
ATOM      9  C   UNL     1     102.220 116.329 125.675  1.00  0.00     0.159 C 
ATOM     10  O   UNL     1     103.244 116.213 126.401  1.00  0.00    -0.295 OA
ATOM     11  C   UNL     1     101.374 117.561 125.816  1.00  0.00     0.084 C 
ENDROOT
TORSDOF 0
ENDMDL
MODEL 4
REMARK VINA RESULT:    -5.083      1.071      4.049
REMARK INTER + INTRA:          -5.083
REMARK INTER:                  -5.083
REMARK INTRA:                   0.000
REMARK UNBOUND:                 0.000
REMARK SMILES CC(C)=C1CC[C@@H](C)CC1=O
REMARK SMILES IDX 8 1 7 2 6 3 5 4 4 5 2 6 1 7 3 8 10 9 11 10 9 11
REMARK H PARENT
REMARK Flexibility Score: inf
ROOT
ATOM      1  C   UNL     1     102.847 115.508 126.577  1.00  0.00     0.008 C 
ATOM      2  C   UNL     1     102.459 116.671 125.657  1.00  0.00    -0.006 C 
ATOM      3  C   UNL     1     101.234 117.414 126.212  1.00  0.00     0.008 C 
ATOM      4  C   UNL     1     100.893 118.643 125.359  1.00  0.00     0.039 C 
ATOM      5  C   UNL     1     100.753 118.307 123.880  1.00  0.00    -0.006 C 
ATOM      6  C   UNL     1      99.888 118.992 123.076  1.00  0.00    -0.070 C 
ATOM      7  C   UNL     1      99.698 118.631 121.621  1.00  0.00     0.039 C 
ATOM      8  C   UNL     1      99.046 120.126 123.616  1.00  0.00     0.039 C 
ATOM      9  C   UNL     1     101.693 117.274 123.351  1.00  0.00     0.159 C 
ATOM     10  O   UNL     1     102.111 117.318 122.162  1.00  0.00    -0.295 OA
ATOM     11  C   UNL     1     102.164 116.160 124.239  1.00  0.00     0.084 C 
ENDROOT
TORSDOF 0
ENDMDL
MODEL 5
REMARK VINA RESULT:    -5.082      1.187      4.164
REMARK INTER + INTRA:          -5.082
REMARK INTER:                  -5.082
REMARK INTRA:                   0.000
REMARK UNBOUND:                 0.000
REMARK SMILES CC(C)=C1CC[C@@H](C)CC1=O
REMARK SMILES IDX 8 1 7 2 6 3 5 4 4 5 2 6 1 7 3 8 10 9 11 10 9 11
REMARK H PARENT
REMARK Flexibility Score: inf
ROOT
ATOM      1  C   UNL     1     103.021 112.843 124.556  1.00  0.00     0.008 C 
ATOM      2  C   UNL     1     102.844 114.365 124.537  1.00  0.00    -0.006 C 
ATOM      3  C   UNL     1     102.550 114.893 125.950  1.00  0.00     0.008 C 
ATOM      4  C   UNL     1     102.472 116.426 125.968  1.00  0.00     0.039 C 
ATOM      5  C   UNL     1     101.504 116.972 124.927  1.00  0.00    -0.006 C 
ATOM      6  C   UNL     1     100.803 118.123 125.146  1.00  0.00    -0.070 C 
ATOM      7  C   UNL     1      99.798 118.646 124.145  1.00  0.00     0.039 C 
ATOM      8  C   UNL     1     100.971 118.913 126.424  1.00  0.00     0.039 C 
ATOM      9  C   UNL     1     101.462 116.242 123.625  1.00  0.00     0.159 C 
ATOM     10  O   UNL     1     101.226 116.847 122.544  1.00  0.00    -0.295 OA
ATOM     11  C   UNL     1     101.708 114.763 123.583  1.00  0.00     0.084 C 
ENDROOT
TORSDOF 0
ENDMDL
MODEL 6
REMARK VINA RESULT:    -5.008      1.941      3.335
REMARK INTER + INTRA:          -5.008
REMARK INTER:                  -5.008
REMARK INTRA:                   0.000
REMARK UNBOUND:                 0.000
REMARK SMILES CC(C)=C1CC[C@@H](C)CC1=O
REMARK SMILES IDX 8 1 7 2 6 3 5 4 4 5 2 6 1 7 3 8 10 9 11 10 9 11
REMARK H PARENT
REMARK Flexibility Score: inf
ROOT
ATOM      1  C   UNL     1     100.183 116.252 120.121  1.00  0.00     0.008 C 
ATOM      2  C   UNL     1     100.878 116.773 121.383  1.00  0.00    -0.006 C 
ATOM      3  C   UNL     1     101.391 115.604 122.239  1.00  0.00     0.008 C 
ATOM      4  C   UNL     1     102.180 116.108 123.456  1.00  0.00     0.039 C 
ATOM      5  C   UNL     1     101.404 117.133 124.271  1.00  0.00    -0.006 C 
ATOM      6  C   UNL     1     101.566 117.234 125.623  1.00  0.00    -0.070 C 
ATOM      7  C   UNL     1     100.760 118.209 126.451  1.00  0.00     0.039 C 
ATOM      8  C   UNL     1     102.537 116.344 126.365  1.00  0.00     0.039 C 
ATOM      9  C   UNL     1     100.555 118.084 123.492  1.00  0.00     0.159 C 
ATOM     10  O   UNL     1     100.363 119.265 123.888  1.00  0.00    -0.295 OA
ATOM     11  C   UNL     1      99.917 117.643 122.207  1.00  0.00     0.084 C 
ENDROOT
TORSDOF 0
ENDMDL
MODEL 7
REMARK VINA RESULT:    -4.999      1.551      4.426
REMARK INTER + INTRA:          -4.999
REMARK INTER:                  -4.999
REMARK INTRA:                   0.000
REMARK UNBOUND:                 0.000
REMARK SMILES CC(C)=C1CC[C@@H](C)CC1=O
REMARK SMILES IDX 8 1 7 2 6 3 5 4 4 5 2 6 1 7 3 8 10 9 11 10 9 11
REMARK H PARENT
REMARK Flexibility Score: inf
ROOT
ATOM      1  C   UNL     1     103.551 115.557 126.942  1.00  0.00     0.008 C 
ATOM      2  C   UNL     1     102.341 115.874 126.058  1.00  0.00    -0.006 C 
ATOM      3  C   UNL     1     102.601 115.438 124.608  1.00  0.00     0.008 C 
ATOM      4  C   UNL     1     101.362 115.654 123.729  1.00  0.00     0.039 C 
ATOM      5  C   UNL     1     100.819 117.073 123.824  1.00  0.00    -0.006 C 
ATOM      6  C   UNL     1     100.207 117.671 122.760  1.00  0.00    -0.070 C 
ATOM      7  C   UNL     1      99.715 119.099 122.823  1.00  0.00     0.039 C 
ATOM      8  C   UNL     1     100.026 116.941 121.448  1.00  0.00     0.039 C 
ATOM      9  C   UNL     1     100.895 117.716 125.170  1.00  0.00     0.159 C 
ATOM     10  O   UNL     1     100.023 118.543 125.550  1.00  0.00    -0.295 OA
ATOM     11  C   UNL     1     102.019 117.376 126.104  1.00  0.00     0.084 C 
ENDROOT
TORSDOF 0
ENDMDL
MODEL 8
REMARK VINA RESULT:    -4.984      2.355      4.245
REMARK INTER + INTRA:          -4.984
REMARK INTER:                  -4.984
REMARK INTRA:                   0.000
REMARK UNBOUND:                 0.000
REMARK SMILES CC(C)=C1CC[C@@H](C)CC1=O
REMARK SMILES IDX 8 1 7 2 6 3 5 4 4 5 2 6 1 7 3 8 10 9 11 10 9 11
REMARK H PARENT
REMARK Flexibility Score: inf
ROOT
ATOM      1  C   UNL     1     100.978 118.834 126.229  1.00  0.00     0.008 C 
ATOM      2  C   UNL     1     100.273 118.367 124.951  1.00  0.00    -0.006 C 
ATOM      3  C   UNL     1     101.016 117.174 124.329  1.00  0.00     0.008 C 
ATOM      4  C   UNL     1     100.269 116.628 123.106  1.00  0.00     0.039 C 
ATOM      5  C   UNL     1      99.947 117.712 122.086  1.00  0.00    -0.006 C 
ATOM      6  C   UNL     1      99.897 117.436 120.749  1.00  0.00    -0.070 C 
ATOM      7  C   UNL     1      99.634 118.514 119.724  1.00  0.00     0.039 C 
ATOM      8  C   UNL     1     100.142 116.038 120.228  1.00  0.00     0.039 C 
ATOM      9  C   UNL     1      99.580 119.048 122.643  1.00  0.00     0.159 C 
ATOM     10  O   UNL     1      98.760 119.801 122.052  1.00  0.00    -0.295 OA
ATOM     11  C   UNL     1     100.183 119.516 123.935  1.00  0.00     0.084 C 
ENDROOT
TORSDOF 0
ENDMDL
MODEL 9
REMARK VINA RESULT:    -4.919      2.072      4.230
REMARK INTER + INTRA:          -4.919
REMARK INTER:                  -4.919
REMARK INTRA:                   0.000
REMARK UNBOUND:                 0.000
REMARK SMILES CC(C)=C1CC[C@@H](C)CC1=O
REMARK SMILES IDX 8 1 7 2 6 3 5 4 4 5 2 6 1 7 3 8 10 9 11 10 9 11
REMARK H PARENT
REMARK Flexibility Score: inf
ROOT
ATOM      1  C   UNL     1     100.619 118.342 126.153  1.00  0.00     0.008 C 
ATOM      2  C   UNL     1     100.750 118.375 124.627  1.00  0.00    -0.006 C 
ATOM      3  C   UNL     1      99.569 119.133 124.000  1.00  0.00     0.008 C 
ATOM      4  C   UNL     1      99.736 119.265 122.480  1.00  0.00     0.039 C 
ATOM      5  C   UNL     1      99.996 117.926 121.803  1.00  0.00    -0.006 C 
ATOM      6  C   UNL     1      99.558 117.676 120.534  1.00  0.00    -0.070 C 
ATOM      7  C   UNL     1      99.760 116.332 119.872  1.00  0.00     0.039 C 
ATOM      8  C   UNL     1      98.812 118.725 119.741  1.00  0.00     0.039 C 
ATOM      9  C   UNL     1     100.849 116.963 122.561  1.00  0.00     0.159 C 
ATOM     10  O   UNL     1     101.611 116.155 121.966  1.00  0.00    -0.295 OA
ATOM     11  C   UNL     1     100.815 116.948 124.061  1.00  0.00     0.084 C 
ENDROOT
TORSDOF 0
ENDMDL
