MODEL 1
REMARK VINA RESULT:    -3.060      0.000      0.000
REMARK INTER + INTRA:          -4.024
REMARK INTER:                  -3.865
REMARK INTRA:                  -0.159
REMARK UNBOUND:                -0.159
REMARK SMILES CCCCCCO
REMARK SMILES IDX 4 1 3 2 2 3 1 4 5 5 6 6 7 7
REMARK H PARENT 7 8
REMARK Flexibility Score: inf
ROOT
ATOM      1  C   UNL     1     163.862 178.842 167.305  1.00  0.00     0.002 C 
ENDROOT
BRANCH   1   2
ATOM      2  C   UNL     1     162.693 179.193 168.245  1.00  0.00    -0.000 C 
BRANCH   2   3
ATOM      3  C   UNL     1     162.495 178.160 169.363  1.00  0.00    -0.003 C 
ATOM      4  C   UNL     1     161.021 177.802 169.526  1.00  0.00     0.004 C 
ENDBRANCH   2   3
ENDBRANCH   1   2
BRANCH   1   5
ATOM      5  C   UNL     1     164.918 177.899 167.908  1.00  0.00     0.028 C 
BRANCH   5   6
ATOM      6  C   UNL     1     165.177 176.659 167.047  1.00  0.00     0.156 C 
BRANCH   6   7
ATOM      7  O   UNL     1     164.001 176.312 166.370  1.00  0.00    -0.396 OA
ATOM      8  H   UNL     1     163.898 175.331 166.484  1.00  0.00     0.210 HD
ENDBRANCH   6   7
ENDBRANCH   5   6
ENDBRANCH   1   5
TORSDOF 5
ENDMDL
MODEL 2
REMARK VINA RESULT:    -3.052      2.291      3.972
REMARK INTER + INTRA:          -4.014
REMARK INTER:                  -3.938
REMARK INTRA:                  -0.076
REMARK UNBOUND:                -0.159
REMARK SMILES CCCCCCO
REMARK SMILES IDX 4 1 3 2 2 3 1 4 5 5 6 6 7 7
REMARK H PARENT 7 8
REMARK Flexibility Score: inf
ROOT
ATOM      1  C   UNL     1     163.392 178.455 168.089  1.00  0.00     0.002 C 
ENDROOT
BRANCH   1   2
ATOM      2  C   UNL     1     164.883 178.080 168.001  1.00  0.00    -0.000 C 
BRANCH   2   3
ATOM      3  C   UNL     1     165.136 176.838 167.135  1.00  0.00    -0.003 C 
ATOM      4  C   UNL     1     164.403 176.941 165.800  1.00  0.00     0.004 C 
ENDBRANCH   2   3
ENDBRANCH   1   2
BRANCH   1   5
ATOM      5  C   UNL     1     162.698 178.053 169.403  1.00  0.00     0.028 C 
BRANCH   5   6
ATOM      6  C   UNL     1     161.170 178.082 169.308  1.00  0.00     0.156 C 
BRANCH   6   7
ATOM      7  O   UNL     1     160.632 178.372 170.568  1.00  0.00    -0.396 OA
ATOM      8  H   UNL     1     160.139 179.228 170.466  1.00  0.00     0.210 HD
ENDBRANCH   6   7
ENDBRANCH   5   6
ENDBRANCH   1   5
TORSDOF 5
ENDMDL
MODEL 3
REMARK VINA RESULT:    -3.016      2.284      4.028
REMARK INTER + INTRA:          -3.969
REMARK INTER:                  -3.864
REMARK INTRA:                  -0.105
REMARK UNBOUND:                -0.159
REMARK SMILES CCCCCCO
REMARK SMILES IDX 4 1 3 2 2 3 1 4 5 5 6 6 7 7
REMARK H PARENT 7 8
REMARK Flexibility Score: inf
ROOT
ATOM      1  C   UNL     1     164.600 178.139 168.193  1.00  0.00     0.002 C 
ENDROOT
BRANCH   1   2
ATOM      2  C   UNL     1     165.882 178.734 167.581  1.00  0.00    -0.000 C 
BRANCH   2   3
ATOM      3  C   UNL     1     165.741 180.222 167.231  1.00  0.00    -0.003 C 
ATOM      4  C   UNL     1     166.820 181.053 167.919  1.00  0.00     0.004 C 
ENDBRANCH   2   3
ENDBRANCH   1   2
BRANCH   1   5
ATOM      5  C   UNL     1     163.355 179.039 168.092  1.00  0.00     0.028 C 
BRANCH   5   6
ATOM      6  C   UNL     1     162.216 178.593 169.014  1.00  0.00     0.156 C 
BRANCH   6   7
ATOM      7  O   UNL     1     162.627 177.476 169.751  1.00  0.00    -0.396 OA
ATOM      8  H   UNL     1     162.172 176.694 169.342  1.00  0.00     0.210 HD
ENDBRANCH   6   7
ENDBRANCH   5   6
ENDBRANCH   1   5
TORSDOF 5
ENDMDL
MODEL 4
REMARK VINA RESULT:    -2.974      2.390      3.299
REMARK INTER + INTRA:          -3.916
REMARK INTER:                  -3.791
REMARK INTRA:                  -0.125
REMARK UNBOUND:                -0.159
REMARK SMILES CCCCCCO
REMARK SMILES IDX 4 1 3 2 2 3 1 4 5 5 6 6 7 7
REMARK H PARENT 7 8
REMARK Flexibility Score: inf
ROOT
ATOM      1  C   UNL     1     165.152 176.733 167.030  1.00  0.00     0.002 C 
ENDROOT
BRANCH   1   2
ATOM      2  C   UNL     1     165.041 177.974 167.935  1.00  0.00    -0.000 C 
BRANCH   2   3
ATOM      3  C   UNL     1     166.041 179.077 167.561  1.00  0.00    -0.003 C 
ATOM      4  C   UNL     1     165.336 180.418 167.377  1.00  0.00     0.004 C 
ENDBRANCH   2   3
ENDBRANCH   1   2
BRANCH   1   5
ATOM      5  C   UNL     1     164.601 176.918 165.605  1.00  0.00     0.028 C 
BRANCH   5   6
ATOM      6  C   UNL     1     163.078 177.062 165.565  1.00  0.00     0.156 C 
BRANCH   6   7
ATOM      7  O   UNL     1     162.490 175.795 165.670  1.00  0.00    -0.396 OA
ATOM      8  H   UNL     1     162.540 175.392 164.764  1.00  0.00     0.210 HD
ENDBRANCH   6   7
ENDBRANCH   5   6
ENDBRANCH   1   5
TORSDOF 5
ENDMDL
MODEL 5
REMARK VINA RESULT:    -2.817      9.798     11.271
REMARK INTER + INTRA:          -3.717
REMARK INTER:                  -3.639
REMARK INTRA:                  -0.078
REMARK UNBOUND:                -0.159
REMARK SMILES CCCCCCO
REMARK SMILES IDX 4 1 3 2 2 3 1 4 5 5 6 6 7 7
REMARK H PARENT 7 8
REMARK Flexibility Score: inf
ROOT
ATOM      1  C   UNL     1     169.664 169.651 163.650  1.00  0.00     0.002 C 
ENDROOT
BRANCH   1   2
ATOM      2  C   UNL     1     168.700 170.538 164.460  1.00  0.00    -0.000 C 
BRANCH   2   3
ATOM      3  C   UNL     1     167.643 171.226 163.585  1.00  0.00    -0.003 C 
ATOM      4  C   UNL     1     166.259 170.629 163.823  1.00  0.00     0.004 C 
ENDBRANCH   2   3
ENDBRANCH   1   2
BRANCH   1   5
ATOM      5  C   UNL     1     169.510 168.138 163.889  1.00  0.00     0.028 C 
BRANCH   5   6
ATOM      6  C   UNL     1     170.152 167.288 162.789  1.00  0.00     0.156 C 
BRANCH   6   7
ATOM      7  O   UNL     1     171.544 167.300 162.947  1.00  0.00    -0.396 OA
ATOM      8  H   UNL     1     171.799 168.253 163.063  1.00  0.00     0.210 HD
ENDBRANCH   6   7
ENDBRANCH   5   6
ENDBRANCH   1   5
TORSDOF 5
ENDMDL
MODEL 6
REMARK VINA RESULT:    -2.773      9.600     10.368
REMARK INTER + INTRA:          -3.661
REMARK INTER:                  -3.583
REMARK INTRA:                  -0.078
REMARK UNBOUND:                -0.159
REMARK SMILES CCCCCCO
REMARK SMILES IDX 4 1 3 2 2 3 1 4 5 5 6 6 7 7
REMARK H PARENT 7 8
REMARK Flexibility Score: inf
ROOT
ATOM      1  C   UNL     1     168.869 170.879 164.443  1.00  0.00     0.002 C 
ENDROOT
BRANCH   1   2
ATOM      2  C   UNL     1     167.746 171.391 163.521  1.00  0.00    -0.000 C 
BRANCH   2   3
ATOM      3  C   UNL     1     166.395 170.715 163.795  1.00  0.00    -0.003 C 
ATOM      4  C   UNL     1     165.522 170.707 162.543  1.00  0.00     0.004 C 
ENDBRANCH   2   3
ENDBRANCH   1   2
BRANCH   1   5
ATOM      5  C   UNL     1     169.879 169.932 163.769  1.00  0.00     0.028 C 
BRANCH   5   6
ATOM      6  C   UNL     1     169.437 168.466 163.795  1.00  0.00     0.156 C 
BRANCH   6   7
ATOM      7  O   UNL     1     170.567 167.640 163.799  1.00  0.00    -0.396 OA
ATOM      8  H   UNL     1     171.322 168.208 164.105  1.00  0.00     0.210 HD
ENDBRANCH   6   7
ENDBRANCH   5   6
ENDBRANCH   1   5
TORSDOF 5
ENDMDL
MODEL 7
REMARK VINA RESULT:    -2.767      8.897     10.272
REMARK INTER + INTRA:          -3.654
REMARK INTER:                  -3.577
REMARK INTRA:                  -0.077
REMARK UNBOUND:                -0.159
REMARK SMILES CCCCCCO
REMARK SMILES IDX 4 1 3 2 2 3 1 4 5 5 6 6 7 7
REMARK H PARENT 7 8
REMARK Flexibility Score: inf
ROOT
ATOM      1  C   UNL     1     167.847 171.218 163.739  1.00  0.00     0.002 C 
ENDROOT
BRANCH   1   2
ATOM      2  C   UNL     1     168.906 170.297 164.375  1.00  0.00    -0.000 C 
BRANCH   2   3
ATOM      3  C   UNL     1     169.589 169.378 163.352  1.00  0.00    -0.003 C 
ATOM      4  C   UNL     1     169.585 167.928 163.828  1.00  0.00     0.004 C 
ENDBRANCH   2   3
ENDBRANCH   1   2
BRANCH   1   5
ATOM      5  C   UNL     1     166.408 170.671 163.774  1.00  0.00     0.028 C 
BRANCH   5   6
ATOM      6  C   UNL     1     165.566 171.123 162.578  1.00  0.00     0.156 C 
BRANCH   6   7
ATOM      7  O   UNL     1     165.325 172.499 162.674  1.00  0.00    -0.396 OA
ATOM      8  H   UNL     1     166.217 172.934 162.688  1.00  0.00     0.210 HD
ENDBRANCH   6   7
ENDBRANCH   5   6
ENDBRANCH   1   5
TORSDOF 5
ENDMDL
MODEL 8
REMARK VINA RESULT:    -2.681      9.198     10.271
REMARK INTER + INTRA:          -3.546
REMARK INTER:                  -3.456
REMARK INTRA:                  -0.090
REMARK UNBOUND:                -0.159
REMARK SMILES CCCCCCO
REMARK SMILES IDX 4 1 3 2 2 3 1 4 5 5 6 6 7 7
REMARK H PARENT 7 8
REMARK Flexibility Score: inf
ROOT
ATOM      1  C   UNL     1     170.004 170.050 163.715  1.00  0.00     0.002 C 
ENDROOT
BRANCH   1   2
ATOM      2  C   UNL     1     168.785 170.594 164.483  1.00  0.00    -0.000 C 
BRANCH   2   3
ATOM      3  C   UNL     1     167.762 171.283 163.569  1.00  0.00    -0.003 C 
ATOM      4  C   UNL     1     166.358 170.735 163.806  1.00  0.00     0.004 C 
ENDBRANCH   2   3
ENDBRANCH   1   2
BRANCH   1   5
ATOM      5  C   UNL     1     171.363 170.607 164.176  1.00  0.00     0.028 C 
BRANCH   5   6
ATOM      6  C   UNL     1     171.870 171.754 163.296  1.00  0.00     0.156 C 
BRANCH   6   7
ATOM      7  O   UNL     1     171.536 172.977 163.891  1.00  0.00    -0.396 OA
ATOM      8  H   UNL     1     171.683 173.670 163.196  1.00  0.00     0.210 HD
ENDBRANCH   6   7
ENDBRANCH   5   6
ENDBRANCH   1   5
TORSDOF 5
ENDMDL
MODEL 9
REMARK VINA RESULT:    -2.610      8.754     10.388
REMARK INTER + INTRA:          -3.456
REMARK INTER:                  -3.369
REMARK INTRA:                  -0.087
REMARK UNBOUND:                -0.159
REMARK SMILES CCCCCCO
REMARK SMILES IDX 4 1 3 2 2 3 1 4 5 5 6 6 7 7
REMARK H PARENT 7 8
REMARK Flexibility Score: inf
ROOT
ATOM      1  C   UNL     1     168.927 170.754 164.261  1.00  0.00     0.002 C 
ENDROOT
BRANCH   1   2
ATOM      2  C   UNL     1     170.188 169.938 163.919  1.00  0.00    -0.000 C 
BRANCH   2   3
ATOM      3  C   UNL     1     171.482 170.750 164.065  1.00  0.00    -0.003 C 
ATOM      4  C   UNL     1     171.293 172.180 163.569  1.00  0.00     0.004 C 
ENDBRANCH   2   3
ENDBRANCH   1   2
BRANCH   1   5
ATOM      5  C   UNL     1     167.796 170.667 163.220  1.00  0.00     0.028 C 
BRANCH   5   6
ATOM      6  C   UNL     1     166.406 170.881 163.826  1.00  0.00     0.156 C 
BRANCH   6   7
ATOM      7  O   UNL     1     165.885 172.099 163.372  1.00  0.00    -0.396 OA
ATOM      8  H   UNL     1     164.945 171.915 163.110  1.00  0.00     0.210 HD
ENDBRANCH   6   7
ENDBRANCH   5   6
ENDBRANCH   1   5
TORSDOF 5
ENDMDL
