MODEL 1
REMARK VINA RESULT:    -3.524      0.000      0.000
REMARK INTER + INTRA:          -7.114
REMARK INTER:                  -6.203
REMARK INTRA:                  -0.911
REMARK UNBOUND:                -0.911
REMARK SMILES CCCCCCCCCCCCCCC(=O)[O-]
REMARK SMILES IDX 9 1 10 2 11 3 12 4 13 5 14 6 15 7 16 8 17 9 8 10 7 11 6 12
REMARK SMILES IDX 5 13 4 14 3 15 2 16 1 17
REMARK H PARENT
REMARK Flexibility Score: inf
ROOT
ATOM      1  C   UNL     1       3.240 -37.547  19.945  1.00  0.00     0.000 C 
ENDROOT
BRANCH   1   2
ATOM      2  C   UNL     1       3.183 -37.510  18.410  1.00  0.00     0.000 C 
BRANCH   2   3
ATOM      3  C   UNL     1       1.809 -37.927  17.860  1.00  0.00     0.000 C 
BRANCH   3   4
ATOM      4  C   UNL     1       1.328 -37.026  16.708  1.00  0.00     0.000 C 
BRANCH   4   5
ATOM      5  C   UNL     1       2.468 -36.260  16.004  1.00  0.00     0.006 C 
BRANCH   5   6
ATOM      6  C   UNL     1       2.666 -36.721  14.554  1.00  0.00     0.053 C 
BRANCH   6   7
ATOM      7  C   UNL     1       3.874 -37.597  14.442  1.00  0.00     0.041 C 
ATOM      8  O   UNL     1       4.915 -37.170  13.875  1.00  0.00    -0.550 OA
ATOM      9  O   UNL     1       3.835 -38.899  14.921  1.00  0.00    -0.550 OA
ENDBRANCH   6   7
ENDBRANCH   5   6
ENDBRANCH   4   5
ENDBRANCH   3   4
ENDBRANCH   2   3
ENDBRANCH   1   2
BRANCH   1  10
ATOM     10  C   UNL     1       4.672 -37.424  20.488  1.00  0.00     0.000 C 
BRANCH  10  11
ATOM     11  C   UNL     1       5.419 -36.269  19.812  1.00  0.00    -0.000 C 
BRANCH  11  12
ATOM     12  C   UNL     1       6.125 -35.387  20.853  1.00  0.00    -0.000 C 
BRANCH  12  13
ATOM     13  C   UNL     1       6.047 -35.965  22.276  1.00  0.00    -0.000 C 
BRANCH  13  14
ATOM     14  C   UNL     1       5.933 -34.914  23.397  1.00  0.00    -0.000 C 
BRANCH  14  15
ATOM     15  C   UNL     1       5.696 -35.520  24.797  1.00  0.00    -0.000 C 
BRANCH  15  16
ATOM     16  C   UNL     1       5.507 -37.044  24.749  1.00  0.00    -0.003 C 
ATOM     17  C   UNL     1       4.820 -37.554  26.013  1.00  0.00     0.004 C 
ENDBRANCH  15  16
ENDBRANCH  14  15
ENDBRANCH  13  14
ENDBRANCH  12  13
ENDBRANCH  11  12
ENDBRANCH  10  11
ENDBRANCH   1  10
TORSDOF 13
ENDMDL
MODEL 2
REMARK VINA RESULT:    -3.224      3.829      8.489
REMARK INTER + INTRA:          -6.586
REMARK INTER:                  -5.891
REMARK INTRA:                  -0.695
REMARK UNBOUND:                -0.911
REMARK SMILES CCCCCCCCCCCCCCC(=O)[O-]
REMARK SMILES IDX 9 1 10 2 11 3 12 4 13 5 14 6 15 7 16 8 17 9 8 10 7 11 6 12
REMARK SMILES IDX 5 13 4 14 3 15 2 16 1 17
REMARK H PARENT
REMARK Flexibility Score: inf
ROOT
ATOM      1  C   UNL     1       5.446 -37.455  21.020  1.00  0.00     0.000 C 
ENDROOT
BRANCH   1   2
ATOM      2  C   UNL     1       5.707 -35.944  21.113  1.00  0.00     0.000 C 
BRANCH   2   3
ATOM      3  C   UNL     1       4.883 -35.270  22.222  1.00  0.00     0.000 C 
BRANCH   3   4
ATOM      4  C   UNL     1       5.703 -34.998  23.494  1.00  0.00     0.000 C 
BRANCH   4   5
ATOM      5  C   UNL     1       6.116 -36.278  24.251  1.00  0.00     0.006 C 
BRANCH   5   6
ATOM      6  C   UNL     1       5.389 -36.417  25.595  1.00  0.00     0.053 C 
BRANCH   6   7
ATOM      7  C   UNL     1       4.693 -37.738  25.681  1.00  0.00     0.041 C 
ATOM      8  O   UNL     1       5.003 -38.670  24.893  1.00  0.00    -0.550 OA
ATOM      9  O   UNL     1       3.667 -37.925  26.598  1.00  0.00    -0.550 OA
ENDBRANCH   6   7
ENDBRANCH   5   6
ENDBRANCH   4   5
ENDBRANCH   3   4
ENDBRANCH   2   3
ENDBRANCH   1   2
BRANCH   1  10
ATOM     10  C   UNL     1       5.020 -37.897  19.611  1.00  0.00     0.000 C 
BRANCH  10  11
ATOM     11  C   UNL     1       3.549 -37.555  19.350  1.00  0.00    -0.000 C 
BRANCH  11  12
ATOM     12  C   UNL     1       3.158 -37.878  17.900  1.00  0.00    -0.000 C 
BRANCH  12  13
ATOM     13  C   UNL     1       1.811 -37.258  17.493  1.00  0.00    -0.000 C 
BRANCH  13  14
ATOM     14  C   UNL     1       1.765 -36.690  16.061  1.00  0.00    -0.000 C 
BRANCH  14  15
ATOM     15  C   UNL     1       3.158 -36.420  15.453  1.00  0.00    -0.000 C 
BRANCH  15  16
ATOM     16  C   UNL     1       3.353 -37.127  14.104  1.00  0.00    -0.003 C 
ATOM     17  C   UNL     1       4.360 -38.268  14.220  1.00  0.00     0.004 C 
ENDBRANCH  15  16
ENDBRANCH  14  15
ENDBRANCH  13  14
ENDBRANCH  12  13
ENDBRANCH  11  12
ENDBRANCH  10  11
ENDBRANCH   1  10
TORSDOF 13
ENDMDL
MODEL 3
REMARK VINA RESULT:    -3.060      3.830      8.135
REMARK INTER + INTRA:          -6.296
REMARK INTER:                  -5.363
REMARK INTRA:                  -0.933
REMARK UNBOUND:                -0.911
REMARK SMILES CCCCCCCCCCCCCCC(=O)[O-]
REMARK SMILES IDX 9 1 10 2 11 3 12 4 13 5 14 6 15 7 16 8 17 9 8 10 7 11 6 12
REMARK SMILES IDX 5 13 4 14 3 15 2 16 1 17
REMARK H PARENT
REMARK Flexibility Score: inf
ROOT
ATOM      1  C   UNL     1       2.823 -37.312  20.029  1.00  0.00     0.000 C 
ENDROOT
BRANCH   1   2
ATOM      2  C   UNL     1       4.140 -37.557  19.275  1.00  0.00     0.000 C 
BRANCH   2   3
ATOM      3  C   UNL     1       5.174 -36.444  19.516  1.00  0.00     0.000 C 
BRANCH   3   4
ATOM      4  C   UNL     1       4.968 -35.719  20.857  1.00  0.00     0.000 C 
BRANCH   4   5
ATOM      5  C   UNL     1       6.124 -35.927  21.858  1.00  0.00     0.006 C 
BRANCH   5   6
ATOM      6  C   UNL     1       5.618 -36.278  23.264  1.00  0.00     0.053 C 
BRANCH   6   7
ATOM      7  C   UNL     1       5.882 -35.152  24.212  1.00  0.00     0.041 C 
ATOM      8  O   UNL     1       6.125 -35.389  25.425  1.00  0.00    -0.550 OA
ATOM      9  O   UNL     1       5.813 -33.838  23.769  1.00  0.00    -0.550 OA
ENDBRANCH   6   7
ENDBRANCH   5   6
ENDBRANCH   4   5
ENDBRANCH   3   4
ENDBRANCH   2   3
ENDBRANCH   1   2
BRANCH   1  10
ATOM     10  C   UNL     1       1.588 -37.715  19.209  1.00  0.00     0.000 C 
BRANCH  10  11
ATOM     11  C   UNL     1       1.991 -38.208  17.815  1.00  0.00    -0.000 C 
BRANCH  11  12
ATOM     12  C   UNL     1       1.423 -37.291  16.721  1.00  0.00    -0.000 C 
BRANCH  12  13
ATOM     13  C   UNL     1       2.481 -36.346  16.127  1.00  0.00    -0.000 C 
BRANCH  13  14
ATOM     14  C   UNL     1       2.627 -36.417  14.594  1.00  0.00    -0.000 C 
BRANCH  14  15
ATOM     15  C   UNL     1       3.867 -37.205  14.123  1.00  0.00    -0.000 C 
BRANCH  15  16
ATOM     16  C   UNL     1       3.951 -38.600  14.761  1.00  0.00    -0.003 C 
ATOM     17  C   UNL     1       4.742 -39.563  13.880  1.00  0.00     0.004 C 
ENDBRANCH  15  16
ENDBRANCH  14  15
ENDBRANCH  13  14
ENDBRANCH  12  13
ENDBRANCH  11  12
ENDBRANCH  10  11
ENDBRANCH   1  10
TORSDOF 13
ENDMDL
MODEL 4
REMARK VINA RESULT:    -2.971      3.898      8.135
REMARK INTER + INTRA:          -6.140
REMARK INTER:                  -5.468
REMARK INTRA:                  -0.672
REMARK UNBOUND:                -0.911
REMARK SMILES CCCCCCCCCCCCCCC(=O)[O-]
REMARK SMILES IDX 9 1 10 2 11 3 12 4 13 5 14 6 15 7 16 8 17 9 8 10 7 11 6 12
REMARK SMILES IDX 5 13 4 14 3 15 2 16 1 17
REMARK H PARENT
REMARK Flexibility Score: inf
ROOT
ATOM      1  C   UNL     1       3.066 -37.763  17.916  1.00  0.00     0.000 C 
ENDROOT
BRANCH   1   2
ATOM      2  C   UNL     1       3.186 -37.797  19.448  1.00  0.00     0.000 C 
BRANCH   2   3
ATOM      3  C   UNL     1       4.169 -36.745  19.986  1.00  0.00     0.000 C 
BRANCH   3   4
ATOM      4  C   UNL     1       5.508 -37.354  20.437  1.00  0.00     0.000 C 
BRANCH   4   5
ATOM      5  C   UNL     1       5.994 -36.836  21.807  1.00  0.00     0.006 C 
BRANCH   5   6
ATOM      6  C   UNL     1       5.234 -35.579  22.254  1.00  0.00     0.053 C 
BRANCH   6   7
ATOM      7  C   UNL     1       5.721 -35.120  23.592  1.00  0.00     0.041 C 
ATOM      8  O   UNL     1       5.911 -33.894  23.810  1.00  0.00    -0.550 OA
ATOM      9  O   UNL     1       6.014 -36.048  24.582  1.00  0.00    -0.550 OA
ENDBRANCH   6   7
ENDBRANCH   5   6
ENDBRANCH   4   5
ENDBRANCH   3   4
ENDBRANCH   2   3
ENDBRANCH   1   2
BRANCH   1  10
ATOM     10  C   UNL     1       3.070 -36.333  17.353  1.00  0.00     0.000 C 
BRANCH  10  11
ATOM     11  C   UNL     1       2.041 -36.184  16.226  1.00  0.00    -0.000 C 
BRANCH  11  12
ATOM     12  C   UNL     1       2.451 -37.005  14.994  1.00  0.00    -0.000 C 
BRANCH  12  13
ATOM     13  C   UNL     1       3.960 -36.936  14.707  1.00  0.00    -0.000 C 
BRANCH  13  14
ATOM     14  C   UNL     1       4.517 -38.108  13.875  1.00  0.00    -0.000 C 
BRANCH  14  15
ATOM     15  C   UNL     1       4.568 -39.446  14.641  1.00  0.00    -0.000 C 
BRANCH  15  16
ATOM     16  C   UNL     1       5.367 -40.520  13.888  1.00  0.00    -0.003 C 
ATOM     17  C   UNL     1       5.262 -41.875  14.584  1.00  0.00     0.004 C 
ENDBRANCH  15  16
ENDBRANCH  14  15
ENDBRANCH  13  14
ENDBRANCH  12  13
ENDBRANCH  11  12
ENDBRANCH  10  11
ENDBRANCH   1  10
TORSDOF 13
ENDMDL
MODEL 5
REMARK VINA RESULT:    -2.756      3.139      7.840
REMARK INTER + INTRA:          -5.762
REMARK INTER:                  -4.795
REMARK INTRA:                  -0.967
REMARK UNBOUND:                -0.911
REMARK SMILES CCCCCCCCCCCCCCC(=O)[O-]
REMARK SMILES IDX 9 1 10 2 11 3 12 4 13 5 14 6 15 7 16 8 17 9 8 10 7 11 6 12
REMARK SMILES IDX 5 13 4 14 3 15 2 16 1 17
REMARK H PARENT
REMARK Flexibility Score: inf
ROOT
ATOM      1  C   UNL     1       4.325 -35.570  21.438  1.00  0.00     0.000 C 
ENDROOT
BRANCH   1   2
ATOM      2  C   UNL     1       4.948 -34.631  22.483  1.00  0.00     0.000 C 
BRANCH   2   3
ATOM      3  C   UNL     1       6.109 -35.287  23.248  1.00  0.00     0.000 C 
BRANCH   3   4
ATOM      4  C   UNL     1       5.705 -35.758  24.656  1.00  0.00     0.000 C 
BRANCH   4   5
ATOM      5  C   UNL     1       5.657 -37.294  24.805  1.00  0.00     0.006 C 
BRANCH   5   6
ATOM      6  C   UNL     1       6.125 -38.014  23.533  1.00  0.00     0.053 C 
BRANCH   6   7
ATOM      7  C   UNL     1       5.419 -39.324  23.382  1.00  0.00     0.041 C 
ATOM      8  O   UNL     1       4.999 -39.938  24.399  1.00  0.00    -0.550 OA
ATOM      9  O   UNL     1       5.266 -39.891  22.124  1.00  0.00    -0.550 OA
ENDBRANCH   6   7
ENDBRANCH   5   6
ENDBRANCH   4   5
ENDBRANCH   3   4
ENDBRANCH   2   3
ENDBRANCH   1   2
BRANCH   1  10
ATOM     10  C   UNL     1       5.379 -36.370  20.657  1.00  0.00     0.000 C 
BRANCH  10  11
ATOM     11  C   UNL     1       4.731 -37.172  19.523  1.00  0.00    -0.000 C 
BRANCH  11  12
ATOM     12  C   UNL     1       3.212 -37.282  19.726  1.00  0.00    -0.000 C 
BRANCH  12  13
ATOM     13  C   UNL     1       2.489 -37.875  18.505  1.00  0.00    -0.000 C 
BRANCH  13  14
ATOM     14  C   UNL     1       3.168 -37.596  17.150  1.00  0.00    -0.000 C 
BRANCH  14  15
ATOM     15  C   UNL     1       2.532 -36.429  16.364  1.00  0.00    -0.000 C 
BRANCH  15  16
ATOM     16  C   UNL     1       2.382 -36.746  14.869  1.00  0.00    -0.003 C 
ATOM     17  C   UNL     1       3.709 -37.198  14.265  1.00  0.00     0.004 C 
ENDBRANCH  15  16
ENDBRANCH  14  15
ENDBRANCH  13  14
ENDBRANCH  12  13
ENDBRANCH  11  12
ENDBRANCH  10  11
ENDBRANCH   1  10
TORSDOF 13
ENDMDL
MODEL 6
REMARK VINA RESULT:    -2.749      1.716      3.908
REMARK INTER + INTRA:          -5.750
REMARK INTER:                  -4.396
REMARK INTRA:                  -1.353
REMARK UNBOUND:                -0.911
REMARK SMILES CCCCCCCCCCCCCCC(=O)[O-]
REMARK SMILES IDX 9 1 10 2 11 3 12 4 13 5 14 6 15 7 16 8 17 9 8 10 7 11 6 12
REMARK SMILES IDX 5 13 4 14 3 15 2 16 1 17
REMARK H PARENT
REMARK Flexibility Score: inf
ROOT
ATOM      1  C   UNL     1       5.146 -35.615  22.409  1.00  0.00     0.000 C 
ENDROOT
BRANCH   1   2
ATOM      2  C   UNL     1       5.838 -36.099  21.125  1.00  0.00     0.000 C 
BRANCH   2   3
ATOM      3  C   UNL     1       4.901 -36.084  19.907  1.00  0.00     0.000 C 
BRANCH   3   4
ATOM      4  C   UNL     1       3.873 -37.228  19.930  1.00  0.00     0.000 C 
BRANCH   4   5
ATOM      5  C   UNL     1       3.351 -37.621  18.532  1.00  0.00     0.006 C 
BRANCH   5   6
ATOM      6  C   UNL     1       3.787 -36.624  17.450  1.00  0.00     0.053 C 
BRANCH   6   7
ATOM      7  C   UNL     1       2.887 -36.717  16.258  1.00  0.00     0.041 C 
ATOM      8  O   UNL     1       1.650 -36.513  16.381  1.00  0.00    -0.550 OA
ATOM      9  O   UNL     1       3.406 -37.076  15.022  1.00  0.00    -0.550 OA
ENDBRANCH   6   7
ENDBRANCH   5   6
ENDBRANCH   4   5
ENDBRANCH   3   4
ENDBRANCH   2   3
ENDBRANCH   1   2
BRANCH   1  10
ATOM     10  C   UNL     1       6.096 -34.848  23.342  1.00  0.00     0.000 C 
BRANCH  10  11
ATOM     11  C   UNL     1       5.783 -35.148  24.812  1.00  0.00    -0.000 C 
BRANCH  11  12
ATOM     12  C   UNL     1       6.125 -36.604  25.161  1.00  0.00    -0.000 C 
BRANCH  12  13
ATOM     13  C   UNL     1       4.883 -37.442  25.511  1.00  0.00    -0.000 C 
BRANCH  13  14
ATOM     14  C   UNL     1       4.742 -38.754  24.716  1.00  0.00    -0.000 C 
BRANCH  14  15
ATOM     15  C   UNL     1       5.766 -38.903  23.571  1.00  0.00    -0.000 C 
BRANCH  15  16
ATOM     16  C   UNL     1       5.354 -39.979  22.556  1.00  0.00    -0.003 C 
ATOM     17  C   UNL     1       6.121 -39.823  21.246  1.00  0.00     0.004 C 
ENDBRANCH  15  16
ENDBRANCH  14  15
ENDBRANCH  13  14
ENDBRANCH  12  13
ENDBRANCH  11  12
ENDBRANCH  10  11
ENDBRANCH   1  10
TORSDOF 13
ENDMDL
MODEL 7
REMARK VINA RESULT:    -2.394      3.920      8.389
REMARK INTER + INTRA:          -5.125
REMARK INTER:                  -4.227
REMARK INTRA:                  -0.898
REMARK UNBOUND:                -0.911
REMARK SMILES CCCCCCCCCCCCCCC(=O)[O-]
REMARK SMILES IDX 9 1 10 2 11 3 12 4 13 5 14 6 15 7 16 8 17 9 8 10 7 11 6 12
REMARK SMILES IDX 5 13 4 14 3 15 2 16 1 17
REMARK H PARENT
REMARK Flexibility Score: inf
ROOT
ATOM      1  C   UNL     1       4.026 -36.694  19.818  1.00  0.00     0.000 C 
ENDROOT
BRANCH   1   2
ATOM      2  C   UNL     1       5.380 -37.075  20.437  1.00  0.00     0.000 C 
BRANCH   2   3
ATOM      3  C   UNL     1       5.566 -38.596  20.560  1.00  0.00     0.000 C 
BRANCH   3   4
ATOM      4  C   UNL     1       5.382 -39.105  22.000  1.00  0.00     0.000 C 
BRANCH   4   5
ATOM      5  C   UNL     1       6.118 -38.254  23.057  1.00  0.00     0.006 C 
BRANCH   5   6
ATOM      6  C   UNL     1       5.245 -37.977  24.288  1.00  0.00     0.053 C 
BRANCH   6   7
ATOM      7  C   UNL     1       5.638 -36.683  24.929  1.00  0.00     0.041 C 
ATOM      8  O   UNL     1       5.852 -36.631  26.169  1.00  0.00    -0.550 OA
ATOM      9  O   UNL     1       5.720 -35.526  24.167  1.00  0.00    -0.550 OA
ENDBRANCH   6   7
ENDBRANCH   5   6
ENDBRANCH   4   5
ENDBRANCH   3   4
ENDBRANCH   2   3
ENDBRANCH   1   2
BRANCH   1  10
ATOM     10  C   UNL     1       3.804 -37.333  18.439  1.00  0.00     0.000 C 
BRANCH  10  11
ATOM     11  C   UNL     1       2.365 -37.843  18.295  1.00  0.00    -0.000 C 
BRANCH  11  12
ATOM     12  C   UNL     1       1.723 -37.319  17.001  1.00  0.00    -0.000 C 
BRANCH  12  13
ATOM     13  C   UNL     1       2.702 -36.508  16.136  1.00  0.00    -0.000 C 
BRANCH  13  14
ATOM     14  C   UNL     1       2.586 -36.756  14.619  1.00  0.00    -0.000 C 
BRANCH  14  15
ATOM     15  C   UNL     1       3.799 -37.494  14.014  1.00  0.00    -0.000 C 
BRANCH  15  16
ATOM     16  C   UNL     1       4.115 -38.802  14.754  1.00  0.00    -0.003 C 
ATOM     17  C   UNL     1       4.928 -39.749  13.876  1.00  0.00     0.004 C 
ENDBRANCH  15  16
ENDBRANCH  14  15
ENDBRANCH  13  14
ENDBRANCH  12  13
ENDBRANCH  11  12
ENDBRANCH  10  11
ENDBRANCH   1  10
TORSDOF 13
ENDMDL
MODEL 8
REMARK VINA RESULT:    -1.662      1.345      2.617
REMARK INTER + INTRA:          -3.836
REMARK INTER:                  -3.056
REMARK INTRA:                  -0.780
REMARK UNBOUND:                -0.911
REMARK SMILES CCCCCCCCCCCCCCC(=O)[O-]
REMARK SMILES IDX 9 1 10 2 11 3 12 4 13 5 14 6 15 7 16 8 17 9 8 10 7 11 6 12
REMARK SMILES IDX 5 13 4 14 3 15 2 16 1 17
REMARK H PARENT
REMARK Flexibility Score: inf
ROOT
ATOM      1  C   UNL     1       4.448 -38.262  20.785  1.00  0.00     0.000 C 
ENDROOT
BRANCH   1   2
ATOM      2  C   UNL     1       4.504 -37.985  19.275  1.00  0.00     0.000 C 
BRANCH   2   3
ATOM      3  C   UNL     1       3.317 -37.139  18.785  1.00  0.00     0.000 C 
BRANCH   3   4
ATOM      4  C   UNL     1       3.424 -36.766  17.297  1.00  0.00     0.000 C 
BRANCH   4   5
ATOM      5  C   UNL     1       2.175 -37.143  16.472  1.00  0.00     0.006 C 
BRANCH   5   6
ATOM      6  C   UNL     1       2.351 -36.833  14.979  1.00  0.00     0.053 C 
BRANCH   6   7
ATOM      7  C   UNL     1       3.625 -37.428  14.468  1.00  0.00     0.041 C 
ATOM      8  O   UNL     1       3.853 -38.658  14.612  1.00  0.00    -0.550 OA
ATOM      9  O   UNL     1       4.583 -36.615  13.875  1.00  0.00    -0.550 OA
ENDBRANCH   6   7
ENDBRANCH   5   6
ENDBRANCH   4   5
ENDBRANCH   3   4
ENDBRANCH   2   3
ENDBRANCH   1   2
BRANCH   1  10
ATOM     10  C   UNL     1       5.823 -38.614  21.375  1.00  0.00     0.000 C 
BRANCH  10  11
ATOM     11  C   UNL     1       5.703 -39.724  22.425  1.00  0.00    -0.000 C 
BRANCH  11  12
ATOM     12  C   UNL     1       4.805 -39.283  23.591  1.00  0.00    -0.000 C 
BRANCH  12  13
ATOM     13  C   UNL     1       5.569 -38.498  24.669  1.00  0.00    -0.000 C 
BRANCH  13  14
ATOM     14  C   UNL     1       5.027 -37.083  24.948  1.00  0.00    -0.000 C 
BRANCH  14  15
ATOM     15  C   UNL     1       6.125 -36.003  25.048  1.00  0.00    -0.000 C 
BRANCH  15  16
ATOM     16  C   UNL     1       5.924 -34.869  24.032  1.00  0.00    -0.003 C 
ATOM     17  C   UNL     1       5.849 -35.412  22.608  1.00  0.00     0.004 C 
ENDBRANCH  15  16
ENDBRANCH  14  15
ENDBRANCH  13  14
ENDBRANCH  12  13
ENDBRANCH  11  12
ENDBRANCH  10  11
ENDBRANCH   1  10
TORSDOF 13
ENDMDL
MODEL 9
REMARK VINA RESULT:    -1.659      4.019      7.959
REMARK INTER + INTRA:          -3.832
REMARK INTER:                  -3.375
REMARK INTRA:                  -0.457
REMARK UNBOUND:                -0.911
REMARK SMILES CCCCCCCCCCCCCCC(=O)[O-]
REMARK SMILES IDX 9 1 10 2 11 3 12 4 13 5 14 6 15 7 16 8 17 9 8 10 7 11 6 12
REMARK SMILES IDX 5 13 4 14 3 15 2 16 1 17
REMARK H PARENT
REMARK Flexibility Score: inf
ROOT
ATOM      1  C   UNL     1       5.081 -35.940  20.681  1.00  0.00     0.000 C 
ENDROOT
BRANCH   1   2
ATOM      2  C   UNL     1       5.710 -37.115  21.446  1.00  0.00     0.000 C 
BRANCH   2   3
ATOM      3  C   UNL     1       5.327 -38.480  20.850  1.00  0.00     0.000 C 
BRANCH   3   4
ATOM      4  C   UNL     1       5.411 -39.623  21.876  1.00  0.00     0.000 C 
BRANCH   4   5
ATOM      5  C   UNL     1       5.999 -39.194  23.236  1.00  0.00     0.006 C 
BRANCH   5   6
ATOM      6  C   UNL     1       4.923 -39.097  24.328  1.00  0.00     0.053 C 
BRANCH   6   7
ATOM      7  C   UNL     1       5.069 -37.822  25.095  1.00  0.00     0.041 C 
ATOM      8  O   UNL     1       5.920 -36.963  24.742  1.00  0.00    -0.550 OA
ATOM      9  O   UNL     1       4.299 -37.601  26.230  1.00  0.00    -0.550 OA
ENDBRANCH   6   7
ENDBRANCH   5   6
ENDBRANCH   4   5
ENDBRANCH   3   4
ENDBRANCH   2   3
ENDBRANCH   1   2
BRANCH   1  10
ATOM     10  C   UNL     1       5.870 -35.564  19.418  1.00  0.00     0.000 C 
BRANCH  10  11
ATOM     11  C   UNL     1       5.084 -34.572  18.553  1.00  0.00    -0.000 C 
BRANCH  11  12
ATOM     12  C   UNL     1       4.200 -35.310  17.536  1.00  0.00    -0.000 C 
BRANCH  12  13
ATOM     13  C   UNL     1       3.862 -36.746  17.970  1.00  0.00    -0.000 C 
BRANCH  13  14
ATOM     14  C   UNL     1       2.887 -37.492  17.039  1.00  0.00    -0.000 C 
BRANCH  14  15
ATOM     15  C   UNL     1       2.260 -36.598  15.948  1.00  0.00    -0.000 C 
BRANCH  15  16
ATOM     16  C   UNL     1       2.925 -36.796  14.578  1.00  0.00    -0.003 C 
ATOM     17  C   UNL     1       3.816 -38.034  14.571  1.00  0.00     0.004 C 
ENDBRANCH  15  16
ENDBRANCH  14  15
ENDBRANCH  13  14
ENDBRANCH  12  13
ENDBRANCH  11  12
ENDBRANCH  10  11
ENDBRANCH   1  10
TORSDOF 13
ENDMDL
