MODEL 1
REMARK VINA RESULT:    -1.151      0.000      0.000
REMARK INTER + INTRA:          -2.121
REMARK INTER:                  -1.454
REMARK INTRA:                  -0.667
REMARK UNBOUND:                -0.667
REMARK SMILES O=C(C=Cc1ccc(O)cc1)c1ccc(O)cc1O
REMARK SMILES IDX 4 1 3 2 5 3 6 4 7 5 8 6 11 7 10 8 9 9 2 11 1 12 12 13 18 14
REMARK SMILES IDX 13 15 17 16 14 17 15 18 19 19 16 21
REMARK H PARENT 9 10 19 20 16 22
REMARK Flexibility Score: inf
ROOT
ATOM      1  C   UNL     1      75.916  40.103  24.689  1.00  0.00     0.012 C 
ATOM      2  C   UNL     1      75.121  40.904  23.968  1.00  0.00     0.053 C 
ENDROOT
BRANCH   1   3
ATOM      3  C   UNL     1      75.875  40.020  26.170  1.00  0.00    -0.025 A 
ATOM      4  C   UNL     1      75.798  41.214  26.908  1.00  0.00     0.012 A 
ATOM      5  C   UNL     1      75.767  41.186  28.306  1.00  0.00     0.047 A 
ATOM      6  C   UNL     1      75.825  39.963  28.986  1.00  0.00     0.115 A 
ATOM      7  C   UNL     1      75.949  38.795  26.865  1.00  0.00     0.012 A 
ATOM      8  C   UNL     1      75.919  38.771  28.262  1.00  0.00     0.047 A 
BRANCH   6   9
ATOM      9  O   UNL     1      75.794  39.923  30.379  1.00  0.00    -0.508 OA
ATOM     10  H   UNL     1      74.948  39.689  30.883  1.00  0.00     0.293 HD
ENDBRANCH   6   9
ENDBRANCH   1   3
BRANCH   2  11
ATOM     11  C   UNL     1      75.199  40.971  22.492  1.00  0.00     0.189 C 
ATOM     12  O   UNL     1      76.085  41.675  21.935  1.00  0.00    -0.289 OA
BRANCH  11  13
ATOM     13  C   UNL     1      74.260  40.189  21.658  1.00  0.00     0.064 A 
ATOM     14  C   UNL     1      74.656  39.611  20.426  1.00  0.00     0.130 A 
ATOM     15  C   UNL     1      72.948  39.979  22.119  1.00  0.00     0.020 A 
ATOM     16  C   UNL     1      73.751  38.818  19.708  1.00  0.00     0.093 A 
ATOM     17  C   UNL     1      72.052  39.197  21.386  1.00  0.00     0.047 A 
ATOM     18  C   UNL     1      72.451  38.611  20.184  1.00  0.00     0.119 A 
BRANCH  14  19
ATOM     19  O   UNL     1      75.920  39.825  19.873  1.00  0.00    -0.507 OA
ATOM     20  H   UNL     1      76.780  39.573  20.342  1.00  0.00     0.293 HD
ENDBRANCH  14  19
BRANCH  18  21
ATOM     21  O   UNL     1      71.548  37.828  19.469  1.00  0.00    -0.508 OA
ATOM     22  H   UNL     1      71.585  37.768  18.458  1.00  0.00     0.293 HD
ENDBRANCH  18  21
ENDBRANCH  11  13
ENDBRANCH   2  11
TORSDOF 6
ENDMDL
MODEL 2
REMARK VINA RESULT:    -0.806      0.974      1.580
REMARK INTER + INTRA:          -1.685
REMARK INTER:                  -1.603
REMARK INTRA:                  -0.082
REMARK UNBOUND:                -0.667
REMARK SMILES O=C(C=Cc1ccc(O)cc1)c1ccc(O)cc1O
REMARK SMILES IDX 4 1 3 2 5 3 6 4 7 5 8 6 11 7 10 8 9 9 2 11 1 12 12 13 18 14
REMARK SMILES IDX 13 15 17 16 14 17 15 18 19 19 16 21
REMARK H PARENT 9 10 19 20 16 22
REMARK Flexibility Score: inf
ROOT
ATOM      1  C   UNL     1      75.969  40.110  24.689  1.00  0.00     0.012 C 
ATOM      2  C   UNL     1      75.128  40.856  23.959  1.00  0.00     0.053 C 
ENDROOT
BRANCH   1   3
ATOM      3  C   UNL     1      75.908  40.009  26.168  1.00  0.00    -0.025 A 
ATOM      4  C   UNL     1      75.796  41.193  26.919  1.00  0.00     0.012 A 
ATOM      5  C   UNL     1      75.745  41.147  28.315  1.00  0.00     0.047 A 
ATOM      6  C   UNL     1      75.817  39.917  28.982  1.00  0.00     0.115 A 
ATOM      7  C   UNL     1      75.995  38.778  26.849  1.00  0.00     0.012 A 
ATOM      8  C   UNL     1      75.944  38.737  28.246  1.00  0.00     0.047 A 
BRANCH   6   9
ATOM      9  O   UNL     1      75.766  39.860  30.373  1.00  0.00    -0.508 OA
ATOM     10  H   UNL     1      75.077  39.296  30.855  1.00  0.00     0.293 HD
ENDBRANCH   6   9
ENDBRANCH   1   3
BRANCH   2  11
ATOM     11  C   UNL     1      75.228  40.943  22.487  1.00  0.00     0.189 C 
ATOM     12  O   UNL     1      76.048  41.740  21.952  1.00  0.00    -0.289 OA
BRANCH  11  13
ATOM     13  C   UNL     1      74.390  40.077  21.628  1.00  0.00     0.064 A 
ATOM     14  C   UNL     1      73.020  39.849  21.904  1.00  0.00     0.130 A 
ATOM     15  C   UNL     1      74.961  39.495  20.481  1.00  0.00     0.020 A 
ATOM     16  C   UNL     1      72.251  39.080  21.019  1.00  0.00     0.093 A 
ATOM     17  C   UNL     1      74.187  38.719  19.616  1.00  0.00     0.047 A 
ATOM     18  C   UNL     1      72.832  38.514  19.878  1.00  0.00     0.119 A 
BRANCH  14  19
ATOM     19  O   UNL     1      72.397  40.341  23.052  1.00  0.00    -0.507 OA
ATOM     20  H   UNL     1      72.802  41.060  23.638  1.00  0.00     0.293 HD
ENDBRANCH  14  19
BRANCH  18  21
ATOM     21  O   UNL     1      72.071  37.744  19.001  1.00  0.00    -0.508 OA
ATOM     22  H   UNL     1      71.980  36.741  19.120  1.00  0.00     0.293 HD
ENDBRANCH  18  21
ENDBRANCH  11  13
ENDBRANCH   2  11
TORSDOF 6
ENDMDL
MODEL 3
REMARK VINA RESULT:    -0.800      2.271      3.601
REMARK INTER + INTRA:          -1.678
REMARK INTER:                  -1.258
REMARK INTRA:                  -0.420
REMARK UNBOUND:                -0.667
REMARK SMILES O=C(C=Cc1ccc(O)cc1)c1ccc(O)cc1O
REMARK SMILES IDX 4 1 3 2 5 3 6 4 7 5 8 6 11 7 10 8 9 9 2 11 1 12 12 13 18 14
REMARK SMILES IDX 13 15 17 16 14 17 15 18 19 19 16 21
REMARK H PARENT 9 10 19 20 16 22
REMARK Flexibility Score: inf
ROOT
ATOM      1  C   UNL     1      75.878  40.342  27.809  1.00  0.00     0.012 C 
ATOM      2  C   UNL     1      75.944  40.964  26.623  1.00  0.00     0.053 C 
ENDROOT
BRANCH   1   3
ATOM      3  C   UNL     1      75.771  41.055  29.106  1.00  0.00    -0.025 A 
ATOM      4  C   UNL     1      74.500  41.462  29.547  1.00  0.00     0.012 A 
ATOM      5  C   UNL     1      74.352  42.146  30.758  1.00  0.00     0.047 A 
ATOM      6  C   UNL     1      75.476  42.443  31.540  1.00  0.00     0.115 A 
ATOM      7  C   UNL     1      76.898  41.373  29.892  1.00  0.00     0.012 A 
ATOM      8  C   UNL     1      76.745  42.057  31.102  1.00  0.00     0.047 A 
BRANCH   6   9
ATOM      9  O   UNL     1      75.340  43.123  32.748  1.00  0.00    -0.508 OA
ATOM     10  H   UNL     1      75.711  44.057  32.875  1.00  0.00     0.293 HD
ENDBRANCH   6   9
ENDBRANCH   1   3
BRANCH   2  11
ATOM     11  C   UNL     1      76.064  40.220  25.350  1.00  0.00     0.189 C 
ATOM     12  O   UNL     1      76.728  39.148  25.301  1.00  0.00    -0.289 OA
BRANCH  11  13
ATOM     13  C   UNL     1      75.382  40.710  24.131  1.00  0.00     0.064 A 
ATOM     14  C   UNL     1      75.918  41.757  23.342  1.00  0.00     0.130 A 
ATOM     15  C   UNL     1      74.187  40.090  23.721  1.00  0.00     0.020 A 
ATOM     16  C   UNL     1      75.273  42.134  22.157  1.00  0.00     0.093 A 
ATOM     17  C   UNL     1      73.547  40.486  22.545  1.00  0.00     0.047 A 
ATOM     18  C   UNL     1      74.089  41.503  21.758  1.00  0.00     0.119 A 
BRANCH  14  19
ATOM     19  O   UNL     1      77.066  42.460  23.714  1.00  0.00    -0.507 OA
ATOM     20  H   UNL     1      77.747  42.103  24.372  1.00  0.00     0.293 HD
ENDBRANCH  14  19
BRANCH  18  21
ATOM     21  O   UNL     1      73.443  41.882  20.584  1.00  0.00    -0.508 OA
ATOM     22  H   UNL     1      73.947  42.315  19.818  1.00  0.00     0.293 HD
ENDBRANCH  18  21
ENDBRANCH  11  13
ENDBRANCH   2  11
TORSDOF 6
ENDMDL
MODEL 4
REMARK VINA RESULT:    -0.568      2.247      7.884
REMARK INTER + INTRA:          -1.385
REMARK INTER:                  -0.742
REMARK INTRA:                  -0.642
REMARK UNBOUND:                -0.667
REMARK SMILES O=C(C=Cc1ccc(O)cc1)c1ccc(O)cc1O
REMARK SMILES IDX 4 1 3 2 5 3 6 4 7 5 8 6 11 7 10 8 9 9 2 11 1 12 12 13 18 14
REMARK SMILES IDX 13 15 17 16 14 17 15 18 19 19 16 21
REMARK H PARENT 9 10 19 20 16 22
REMARK Flexibility Score: inf
ROOT
ATOM      1  C   UNL     1      76.116  40.704  24.503  1.00  0.00     0.012 C 
ATOM      2  C   UNL     1      75.481  39.928  25.393  1.00  0.00     0.053 C 
ENDROOT
BRANCH   1   3
ATOM      3  C   UNL     1      75.475  41.244  23.278  1.00  0.00    -0.025 A 
ATOM      4  C   UNL     1      74.360  40.570  22.750  1.00  0.00     0.012 A 
ATOM      5  C   UNL     1      73.730  41.037  21.592  1.00  0.00     0.047 A 
ATOM      6  C   UNL     1      74.214  42.178  20.938  1.00  0.00     0.115 A 
ATOM      7  C   UNL     1      75.964  42.382  22.605  1.00  0.00     0.012 A 
ATOM      8  C   UNL     1      75.332  42.845  21.447  1.00  0.00     0.047 A 
BRANCH   6   9
ATOM      9  O   UNL     1      73.594  42.651  19.785  1.00  0.00    -0.508 OA
ATOM     10  H   UNL     1      74.042  43.334  19.184  1.00  0.00     0.293 HD
ENDBRANCH   6   9
ENDBRANCH   1   3
BRANCH   2  11
ATOM     11  C   UNL     1      76.156  39.396  26.597  1.00  0.00     0.189 C 
ATOM     12  O   UNL     1      76.955  38.424  26.499  1.00  0.00    -0.289 OA
BRANCH  11  13
ATOM     13  C   UNL     1      75.924  40.017  27.920  1.00  0.00     0.064 A 
ATOM     14  C   UNL     1      75.970  39.264  29.119  1.00  0.00     0.130 A 
ATOM     15  C   UNL     1      75.692  41.403  27.993  1.00  0.00     0.020 A 
ATOM     16  C   UNL     1      75.817  39.912  30.352  1.00  0.00     0.093 A 
ATOM     17  C   UNL     1      75.528  42.033  29.229  1.00  0.00     0.047 A 
ATOM     18  C   UNL     1      75.595  41.292  30.409  1.00  0.00     0.119 A 
BRANCH  14  19
ATOM     19  O   UNL     1      76.135  37.877  29.124  1.00  0.00    -0.507 OA
ATOM     20  H   UNL     1      76.815  37.398  28.548  1.00  0.00     0.293 HD
ENDBRANCH  14  19
BRANCH  18  21
ATOM     21  O   UNL     1      75.436  41.936  31.634  1.00  0.00    -0.508 OA
ATOM     22  H   UNL     1      74.530  42.002  32.084  1.00  0.00     0.293 HD
ENDBRANCH  18  21
ENDBRANCH  11  13
ENDBRANCH   2  11
TORSDOF 6
ENDMDL
MODEL 5
REMARK VINA RESULT:    -0.418      5.127      6.957
REMARK INTER + INTRA:          -1.195
REMARK INTER:                  -0.570
REMARK INTRA:                  -0.625
REMARK UNBOUND:                -0.667
REMARK SMILES O=C(C=Cc1ccc(O)cc1)c1ccc(O)cc1O
REMARK SMILES IDX 4 1 3 2 5 3 6 4 7 5 8 6 11 7 10 8 9 9 2 11 1 12 12 13 18 14
REMARK SMILES IDX 13 15 17 16 14 17 15 18 19 19 16 21
REMARK H PARENT 9 10 19 20 16 22
REMARK Flexibility Score: inf
ROOT
ATOM      1  C   UNL     1      74.099  42.112  21.500  1.00  0.00     0.012 C 
ATOM      2  C   UNL     1      73.156  43.049  21.672  1.00  0.00     0.053 C 
ENDROOT
BRANCH   1   3
ATOM      3  C   UNL     1      75.422  42.380  20.884  1.00  0.00    -0.025 A 
ATOM      4  C   UNL     1      75.481  42.641  19.504  1.00  0.00     0.012 A 
ATOM      5  C   UNL     1      76.707  42.890  18.879  1.00  0.00     0.047 A 
ATOM      6  C   UNL     1      77.894  42.869  19.623  1.00  0.00     0.115 A 
ATOM      7  C   UNL     1      76.624  42.347  21.622  1.00  0.00     0.012 A 
ATOM      8  C   UNL     1      77.847  42.594  20.993  1.00  0.00     0.047 A 
BRANCH   6   9
ATOM      9  O   UNL     1      79.120  43.116  19.011  1.00  0.00    -0.508 OA
ATOM     10  H   UNL     1      79.200  43.215  18.006  1.00  0.00     0.293 HD
ENDBRANCH   6   9
ENDBRANCH   1   3
BRANCH   2  11
ATOM     11  C   UNL     1      71.842  42.742  22.277  1.00  0.00     0.189 C 
ATOM     12  O   UNL     1      71.759  42.459  23.505  1.00  0.00    -0.289 OA
BRANCH  11  13
ATOM     13  C   UNL     1      70.611  42.794  21.458  1.00  0.00     0.064 A 
ATOM     14  C   UNL     1      69.332  42.980  22.039  1.00  0.00     0.130 A 
ATOM     15  C   UNL     1      70.716  42.697  20.059  1.00  0.00     0.020 A 
ATOM     16  C   UNL     1      68.205  43.097  21.215  1.00  0.00     0.093 A 
ATOM     17  C   UNL     1      69.583  42.800  19.250  1.00  0.00     0.047 A 
ATOM     18  C   UNL     1      68.327  43.005  19.824  1.00  0.00     0.119 A 
BRANCH  14  19
ATOM     19  O   UNL     1      69.139  43.025  23.422  1.00  0.00    -0.507 OA
ATOM     20  H   UNL     1      69.854  43.325  24.072  1.00  0.00     0.293 HD
ENDBRANCH  14  19
BRANCH  18  21
ATOM     21  O   UNL     1      67.206  43.114  19.003  1.00  0.00    -0.508 OA
ATOM     22  H   UNL     1      67.291  43.339  18.019  1.00  0.00     0.293 HD
ENDBRANCH  18  21
ENDBRANCH  11  13
ENDBRANCH   2  11
TORSDOF 6
ENDMDL
MODEL 6
REMARK VINA RESULT:    -0.386      1.450      1.798
REMARK INTER + INTRA:          -1.155
REMARK INTER:                  -0.569
REMARK INTRA:                  -0.586
REMARK UNBOUND:                -0.667
REMARK SMILES O=C(C=Cc1ccc(O)cc1)c1ccc(O)cc1O
REMARK SMILES IDX 4 1 3 2 5 3 6 4 7 5 8 6 11 7 10 8 9 9 2 11 1 12 12 13 18 14
REMARK SMILES IDX 13 15 17 16 14 17 15 18 19 19 16 21
REMARK H PARENT 9 10 19 20 16 22
REMARK Flexibility Score: inf
ROOT
ATOM      1  C   UNL     1      76.231  40.859  24.721  1.00  0.00     0.012 C 
ATOM      2  C   UNL     1      75.249  40.762  23.814  1.00  0.00     0.053 C 
ENDROOT
BRANCH   1   3
ATOM      3  C   UNL     1      76.229  40.135  26.016  1.00  0.00    -0.025 A 
ATOM      4  C   UNL     1      76.933  38.922  26.109  1.00  0.00     0.012 A 
ATOM      5  C   UNL     1      76.950  38.200  27.307  1.00  0.00     0.047 A 
ATOM      6  C   UNL     1      76.254  38.676  28.426  1.00  0.00     0.115 A 
ATOM      7  C   UNL     1      75.519  40.598  27.143  1.00  0.00     0.012 A 
ATOM      8  C   UNL     1      75.538  39.873  28.338  1.00  0.00     0.047 A 
BRANCH   6   9
ATOM      9  O   UNL     1      76.266  37.966  29.624  1.00  0.00    -0.508 OA
ATOM     10  H   UNL     1      77.100  37.903  30.195  1.00  0.00     0.293 HD
ENDBRANCH   6   9
ENDBRANCH   1   3
BRANCH   2  11
ATOM     11  C   UNL     1      75.278  41.509  22.538  1.00  0.00     0.189 C 
ATOM     12  O   UNL     1      76.241  42.283  22.278  1.00  0.00    -0.289 OA
BRANCH  11  13
ATOM     13  C   UNL     1      74.197  41.334  21.544  1.00  0.00     0.064 A 
ATOM     14  C   UNL     1      74.435  40.756  20.272  1.00  0.00     0.130 A 
ATOM     15  C   UNL     1      72.886  41.714  21.884  1.00  0.00     0.020 A 
ATOM     16  C   UNL     1      73.364  40.543  19.394  1.00  0.00     0.093 A 
ATOM     17  C   UNL     1      71.830  41.509  20.994  1.00  0.00     0.047 A 
ATOM     18  C   UNL     1      72.064  40.920  19.750  1.00  0.00     0.119 A 
BRANCH  14  19
ATOM     19  O   UNL     1      75.716  40.408  19.838  1.00  0.00    -0.507 OA
ATOM     20  H   UNL     1      75.926  40.146  18.884  1.00  0.00     0.293 HD
ENDBRANCH  14  19
BRANCH  18  21
ATOM     21  O   UNL     1      71.000  40.715  18.876  1.00  0.00    -0.508 OA
ATOM     22  H   UNL     1      70.189  40.170  19.147  1.00  0.00     0.293 HD
ENDBRANCH  18  21
ENDBRANCH  11  13
ENDBRANCH   2  11
TORSDOF 6
ENDMDL
MODEL 7
REMARK VINA RESULT:    -0.338      1.558      1.641
REMARK INTER + INTRA:          -1.094
REMARK INTER:                  -0.553
REMARK INTRA:                  -0.541
REMARK UNBOUND:                -0.667
REMARK SMILES O=C(C=Cc1ccc(O)cc1)c1ccc(O)cc1O
REMARK SMILES IDX 4 1 3 2 5 3 6 4 7 5 8 6 11 7 10 8 9 9 2 11 1 12 12 13 18 14
REMARK SMILES IDX 13 15 17 16 14 17 15 18 19 19 16 21
REMARK H PARENT 9 10 19 20 16 22
REMARK Flexibility Score: inf
ROOT
ATOM      1  C   UNL     1      76.250  40.885  24.541  1.00  0.00     0.012 C 
ATOM      2  C   UNL     1      75.255  40.797  23.647  1.00  0.00     0.053 C 
ENDROOT
BRANCH   1   3
ATOM      3  C   UNL     1      76.276  40.132  25.820  1.00  0.00    -0.025 A 
ATOM      4  C   UNL     1      75.551  40.639  26.913  1.00  0.00     0.012 A 
ATOM      5  C   UNL     1      75.554  39.969  28.140  1.00  0.00     0.047 A 
ATOM      6  C   UNL     1      76.293  38.789  28.296  1.00  0.00     0.115 A 
ATOM      7  C   UNL     1      77.029  38.952  25.991  1.00  0.00     0.012 A 
ATOM      8  C   UNL     1      77.030  38.287  27.221  1.00  0.00     0.047 A 
BRANCH   6   9
ATOM      9  O   UNL     1      76.302  38.114  29.514  1.00  0.00    -0.508 OA
ATOM     10  H   UNL     1      76.884  38.419  30.285  1.00  0.00     0.293 HD
ENDBRANCH   6   9
ENDBRANCH   1   3
BRANCH   2  11
ATOM     11  C   UNL     1      75.256  41.572  22.388  1.00  0.00     0.189 C 
ATOM     12  O   UNL     1      76.227  42.330  22.111  1.00  0.00    -0.289 OA
BRANCH  11  13
ATOM     13  C   UNL     1      74.137  41.444  21.430  1.00  0.00     0.064 A 
ATOM     14  C   UNL     1      74.273  40.737  20.209  1.00  0.00     0.130 A 
ATOM     15  C   UNL     1      72.889  42.004  21.756  1.00  0.00     0.020 A 
ATOM     16  C   UNL     1      73.163  40.580  19.369  1.00  0.00     0.093 A 
ATOM     17  C   UNL     1      71.794  41.853  20.903  1.00  0.00     0.047 A 
ATOM     18  C   UNL     1      71.925  41.137  19.712  1.00  0.00     0.119 A 
BRANCH  14  19
ATOM     19  O   UNL     1      75.493  40.205  19.787  1.00  0.00    -0.507 OA
ATOM     20  H   UNL     1      75.579  39.302  19.337  1.00  0.00     0.293 HD
ENDBRANCH  14  19
BRANCH  18  21
ATOM     21  O   UNL     1      70.822  40.988  18.875  1.00  0.00    -0.508 OA
ATOM     22  H   UNL     1      70.007  40.459  19.163  1.00  0.00     0.293 HD
ENDBRANCH  18  21
ENDBRANCH  11  13
ENDBRANCH   2  11
TORSDOF 6
ENDMDL
MODEL 8
REMARK VINA RESULT:     0.331      4.715      6.695
REMARK INTER + INTRA:          -0.249
REMARK INTER:                  -0.611
REMARK INTRA:                   0.362
REMARK UNBOUND:                -0.667
REMARK SMILES O=C(C=Cc1ccc(O)cc1)c1ccc(O)cc1O
REMARK SMILES IDX 4 1 3 2 5 3 6 4 7 5 8 6 11 7 10 8 9 9 2 11 1 12 12 13 18 14
REMARK SMILES IDX 13 15 17 16 14 17 15 18 19 19 16 21
REMARK H PARENT 9 10 19 20 16 22
REMARK Flexibility Score: inf
ROOT
ATOM      1  C   UNL     1      72.885  42.085  22.222  1.00  0.00     0.012 C 
ATOM      2  C   UNL     1      72.038  43.123  22.276  1.00  0.00     0.053 C 
ENDROOT
BRANCH   1   3
ATOM      3  C   UNL     1      74.251  42.169  21.647  1.00  0.00    -0.025 A 
ATOM      4  C   UNL     1      75.230  42.900  22.342  1.00  0.00     0.012 A 
ATOM      5  C   UNL     1      76.527  43.014  21.834  1.00  0.00     0.047 A 
ATOM      6  C   UNL     1      76.862  42.408  20.616  1.00  0.00     0.115 A 
ATOM      7  C   UNL     1      74.593  41.575  20.414  1.00  0.00     0.012 A 
ATOM      8  C   UNL     1      75.891  41.693  19.909  1.00  0.00     0.047 A 
BRANCH   6   9
ATOM      9  O   UNL     1      78.151  42.514  20.101  1.00  0.00    -0.508 OA
ATOM     10  H   UNL     1      78.340  43.025  19.246  1.00  0.00     0.293 HD
ENDBRANCH   6   9
ENDBRANCH   1   3
BRANCH   2  11
ATOM     11  C   UNL     1      70.678  42.999  22.844  1.00  0.00     0.189 C 
ATOM     12  O   UNL     1      70.520  42.851  24.088  1.00  0.00    -0.289 OA
BRANCH  11  13
ATOM     13  C   UNL     1      69.490  43.080  21.965  1.00  0.00     0.064 A 
ATOM     14  C   UNL     1      69.603  43.090  20.553  1.00  0.00     0.130 A 
ATOM     15  C   UNL     1      68.210  43.108  22.547  1.00  0.00     0.020 A 
ATOM     16  C   UNL     1      68.445  43.092  19.764  1.00  0.00     0.093 A 
ATOM     17  C   UNL     1      67.065  43.125  21.748  1.00  0.00     0.047 A 
ATOM     18  C   UNL     1      67.178  43.112  20.357  1.00  0.00     0.119 A 
BRANCH  14  19
ATOM     19  O   UNL     1      70.838  43.125  19.902  1.00  0.00    -0.507 OA
ATOM     20  H   UNL     1      71.722  43.170  20.393  1.00  0.00     0.293 HD
ENDBRANCH  14  19
BRANCH  18  21
ATOM     21  O   UNL     1      66.026  43.122  19.574  1.00  0.00    -0.508 OA
ATOM     22  H   UNL     1      65.296  43.811  19.715  1.00  0.00     0.293 HD
ENDBRANCH  18  21
ENDBRANCH  11  13
ENDBRANCH   2  11
TORSDOF 6
ENDMDL
MODEL 9
REMARK VINA RESULT:     0.639      2.349      8.395
REMARK INTER + INTRA:           0.140
REMARK INTER:                   0.567
REMARK INTRA:                  -0.427
REMARK UNBOUND:                -0.667
REMARK SMILES O=C(C=Cc1ccc(O)cc1)c1ccc(O)cc1O
REMARK SMILES IDX 4 1 3 2 5 3 6 4 7 5 8 6 11 7 10 8 9 9 2 11 1 12 12 13 18 14
REMARK SMILES IDX 13 15 17 16 14 17 15 18 19 19 16 21
REMARK H PARENT 9 10 19 20 16 22
REMARK Flexibility Score: inf
ROOT
ATOM      1  C   UNL     1      75.931  40.147  25.512  1.00  0.00     0.012 C 
ATOM      2  C   UNL     1      75.667  40.779  26.665  1.00  0.00     0.053 C 
ENDROOT
BRANCH   1   3
ATOM      3  C   UNL     1      75.704  40.747  24.174  1.00  0.00    -0.025 A 
ATOM      4  C   UNL     1      76.363  41.948  23.856  1.00  0.00     0.012 A 
ATOM      5  C   UNL     1      76.172  42.555  22.611  1.00  0.00     0.047 A 
ATOM      6  C   UNL     1      75.309  41.977  21.671  1.00  0.00     0.115 A 
ATOM      7  C   UNL     1      74.826  40.181  23.227  1.00  0.00     0.012 A 
ATOM      8  C   UNL     1      74.637  40.793  21.984  1.00  0.00     0.047 A 
BRANCH   6   9
ATOM      9  O   UNL     1      75.112  42.573  20.427  1.00  0.00    -0.508 OA
ATOM     10  H   UNL     1      75.029  42.021  19.582  1.00  0.00     0.293 HD
ENDBRANCH   6   9
ENDBRANCH   1   3
BRANCH   2  11
ATOM     11  C   UNL     1      75.893  40.144  27.981  1.00  0.00     0.189 C 
ATOM     12  O   UNL     1      76.121  38.904  28.057  1.00  0.00    -0.289 OA
BRANCH  11  13
ATOM     13  C   UNL     1      75.884  40.958  29.216  1.00  0.00     0.064 A 
ATOM     14  C   UNL     1      74.682  41.275  29.896  1.00  0.00     0.130 A 
ATOM     15  C   UNL     1      77.108  41.398  29.753  1.00  0.00     0.020 A 
ATOM     16  C   UNL     1      74.734  41.987  31.102  1.00  0.00     0.093 A 
ATOM     17  C   UNL     1      77.143  42.119  30.948  1.00  0.00     0.047 A 
ATOM     18  C   UNL     1      75.959  42.411  31.628  1.00  0.00     0.119 A 
BRANCH  14  19
ATOM     19  O   UNL     1      73.426  40.927  29.394  1.00  0.00    -0.507 OA
ATOM     20  H   UNL     1      72.802  41.591  28.954  1.00  0.00     0.293 HD
ENDBRANCH  14  19
BRANCH  18  21
ATOM     21  O   UNL     1      76.011  43.125  32.823  1.00  0.00    -0.508 OA
ATOM     22  H   UNL     1      75.778  44.111  32.861  1.00  0.00     0.293 HD
ENDBRANCH  18  21
ENDBRANCH  11  13
ENDBRANCH   2  11
TORSDOF 6
ENDMDL
