MODEL 1
REMARK VINA RESULT:    -3.215      0.000      0.000
REMARK INTER + INTRA:          -4.138
REMARK INTER:                  -3.966
REMARK INTRA:                  -0.172
REMARK UNBOUND:                -0.172
REMARK SMILES CCCCCC(=O)[O-]
REMARK SMILES IDX 4 1 5 2 6 3 7 4 8 5 3 6 2 7 1 8
REMARK H PARENT
REMARK Flexibility Score: inf
ROOT
ATOM      1  C   UNL     1     127.069 145.134 107.277  1.00  0.00     0.006 C 
ENDROOT
BRANCH   1   2
ATOM      2  C   UNL     1     127.470 145.905 108.542  1.00  0.00     0.053 C 
BRANCH   2   3
ATOM      3  C   UNL     1     128.957 145.909 108.701  1.00  0.00     0.041 C 
ATOM      4  O   UNL     1     129.499 146.627 109.582  1.00  0.00    -0.550 OA
ATOM      5  O   UNL     1     129.750 145.155 107.844  1.00  0.00    -0.550 OA
ENDBRANCH   2   3
ENDBRANCH   1   2
BRANCH   1   6
ATOM      6  C   UNL     1     126.880 146.052 106.060  1.00  0.00     0.000 C 
BRANCH   6   7
ATOM      7  C   UNL     1     127.185 145.342 104.733  1.00  0.00    -0.003 C 
ATOM      8  C   UNL     1     127.734 143.938 104.975  1.00  0.00     0.004 C 
ENDBRANCH   6   7
ENDBRANCH   1   6
TORSDOF 4
ENDMDL
MODEL 2
REMARK VINA RESULT:    -3.176      0.131      1.149
REMARK INTER + INTRA:          -4.090
REMARK INTER:                  -3.929
REMARK INTRA:                  -0.161
REMARK UNBOUND:                -0.172
REMARK SMILES CCCCCC(=O)[O-]
REMARK SMILES IDX 4 1 5 2 6 3 7 4 8 5 3 6 2 7 1 8
REMARK H PARENT
REMARK Flexibility Score: inf
ROOT
ATOM      1  C   UNL     1     127.014 145.268 107.284  1.00  0.00     0.006 C 
ENDROOT
BRANCH   1   2
ATOM      2  C   UNL     1     127.501 146.005 108.538  1.00  0.00     0.053 C 
BRANCH   2   3
ATOM      3  C   UNL     1     128.994 145.955 108.624  1.00  0.00     0.041 C 
ATOM      4  O   UNL     1     129.651 145.222 107.839  1.00  0.00    -0.550 OA
ATOM      5  O   UNL     1     129.658 146.683 109.604  1.00  0.00    -0.550 OA
ENDBRANCH   2   3
ENDBRANCH   1   2
BRANCH   1   6
ATOM      6  C   UNL     1     126.900 146.192 106.061  1.00  0.00     0.000 C 
BRANCH   6   7
ATOM      7  C   UNL     1     127.202 145.464 104.742  1.00  0.00    -0.003 C 
ATOM      8  C   UNL     1     127.629 144.021 104.997  1.00  0.00     0.004 C 
ENDBRANCH   6   7
ENDBRANCH   1   6
TORSDOF 4
ENDMDL
MODEL 3
REMARK VINA RESULT:    -3.171      1.573      2.164
REMARK INTER + INTRA:          -4.085
REMARK INTER:                  -3.901
REMARK INTRA:                  -0.184
REMARK UNBOUND:                -0.172
REMARK SMILES CCCCCC(=O)[O-]
REMARK SMILES IDX 4 1 5 2 6 3 7 4 8 5 3 6 2 7 1 8
REMARK H PARENT
REMARK Flexibility Score: inf
ROOT
ATOM      1  C   UNL     1     128.009 145.617 105.865  1.00  0.00     0.006 C 
ENDROOT
BRANCH   1   2
ATOM      2  C   UNL     1     126.948 145.980 106.912  1.00  0.00     0.053 C 
BRANCH   2   3
ATOM      3  C   UNL     1     127.480 145.757 108.292  1.00  0.00     0.041 C 
ATOM      4  O   UNL     1     126.875 144.993 109.089  1.00  0.00    -0.550 OA
ATOM      5  O   UNL     1     128.619 146.430 108.716  1.00  0.00    -0.550 OA
ENDBRANCH   2   3
ENDBRANCH   1   2
BRANCH   1   6
ATOM      6  C   UNL     1     127.591 144.428 104.986  1.00  0.00     0.000 C 
BRANCH   6   7
ATOM      7  C   UNL     1     128.185 143.098 105.471  1.00  0.00    -0.003 C 
ATOM      8  C   UNL     1     127.168 142.308 106.290  1.00  0.00     0.004 C 
ENDBRANCH   6   7
ENDBRANCH   1   6
TORSDOF 4
ENDMDL
MODEL 4
REMARK VINA RESULT:    -3.033      1.995      2.281
REMARK INTER + INTRA:          -3.914
REMARK INTER:                  -3.819
REMARK INTRA:                  -0.095
REMARK UNBOUND:                -0.172
REMARK SMILES CCCCCC(=O)[O-]
REMARK SMILES IDX 4 1 5 2 6 3 7 4 8 5 3 6 2 7 1 8
REMARK H PARENT
REMARK Flexibility Score: inf
ROOT
ATOM      1  C   UNL     1     128.498 145.603 106.437  1.00  0.00     0.006 C 
ENDROOT
BRANCH   1   2
ATOM      2  C   UNL     1     129.970 145.517 106.013  1.00  0.00     0.053 C 
BRANCH   2   3
ATOM      3  C   UNL     1     130.845 146.177 107.031  1.00  0.00     0.041 C 
ATOM      4  O   UNL     1     130.592 146.056 108.259  1.00  0.00    -0.550 OA
ATOM      5  O   UNL     1     131.913 146.966 106.623  1.00  0.00    -0.550 OA
ENDBRANCH   2   3
ENDBRANCH   1   2
BRANCH   1   6
ATOM      6  C   UNL     1     127.532 145.247 105.296  1.00  0.00     0.000 C 
BRANCH   6   7
ATOM      7  C   UNL     1     127.664 143.785 104.846  1.00  0.00    -0.003 C 
ATOM      8  C   UNL     1     127.400 142.828 106.006  1.00  0.00     0.004 C 
ENDBRANCH   6   7
ENDBRANCH   1   6
TORSDOF 4
ENDMDL
MODEL 5
REMARK VINA RESULT:    -3.020      3.237      4.388
REMARK INTER + INTRA:          -3.898
REMARK INTER:                  -3.768
REMARK INTRA:                  -0.130
REMARK UNBOUND:                -0.172
REMARK SMILES CCCCCC(=O)[O-]
REMARK SMILES IDX 4 1 5 2 6 3 7 4 8 5 3 6 2 7 1 8
REMARK H PARENT
REMARK Flexibility Score: inf
ROOT
ATOM      1  C   UNL     1     127.728 143.124 106.420  1.00  0.00     0.006 C 
ENDROOT
BRANCH   1   2
ATOM      2  C   UNL     1     126.875 141.850 106.471  1.00  0.00     0.053 C 
BRANCH   2   3
ATOM      3  C   UNL     1     127.737 140.655 106.735  1.00  0.00     0.041 C 
ATOM      4  O   UNL     1     127.244 139.620 107.256  1.00  0.00    -0.550 OA
ATOM      5  O   UNL     1     129.096 140.702 106.451  1.00  0.00    -0.550 OA
ENDBRANCH   2   3
ENDBRANCH   1   2
BRANCH   1   6
ATOM      6  C   UNL     1     127.781 143.745 105.016  1.00  0.00     0.000 C 
BRANCH   6   7
ATOM      7  C   UNL     1     127.253 145.188 104.990  1.00  0.00    -0.003 C 
ATOM      8  C   UNL     1     126.983 145.699 106.402  1.00  0.00     0.004 C 
ENDBRANCH   6   7
ENDBRANCH   1   6
TORSDOF 4
ENDMDL
MODEL 6
REMARK VINA RESULT:    -3.013      1.909      2.061
REMARK INTER + INTRA:          -3.889
REMARK INTER:                  -3.655
REMARK INTRA:                  -0.234
REMARK UNBOUND:                -0.172
REMARK SMILES CCCCCC(=O)[O-]
REMARK SMILES IDX 4 1 5 2 6 3 7 4 8 5 3 6 2 7 1 8
REMARK H PARENT
REMARK Flexibility Score: inf
ROOT
ATOM      1  C   UNL     1     129.278 145.155 107.386  1.00  0.00     0.006 C 
ENDROOT
BRANCH   1   2
ATOM      2  C   UNL     1     128.236 145.849 108.273  1.00  0.00     0.053 C 
BRANCH   2   3
ATOM      3  C   UNL     1     127.415 144.834 109.004  1.00  0.00     0.041 C 
ATOM      4  O   UNL     1     126.875 145.127 110.103  1.00  0.00    -0.550 OA
ATOM      5  O   UNL     1     127.284 143.548 108.495  1.00  0.00    -0.550 OA
ENDBRANCH   2   3
ENDBRANCH   1   2
BRANCH   1   6
ATOM      6  C   UNL     1     129.196 145.601 105.918  1.00  0.00     0.000 C 
BRANCH   6   7
ATOM      7  C   UNL     1     127.824 145.310 105.290  1.00  0.00    -0.003 C 
ATOM      8  C   UNL     1     127.682 143.831 104.941  1.00  0.00     0.004 C 
ENDBRANCH   6   7
ENDBRANCH   1   6
TORSDOF 4
ENDMDL
MODEL 7
REMARK VINA RESULT:    -2.925      1.953      2.615
REMARK INTER + INTRA:          -3.781
REMARK INTER:                  -3.566
REMARK INTRA:                  -0.215
REMARK UNBOUND:                -0.172
REMARK SMILES CCCCCC(=O)[O-]
REMARK SMILES IDX 4 1 5 2 6 3 7 4 8 5 3 6 2 7 1 8
REMARK H PARENT
REMARK Flexibility Score: inf
ROOT
ATOM      1  C   UNL     1     129.457 144.074 106.480  1.00  0.00     0.006 C 
ENDROOT
BRANCH   1   2
ATOM      2  C   UNL     1     130.586 145.050 106.125  1.00  0.00     0.053 C 
BRANCH   2   3
ATOM      3  C   UNL     1     130.819 146.009 107.249  1.00  0.00     0.041 C 
ATOM      4  O   UNL     1     131.841 146.746 107.253  1.00  0.00    -0.550 OA
ATOM      5  O   UNL     1     129.933 146.056 108.318  1.00  0.00    -0.550 OA
ENDBRANCH   2   3
ENDBRANCH   1   2
BRANCH   1   6
ATOM      6  C   UNL     1     128.431 143.919 105.347  1.00  0.00     0.000 C 
BRANCH   6   7
ATOM      7  C   UNL     1     127.590 145.186 105.135  1.00  0.00    -0.003 C 
ATOM      8  C   UNL     1     126.875 145.592 106.421  1.00  0.00     0.004 C 
ENDBRANCH   6   7
ENDBRANCH   1   6
TORSDOF 4
ENDMDL
MODEL 8
REMARK VINA RESULT:    -2.878     15.965     16.804
REMARK INTER + INTRA:          -3.722
REMARK INTER:                  -3.517
REMARK INTRA:                  -0.205
REMARK UNBOUND:                -0.172
REMARK SMILES CCCCCC(=O)[O-]
REMARK SMILES IDX 4 1 5 2 6 3 7 4 8 5 3 6 2 7 1 8
REMARK H PARENT
REMARK Flexibility Score: inf
ROOT
ATOM      1  C   UNL     1     143.296 143.016 105.745  1.00  0.00     0.006 C 
ENDROOT
BRANCH   1   2
ATOM      2  C   UNL     1     144.331 144.148 105.786  1.00  0.00     0.053 C 
BRANCH   2   3
ATOM      3  C   UNL     1     144.625 144.534 107.202  1.00  0.00     0.041 C 
ATOM      4  O   UNL     1     143.996 145.481 107.744  1.00  0.00    -0.550 OA
ATOM      5  O   UNL     1     145.627 143.879 107.908  1.00  0.00    -0.550 OA
ENDBRANCH   2   3
ENDBRANCH   1   2
BRANCH   1   6
ATOM      6  C   UNL     1     143.730 141.850 104.843  1.00  0.00     0.000 C 
BRANCH   6   7
ATOM      7  C   UNL     1     145.249 141.622 104.864  1.00  0.00    -0.003 C 
ATOM      8  C   UNL     1     145.637 140.606 105.935  1.00  0.00     0.004 C 
ENDBRANCH   6   7
ENDBRANCH   1   6
TORSDOF 4
ENDMDL
