MODEL 1
REMARK VINA RESULT:    -6.870      0.000      0.000
REMARK INTER + INTRA:         -13.056
REMARK INTER:                 -12.092
REMARK INTRA:                  -0.964
REMARK UNBOUND:                -0.964
REMARK SMILES CCCCCCCCCCCCCCC(=O)[O-]
REMARK SMILES IDX 9 1 10 2 11 3 12 4 13 5 14 6 15 7 16 8 17 9 8 10 7 11 6 12
REMARK SMILES IDX 5 13 4 14 3 15 2 16 1 17
REMARK H PARENT
REMARK Flexibility Score: inf
ROOT
ATOM      1  C   UNL     1     -22.717 -22.437  31.974  1.00  0.00     0.000 C 
ENDROOT
BRANCH   1   2
ATOM      2  C   UNL     1     -22.856 -23.790  31.249  1.00  0.00     0.000 C 
BRANCH   2   3
ATOM      3  C   UNL     1     -22.446 -23.780  29.763  1.00  0.00     0.000 C 
BRANCH   3   4
ATOM      4  C   UNL     1     -23.256 -24.725  28.859  1.00  0.00     0.000 C 
BRANCH   4   5
ATOM      5  C   UNL     1     -23.516 -26.094  29.505  1.00  0.00     0.006 C 
BRANCH   5   6
ATOM      6  C   UNL     1     -24.996 -26.472  29.408  1.00  0.00     0.053 C 
BRANCH   6   7
ATOM      7  C   UNL     1     -25.464 -27.092  30.687  1.00  0.00     0.041 C 
ATOM      8  O   UNL     1     -25.244 -26.520  31.786  1.00  0.00    -0.550 OA
ATOM      9  O   UNL     1     -26.187 -28.278  30.661  1.00  0.00    -0.550 OA
ENDBRANCH   6   7
ENDBRANCH   5   6
ENDBRANCH   4   5
ENDBRANCH   3   4
ENDBRANCH   2   3
ENDBRANCH   1   2
BRANCH   1  10
ATOM     10  C   UNL     1     -21.469 -21.616  31.592  1.00  0.00     0.000 C 
BRANCH  10  11
ATOM     11  C   UNL     1     -21.758 -20.220  31.011  1.00  0.00    -0.000 C 
BRANCH  11  12
ATOM     12  C   UNL     1     -22.093 -20.257  29.510  1.00  0.00    -0.000 C 
BRANCH  12  13
ATOM     13  C   UNL     1     -21.163 -19.359  28.677  1.00  0.00    -0.000 C 
BRANCH  13  14
ATOM     14  C   UNL     1     -20.905 -17.995  29.335  1.00  0.00    -0.000 C 
BRANCH  14  15
ATOM     15  C   UNL     1     -19.407 -17.655  29.322  1.00  0.00    -0.000 C 
BRANCH  15  16
ATOM     16  C   UNL     1     -18.977 -16.837  30.550  1.00  0.00    -0.003 C 
ATOM     17  C   UNL     1     -18.863 -17.685  31.816  1.00  0.00     0.004 C 
ENDBRANCH  15  16
ENDBRANCH  14  15
ENDBRANCH  13  14
ENDBRANCH  12  13
ENDBRANCH  11  12
ENDBRANCH  10  11
ENDBRANCH   1  10
TORSDOF 13
ENDMDL
MODEL 2
REMARK VINA RESULT:    -6.798      4.130      8.710
REMARK INTER + INTRA:         -12.930
REMARK INTER:                 -12.157
REMARK INTRA:                  -0.773
REMARK UNBOUND:                -0.964
REMARK SMILES CCCCCCCCCCCCCCC(=O)[O-]
REMARK SMILES IDX 9 1 10 2 11 3 12 4 13 5 14 6 15 7 16 8 17 9 8 10 7 11 6 12
REMARK SMILES IDX 5 13 4 14 3 15 2 16 1 17
REMARK H PARENT
REMARK Flexibility Score: inf
ROOT
ATOM      1  C   UNL     1     -21.414 -21.607  32.001  1.00  0.00     0.000 C 
ENDROOT
BRANCH   1   2
ATOM      2  C   UNL     1     -21.333 -20.215  31.345  1.00  0.00     0.000 C 
BRANCH   2   3
ATOM      3  C   UNL     1     -22.000 -20.107  29.959  1.00  0.00     0.000 C 
BRANCH   3   4
ATOM      4  C   UNL     1     -21.169 -19.369  28.894  1.00  0.00     0.000 C 
BRANCH   4   5
ATOM      5  C   UNL     1     -20.843 -17.921  29.287  1.00  0.00     0.006 C 
BRANCH   5   6
ATOM      6  C   UNL     1     -19.335 -17.666  29.234  1.00  0.00     0.053 C 
BRANCH   6   7
ATOM      7  C   UNL     1     -18.864 -17.035  30.506  1.00  0.00     0.041 C 
ATOM      8  O   UNL     1     -18.177 -15.981  30.475  1.00  0.00    -0.550 OA
ATOM      9  O   UNL     1     -19.228 -17.583  31.729  1.00  0.00    -0.550 OA
ENDBRANCH   6   7
ENDBRANCH   5   6
ENDBRANCH   4   5
ENDBRANCH   3   4
ENDBRANCH   2   3
ENDBRANCH   1   2
BRANCH   1  10
ATOM     10  C   UNL     1     -22.697 -22.403  31.690  1.00  0.00     0.000 C 
BRANCH  10  11
ATOM     11  C   UNL     1     -22.471 -23.766  31.010  1.00  0.00    -0.000 C 
BRANCH  11  12
ATOM     12  C   UNL     1     -22.258 -23.647  29.491  1.00  0.00    -0.000 C 
BRANCH  12  13
ATOM     13  C   UNL     1     -22.982 -24.753  28.706  1.00  0.00    -0.000 C 
BRANCH  13  14
ATOM     14  C   UNL     1     -24.097 -25.428  29.519  1.00  0.00    -0.000 C 
BRANCH  14  15
ATOM     15  C   UNL     1     -24.375 -26.845  28.997  1.00  0.00    -0.000 C 
BRANCH  15  16
ATOM     16  C   UNL     1     -25.876 -27.167  28.933  1.00  0.00    -0.003 C 
ATOM     17  C   UNL     1     -26.226 -28.132  27.800  1.00  0.00     0.004 C 
ENDBRANCH  15  16
ENDBRANCH  14  15
ENDBRANCH  13  14
ENDBRANCH  12  13
ENDBRANCH  11  12
ENDBRANCH  10  11
ENDBRANCH   1  10
TORSDOF 13
ENDMDL
MODEL 3
REMARK VINA RESULT:    -6.717      0.856      1.209
REMARK INTER + INTRA:         -12.786
REMARK INTER:                 -11.945
REMARK INTRA:                  -0.841
REMARK UNBOUND:                -0.964
REMARK SMILES CCCCCCCCCCCCCCC(=O)[O-]
REMARK SMILES IDX 9 1 10 2 11 3 12 4 13 5 14 6 15 7 16 8 17 9 8 10 7 11 6 12
REMARK SMILES IDX 5 13 4 14 3 15 2 16 1 17
REMARK H PARENT
REMARK Flexibility Score: inf
ROOT
ATOM      1  C   UNL     1     -22.748 -22.471  31.975  1.00  0.00     0.000 C 
ENDROOT
BRANCH   1   2
ATOM      2  C   UNL     1     -23.065 -23.805  31.271  1.00  0.00     0.000 C 
BRANCH   2   3
ATOM      3  C   UNL     1     -22.389 -23.995  29.899  1.00  0.00     0.000 C 
BRANCH   3   4
ATOM      4  C   UNL     1     -23.132 -24.938  28.935  1.00  0.00     0.000 C 
BRANCH   4   5
ATOM      5  C   UNL     1     -24.526 -25.333  29.441  1.00  0.00     0.006 C 
BRANCH   5   6
ATOM      6  C   UNL     1     -24.704 -26.854  29.424  1.00  0.00     0.053 C 
BRANCH   6   7
ATOM      7  C   UNL     1     -25.455 -27.308  30.636  1.00  0.00     0.041 C 
ATOM      8  O   UNL     1     -25.381 -26.654  31.709  1.00  0.00    -0.550 OA
ATOM      9  O   UNL     1     -26.277 -28.425  30.566  1.00  0.00    -0.550 OA
ENDBRANCH   6   7
ENDBRANCH   5   6
ENDBRANCH   4   5
ENDBRANCH   3   4
ENDBRANCH   2   3
ENDBRANCH   1   2
BRANCH   1  10
ATOM     10  C   UNL     1     -21.707 -21.586  31.261  1.00  0.00     0.000 C 
BRANCH  10  11
ATOM     11  C   UNL     1     -22.287 -20.381  30.498  1.00  0.00    -0.000 C 
BRANCH  11  12
ATOM     12  C   UNL     1     -21.639 -20.181  29.117  1.00  0.00    -0.000 C 
BRANCH  12  13
ATOM     13  C   UNL     1     -20.915 -18.830  28.995  1.00  0.00    -0.000 C 
BRANCH  13  14
ATOM     14  C   UNL     1     -20.399 -18.308  30.346  1.00  0.00    -0.000 C 
BRANCH  14  15
ATOM     15  C   UNL     1     -19.401 -17.158  30.143  1.00  0.00    -0.000 C 
BRANCH  15  16
ATOM     16  C   UNL     1     -19.142 -16.855  28.659  1.00  0.00    -0.003 C 
ATOM     17  C   UNL     1     -17.940 -15.936  28.444  1.00  0.00     0.004 C 
ENDBRANCH  15  16
ENDBRANCH  14  15
ENDBRANCH  13  14
ENDBRANCH  12  13
ENDBRANCH  11  12
ENDBRANCH  10  11
ENDBRANCH   1  10
TORSDOF 13
ENDMDL
MODEL 4
REMARK VINA RESULT:    -6.714      4.664      8.765
REMARK INTER + INTRA:         -12.781
REMARK INTER:                 -11.841
REMARK INTRA:                  -0.939
REMARK UNBOUND:                -0.964
REMARK SMILES CCCCCCCCCCCCCCC(=O)[O-]
REMARK SMILES IDX 9 1 10 2 11 3 12 4 13 5 14 6 15 7 16 8 17 9 8 10 7 11 6 12
REMARK SMILES IDX 5 13 4 14 3 15 2 16 1 17
REMARK H PARENT
REMARK Flexibility Score: inf
ROOT
ATOM      1  C   UNL     1     -21.789 -21.555  31.221  1.00  0.00     0.000 C 
ENDROOT
BRANCH   1   2
ATOM      2  C   UNL     1     -22.361 -20.475  30.283  1.00  0.00     0.000 C 
BRANCH   2   3
ATOM      3  C   UNL     1     -21.517 -20.188  29.025  1.00  0.00     0.000 C 
BRANCH   3   4
ATOM      4  C   UNL     1     -20.877 -18.789  28.977  1.00  0.00     0.000 C 
BRANCH   4   5
ATOM      5  C   UNL     1     -19.649 -18.662  29.891  1.00  0.00     0.006 C 
BRANCH   5   6
ATOM      6  C   UNL     1     -19.609 -17.288  30.566  1.00  0.00     0.053 C 
BRANCH   6   7
ATOM      7  C   UNL     1     -18.555 -16.428  29.942  1.00  0.00     0.041 C 
ATOM      8  O   UNL     1     -17.971 -15.547  30.625  1.00  0.00    -0.550 OA
ATOM      9  O   UNL     1     -18.183 -16.634  28.620  1.00  0.00    -0.550 OA
ENDBRANCH   6   7
ENDBRANCH   5   6
ENDBRANCH   4   5
ENDBRANCH   3   4
ENDBRANCH   2   3
ENDBRANCH   1   2
BRANCH   1  10
ATOM     10  C   UNL     1     -22.839 -22.332  32.041  1.00  0.00     0.000 C 
BRANCH  10  11
ATOM     11  C   UNL     1     -23.122 -23.763  31.550  1.00  0.00    -0.000 C 
BRANCH  11  12
ATOM     12  C   UNL     1     -22.314 -24.134  30.295  1.00  0.00    -0.000 C 
BRANCH  12  13
ATOM     13  C   UNL     1     -23.212 -24.538  29.114  1.00  0.00    -0.000 C 
BRANCH  13  14
ATOM     14  C   UNL     1     -23.540 -26.039  29.101  1.00  0.00    -0.000 C 
BRANCH  14  15
ATOM     15  C   UNL     1     -25.056 -26.269  29.196  1.00  0.00    -0.000 C 
BRANCH  15  16
ATOM     16  C   UNL     1     -25.444 -27.173  30.376  1.00  0.00    -0.003 C 
ATOM     17  C   UNL     1     -25.480 -26.423  31.708  1.00  0.00     0.004 C 
ENDBRANCH  15  16
ENDBRANCH  14  15
ENDBRANCH  13  14
ENDBRANCH  12  13
ENDBRANCH  11  12
ENDBRANCH  10  11
ENDBRANCH   1  10
TORSDOF 13
ENDMDL
MODEL 5
REMARK VINA RESULT:    -6.698      1.094      1.771
REMARK INTER + INTRA:         -12.752
REMARK INTER:                 -12.102
REMARK INTRA:                  -0.650
REMARK UNBOUND:                -0.964
REMARK SMILES CCCCCCCCCCCCCCC(=O)[O-]
REMARK SMILES IDX 9 1 10 2 11 3 12 4 13 5 14 6 15 7 16 8 17 9 8 10 7 11 6 12
REMARK SMILES IDX 5 13 4 14 3 15 2 16 1 17
REMARK H PARENT
REMARK Flexibility Score: inf
ROOT
ATOM      1  C   UNL     1     -22.379 -22.007  31.447  1.00  0.00     0.000 C 
ENDROOT
BRANCH   1   2
ATOM      2  C   UNL     1     -22.005 -23.159  30.495  1.00  0.00     0.000 C 
BRANCH   2   3
ATOM      3  C   UNL     1     -22.961 -24.369  30.525  1.00  0.00     0.000 C 
BRANCH   3   4
ATOM      4  C   UNL     1     -23.382 -24.899  29.143  1.00  0.00     0.000 C 
BRANCH   4   5
ATOM      5  C   UNL     1     -23.829 -26.367  29.177  1.00  0.00     0.006 C 
BRANCH   5   6
ATOM      6  C   UNL     1     -25.342 -26.474  29.382  1.00  0.00     0.053 C 
BRANCH   6   7
ATOM      7  C   UNL     1     -25.649 -27.156  30.678  1.00  0.00     0.041 C 
ATOM      8  O   UNL     1     -26.118 -28.324  30.683  1.00  0.00    -0.550 OA
ATOM      9  O   UNL     1     -25.369 -26.521  31.880  1.00  0.00    -0.550 OA
ENDBRANCH   6   7
ENDBRANCH   5   6
ENDBRANCH   4   5
ENDBRANCH   3   4
ENDBRANCH   2   3
ENDBRANCH   1   2
BRANCH   1  10
ATOM     10  C   UNL     1     -21.742 -20.644  31.107  1.00  0.00     0.000 C 
BRANCH  10  11
ATOM     11  C   UNL     1     -21.733 -20.283  29.611  1.00  0.00    -0.000 C 
BRANCH  11  12
ATOM     12  C   UNL     1     -20.970 -18.979  29.317  1.00  0.00    -0.000 C 
BRANCH  12  13
ATOM     13  C   UNL     1     -19.895 -18.674  30.374  1.00  0.00    -0.000 C 
BRANCH  13  14
ATOM     14  C   UNL     1     -19.100 -17.397  30.062  1.00  0.00    -0.000 C 
BRANCH  14  15
ATOM     15  C   UNL     1     -19.337 -16.942  28.615  1.00  0.00    -0.000 C 
BRANCH  15  16
ATOM     16  C   UNL     1     -18.188 -16.081  28.070  1.00  0.00    -0.003 C 
ATOM     17  C   UNL     1     -17.579 -15.167  29.133  1.00  0.00     0.004 C 
ENDBRANCH  15  16
ENDBRANCH  14  15
ENDBRANCH  13  14
ENDBRANCH  12  13
ENDBRANCH  11  12
ENDBRANCH  10  11
ENDBRANCH   1  10
TORSDOF 13
ENDMDL
MODEL 6
REMARK VINA RESULT:    -6.692      1.370      2.021
REMARK INTER + INTRA:         -12.741
REMARK INTER:                 -11.923
REMARK INTRA:                  -0.818
REMARK UNBOUND:                -0.964
REMARK SMILES CCCCCCCCCCCCCCC(=O)[O-]
REMARK SMILES IDX 9 1 10 2 11 3 12 4 13 5 14 6 15 7 16 8 17 9 8 10 7 11 6 12
REMARK SMILES IDX 5 13 4 14 3 15 2 16 1 17
REMARK H PARENT
REMARK Flexibility Score: inf
ROOT
ATOM      1  C   UNL     1     -22.445 -23.818  31.066  1.00  0.00     0.000 C 
ENDROOT
BRANCH   1   2
ATOM      2  C   UNL     1     -22.249 -23.828  29.537  1.00  0.00     0.000 C 
BRANCH   2   3
ATOM      3  C   UNL     1     -23.118 -24.847  28.774  1.00  0.00     0.000 C 
BRANCH   3   4
ATOM      4  C   UNL     1     -24.308 -25.412  29.570  1.00  0.00     0.000 C 
BRANCH   4   5
ATOM      5  C   UNL     1     -24.712 -26.823  29.121  1.00  0.00     0.006 C 
BRANCH   5   6
ATOM      6  C   UNL     1     -26.171 -26.854  28.659  1.00  0.00     0.053 C 
BRANCH   6   7
ATOM      7  C   UNL     1     -26.535 -28.219  28.164  1.00  0.00     0.041 C 
ATOM      8  O   UNL     1     -26.630 -29.180  28.970  1.00  0.00    -0.550 OA
ATOM      9  O   UNL     1     -26.819 -28.417  26.819  1.00  0.00    -0.550 OA
ENDBRANCH   6   7
ENDBRANCH   5   6
ENDBRANCH   4   5
ENDBRANCH   3   4
ENDBRANCH   2   3
ENDBRANCH   1   2
BRANCH   1  10
ATOM     10  C   UNL     1     -22.755 -22.437  31.677  1.00  0.00     0.000 C 
BRANCH  10  11
ATOM     11  C   UNL     1     -21.589 -21.431  31.643  1.00  0.00    -0.000 C 
BRANCH  11  12
ATOM     12  C   UNL     1     -21.915 -20.169  30.826  1.00  0.00    -0.000 C 
BRANCH  12  13
ATOM     13  C   UNL     1     -21.581 -20.330  29.333  1.00  0.00    -0.000 C 
BRANCH  13  14
ATOM     14  C   UNL     1     -21.182 -19.004  28.666  1.00  0.00    -0.000 C 
BRANCH  14  15
ATOM     15  C   UNL     1     -20.633 -18.013  29.703  1.00  0.00    -0.000 C 
BRANCH  15  16
ATOM     16  C   UNL     1     -19.120 -18.164  29.922  1.00  0.00    -0.003 C 
ATOM     17  C   UNL     1     -18.743 -18.263  31.400  1.00  0.00     0.004 C 
ENDBRANCH  15  16
ENDBRANCH  14  15
ENDBRANCH  13  14
ENDBRANCH  12  13
ENDBRANCH  11  12
ENDBRANCH  10  11
ENDBRANCH   1  10
TORSDOF 13
ENDMDL
MODEL 7
REMARK VINA RESULT:    -6.577      4.599      8.908
REMARK INTER + INTRA:         -12.539
REMARK INTER:                 -11.712
REMARK INTRA:                  -0.827
REMARK UNBOUND:                -0.964
REMARK SMILES CCCCCCCCCCCCCCC(=O)[O-]
REMARK SMILES IDX 9 1 10 2 11 3 12 4 13 5 14 6 15 7 16 8 17 9 8 10 7 11 6 12
REMARK SMILES IDX 5 13 4 14 3 15 2 16 1 17
REMARK H PARENT
REMARK Flexibility Score: inf
ROOT
ATOM      1  C   UNL     1     -22.276 -22.228  28.504  1.00  0.00     0.000 C 
ENDROOT
BRANCH   1   2
ATOM      2  C   UNL     1     -22.624 -20.890  29.183  1.00  0.00     0.000 C 
BRANCH   2   3
ATOM      3  C   UNL     1     -21.419 -19.976  29.483  1.00  0.00     0.000 C 
BRANCH   3   4
ATOM      4  C   UNL     1     -21.251 -19.587  30.962  1.00  0.00     0.000 C 
BRANCH   4   5
ATOM      5  C   UNL     1     -20.189 -18.498  31.176  1.00  0.00     0.006 C 
BRANCH   5   6
ATOM      6  C   UNL     1     -19.215 -18.443  29.997  1.00  0.00     0.053 C 
BRANCH   6   7
ATOM      7  C   UNL     1     -18.913 -17.024  29.631  1.00  0.00     0.041 C 
ATOM      8  O   UNL     1     -19.134 -16.610  28.464  1.00  0.00    -0.550 OA
ATOM      9  O   UNL     1     -18.436 -16.145  30.595  1.00  0.00    -0.550 OA
ENDBRANCH   6   7
ENDBRANCH   5   6
ENDBRANCH   4   5
ENDBRANCH   3   4
ENDBRANCH   2   3
ENDBRANCH   1   2
BRANCH   1  10
ATOM     10  C   UNL     1     -22.232 -23.448  29.446  1.00  0.00     0.000 C 
BRANCH  10  11
ATOM     11  C   UNL     1     -22.364 -23.121  30.945  1.00  0.00    -0.000 C 
BRANCH  11  12
ATOM     12  C   UNL     1     -23.426 -23.980  31.652  1.00  0.00    -0.000 C 
BRANCH  12  13
ATOM     13  C   UNL     1     -23.936 -25.131  30.769  1.00  0.00    -0.000 C 
BRANCH  13  14
ATOM     14  C   UNL     1     -24.807 -26.134  31.542  1.00  0.00    -0.000 C 
BRANCH  14  15
ATOM     15  C   UNL     1     -25.332 -27.236  30.611  1.00  0.00    -0.000 C 
BRANCH  15  16
ATOM     16  C   UNL     1     -25.145 -26.892  29.125  1.00  0.00    -0.003 C 
ATOM     17  C   UNL     1     -26.030 -27.736  28.207  1.00  0.00     0.004 C 
ENDBRANCH  15  16
ENDBRANCH  14  15
ENDBRANCH  13  14
ENDBRANCH  12  13
ENDBRANCH  11  12
ENDBRANCH  10  11
ENDBRANCH   1  10
TORSDOF 13
ENDMDL
MODEL 8
REMARK VINA RESULT:    -6.511      4.013      9.037
REMARK INTER + INTRA:         -12.424
REMARK INTER:                 -11.720
REMARK INTRA:                  -0.703
REMARK UNBOUND:                -0.964
REMARK SMILES CCCCCCCCCCCCCCC(=O)[O-]
REMARK SMILES IDX 9 1 10 2 11 3 12 4 13 5 14 6 15 7 16 8 17 9 8 10 7 11 6 12
REMARK SMILES IDX 5 13 4 14 3 15 2 16 1 17
REMARK H PARENT
REMARK Flexibility Score: inf
ROOT
ATOM      1  C   UNL     1     -22.351 -23.808  30.937  1.00  0.00     0.000 C 
ENDROOT
BRANCH   1   2
ATOM      2  C   UNL     1     -22.636 -22.448  31.604  1.00  0.00     0.000 C 
BRANCH   2   3
ATOM      3  C   UNL     1     -21.628 -21.332  31.267  1.00  0.00     0.000 C 
BRANCH   3   4
ATOM      4  C   UNL     1     -22.198 -20.173  30.429  1.00  0.00     0.000 C 
BRANCH   4   5
ATOM      5  C   UNL     1     -21.443 -19.964  29.108  1.00  0.00     0.006 C 
BRANCH   5   6
ATOM      6  C   UNL     1     -20.972 -18.514  28.970  1.00  0.00     0.053 C 
BRANCH   6   7
ATOM      7  C   UNL     1     -19.839 -18.240  29.909  1.00  0.00     0.041 C 
ATOM      8  O   UNL     1     -18.674 -18.622  29.624  1.00  0.00    -0.550 OA
ATOM      9  O   UNL     1     -20.061 -17.516  31.073  1.00  0.00    -0.550 OA
ENDBRANCH   6   7
ENDBRANCH   5   6
ENDBRANCH   4   5
ENDBRANCH   3   4
ENDBRANCH   2   3
ENDBRANCH   1   2
BRANCH   1  10
ATOM     10  C   UNL     1     -22.689 -23.883  29.434  1.00  0.00     0.000 C 
BRANCH  10  11
ATOM     11  C   UNL     1     -23.617 -25.044  29.030  1.00  0.00    -0.000 C 
BRANCH  11  12
ATOM     12  C   UNL     1     -24.195 -25.794  30.243  1.00  0.00    -0.000 C 
BRANCH  12  13
ATOM     13  C   UNL     1     -25.333 -26.752  29.855  1.00  0.00    -0.000 C 
BRANCH  13  14
ATOM     14  C   UNL     1     -25.202 -27.283  28.418  1.00  0.00    -0.000 C 
BRANCH  14  15
ATOM     15  C   UNL     1     -26.475 -28.028  27.990  1.00  0.00    -0.000 C 
BRANCH  15  16
ATOM     16  C   UNL     1     -26.344 -28.670  26.600  1.00  0.00    -0.003 C 
ATOM     17  C   UNL     1     -27.564 -28.416  25.715  1.00  0.00     0.004 C 
ENDBRANCH  15  16
ENDBRANCH  14  15
ENDBRANCH  13  14
ENDBRANCH  12  13
ENDBRANCH  11  12
ENDBRANCH  10  11
ENDBRANCH   1  10
TORSDOF 13
ENDMDL
MODEL 9
REMARK VINA RESULT:    -6.490      2.215      3.188
REMARK INTER + INTRA:         -12.387
REMARK INTER:                 -11.897
REMARK INTRA:                  -0.490
REMARK UNBOUND:                -0.964
REMARK SMILES CCCCCCCCCCCCCCC(=O)[O-]
REMARK SMILES IDX 9 1 10 2 11 3 12 4 13 5 14 6 15 7 16 8 17 9 8 10 7 11 6 12
REMARK SMILES IDX 5 13 4 14 3 15 2 16 1 17
REMARK H PARENT
REMARK Flexibility Score: inf
ROOT
ATOM      1  C   UNL     1     -21.214 -20.452  31.609  1.00  0.00     0.000 C 
ENDROOT
BRANCH   1   2
ATOM      2  C   UNL     1     -22.031 -21.285  30.603  1.00  0.00     0.000 C 
BRANCH   2   3
ATOM      3  C   UNL     1     -22.411 -22.701  31.083  1.00  0.00     0.000 C 
BRANCH   3   4
ATOM      4  C   UNL     1     -21.992 -23.841  30.138  1.00  0.00     0.000 C 
BRANCH   4   5
ATOM      5  C   UNL     1     -23.059 -24.164  29.082  1.00  0.00     0.006 C 
BRANCH   5   6
ATOM      6  C   UNL     1     -23.500 -25.627  29.180  1.00  0.00     0.053 C 
BRANCH   6   7
ATOM      7  C   UNL     1     -24.856 -25.725  29.806  1.00  0.00     0.041 C 
ATOM      8  O   UNL     1     -25.007 -25.477  31.031  1.00  0.00    -0.550 OA
ATOM      9  O   UNL     1     -25.960 -26.040  29.026  1.00  0.00    -0.550 OA
ENDBRANCH   6   7
ENDBRANCH   5   6
ENDBRANCH   4   5
ENDBRANCH   3   4
ENDBRANCH   2   3
ENDBRANCH   1   2
BRANCH   1  10
ATOM     10  C   UNL     1     -20.681 -19.111  31.066  1.00  0.00     0.000 C 
BRANCH  10  11
ATOM     11  C   UNL     1     -20.721 -18.964  29.535  1.00  0.00    -0.000 C 
BRANCH  11  12
ATOM     12  C   UNL     1     -20.356 -17.546  29.062  1.00  0.00    -0.000 C 
BRANCH  12  13
ATOM     13  C   UNL     1     -18.837 -17.322  28.988  1.00  0.00    -0.000 C 
BRANCH  13  14
ATOM     14  C   UNL     1     -18.466 -15.907  28.516  1.00  0.00    -0.000 C 
BRANCH  14  15
ATOM     15  C   UNL     1     -17.328 -15.954  27.485  1.00  0.00    -0.000 C 
BRANCH  15  16
ATOM     16  C   UNL     1     -17.778 -15.499  26.088  1.00  0.00    -0.003 C 
ATOM     17  C   UNL     1     -16.625 -14.964  25.241  1.00  0.00     0.004 C 
ENDBRANCH  15  16
ENDBRANCH  14  15
ENDBRANCH  13  14
ENDBRANCH  12  13
ENDBRANCH  11  12
ENDBRANCH  10  11
ENDBRANCH   1  10
TORSDOF 13
ENDMDL
