MODEL 1
REMARK VINA RESULT:    -4.110      0.000      0.000
REMARK INTER + INTRA:          -5.472
REMARK INTER:                  -5.311
REMARK INTRA:                  -0.161
REMARK UNBOUND:                -0.161
REMARK SMILES CCCCCCC(=O)[O-]
REMARK SMILES IDX 5 1 6 2 7 3 8 4 9 5 4 6 3 7 2 8 1 9
REMARK H PARENT
REMARK Flexibility Score: inf
ROOT
ATOM      1  C   UNL     1     -18.158  56.595  -0.185  1.00  0.00     0.006 C 
ENDROOT
BRANCH   1   2
ATOM      2  C   UNL     1     -17.441  56.542  -1.540  1.00  0.00     0.053 C 
BRANCH   2   3
ATOM      3  C   UNL     1     -18.411  56.510  -2.682  1.00  0.00     0.041 C 
ATOM      4  O   UNL     1     -19.641  56.348  -2.463  1.00  0.00    -0.550 OA
ATOM      5  O   UNL     1     -17.953  56.626  -3.988  1.00  0.00    -0.550 OA
ENDBRANCH   2   3
ENDBRANCH   1   2
BRANCH   1   6
ATOM      6  C   UNL     1     -17.391  57.438   0.847  1.00  0.00     0.000 C 
BRANCH   6   7
ATOM      7  C   UNL     1     -15.908  57.552   0.469  1.00  0.00    -0.000 C 
BRANCH   7   8
ATOM      8  C   UNL     1     -15.390  58.996   0.539  1.00  0.00    -0.003 C 
ATOM      9  C   UNL     1     -13.994  59.095   1.156  1.00  0.00     0.004 C 
ENDBRANCH   7   8
ENDBRANCH   6   7
ENDBRANCH   1   6
TORSDOF 5
ENDMDL
MODEL 2
REMARK VINA RESULT:    -4.107      2.377      2.587
REMARK INTER + INTRA:          -5.469
REMARK INTER:                  -5.326
REMARK INTRA:                  -0.143
REMARK UNBOUND:                -0.161
REMARK SMILES CCCCCCC(=O)[O-]
REMARK SMILES IDX 5 1 6 2 7 3 8 4 9 5 4 6 3 7 2 8 1 9
REMARK H PARENT
REMARK Flexibility Score: inf
ROOT
ATOM      1  C   UNL     1     -17.883  56.408   0.340  1.00  0.00     0.006 C 
ENDROOT
BRANCH   1   2
ATOM      2  C   UNL     1     -17.575  54.930   0.609  1.00  0.00     0.053 C 
BRANCH   2   3
ATOM      3  C   UNL     1     -16.732  54.331  -0.475  1.00  0.00     0.041 C 
ATOM      4  O   UNL     1     -17.179  54.244  -1.650  1.00  0.00    -0.550 OA
ATOM      5  O   UNL     1     -15.467  53.837  -0.181  1.00  0.00    -0.550 OA
ENDBRANCH   2   3
ENDBRANCH   1   2
BRANCH   1   6
ATOM      6  C   UNL     1     -16.931  57.349   1.094  1.00  0.00     0.000 C 
BRANCH   6   7
ATOM      7  C   UNL     1     -15.831  57.878   0.163  1.00  0.00    -0.000 C 
BRANCH   7   8
ATOM      8  C   UNL     1     -15.271  59.233   0.621  1.00  0.00    -0.003 C 
ATOM      9  C   UNL     1     -13.855  59.126   1.188  1.00  0.00     0.004 C 
ENDBRANCH   7   8
ENDBRANCH   6   7
ENDBRANCH   1   6
TORSDOF 5
ENDMDL
MODEL 3
REMARK VINA RESULT:    -3.959      4.597      5.352
REMARK INTER + INTRA:          -5.277
REMARK INTER:                  -5.070
REMARK INTRA:                  -0.207
REMARK UNBOUND:                -0.161
REMARK SMILES CCCCCCC(=O)[O-]
REMARK SMILES IDX 5 1 6 2 7 3 8 4 9 5 4 6 3 7 2 8 1 9
REMARK H PARENT
REMARK Flexibility Score: inf
ROOT
ATOM      1  C   UNL     1     -19.685  53.114  -2.411  1.00  0.00     0.006 C 
ENDROOT
BRANCH   1   2
ATOM      2  C   UNL     1     -20.960  53.748  -1.840  1.00  0.00     0.053 C 
BRANCH   2   3
ATOM      3  C   UNL     1     -21.247  53.267  -0.450  1.00  0.00     0.041 C 
ATOM      4  O   UNL     1     -22.256  53.693   0.172  1.00  0.00    -0.550 OA
ATOM      5  O   UNL     1     -20.381  52.375   0.171  1.00  0.00    -0.550 OA
ENDBRANCH   2   3
ENDBRANCH   1   2
BRANCH   1   6
ATOM      6  C   UNL     1     -18.831  54.124  -3.191  1.00  0.00     0.000 C 
BRANCH   6   7
ATOM      7  C   UNL     1     -19.461  55.524  -3.150  1.00  0.00    -0.000 C 
BRANCH   7   8
ATOM      8  C   UNL     1     -18.490  56.622  -3.608  1.00  0.00    -0.003 C 
ATOM      9  C   UNL     1     -17.035  56.152  -3.636  1.00  0.00     0.004 C 
ENDBRANCH   7   8
ENDBRANCH   6   7
ENDBRANCH   1   6
TORSDOF 5
ENDMDL
MODEL 4
REMARK VINA RESULT:    -3.911      2.959      5.197
REMARK INTER + INTRA:          -5.215
REMARK INTER:                  -4.812
REMARK INTRA:                  -0.404
REMARK UNBOUND:                -0.161
REMARK SMILES CCCCCCC(=O)[O-]
REMARK SMILES IDX 5 1 6 2 7 3 8 4 9 5 4 6 3 7 2 8 1 9
REMARK H PARENT
REMARK Flexibility Score: inf
ROOT
ATOM      1  C   UNL     1     -18.118  55.938  -3.710  1.00  0.00     0.006 C 
ENDROOT
BRANCH   1   2
ATOM      2  C   UNL     1     -17.080  56.654  -2.836  1.00  0.00     0.053 C 
BRANCH   2   3
ATOM      3  C   UNL     1     -17.132  56.184  -1.414  1.00  0.00     0.041 C 
ATOM      4  O   UNL     1     -16.783  55.010  -1.122  1.00  0.00    -0.550 OA
ATOM      5  O   UNL     1     -17.596  57.033  -0.417  1.00  0.00    -0.550 OA
ENDBRANCH   2   3
ENDBRANCH   1   2
BRANCH   1   6
ATOM      6  C   UNL     1     -19.559  56.276  -3.299  1.00  0.00     0.000 C 
BRANCH   6   7
ATOM      7  C   UNL     1     -20.342  55.003  -2.947  1.00  0.00    -0.000 C 
BRANCH   7   8
ATOM      8  C   UNL     1     -19.477  53.736  -3.031  1.00  0.00    -0.003 C 
ATOM      9  C   UNL     1     -19.730  52.769  -1.874  1.00  0.00     0.004 C 
ENDBRANCH   7   8
ENDBRANCH   6   7
ENDBRANCH   1   6
TORSDOF 5
ENDMDL
MODEL 5
REMARK VINA RESULT:    -3.906      4.478      5.607
REMARK INTER + INTRA:          -5.209
REMARK INTER:                  -4.952
REMARK INTRA:                  -0.256
REMARK UNBOUND:                -0.161
REMARK SMILES CCCCCCC(=O)[O-]
REMARK SMILES IDX 5 1 6 2 7 3 8 4 9 5 4 6 3 7 2 8 1 9
REMARK H PARENT
REMARK Flexibility Score: inf
ROOT
ATOM      1  C   UNL     1     -21.689  55.141  -1.489  1.00  0.00     0.006 C 
ENDROOT
BRANCH   1   2
ATOM      2  C   UNL     1     -21.956  53.642  -1.308  1.00  0.00     0.053 C 
BRANCH   2   3
ATOM      3  C   UNL     1     -20.685  52.865  -1.146  1.00  0.00     0.041 C 
ATOM      4  O   UNL     1     -20.028  52.507  -2.159  1.00  0.00    -0.550 OA
ATOM      5  O   UNL     1     -20.244  52.508   0.123  1.00  0.00    -0.550 OA
ENDBRANCH   2   3
ENDBRANCH   1   2
BRANCH   1   6
ATOM      6  C   UNL     1     -21.828  55.586  -2.953  1.00  0.00     0.000 C 
BRANCH   6   7
ATOM      7  C   UNL     1     -20.672  56.511  -3.359  1.00  0.00    -0.000 C 
BRANCH   7   8
ATOM      8  C   UNL     1     -19.307  55.808  -3.305  1.00  0.00    -0.003 C 
ATOM      9  C   UNL     1     -18.154  56.724  -3.717  1.00  0.00     0.004 C 
ENDBRANCH   7   8
ENDBRANCH   6   7
ENDBRANCH   1   6
TORSDOF 5
ENDMDL
MODEL 6
REMARK VINA RESULT:    -3.883      4.203      5.700
REMARK INTER + INTRA:          -5.179
REMARK INTER:                  -4.993
REMARK INTRA:                  -0.186
REMARK UNBOUND:                -0.161
REMARK SMILES CCCCCCC(=O)[O-]
REMARK SMILES IDX 5 1 6 2 7 3 8 4 9 5 4 6 3 7 2 8 1 9
REMARK H PARENT
REMARK Flexibility Score: inf
ROOT
ATOM      1  C   UNL     1     -19.807  53.919  -2.992  1.00  0.00     0.006 C 
ENDROOT
BRANCH   1   2
ATOM      2  C   UNL     1     -18.509  54.663  -3.330  1.00  0.00     0.053 C 
BRANCH   2   3
ATOM      3  C   UNL     1     -18.747  56.127  -3.548  1.00  0.00     0.041 C 
ATOM      4  O   UNL     1     -17.781  56.895  -3.798  1.00  0.00    -0.550 OA
ATOM      5  O   UNL     1     -20.031  56.647  -3.442  1.00  0.00    -0.550 OA
ENDBRANCH   2   3
ENDBRANCH   1   2
BRANCH   1   6
ATOM      6  C   UNL     1     -19.586  52.801  -1.962  1.00  0.00     0.000 C 
BRANCH   6   7
ATOM      7  C   UNL     1     -20.683  52.819  -0.889  1.00  0.00    -0.000 C 
BRANCH   7   8
ATOM      8  C   UNL     1     -21.884  53.689  -1.287  1.00  0.00    -0.003 C 
ATOM      9  C   UNL     1     -22.669  54.203  -0.079  1.00  0.00     0.004 C 
ENDBRANCH   7   8
ENDBRANCH   6   7
ENDBRANCH   1   6
TORSDOF 5
ENDMDL
MODEL 7
REMARK VINA RESULT:    -3.882      3.152      4.495
REMARK INTER + INTRA:          -5.179
REMARK INTER:                  -4.811
REMARK INTRA:                  -0.368
REMARK UNBOUND:                -0.161
REMARK SMILES CCCCCCC(=O)[O-]
REMARK SMILES IDX 5 1 6 2 7 3 8 4 9 5 4 6 3 7 2 8 1 9
REMARK H PARENT
REMARK Flexibility Score: inf
ROOT
ATOM      1  C   UNL     1     -20.303  54.997  -2.944  1.00  0.00     0.006 C 
ENDROOT
BRANCH   1   2
ATOM      2  C   UNL     1     -19.368  53.782  -2.917  1.00  0.00     0.053 C 
BRANCH   2   3
ATOM      3  C   UNL     1     -19.332  53.137  -1.565  1.00  0.00     0.041 C 
ATOM      4  O   UNL     1     -18.790  53.730  -0.595  1.00  0.00    -0.550 OA
ATOM      5  O   UNL     1     -19.866  51.867  -1.385  1.00  0.00    -0.550 OA
ENDBRANCH   2   3
ENDBRANCH   1   2
BRANCH   1   6
ATOM      6  C   UNL     1     -19.547  56.309  -3.204  1.00  0.00     0.000 C 
BRANCH   6   7
ATOM      7  C   UNL     1     -18.233  56.046  -3.953  1.00  0.00    -0.000 C 
BRANCH   7   8
ATOM      8  C   UNL     1     -17.017  56.667  -3.249  1.00  0.00    -0.003 C 
ATOM      9  C   UNL     1     -17.129  56.620  -1.724  1.00  0.00     0.004 C 
ENDBRANCH   7   8
ENDBRANCH   6   7
ENDBRANCH   1   6
TORSDOF 5
ENDMDL
MODEL 8
REMARK VINA RESULT:    -3.798      4.392      5.557
REMARK INTER + INTRA:          -5.069
REMARK INTER:                  -4.809
REMARK INTRA:                  -0.261
REMARK UNBOUND:                -0.161
REMARK SMILES CCCCCCC(=O)[O-]
REMARK SMILES IDX 5 1 6 2 7 3 8 4 9 5 4 6 3 7 2 8 1 9
REMARK H PARENT
REMARK Flexibility Score: inf
ROOT
ATOM      1  C   UNL     1     -20.467  53.990  -1.358  1.00  0.00     0.006 C 
ENDROOT
BRANCH   1   2
ATOM      2  C   UNL     1     -21.938  53.568  -1.252  1.00  0.00     0.053 C 
BRANCH   2   3
ATOM      3  C   UNL     1     -22.864  54.671  -1.664  1.00  0.00     0.041 C 
ATOM      4  O   UNL     1     -22.695  55.264  -2.762  1.00  0.00    -0.550 OA
ATOM      5  O   UNL     1     -23.895  55.067  -0.820  1.00  0.00    -0.550 OA
ENDBRANCH   2   3
ENDBRANCH   1   2
BRANCH   1   6
ATOM      6  C   UNL     1     -19.734  53.269  -2.499  1.00  0.00     0.000 C 
BRANCH   6   7
ATOM      7  C   UNL     1     -18.737  54.208  -3.191  1.00  0.00    -0.000 C 
BRANCH   7   8
ATOM      8  C   UNL     1     -19.228  55.663  -3.234  1.00  0.00    -0.003 C 
ATOM      9  C   UNL     1     -18.127  56.648  -3.628  1.00  0.00     0.004 C 
ENDBRANCH   7   8
ENDBRANCH   6   7
ENDBRANCH   1   6
TORSDOF 5
ENDMDL
MODEL 9
REMARK VINA RESULT:    -3.747      4.082      5.590
REMARK INTER + INTRA:          -5.004
REMARK INTER:                  -4.617
REMARK INTRA:                  -0.386
REMARK UNBOUND:                -0.161
REMARK SMILES CCCCCCC(=O)[O-]
REMARK SMILES IDX 5 1 6 2 7 3 8 4 9 5 4 6 3 7 2 8 1 9
REMARK H PARENT
REMARK Flexibility Score: inf
ROOT
ATOM      1  C   UNL     1     -21.575  55.138  -3.127  1.00  0.00     0.006 C 
ENDROOT
BRANCH   1   2
ATOM      2  C   UNL     1     -20.848  56.488  -3.106  1.00  0.00     0.053 C 
BRANCH   2   3
ATOM      3  C   UNL     1     -19.369  56.322  -2.930  1.00  0.00     0.041 C 
ATOM      4  O   UNL     1     -18.901  55.964  -1.817  1.00  0.00    -0.550 OA
ATOM      5  O   UNL     1     -18.507  56.594  -3.984  1.00  0.00    -0.550 OA
ENDBRANCH   2   3
ENDBRANCH   1   2
BRANCH   1   6
ATOM      6  C   UNL     1     -22.445  54.926  -1.878  1.00  0.00     0.000 C 
BRANCH   6   7
ATOM      7  C   UNL     1     -21.856  53.830  -0.979  1.00  0.00    -0.000 C 
BRANCH   7   8
ATOM      8  C   UNL     1     -20.849  52.937  -1.720  1.00  0.00    -0.003 C 
ATOM      9  C   UNL     1     -19.692  52.486  -0.828  1.00  0.00     0.004 C 
ENDBRANCH   7   8
ENDBRANCH   6   7
ENDBRANCH   1   6
TORSDOF 5
ENDMDL
