MODEL 1
REMARK VINA RESULT:    12.968      0.000      0.000
REMARK INTER + INTRA:          14.274
REMARK INTER:                  14.484
REMARK INTRA:                  -0.210
REMARK UNBOUND:                -0.210
REMARK SMILES O=C([O-])c1ccccc1C(=O)[O-]
REMARK SMILES IDX 4 1 9 2 5 3 8 4 6 5 7 6 2 7 1 8 3 9 10 10 11 11 12 12
REMARK H PARENT
REMARK Flexibility Score: inf
ROOT
ATOM      1  C   UNL     1      28.847   7.536  15.610  1.00  0.00     0.006 A 
ATOM      2  C   UNL     1      30.249   7.640  15.829  1.00  0.00     0.006 A 
ATOM      3  C   UNL     1      28.371   6.631  14.643  1.00  0.00     0.010 A 
ATOM      4  C   UNL     1      31.125   6.885  15.028  1.00  0.00     0.010 A 
ATOM      5  C   UNL     1      29.257   5.875  13.875  1.00  0.00     0.001 A 
ATOM      6  C   UNL     1      30.631   6.010  14.059  1.00  0.00     0.001 A 
ENDROOT
BRANCH   1   7
ATOM      7  C   UNL     1      27.856   8.389  16.307  1.00  0.00     0.072 C 
ATOM      8  O   UNL     1      27.519   9.505  15.830  1.00  0.00    -0.545 OA
ATOM      9  O   UNL     1      27.236   7.934  17.464  1.00  0.00    -0.545 OA
ENDBRANCH   1   7
BRANCH   2  10
ATOM     10  C   UNL     1      30.830   8.460  16.917  1.00  0.00     0.072 C 
ATOM     11  O   UNL     1      31.119   9.670  16.715  1.00  0.00    -0.545 OA
ATOM     12  O   UNL     1      31.125   7.893  18.152  1.00  0.00    -0.545 OA
ENDBRANCH   2  10
TORSDOF 2
ENDMDL
