MODEL 1
REMARK VINA RESULT:    -3.307      0.000      0.000
REMARK INTER + INTRA:         -13.624
REMARK INTER:                  -8.721
REMARK INTRA:                  -4.903
REMARK UNBOUND:                -4.903
REMARK SMILES CCCCCCCCCCCCCCCCCCCCCCCCCCCCCC(=O)[O-]
REMARK SMILES IDX 16 1 17 2 18 3 19 4 20 5 21 6 22 7 23 8 24 9 25 10 26 11
REMARK SMILES IDX 27 12 28 13 29 14 30 15 31 16 32 17 15 18 14 19 13 20 12 21
REMARK SMILES IDX 11 22 10 23 9 24 8 25 7 26 6 27 5 28 4 29 3 30 2 31 1 32
REMARK H PARENT
REMARK Flexibility Score: inf
ROOT
ATOM      1  C   UNL     1       0.110   2.064  -9.128  1.00  0.00     0.000 C 
ENDROOT
BRANCH   1   2
ATOM      2  C   UNL     1      -0.051   0.536  -9.043  1.00  0.00     0.000 C 
BRANCH   2   3
ATOM      3  C   UNL     1      -0.285   0.051  -7.603  1.00  0.00     0.000 C 
BRANCH   3   4
ATOM      4  C   UNL     1       0.485  -1.243  -7.285  1.00  0.00     0.000 C 
BRANCH   4   5
ATOM      5  C   UNL     1       0.107  -2.398  -8.225  1.00  0.00     0.000 C 
BRANCH   5   6
ATOM      6  C   UNL     1      -0.627  -3.535  -7.492  1.00  0.00     0.000 C 
BRANCH   6   7
ATOM      7  C   UNL     1      -2.111  -3.219  -7.247  1.00  0.00     0.000 C 
BRANCH   7   8
ATOM      8  C   UNL     1      -2.773  -2.527  -8.449  1.00  0.00     0.000 C 
BRANCH   8   9
ATOM      9  C   UNL     1      -3.849  -1.536  -7.987  1.00  0.00     0.000 C 
BRANCH   9  10
ATOM     10  C   UNL     1      -3.601  -1.092  -6.538  1.00  0.00     0.000 C 
BRANCH  10  11
ATOM     11  C   UNL     1      -4.871  -1.144  -5.668  1.00  0.00     0.000 C 
BRANCH  11  12
ATOM     12  C   UNL     1      -4.684  -1.759  -4.267  1.00  0.00     0.000 C 
BRANCH  12  13
ATOM     13  C   UNL     1      -4.954  -3.273  -4.165  1.00  0.00     0.006 C 
BRANCH  13  14
ATOM     14  C   UNL     1      -3.680  -4.130  -4.036  1.00  0.00     0.053 C 
BRANCH  14  15
ATOM     15  C   UNL     1      -3.515  -4.720  -2.668  1.00  0.00     0.041 C 
ATOM     16  O   UNL     1      -2.376  -5.064  -2.257  1.00  0.00    -0.550 OA
ATOM     17  O   UNL     1      -4.616  -4.856  -1.831  1.00  0.00    -0.550 OA
ENDBRANCH  14  15
ENDBRANCH  13  14
ENDBRANCH  12  13
ENDBRANCH  11  12
ENDBRANCH  10  11
ENDBRANCH   9  10
ENDBRANCH   8   9
ENDBRANCH   7   8
ENDBRANCH   6   7
ENDBRANCH   5   6
ENDBRANCH   4   5
ENDBRANCH   3   4
ENDBRANCH   2   3
ENDBRANCH   1   2
BRANCH   1  18
ATOM     18  C   UNL     1       1.563   2.493  -9.398  1.00  0.00     0.000 C 
BRANCH  18  19
ATOM     19  C   UNL     1       2.536   1.335  -9.694  1.00  0.00     0.000 C 
BRANCH  19  20
ATOM     20  C   UNL     1       3.737   1.225  -8.733  1.00  0.00     0.000 C 
BRANCH  20  21
ATOM     21  C   UNL     1       4.165  -0.214  -8.393  1.00  0.00     0.000 C 
BRANCH  21  22
ATOM     22  C   UNL     1       3.516  -1.260  -9.315  1.00  0.00     0.000 C 
BRANCH  22  23
ATOM     23  C   UNL     1       3.759  -2.702  -8.843  1.00  0.00     0.000 C 
BRANCH  23  24
ATOM     24  C   UNL     1       3.977  -2.797  -7.324  1.00  0.00    -0.000 C 
BRANCH  24  25
ATOM     25  C   UNL     1       3.221  -3.976  -6.685  1.00  0.00    -0.000 C 
BRANCH  25  26
ATOM     26  C   UNL     1       2.659  -3.706  -5.274  1.00  0.00    -0.000 C 
BRANCH  26  27
ATOM     27  C   UNL     1       2.872  -2.274  -4.746  1.00  0.00    -0.000 C 
BRANCH  27  28
ATOM     28  C   UNL     1       3.556  -2.185  -3.370  1.00  0.00    -0.000 C 
BRANCH  28  29
ATOM     29  C   UNL     1       4.937  -1.516  -3.434  1.00  0.00    -0.000 C 
BRANCH  29  30
ATOM     30  C   UNL     1       5.032  -0.566  -4.634  1.00  0.00    -0.000 C 
BRANCH  30  31
ATOM     31  C   UNL     1       6.456  -0.018  -4.790  1.00  0.00    -0.003 C 
ATOM     32  C   UNL     1       6.467   1.507  -4.760  1.00  0.00     0.004 C 
ENDBRANCH  30  31
ENDBRANCH  29  30
ENDBRANCH  28  29
ENDBRANCH  27  28
ENDBRANCH  26  27
ENDBRANCH  25  26
ENDBRANCH  24  25
ENDBRANCH  23  24
ENDBRANCH  22  23
ENDBRANCH  21  22
ENDBRANCH  20  21
ENDBRANCH  19  20
ENDBRANCH  18  19
ENDBRANCH   1  18
TORSDOF 28
ENDMDL
MODEL 2
REMARK VINA RESULT:    -3.123     10.580     13.944
REMARK INTER + INTRA:         -13.136
REMARK INTER:                  -9.067
REMARK INTRA:                  -4.069
REMARK UNBOUND:                -4.903
REMARK SMILES CCCCCCCCCCCCCCCCCCCCCCCCCCCCCC(=O)[O-]
REMARK SMILES IDX 16 1 17 2 18 3 19 4 20 5 21 6 22 7 23 8 24 9 25 10 26 11
REMARK SMILES IDX 27 12 28 13 29 14 30 15 31 16 32 17 15 18 14 19 13 20 12 21
REMARK SMILES IDX 11 22 10 23 9 24 8 25 7 26 6 27 5 28 4 29 3 30 2 31 1 32
REMARK H PARENT
REMARK Flexibility Score: inf
ROOT
ATOM      1  C   UNL     1       3.261   7.245   6.110  1.00  0.00     0.000 C 
ENDROOT
BRANCH   1   2
ATOM      2  C   UNL     1       3.372   8.161   4.879  1.00  0.00     0.000 C 
BRANCH   2   3
ATOM      3  C   UNL     1       4.827   8.355   4.422  1.00  0.00     0.000 C 
BRANCH   3   4
ATOM      4  C   UNL     1       4.989   8.208   2.899  1.00  0.00     0.000 C 
BRANCH   4   5
ATOM      5  C   UNL     1       4.571   9.476   2.137  1.00  0.00     0.000 C 
BRANCH   5   6
ATOM      6  C   UNL     1       3.615   9.170   0.970  1.00  0.00     0.000 C 
BRANCH   6   7
ATOM      7  C   UNL     1       2.755   7.922   1.222  1.00  0.00     0.000 C 
BRANCH   7   8
ATOM      8  C   UNL     1       1.612   7.778   0.205  1.00  0.00     0.000 C 
BRANCH   8   9
ATOM      9  C   UNL     1       0.279   7.506   0.913  1.00  0.00     0.000 C 
BRANCH   9  10
ATOM     10  C   UNL     1       0.509   6.910   2.310  1.00  0.00     0.000 C 
BRANCH  10  11
ATOM     11  C   UNL     1      -0.005   7.817   3.442  1.00  0.00     0.000 C 
BRANCH  11  12
ATOM     12  C   UNL     1      -0.250   7.112   4.791  1.00  0.00     0.000 C 
BRANCH  12  13
ATOM     13  C   UNL     1      -0.621   5.618   4.702  1.00  0.00     0.006 C 
BRANCH  13  14
ATOM     14  C   UNL     1      -0.935   4.967   6.062  1.00  0.00     0.053 C 
BRANCH  14  15
ATOM     15  C   UNL     1       0.012   3.857   6.405  1.00  0.00     0.041 C 
ATOM     16  O   UNL     1      -0.017   2.775   5.762  1.00  0.00    -0.550 OA
ATOM     17  O   UNL     1       0.953   4.030   7.413  1.00  0.00    -0.550 OA
ENDBRANCH  14  15
ENDBRANCH  13  14
ENDBRANCH  12  13
ENDBRANCH  11  12
ENDBRANCH  10  11
ENDBRANCH   9  10
ENDBRANCH   8   9
ENDBRANCH   7   8
ENDBRANCH   6   7
ENDBRANCH   5   6
ENDBRANCH   4   5
ENDBRANCH   3   4
ENDBRANCH   2   3
ENDBRANCH   1   2
BRANCH   1  18
ATOM     18  C   UNL     1       4.541   6.428   6.359  1.00  0.00     0.000 C 
BRANCH  18  19
ATOM     19  C   UNL     1       4.326   5.108   7.127  1.00  0.00     0.000 C 
BRANCH  19  20
ATOM     20  C   UNL     1       5.595   4.257   7.336  1.00  0.00     0.000 C 
BRANCH  20  21
ATOM     21  C   UNL     1       6.904   4.921   6.867  1.00  0.00     0.000 C 
BRANCH  21  22
ATOM     22  C   UNL     1       7.824   3.948   6.110  1.00  0.00     0.000 C 
BRANCH  22  23
ATOM     23  C   UNL     1       8.427   4.567   4.839  1.00  0.00     0.000 C 
BRANCH  23  24
ATOM     24  C   UNL     1       7.752   5.893   4.451  1.00  0.00    -0.000 C 
BRANCH  24  25
ATOM     25  C   UNL     1       8.356   6.520   3.181  1.00  0.00    -0.000 C 
BRANCH  25  26
ATOM     26  C   UNL     1       8.070   5.753   1.873  1.00  0.00    -0.000 C 
BRANCH  26  27
ATOM     27  C   UNL     1       8.214   6.582   0.582  1.00  0.00    -0.000 C 
BRANCH  27  28
ATOM     28  C   UNL     1       6.916   7.246   0.089  1.00  0.00    -0.000 C 
BRANCH  28  29
ATOM     29  C   UNL     1       5.900   6.232  -0.459  1.00  0.00    -0.000 C 
BRANCH  29  30
ATOM     30  C   UNL     1       4.997   6.876  -1.518  1.00  0.00    -0.000 C 
BRANCH  30  31
ATOM     31  C   UNL     1       4.709   5.897  -2.663  1.00  0.00    -0.003 C 
ATOM     32  C   UNL     1       5.929   5.032  -2.968  1.00  0.00     0.004 C 
ENDBRANCH  30  31
ENDBRANCH  29  30
ENDBRANCH  28  29
ENDBRANCH  27  28
ENDBRANCH  26  27
ENDBRANCH  25  26
ENDBRANCH  24  25
ENDBRANCH  23  24
ENDBRANCH  22  23
ENDBRANCH  21  22
ENDBRANCH  20  21
ENDBRANCH  19  20
ENDBRANCH  18  19
ENDBRANCH   1  18
TORSDOF 28
ENDMDL
MODEL 3
REMARK VINA RESULT:    -3.102      8.350     12.756
REMARK INTER + INTRA:         -13.082
REMARK INTER:                  -7.788
REMARK INTRA:                  -5.294
REMARK UNBOUND:                -4.903
REMARK SMILES CCCCCCCCCCCCCCCCCCCCCCCCCCCCCC(=O)[O-]
REMARK SMILES IDX 16 1 17 2 18 3 19 4 20 5 21 6 22 7 23 8 24 9 25 10 26 11
REMARK SMILES IDX 27 12 28 13 29 14 30 15 31 16 32 17 15 18 14 19 13 20 12 21
REMARK SMILES IDX 11 22 10 23 9 24 8 25 7 26 6 27 5 28 4 29 3 30 2 31 1 32
REMARK H PARENT
REMARK Flexibility Score: inf
ROOT
ATOM      1  C   UNL     1       5.442   5.777  -1.922  1.00  0.00     0.000 C 
ENDROOT
BRANCH   1   2
ATOM      2  C   UNL     1       5.640   6.228  -0.465  1.00  0.00     0.000 C 
BRANCH   2   3
ATOM      3  C   UNL     1       6.992   5.775   0.110  1.00  0.00     0.000 C 
BRANCH   3   4
ATOM      4  C   UNL     1       7.439   6.631   1.308  1.00  0.00     0.000 C 
BRANCH   4   5
ATOM      5  C   UNL     1       8.206   5.815   2.361  1.00  0.00     0.000 C 
BRANCH   5   6
ATOM      6  C   UNL     1       7.866   6.246   3.799  1.00  0.00     0.000 C 
BRANCH   6   7
ATOM      7  C   UNL     1       6.954   7.482   3.845  1.00  0.00     0.000 C 
BRANCH   7   8
ATOM      8  C   UNL     1       5.922   7.413   4.981  1.00  0.00     0.000 C 
BRANCH   8   9
ATOM      9  C   UNL     1       4.567   7.970   4.526  1.00  0.00     0.000 C 
BRANCH   9  10
ATOM     10  C   UNL     1       4.611   8.384   3.049  1.00  0.00     0.000 C 
BRANCH  10  11
ATOM     11  C   UNL     1       3.223   8.730   2.480  1.00  0.00     0.000 C 
BRANCH  11  12
ATOM     12  C   UNL     1       3.158   8.884   0.948  1.00  0.00     0.000 C 
BRANCH  12  13
ATOM     13  C   UNL     1       2.314   7.828   0.208  1.00  0.00     0.006 C 
BRANCH  13  14
ATOM     14  C   UNL     1       0.814   8.167   0.128  1.00  0.00     0.053 C 
BRANCH  14  15
ATOM     15  C   UNL     1      -0.037   7.228   0.930  1.00  0.00     0.041 C 
ATOM     16  O   UNL     1       0.425   6.676   1.963  1.00  0.00    -0.550 OA
ATOM     17  O   UNL     1      -1.354   6.991   0.557  1.00  0.00    -0.550 OA
ENDBRANCH  14  15
ENDBRANCH  13  14
ENDBRANCH  12  13
ENDBRANCH  11  12
ENDBRANCH  10  11
ENDBRANCH   9  10
ENDBRANCH   8   9
ENDBRANCH   7   8
ENDBRANCH   6   7
ENDBRANCH   5   6
ENDBRANCH   4   5
ENDBRANCH   3   4
ENDBRANCH   2   3
ENDBRANCH   1   2
BRANCH   1  18
ATOM     18  C   UNL     1       4.236   6.455  -2.594  1.00  0.00     0.000 C 
BRANCH  18  19
ATOM     19  C   UNL     1       4.579   7.702  -3.434  1.00  0.00     0.000 C 
BRANCH  19  20
ATOM     20  C   UNL     1       4.216   9.051  -2.782  1.00  0.00     0.000 C 
BRANCH  20  21
ATOM     21  C   UNL     1       5.415   9.969  -2.484  1.00  0.00     0.000 C 
BRANCH  21  22
ATOM     22  C   UNL     1       6.037   9.703  -1.102  1.00  0.00     0.000 C 
BRANCH  22  23
ATOM     23  C   UNL     1       7.553   9.463  -1.168  1.00  0.00     0.000 C 
BRANCH  23  24
ATOM     24  C   UNL     1       7.987   8.782  -2.477  1.00  0.00    -0.000 C 
BRANCH  24  25
ATOM     25  C   UNL     1       8.963   7.615  -2.246  1.00  0.00    -0.000 C 
BRANCH  25  26
ATOM     26  C   UNL     1       8.854   6.459  -3.263  1.00  0.00    -0.000 C 
BRANCH  26  27
ATOM     27  C   UNL     1       7.968   6.747  -4.490  1.00  0.00    -0.000 C 
BRANCH  27  28
ATOM     28  C   UNL     1       7.299   5.509  -5.113  1.00  0.00    -0.000 C 
BRANCH  28  29
ATOM     29  C   UNL     1       7.871   4.189  -4.574  1.00  0.00    -0.000 C 
BRANCH  29  30
ATOM     30  C   UNL     1       6.749   3.202  -4.232  1.00  0.00    -0.000 C 
BRANCH  30  31
ATOM     31  C   UNL     1       7.147   1.768  -4.601  1.00  0.00    -0.003 C 
ATOM     32  C   UNL     1       5.945   0.830  -4.544  1.00  0.00     0.004 C 
ENDBRANCH  30  31
ENDBRANCH  29  30
ENDBRANCH  28  29
ENDBRANCH  27  28
ENDBRANCH  26  27
ENDBRANCH  25  26
ENDBRANCH  24  25
ENDBRANCH  23  24
ENDBRANCH  22  23
ENDBRANCH  21  22
ENDBRANCH  20  21
ENDBRANCH  19  20
ENDBRANCH  18  19
ENDBRANCH   1  18
TORSDOF 28
ENDMDL
MODEL 4
REMARK VINA RESULT:    -3.038      2.587      5.448
REMARK INTER + INTRA:         -12.914
REMARK INTER:                  -7.749
REMARK INTRA:                  -5.165
REMARK UNBOUND:                -4.903
REMARK SMILES CCCCCCCCCCCCCCCCCCCCCCCCCCCCCC(=O)[O-]
REMARK SMILES IDX 16 1 17 2 18 3 19 4 20 5 21 6 22 7 23 8 24 9 25 10 26 11
REMARK SMILES IDX 27 12 28 13 29 14 30 15 31 16 32 17 15 18 14 19 13 20 12 21
REMARK SMILES IDX 11 22 10 23 9 24 8 25 7 26 6 27 5 28 4 29 3 30 2 31 1 32
REMARK H PARENT
REMARK Flexibility Score: inf
ROOT
ATOM      1  C   UNL     1      -1.664  -5.649  -5.253  1.00  0.00     0.000 C 
ENDROOT
BRANCH   1   2
ATOM      2  C   UNL     1      -2.724  -4.641  -4.776  1.00  0.00     0.000 C 
BRANCH   2   3
ATOM      3  C   UNL     1      -4.070  -5.312  -4.457  1.00  0.00     0.000 C 
BRANCH   3   4
ATOM      4  C   UNL     1      -5.130  -4.306  -3.977  1.00  0.00     0.000 C 
BRANCH   4   5
ATOM      5  C   UNL     1      -4.540  -2.912  -3.709  1.00  0.00     0.000 C 
BRANCH   5   6
ATOM      6  C   UNL     1      -5.525  -1.781  -4.056  1.00  0.00     0.000 C 
BRANCH   6   7
ATOM      7  C   UNL     1      -6.949  -2.298  -4.317  1.00  0.00     0.000 C 
BRANCH   7   8
ATOM      8  C   UNL     1      -7.472  -1.911  -5.709  1.00  0.00     0.000 C 
BRANCH   8   9
ATOM      9  C   UNL     1      -7.534  -3.135  -6.631  1.00  0.00     0.000 C 
BRANCH   9  10
ATOM     10  C   UNL     1      -6.558  -2.988  -7.807  1.00  0.00     0.000 C 
BRANCH  10  11
ATOM     11  C   UNL     1      -5.307  -3.874  -7.663  1.00  0.00     0.000 C 
BRANCH  11  12
ATOM     12  C   UNL     1      -3.965  -3.170  -7.946  1.00  0.00     0.000 C 
BRANCH  12  13
ATOM     13  C   UNL     1      -3.859  -1.716  -7.442  1.00  0.00     0.006 C 
BRANCH  13  14
ATOM     14  C   UNL     1      -2.736  -1.489  -6.413  1.00  0.00     0.053 C 
BRANCH  14  15
ATOM     15  C   UNL     1      -1.510  -0.875  -7.019  1.00  0.00     0.041 C 
ATOM     16  O   UNL     1      -0.504  -0.624  -6.304  1.00  0.00    -0.550 OA
ATOM     17  O   UNL     1      -1.464  -0.612  -8.382  1.00  0.00    -0.550 OA
ENDBRANCH  14  15
ENDBRANCH  13  14
ENDBRANCH  12  13
ENDBRANCH  11  12
ENDBRANCH  10  11
ENDBRANCH   9  10
ENDBRANCH   8   9
ENDBRANCH   7   8
ENDBRANCH   6   7
ENDBRANCH   5   6
ENDBRANCH   4   5
ENDBRANCH   3   4
ENDBRANCH   2   3
ENDBRANCH   1   2
BRANCH   1  18
ATOM     18  C   UNL     1      -1.937  -6.168  -6.675  1.00  0.00     0.000 C 
BRANCH  18  19
ATOM     19  C   UNL     1      -0.861  -5.798  -7.716  1.00  0.00     0.000 C 
BRANCH  19  20
ATOM     20  C   UNL     1      -0.569  -4.289  -7.849  1.00  0.00     0.000 C 
BRANCH  20  21
ATOM     21  C   UNL     1       0.919  -3.907  -7.749  1.00  0.00     0.000 C 
BRANCH  21  22
ATOM     22  C   UNL     1       1.380  -3.684  -6.298  1.00  0.00     0.000 C 
BRANCH  22  23
ATOM     23  C   UNL     1       2.883  -3.936  -6.106  1.00  0.00     0.000 C 
BRANCH  23  24
ATOM     24  C   UNL     1       3.340  -3.701  -4.656  1.00  0.00    -0.000 C 
BRANCH  24  25
ATOM     25  C   UNL     1       2.821  -2.373  -4.075  1.00  0.00    -0.000 C 
BRANCH  25  26
ATOM     26  C   UNL     1       3.725  -1.730  -3.003  1.00  0.00    -0.000 C 
BRANCH  26  27
ATOM     27  C   UNL     1       5.187  -2.218  -2.999  1.00  0.00    -0.000 C 
BRANCH  27  28
ATOM     28  C   UNL     1       6.165  -1.343  -3.802  1.00  0.00    -0.000 C 
BRANCH  28  29
ATOM     29  C   UNL     1       5.608   0.058  -4.094  1.00  0.00    -0.000 C 
BRANCH  29  30
ATOM     30  C   UNL     1       5.651   0.365  -5.596  1.00  0.00    -0.000 C 
BRANCH  30  31
ATOM     31  C   UNL     1       5.566  -0.925  -6.422  1.00  0.00    -0.003 C 
ATOM     32  C   UNL     1       4.361  -0.901  -7.358  1.00  0.00     0.004 C 
ENDBRANCH  30  31
ENDBRANCH  29  30
ENDBRANCH  28  29
ENDBRANCH  27  28
ENDBRANCH  26  27
ENDBRANCH  25  26
ENDBRANCH  24  25
ENDBRANCH  23  24
ENDBRANCH  22  23
ENDBRANCH  21  22
ENDBRANCH  20  21
ENDBRANCH  19  20
ENDBRANCH  18  19
ENDBRANCH   1  18
TORSDOF 28
ENDMDL
MODEL 5
REMARK VINA RESULT:    -3.012      8.666     13.312
REMARK INTER + INTRA:         -12.844
REMARK INTER:                  -7.774
REMARK INTRA:                  -5.070
REMARK UNBOUND:                -4.903
REMARK SMILES CCCCCCCCCCCCCCCCCCCCCCCCCCCCCC(=O)[O-]
REMARK SMILES IDX 16 1 17 2 18 3 19 4 20 5 21 6 22 7 23 8 24 9 25 10 26 11
REMARK SMILES IDX 27 12 28 13 29 14 30 15 31 16 32 17 15 18 14 19 13 20 12 21
REMARK SMILES IDX 11 22 10 23 9 24 8 25 7 26 6 27 5 28 4 29 3 30 2 31 1 32
REMARK H PARENT
REMARK Flexibility Score: inf
ROOT
ATOM      1  C   UNL     1       5.882   5.885  -0.738  1.00  0.00     0.000 C 
ENDROOT
BRANCH   1   2
ATOM      2  C   UNL     1       5.283   7.127  -0.054  1.00  0.00     0.000 C 
BRANCH   2   3
ATOM      3  C   UNL     1       6.283   7.816   0.888  1.00  0.00     0.000 C 
BRANCH   3   4
ATOM      4  C   UNL     1       7.093   6.810   1.725  1.00  0.00     0.000 C 
BRANCH   4   5
ATOM      5  C   UNL     1       8.602   7.099   1.693  1.00  0.00     0.000 C 
BRANCH   5   6
ATOM      6  C   UNL     1       9.447   5.816   1.796  1.00  0.00     0.000 C 
BRANCH   6   7
ATOM      7  C   UNL     1       8.601   4.539   1.667  1.00  0.00     0.000 C 
BRANCH   7   8
ATOM      8  C   UNL     1       9.017   3.452   2.669  1.00  0.00     0.000 C 
BRANCH   8   9
ATOM      9  C   UNL     1       9.984   4.014   3.718  1.00  0.00     0.000 C 
BRANCH   9  10
ATOM     10  C   UNL     1       9.553   3.612   5.136  1.00  0.00     0.000 C 
BRANCH  10  11
ATOM     11  C   UNL     1       8.089   3.975   5.444  1.00  0.00     0.000 C 
BRANCH  11  12
ATOM     12  C   UNL     1       7.752   5.477   5.363  1.00  0.00     0.000 C 
BRANCH  12  13
ATOM     13  C   UNL     1       6.336   5.867   5.834  1.00  0.00     0.006 C 
BRANCH  13  14
ATOM     14  C   UNL     1       5.722   4.888   6.851  1.00  0.00     0.053 C 
BRANCH  14  15
ATOM     15  C   UNL     1       4.281   5.182   7.141  1.00  0.00     0.041 C 
ATOM     16  O   UNL     1       3.818   6.339   6.959  1.00  0.00    -0.550 OA
ATOM     17  O   UNL     1       3.438   4.168   7.579  1.00  0.00    -0.550 OA
ENDBRANCH  14  15
ENDBRANCH  13  14
ENDBRANCH  12  13
ENDBRANCH  11  12
ENDBRANCH  10  11
ENDBRANCH   9  10
ENDBRANCH   8   9
ENDBRANCH   7   8
ENDBRANCH   6   7
ENDBRANCH   5   6
ENDBRANCH   4   5
ENDBRANCH   3   4
ENDBRANCH   2   3
ENDBRANCH   1   2
BRANCH   1  18
ATOM     18  C   UNL     1       5.246   5.598  -2.109  1.00  0.00     0.000 C 
BRANCH  18  19
ATOM     19  C   UNL     1       4.371   6.739  -2.668  1.00  0.00     0.000 C 
BRANCH  19  20
ATOM     20  C   UNL     1       5.061   7.644  -3.708  1.00  0.00     0.000 C 
BRANCH  20  21
ATOM     21  C   UNL     1       6.261   7.004  -4.430  1.00  0.00     0.000 C 
BRANCH  21  22
ATOM     22  C   UNL     1       7.576   7.766  -4.189  1.00  0.00     0.000 C 
BRANCH  22  23
ATOM     23  C   UNL     1       7.597   8.503  -2.841  1.00  0.00     0.000 C 
BRANCH  23  24
ATOM     24  C   UNL     1       8.701   7.986  -1.903  1.00  0.00    -0.000 C 
BRANCH  24  25
ATOM     25  C   UNL     1       9.581   6.906  -2.557  1.00  0.00    -0.000 C 
BRANCH  25  26
ATOM     26  C   UNL     1       9.609   5.550  -1.821  1.00  0.00    -0.000 C 
BRANCH  26  27
ATOM     27  C   UNL     1       8.692   4.462  -2.414  1.00  0.00    -0.000 C 
BRANCH  27  28
ATOM     28  C   UNL     1       9.411   3.403  -3.269  1.00  0.00    -0.000 C 
BRANCH  28  29
ATOM     29  C   UNL     1       8.578   2.948  -4.476  1.00  0.00    -0.000 C 
BRANCH  29  30
ATOM     30  C   UNL     1       7.078   3.005  -4.163  1.00  0.00    -0.000 C 
BRANCH  30  31
ATOM     31  C   UNL     1       6.391   1.683  -4.527  1.00  0.00    -0.003 C 
ATOM     32  C   UNL     1       7.389   0.529  -4.544  1.00  0.00     0.004 C 
ENDBRANCH  30  31
ENDBRANCH  29  30
ENDBRANCH  28  29
ENDBRANCH  27  28
ENDBRANCH  26  27
ENDBRANCH  25  26
ENDBRANCH  24  25
ENDBRANCH  23  24
ENDBRANCH  22  23
ENDBRANCH  21  22
ENDBRANCH  20  21
ENDBRANCH  19  20
ENDBRANCH  18  19
ENDBRANCH   1  18
TORSDOF 28
ENDMDL
MODEL 6
REMARK VINA RESULT:    -2.999      1.437      2.359
REMARK INTER + INTRA:         -12.812
REMARK INTER:                  -8.491
REMARK INTRA:                  -4.321
REMARK UNBOUND:                -4.903
REMARK SMILES CCCCCCCCCCCCCCCCCCCCCCCCCCCCCC(=O)[O-]
REMARK SMILES IDX 16 1 17 2 18 3 19 4 20 5 21 6 22 7 23 8 24 9 25 10 26 11
REMARK SMILES IDX 27 12 28 13 29 14 30 15 31 16 32 17 15 18 14 19 13 20 12 21
REMARK SMILES IDX 11 22 10 23 9 24 8 25 7 26 6 27 5 28 4 29 3 30 2 31 1 32
REMARK H PARENT
REMARK Flexibility Score: inf
ROOT
ATOM      1  C   UNL     1       0.004   1.460  -8.611  1.00  0.00     0.000 C 
ENDROOT
BRANCH   1   2
ATOM      2  C   UNL     1      -1.006   0.444  -9.172  1.00  0.00     0.000 C 
BRANCH   2   3
ATOM      3  C   UNL     1      -0.688  -0.997  -8.740  1.00  0.00     0.000 C 
BRANCH   3   4
ATOM      4  C   UNL     1      -0.834  -1.202  -7.222  1.00  0.00     0.000 C 
BRANCH   4   5
ATOM      5  C   UNL     1      -2.299  -1.152  -6.760  1.00  0.00     0.000 C 
BRANCH   5   6
ATOM      6  C   UNL     1      -3.197  -2.118  -7.553  1.00  0.00     0.000 C 
BRANCH   6   7
ATOM      7  C   UNL     1      -4.634  -1.594  -7.710  1.00  0.00     0.000 C 
BRANCH   7   8
ATOM      8  C   UNL     1      -5.175  -0.959  -6.420  1.00  0.00     0.000 C 
BRANCH   8   9
ATOM      9  C   UNL     1      -6.014  -1.967  -5.623  1.00  0.00     0.000 C 
BRANCH   9  10
ATOM     10  C   UNL     1      -5.963  -1.657  -4.120  1.00  0.00     0.000 C 
BRANCH  10  11
ATOM     11  C   UNL     1      -4.729  -2.261  -3.423  1.00  0.00     0.000 C 
BRANCH  11  12
ATOM     12  C   UNL     1      -4.957  -3.629  -2.749  1.00  0.00     0.000 C 
BRANCH  12  13
ATOM     13  C   UNL     1      -4.233  -4.821  -3.406  1.00  0.00     0.006 C 
BRANCH  13  14
ATOM     14  C   UNL     1      -3.442  -4.454  -4.675  1.00  0.00     0.053 C 
BRANCH  14  15
ATOM     15  C   UNL     1      -2.125  -5.165  -4.763  1.00  0.00     0.041 C 
ATOM     16  O   UNL     1      -1.092  -4.546  -5.131  1.00  0.00    -0.550 OA
ATOM     17  O   UNL     1      -2.031  -6.503  -4.403  1.00  0.00    -0.550 OA
ENDBRANCH  14  15
ENDBRANCH  13  14
ENDBRANCH  12  13
ENDBRANCH  11  12
ENDBRANCH  10  11
ENDBRANCH   9  10
ENDBRANCH   8   9
ENDBRANCH   7   8
ENDBRANCH   6   7
ENDBRANCH   5   6
ENDBRANCH   4   5
ENDBRANCH   3   4
ENDBRANCH   2   3
ENDBRANCH   1   2
BRANCH   1  18
ATOM     18  C   UNL     1      -0.033   2.806  -9.356  1.00  0.00     0.000 C 
BRANCH  18  19
ATOM     19  C   UNL     1       1.350   3.409  -9.672  1.00  0.00     0.000 C 
BRANCH  19  20
ATOM     20  C   UNL     1       2.453   2.383  -9.999  1.00  0.00     0.000 C 
BRANCH  20  21
ATOM     21  C   UNL     1       3.787   2.609  -9.263  1.00  0.00     0.000 C 
BRANCH  21  22
ATOM     22  C   UNL     1       4.334   1.324  -8.617  1.00  0.00     0.000 C 
BRANCH  22  23
ATOM     23  C   UNL     1       3.613   0.059  -9.107  1.00  0.00     0.000 C 
BRANCH  23  24
ATOM     24  C   UNL     1       2.951  -0.724  -7.961  1.00  0.00    -0.000 C 
BRANCH  24  25
ATOM     25  C   UNL     1       3.071  -2.249  -8.134  1.00  0.00    -0.000 C 
BRANCH  25  26
ATOM     26  C   UNL     1       2.516  -3.087  -6.963  1.00  0.00    -0.000 C 
BRANCH  26  27
ATOM     27  C   UNL     1       2.281  -2.308  -5.653  1.00  0.00    -0.000 C 
BRANCH  27  28
ATOM     28  C   UNL     1       3.165  -2.745  -4.472  1.00  0.00    -0.000 C 
BRANCH  28  29
ATOM     29  C   UNL     1       4.284  -1.739  -4.162  1.00  0.00    -0.000 C 
BRANCH  29  30
ATOM     30  C   UNL     1       5.511  -1.991  -5.047  1.00  0.00    -0.000 C 
BRANCH  30  31
ATOM     31  C   UNL     1       5.898  -0.726  -5.822  1.00  0.00    -0.003 C 
ATOM     32  C   UNL     1       5.631   0.529  -4.996  1.00  0.00     0.004 C 
ENDBRANCH  30  31
ENDBRANCH  29  30
ENDBRANCH  28  29
ENDBRANCH  27  28
ENDBRANCH  26  27
ENDBRANCH  25  26
ENDBRANCH  24  25
ENDBRANCH  23  24
ENDBRANCH  22  23
ENDBRANCH  21  22
ENDBRANCH  20  21
ENDBRANCH  19  20
ENDBRANCH  18  19
ENDBRANCH   1  18
TORSDOF 28
ENDMDL
MODEL 7
REMARK VINA RESULT:    -2.997      7.123     11.478
REMARK INTER + INTRA:         -12.806
REMARK INTER:                  -9.417
REMARK INTRA:                  -3.389
REMARK UNBOUND:                -4.903
REMARK SMILES CCCCCCCCCCCCCCCCCCCCCCCCCCCCCC(=O)[O-]
REMARK SMILES IDX 16 1 17 2 18 3 19 4 20 5 21 6 22 7 23 8 24 9 25 10 26 11
REMARK SMILES IDX 27 12 28 13 29 14 30 15 31 16 32 17 15 18 14 19 13 20 12 21
REMARK SMILES IDX 11 22 10 23 9 24 8 25 7 26 6 27 5 28 4 29 3 30 2 31 1 32
REMARK H PARENT
REMARK Flexibility Score: inf
ROOT
ATOM      1  C   UNL     1       4.489   5.982  -2.623  1.00  0.00     0.000 C 
ENDROOT
BRANCH   1   2
ATOM      2  C   UNL     1       5.895   5.387  -2.813  1.00  0.00     0.000 C 
BRANCH   2   3
ATOM      3  C   UNL     1       6.673   6.072  -3.948  1.00  0.00     0.000 C 
BRANCH   3   4
ATOM      4  C   UNL     1       8.169   5.712  -3.937  1.00  0.00     0.000 C 
BRANCH   4   5
ATOM      5  C   UNL     1       8.535   4.755  -2.791  1.00  0.00     0.000 C 
BRANCH   5   6
ATOM      6  C   UNL     1       8.844   3.332  -3.290  1.00  0.00     0.000 C 
BRANCH   6   7
ATOM      7  C   UNL     1       8.864   3.236  -4.824  1.00  0.00     0.000 C 
BRANCH   7   8
ATOM      8  C   UNL     1       7.921   2.148  -5.360  1.00  0.00     0.000 C 
BRANCH   8   9
ATOM      9  C   UNL     1       6.583   2.164  -4.609  1.00  0.00     0.000 C 
BRANCH   9  10
ATOM     10  C   UNL     1       6.020   0.743  -4.460  1.00  0.00     0.000 C 
BRANCH  10  11
ATOM     11  C   UNL     1       7.006  -0.346  -4.920  1.00  0.00     0.000 C 
BRANCH  11  12
ATOM     12  C   UNL     1       6.380  -1.507  -5.717  1.00  0.00     0.000 C 
BRANCH  12  13
ATOM     13  C   UNL     1       4.856  -1.420  -5.932  1.00  0.00     0.006 C 
BRANCH  13  14
ATOM     14  C   UNL     1       4.069  -2.601  -5.336  1.00  0.00     0.053 C 
BRANCH  14  15
ATOM     15  C   UNL     1       3.468  -2.283  -4.000  1.00  0.00     0.041 C 
ATOM     16  O   UNL     1       4.206  -1.962  -3.031  1.00  0.00    -0.550 OA
ATOM     17  O   UNL     1       2.089  -2.304  -3.834  1.00  0.00    -0.550 OA
ENDBRANCH  14  15
ENDBRANCH  13  14
ENDBRANCH  12  13
ENDBRANCH  11  12
ENDBRANCH  10  11
ENDBRANCH   9  10
ENDBRANCH   8   9
ENDBRANCH   7   8
ENDBRANCH   6   7
ENDBRANCH   5   6
ENDBRANCH   4   5
ENDBRANCH   3   4
ENDBRANCH   2   3
ENDBRANCH   1   2
BRANCH   1  18
ATOM     18  C   UNL     1       4.453   7.503  -2.854  1.00  0.00     0.000 C 
BRANCH  18  19
ATOM     19  C   UNL     1       4.965   8.350  -1.672  1.00  0.00     0.000 C 
BRANCH  19  20
ATOM     20  C   UNL     1       4.236   8.115  -0.333  1.00  0.00     0.000 C 
BRANCH  20  21
ATOM     21  C   UNL     1       5.135   7.619   0.814  1.00  0.00     0.000 C 
BRANCH  21  22
ATOM     22  C   UNL     1       6.583   7.362   0.366  1.00  0.00     0.000 C 
BRANCH  22  23
ATOM     23  C   UNL     1       6.965   5.874   0.411  1.00  0.00     0.000 C 
BRANCH  23  24
ATOM     24  C   UNL     1       8.434   5.653   0.806  1.00  0.00    -0.000 C 
BRANCH  24  25
ATOM     25  C   UNL     1       8.814   6.371   2.114  1.00  0.00    -0.000 C 
BRANCH  25  26
ATOM     26  C   UNL     1       8.252   5.729   3.399  1.00  0.00    -0.000 C 
BRANCH  26  27
ATOM     27  C   UNL     1       7.361   6.649   4.257  1.00  0.00    -0.000 C 
BRANCH  27  28
ATOM     28  C   UNL     1       6.804   6.003   5.538  1.00  0.00    -0.000 C 
BRANCH  28  29
ATOM     29  C   UNL     1       5.420   6.545   5.924  1.00  0.00    -0.000 C 
BRANCH  29  30
ATOM     30  C   UNL     1       4.629   5.508   6.729  1.00  0.00    -0.000 C 
BRANCH  30  31
ATOM     31  C   UNL     1       5.532   4.350   7.173  1.00  0.00    -0.003 C 
ATOM     32  C   UNL     1       4.842   3.482   8.221  1.00  0.00     0.004 C 
ENDBRANCH  30  31
ENDBRANCH  29  30
ENDBRANCH  28  29
ENDBRANCH  27  28
ENDBRANCH  26  27
ENDBRANCH  25  26
ENDBRANCH  24  25
ENDBRANCH  23  24
ENDBRANCH  22  23
ENDBRANCH  21  22
ENDBRANCH  20  21
ENDBRANCH  19  20
ENDBRANCH  18  19
ENDBRANCH   1  18
TORSDOF 28
ENDMDL
MODEL 8
REMARK VINA RESULT:    -2.997     10.029     13.352
REMARK INTER + INTRA:         -12.806
REMARK INTER:                  -8.272
REMARK INTRA:                  -4.533
REMARK UNBOUND:                -4.903
REMARK SMILES CCCCCCCCCCCCCCCCCCCCCCCCCCCCCC(=O)[O-]
REMARK SMILES IDX 16 1 17 2 18 3 19 4 20 5 21 6 22 7 23 8 24 9 25 10 26 11
REMARK SMILES IDX 27 12 28 13 29 14 30 15 31 16 32 17 15 18 14 19 13 20 12 21
REMARK SMILES IDX 11 22 10 23 9 24 8 25 7 26 6 27 5 28 4 29 3 30 2 31 1 32
REMARK H PARENT
REMARK Flexibility Score: inf
ROOT
ATOM      1  C   UNL     1       6.271   5.312  -3.107  1.00  0.00     0.000 C 
ENDROOT
BRANCH   1   2
ATOM      2  C   UNL     1       5.052   5.625  -2.221  1.00  0.00     0.000 C 
BRANCH   2   3
ATOM      3  C   UNL     1       4.212   6.789  -2.770  1.00  0.00     0.000 C 
BRANCH   3   4
ATOM      4  C   UNL     1       3.925   7.861  -1.705  1.00  0.00     0.000 C 
BRANCH   4   5
ATOM      5  C   UNL     1       4.523   7.504  -0.334  1.00  0.00     0.000 C 
BRANCH   5   6
ATOM      6  C   UNL     1       5.113   8.730   0.386  1.00  0.00     0.000 C 
BRANCH   6   7
ATOM      7  C   UNL     1       5.486   8.434   1.847  1.00  0.00     0.000 C 
BRANCH   7   8
ATOM      8  C   UNL     1       4.656   9.255   2.846  1.00  0.00     0.000 C 
BRANCH   8   9
ATOM      9  C   UNL     1       3.251   8.661   3.011  1.00  0.00     0.000 C 
BRANCH   9  10
ATOM     10  C   UNL     1       2.177   9.644   2.524  1.00  0.00     0.000 C 
BRANCH  10  11
ATOM     11  C   UNL     1       1.237   9.032   1.470  1.00  0.00     0.000 C 
BRANCH  11  12
ATOM     12  C   UNL     1       1.374   7.510   1.268  1.00  0.00     0.000 C 
BRANCH  12  13
ATOM     13  C   UNL     1       0.069   6.701   1.405  1.00  0.00     0.006 C 
BRANCH  13  14
ATOM     14  C   UNL     1      -1.204   7.504   1.079  1.00  0.00     0.053 C 
BRANCH  14  15
ATOM     15  C   UNL     1      -2.404   6.630   0.873  1.00  0.00     0.041 C 
ATOM     16  O   UNL     1      -2.475   5.504   1.432  1.00  0.00    -0.550 OA
ATOM     17  O   UNL     1      -3.463   7.075   0.091  1.00  0.00    -0.550 OA
ENDBRANCH  14  15
ENDBRANCH  13  14
ENDBRANCH  12  13
ENDBRANCH  11  12
ENDBRANCH  10  11
ENDBRANCH   9  10
ENDBRANCH   8   9
ENDBRANCH   7   8
ENDBRANCH   6   7
ENDBRANCH   5   6
ENDBRANCH   4   5
ENDBRANCH   3   4
ENDBRANCH   2   3
ENDBRANCH   1   2
BRANCH   1  18
ATOM     18  C   UNL     1       7.600   5.384  -2.335  1.00  0.00     0.000 C 
BRANCH  18  19
ATOM     19  C   UNL     1       7.924   6.766  -1.733  1.00  0.00     0.000 C 
BRANCH  19  20
ATOM     20  C   UNL     1       8.169   6.775  -0.210  1.00  0.00     0.000 C 
BRANCH  20  21
ATOM     21  C   UNL     1       7.545   5.593   0.554  1.00  0.00     0.000 C 
BRANCH  21  22
ATOM     22  C   UNL     1       8.372   5.177   1.783  1.00  0.00     0.000 C 
BRANCH  22  23
ATOM     23  C   UNL     1       8.452   6.282   2.848  1.00  0.00     0.000 C 
BRANCH  23  24
ATOM     24  C   UNL     1       7.793   5.871   4.175  1.00  0.00    -0.000 C 
BRANCH  24  25
ATOM     25  C   UNL     1       6.994   7.016   4.824  1.00  0.00    -0.000 C 
BRANCH  25  26
ATOM     26  C   UNL     1       5.700   6.585   5.545  1.00  0.00    -0.000 C 
BRANCH  26  27
ATOM     27  C   UNL     1       5.857   5.408   6.527  1.00  0.00    -0.000 C 
BRANCH  27  28
ATOM     28  C   UNL     1       4.538   4.865   7.105  1.00  0.00    -0.000 C 
BRANCH  28  29
ATOM     29  C   UNL     1       3.619   5.975   7.635  1.00  0.00    -0.000 C 
BRANCH  29  30
ATOM     30  C   UNL     1       2.216   5.865   7.026  1.00  0.00    -0.000 C 
BRANCH  30  31
ATOM     31  C   UNL     1       1.795   7.188   6.374  1.00  0.00    -0.003 C 
ATOM     32  C   UNL     1       0.832   6.949   5.214  1.00  0.00     0.004 C 
ENDBRANCH  30  31
ENDBRANCH  29  30
ENDBRANCH  28  29
ENDBRANCH  27  28
ENDBRANCH  26  27
ENDBRANCH  25  26
ENDBRANCH  24  25
ENDBRANCH  23  24
ENDBRANCH  22  23
ENDBRANCH  21  22
ENDBRANCH  20  21
ENDBRANCH  19  20
ENDBRANCH  18  19
ENDBRANCH   1  18
TORSDOF 28
ENDMDL
MODEL 9
REMARK VINA RESULT:    -2.983      9.283     13.143
REMARK INTER + INTRA:         -12.768
REMARK INTER:                  -8.669
REMARK INTRA:                  -4.099
REMARK UNBOUND:                -4.903
REMARK SMILES CCCCCCCCCCCCCCCCCCCCCCCCCCCCCC(=O)[O-]
REMARK SMILES IDX 16 1 17 2 18 3 19 4 20 5 21 6 22 7 23 8 24 9 25 10 26 11
REMARK SMILES IDX 27 12 28 13 29 14 30 15 31 16 32 17 15 18 14 19 13 20 12 21
REMARK SMILES IDX 11 22 10 23 9 24 8 25 7 26 6 27 5 28 4 29 3 30 2 31 1 32
REMARK H PARENT
REMARK Flexibility Score: inf
ROOT
ATOM      1  C   UNL     1       9.389   5.793   4.555  1.00  0.00     0.000 C 
ENDROOT
BRANCH   1   2
ATOM      2  C   UNL     1       8.497   6.963   4.106  1.00  0.00     0.000 C 
BRANCH   2   3
ATOM      3  C   UNL     1       7.008   6.711   4.397  1.00  0.00     0.000 C 
BRANCH   3   4
ATOM      4  C   UNL     1       6.152   7.977   4.220  1.00  0.00     0.000 C 
BRANCH   4   5
ATOM      5  C   UNL     1       4.769   7.849   4.880  1.00  0.00     0.000 C 
BRANCH   5   6
ATOM      6  C   UNL     1       3.658   8.516   4.049  1.00  0.00     0.000 C 
BRANCH   6   7
ATOM      7  C   UNL     1       2.251   8.188   4.573  1.00  0.00     0.000 C 
BRANCH   7   8
ATOM      8  C   UNL     1       1.159   8.423   3.518  1.00  0.00     0.000 C 
BRANCH   8   9
ATOM      9  C   UNL     1       1.777   8.765   2.156  1.00  0.00     0.000 C 
BRANCH   9  10
ATOM     10  C   UNL     1       1.358   7.742   1.090  1.00  0.00     0.000 C 
BRANCH  10  11
ATOM     11  C   UNL     1      -0.147   7.791   0.768  1.00  0.00     0.000 C 
BRANCH  11  12
ATOM     12  C   UNL     1      -0.938   6.516   1.120  1.00  0.00     0.000 C 
BRANCH  12  13
ATOM     13  C   UNL     1      -2.443   6.556   0.791  1.00  0.00     0.006 C 
BRANCH  13  14
ATOM     14  C   UNL     1      -3.090   5.166   0.643  1.00  0.00     0.053 C 
BRANCH  14  15
ATOM     15  C   UNL     1      -4.574   5.192   0.856  1.00  0.00     0.041 C 
ATOM     16  O   UNL     1      -5.354   4.791  -0.047  1.00  0.00    -0.550 OA
ATOM     17  O   UNL     1      -5.095   5.625   2.070  1.00  0.00    -0.550 OA
ENDBRANCH  14  15
ENDBRANCH  13  14
ENDBRANCH  12  13
ENDBRANCH  11  12
ENDBRANCH  10  11
ENDBRANCH   9  10
ENDBRANCH   8   9
ENDBRANCH   7   8
ENDBRANCH   6   7
ENDBRANCH   5   6
ENDBRANCH   4   5
ENDBRANCH   3   4
ENDBRANCH   2   3
ENDBRANCH   1   2
BRANCH   1  18
ATOM     18  C   UNL     1       8.640   4.449   4.570  1.00  0.00     0.000 C 
BRANCH  18  19
ATOM     19  C   UNL     1       9.204   3.384   3.608  1.00  0.00     0.000 C 
BRANCH  19  20
ATOM     20  C   UNL     1       8.638   3.431   2.174  1.00  0.00     0.000 C 
BRANCH  20  21
ATOM     21  C   UNL     1       9.582   4.050   1.126  1.00  0.00     0.000 C 
BRANCH  21  22
ATOM     22  C   UNL     1       9.000   5.317   0.477  1.00  0.00     0.000 C 
BRANCH  22  23
ATOM     23  C   UNL     1       7.534   5.565   0.866  1.00  0.00     0.000 C 
BRANCH  23  24
ATOM     24  C   UNL     1       6.995   6.898   0.320  1.00  0.00    -0.000 C 
BRANCH  24  25
ATOM     25  C   UNL     1       5.518   7.136   0.680  1.00  0.00    -0.000 C 
BRANCH  25  26
ATOM     26  C   UNL     1       5.022   8.584   0.489  1.00  0.00    -0.000 C 
BRANCH  26  27
ATOM     27  C   UNL     1       4.496   8.917  -0.921  1.00  0.00    -0.000 C 
BRANCH  27  28
ATOM     28  C   UNL     1       3.660   7.806  -1.580  1.00  0.00    -0.000 C 
BRANCH  28  29
ATOM     29  C   UNL     1       4.290   7.278  -2.877  1.00  0.00    -0.000 C 
BRANCH  29  30
ATOM     30  C   UNL     1       4.925   5.900  -2.658  1.00  0.00    -0.000 C 
BRANCH  30  31
ATOM     31  C   UNL     1       6.266   5.790  -3.394  1.00  0.00    -0.003 C 
ATOM     32  C   UNL     1       7.003   4.510  -3.010  1.00  0.00     0.004 C 
ENDBRANCH  30  31
ENDBRANCH  29  30
ENDBRANCH  28  29
ENDBRANCH  27  28
ENDBRANCH  26  27
ENDBRANCH  25  26
ENDBRANCH  24  25
ENDBRANCH  23  24
ENDBRANCH  22  23
ENDBRANCH  21  22
ENDBRANCH  20  21
ENDBRANCH  19  20
ENDBRANCH  18  19
ENDBRANCH   1  18
TORSDOF 28
ENDMDL
