MODEL 1
REMARK VINA RESULT:    -3.212      0.000      0.000
REMARK INTER + INTRA:          -8.988
REMARK INTER:                  -6.217
REMARK INTRA:                  -2.771
REMARK UNBOUND:                -2.771
REMARK SMILES CCCCCCCCCCCCCCCCCC(=O)[O-]
REMARK SMILES IDX 10 1 11 2 12 3 13 4 14 5 15 6 16 7 17 8 18 9 19 10 20 11
REMARK SMILES IDX 9 12 8 13 7 14 6 15 5 16 4 17 3 18 2 19 1 20
REMARK H PARENT
REMARK Flexibility Score: inf
ROOT
ATOM      1  C   UNL     1      57.017  25.611  50.377  1.00  0.00     0.000 C 
ENDROOT
BRANCH   1   2
ATOM      2  C   UNL     1      55.525  25.558  50.012  1.00  0.00     0.000 C 
BRANCH   2   3
ATOM      3  C   UNL     1      54.655  25.484  51.273  1.00  0.00     0.000 C 
BRANCH   3   4
ATOM      4  C   UNL     1      53.579  26.576  51.262  1.00  0.00     0.000 C 
BRANCH   4   5
ATOM      5  C   UNL     1      53.834  27.590  50.141  1.00  0.00     0.000 C 
BRANCH   5   6
ATOM      6  C   UNL     1      54.360  28.918  50.708  1.00  0.00     0.000 C 
BRANCH   6   7
ATOM      7  C   UNL     1      54.121  29.065  52.222  1.00  0.00     0.006 C 
BRANCH   7   8
ATOM      8  C   UNL     1      55.226  29.845  52.955  1.00  0.00     0.053 C 
BRANCH   8   9
ATOM      9  C   UNL     1      54.802  31.234  53.324  1.00  0.00     0.041 C 
ATOM     10  O   UNL     1      55.666  32.127  53.526  1.00  0.00    -0.550 OA
ATOM     11  O   UNL     1      53.455  31.536  53.481  1.00  0.00    -0.550 OA
ENDBRANCH   8   9
ENDBRANCH   7   8
ENDBRANCH   6   7
ENDBRANCH   5   6
ENDBRANCH   4   5
ENDBRANCH   3   4
ENDBRANCH   2   3
ENDBRANCH   1   2
BRANCH   1  12
ATOM     12  C   UNL     1      57.270  26.157  51.794  1.00  0.00     0.000 C 
BRANCH  12  13
ATOM     13  C   UNL     1      57.927  27.549  51.849  1.00  0.00    -0.000 C 
BRANCH  13  14
ATOM     14  C   UNL     1      57.891  28.284  50.500  1.00  0.00    -0.000 C 
BRANCH  14  15
ATOM     15  C   UNL     1      59.307  28.668  50.045  1.00  0.00    -0.000 C 
BRANCH  15  16
ATOM     16  C   UNL     1      60.054  27.497  49.381  1.00  0.00    -0.000 C 
BRANCH  16  17
ATOM     17  C   UNL     1      61.382  27.137  50.077  1.00  0.00    -0.000 C 
BRANCH  17  18
ATOM     18  C   UNL     1      61.282  25.874  50.961  1.00  0.00    -0.000 C 
BRANCH  18  19
ATOM     19  C   UNL     1      60.615  24.682  50.254  1.00  0.00    -0.003 C 
ATOM     20  C   UNL     1      60.055  23.650  51.231  1.00  0.00     0.004 C 
ENDBRANCH  18  19
ENDBRANCH  17  18
ENDBRANCH  16  17
ENDBRANCH  15  16
ENDBRANCH  14  15
ENDBRANCH  13  14
ENDBRANCH  12  13
ENDBRANCH   1  12
TORSDOF 16
ENDMDL
MODEL 2
REMARK VINA RESULT:    -3.202      3.799      7.414
REMARK INTER + INTRA:          -8.967
REMARK INTER:                  -6.355
REMARK INTRA:                  -2.612
REMARK UNBOUND:                -2.771
REMARK SMILES CCCCCCCCCCCCCCCCCC(=O)[O-]
REMARK SMILES IDX 10 1 11 2 12 3 13 4 14 5 15 6 16 7 17 8 18 9 19 10 20 11
REMARK SMILES IDX 9 12 8 13 7 14 6 15 5 16 4 17 3 18 2 19 1 20
REMARK H PARENT
REMARK Flexibility Score: inf
ROOT
ATOM      1  C   UNL     1      58.356  27.640  51.750  1.00  0.00     0.000 C 
ENDROOT
BRANCH   1   2
ATOM      2  C   UNL     1      58.020  28.494  50.518  1.00  0.00     0.000 C 
BRANCH   2   3
ATOM      3  C   UNL     1      59.244  28.654  49.610  1.00  0.00     0.000 C 
BRANCH   3   4
ATOM      4  C   UNL     1      60.538  28.341  50.371  1.00  0.00     0.000 C 
BRANCH   4   5
ATOM      5  C   UNL     1      61.327  27.223  49.679  1.00  0.00     0.000 C 
BRANCH   5   6
ATOM      6  C   UNL     1      61.634  26.079  50.656  1.00  0.00     0.000 C 
BRANCH   6   7
ATOM      7  C   UNL     1      60.955  24.753  50.267  1.00  0.00     0.006 C 
BRANCH   7   8
ATOM      8  C   UNL     1      60.584  23.865  51.468  1.00  0.00     0.053 C 
BRANCH   8   9
ATOM      9  C   UNL     1      60.616  22.405  51.135  1.00  0.00     0.041 C 
ATOM     10  O   UNL     1      61.094  22.017  50.037  1.00  0.00    -0.550 OA
ATOM     11  O   UNL     1      60.086  21.473  52.019  1.00  0.00    -0.550 OA
ENDBRANCH   8   9
ENDBRANCH   7   8
ENDBRANCH   6   7
ENDBRANCH   5   6
ENDBRANCH   4   5
ENDBRANCH   3   4
ENDBRANCH   2   3
ENDBRANCH   1   2
BRANCH   1  12
ATOM     12  C   UNL     1      57.597  26.301  51.779  1.00  0.00     0.000 C 
BRANCH  12  13
ATOM     13  C   UNL     1      57.412  25.626  50.407  1.00  0.00    -0.000 C 
BRANCH  13  14
ATOM     14  C   UNL     1      55.940  25.516  49.985  1.00  0.00    -0.000 C 
BRANCH  14  15
ATOM     15  C   UNL     1      55.028  25.354  51.211  1.00  0.00    -0.000 C 
BRANCH  15  16
ATOM     16  C   UNL     1      53.899  26.400  51.252  1.00  0.00    -0.000 C 
BRANCH  16  17
ATOM     17  C   UNL     1      54.037  27.500  50.181  1.00  0.00    -0.000 C 
BRANCH  17  18
ATOM     18  C   UNL     1      54.421  28.876  50.770  1.00  0.00    -0.000 C 
BRANCH  18  19
ATOM     19  C   UNL     1      54.785  28.823  52.262  1.00  0.00    -0.003 C 
ATOM     20  C   UNL     1      54.881  30.209  52.899  1.00  0.00     0.004 C 
ENDBRANCH  18  19
ENDBRANCH  17  18
ENDBRANCH  16  17
ENDBRANCH  15  16
ENDBRANCH  14  15
ENDBRANCH  13  14
ENDBRANCH  12  13
ENDBRANCH   1  12
TORSDOF 16
ENDMDL
MODEL 3
REMARK VINA RESULT:    -3.186      3.867      7.057
REMARK INTER + INTRA:          -8.936
REMARK INTER:                  -6.141
REMARK INTRA:                  -2.795
REMARK UNBOUND:                -2.771
REMARK SMILES CCCCCCCCCCCCCCCCCC(=O)[O-]
REMARK SMILES IDX 10 1 11 2 12 3 13 4 14 5 15 6 16 7 17 8 18 9 19 10 20 11
REMARK SMILES IDX 9 12 8 13 7 14 6 15 5 16 4 17 3 18 2 19 1 20
REMARK H PARENT
REMARK Flexibility Score: inf
ROOT
ATOM      1  C   UNL     1      57.438  28.788  52.646  1.00  0.00     0.000 C 
ENDROOT
BRANCH   1   2
ATOM      2  C   UNL     1      58.836  29.392  52.848  1.00  0.00     0.000 C 
BRANCH   2   3
ATOM      3  C   UNL     1      59.744  29.088  51.650  1.00  0.00     0.000 C 
BRANCH   3   4
ATOM      4  C   UNL     1      58.916  28.769  50.400  1.00  0.00     0.000 C 
BRANCH   4   5
ATOM      5  C   UNL     1      59.722  27.925  49.406  1.00  0.00     0.000 C 
BRANCH   5   6
ATOM      6  C   UNL     1      60.855  27.169  50.117  1.00  0.00     0.000 C 
BRANCH   6   7
ATOM      7  C   UNL     1      60.693  25.639  50.053  1.00  0.00     0.006 C 
BRANCH   7   8
ATOM      8  C   UNL     1      61.938  24.860  50.513  1.00  0.00     0.053 C 
BRANCH   8   9
ATOM      9  C   UNL     1      61.694  23.384  50.595  1.00  0.00     0.041 C 
ATOM     10  O   UNL     1      60.519  22.933  50.549  1.00  0.00    -0.550 OA
ATOM     11  O   UNL     1      62.758  22.507  50.758  1.00  0.00    -0.550 OA
ENDBRANCH   8   9
ENDBRANCH   7   8
ENDBRANCH   6   7
ENDBRANCH   5   6
ENDBRANCH   4   5
ENDBRANCH   3   4
ENDBRANCH   2   3
ENDBRANCH   1   2
BRANCH   1  12
ATOM     12  C   UNL     1      56.956  27.967  53.856  1.00  0.00     0.000 C 
BRANCH  12  13
ATOM     13  C   UNL     1      56.849  26.450  53.614  1.00  0.00    -0.000 C 
BRANCH  13  14
ATOM     14  C   UNL     1      57.942  25.912  52.678  1.00  0.00    -0.000 C 
BRANCH  14  15
ATOM     15  C   UNL     1      57.345  24.966  51.624  1.00  0.00    -0.000 C 
BRANCH  15  16
ATOM     16  C   UNL     1      56.937  25.698  50.333  1.00  0.00    -0.000 C 
BRANCH  16  17
ATOM     17  C   UNL     1      55.487  25.414  49.894  1.00  0.00    -0.000 C 
BRANCH  17  18
ATOM     18  C   UNL     1      54.460  26.380  50.527  1.00  0.00    -0.000 C 
BRANCH  18  19
ATOM     19  C   UNL     1      54.864  27.860  50.418  1.00  0.00    -0.003 C 
ATOM     20  C   UNL     1      53.983  28.779  51.264  1.00  0.00     0.004 C 
ENDBRANCH  18  19
ENDBRANCH  17  18
ENDBRANCH  16  17
ENDBRANCH  15  16
ENDBRANCH  14  15
ENDBRANCH  13  14
ENDBRANCH  12  13
ENDBRANCH   1  12
TORSDOF 16
ENDMDL
MODEL 4
REMARK VINA RESULT:    -3.176      3.275      6.855
REMARK INTER + INTRA:          -8.918
REMARK INTER:                  -6.291
REMARK INTRA:                  -2.627
REMARK UNBOUND:                -2.771
REMARK SMILES CCCCCCCCCCCCCCCCCC(=O)[O-]
REMARK SMILES IDX 10 1 11 2 12 3 13 4 14 5 15 6 16 7 17 8 18 9 19 10 20 11
REMARK SMILES IDX 9 12 8 13 7 14 6 15 5 16 4 17 3 18 2 19 1 20
REMARK H PARENT
REMARK Flexibility Score: inf
ROOT
ATOM      1  C   UNL     1      56.982  26.240  51.623  1.00  0.00     0.000 C 
ENDROOT
BRANCH   1   2
ATOM      2  C   UNL     1      58.092  27.301  51.667  1.00  0.00     0.000 C 
BRANCH   2   3
ATOM      3  C   UNL     1      57.887  28.356  50.573  1.00  0.00     0.000 C 
BRANCH   3   4
ATOM      4  C   UNL     1      59.219  28.734  49.916  1.00  0.00     0.000 C 
BRANCH   4   5
ATOM      5  C   UNL     1      59.890  27.508  49.285  1.00  0.00     0.000 C 
BRANCH   5   6
ATOM      6  C   UNL     1      61.324  27.335  49.807  1.00  0.00     0.000 C 
BRANCH   6   7
ATOM      7  C   UNL     1      61.542  26.001  50.545  1.00  0.00     0.006 C 
BRANCH   7   8
ATOM      8  C   UNL     1      60.493  24.926  50.214  1.00  0.00     0.053 C 
BRANCH   8   9
ATOM      9  C   UNL     1      60.394  23.872  51.275  1.00  0.00     0.041 C 
ATOM     10  O   UNL     1      61.391  23.152  51.545  1.00  0.00    -0.550 OA
ATOM     11  O   UNL     1      59.194  23.660  51.941  1.00  0.00    -0.550 OA
ENDBRANCH   8   9
ENDBRANCH   7   8
ENDBRANCH   6   7
ENDBRANCH   5   6
ENDBRANCH   4   5
ENDBRANCH   3   4
ENDBRANCH   2   3
ENDBRANCH   1   2
BRANCH   1  12
ATOM     12  C   UNL     1      56.690  25.735  50.198  1.00  0.00     0.000 C 
BRANCH  12  13
ATOM     13  C   UNL     1      55.207  25.444  49.901  1.00  0.00    -0.000 C 
BRANCH  13  14
ATOM     14  C   UNL     1      54.247  26.279  50.761  1.00  0.00    -0.000 C 
BRANCH  14  15
ATOM     15  C   UNL     1      53.759  27.518  49.993  1.00  0.00    -0.000 C 
BRANCH  15  16
ATOM     16  C   UNL     1      54.075  28.833  50.729  1.00  0.00    -0.000 C 
BRANCH  16  17
ATOM     17  C   UNL     1      54.309  28.654  52.242  1.00  0.00    -0.000 C 
BRANCH  17  18
ATOM     18  C   UNL     1      55.223  29.742  52.848  1.00  0.00    -0.000 C 
BRANCH  18  19
ATOM     19  C   UNL     1      56.107  29.228  53.997  1.00  0.00    -0.003 C 
ATOM     20  C   UNL     1      55.591  29.644  55.374  1.00  0.00     0.004 C 
ENDBRANCH  18  19
ENDBRANCH  17  18
ENDBRANCH  16  17
ENDBRANCH  15  16
ENDBRANCH  14  15
ENDBRANCH  13  14
ENDBRANCH  12  13
ENDBRANCH   1  12
TORSDOF 16
ENDMDL
MODEL 5
REMARK VINA RESULT:    -3.102      3.882      6.756
REMARK INTER + INTRA:          -8.774
REMARK INTER:                  -6.108
REMARK INTRA:                  -2.666
REMARK UNBOUND:                -2.771
REMARK SMILES CCCCCCCCCCCCCCCCCC(=O)[O-]
REMARK SMILES IDX 10 1 11 2 12 3 13 4 14 5 15 6 16 7 17 8 18 9 19 10 20 11
REMARK SMILES IDX 9 12 8 13 7 14 6 15 5 16 4 17 3 18 2 19 1 20
REMARK H PARENT
REMARK Flexibility Score: inf
ROOT
ATOM      1  C   UNL     1      58.309  28.627  52.882  1.00  0.00     0.000 C 
ENDROOT
BRANCH   1   2
ATOM      2  C   UNL     1      59.246  28.966  51.714  1.00  0.00     0.000 C 
BRANCH   2   3
ATOM      3  C   UNL     1      58.574  28.672  50.368  1.00  0.00     0.000 C 
BRANCH   3   4
ATOM      4  C   UNL     1      59.572  28.065  49.375  1.00  0.00     0.000 C 
BRANCH   4   5
ATOM      5  C   UNL     1      59.988  26.654  49.806  1.00  0.00     0.000 C 
BRANCH   5   6
ATOM      6  C   UNL     1      58.767  25.729  49.919  1.00  0.00     0.000 C 
BRANCH   6   7
ATOM      7  C   UNL     1      58.875  24.724  51.080  1.00  0.00     0.006 C 
BRANCH   7   8
ATOM      8  C   UNL     1      60.309  24.528  51.604  1.00  0.00     0.053 C 
BRANCH   8   9
ATOM      9  C   UNL     1      60.916  23.236  51.148  1.00  0.00     0.041 C 
ATOM     10  O   UNL     1      60.774  22.857  49.956  1.00  0.00    -0.550 OA
ATOM     11  O   UNL     1      61.608  22.433  52.046  1.00  0.00    -0.550 OA
ENDBRANCH   8   9
ENDBRANCH   7   8
ENDBRANCH   6   7
ENDBRANCH   5   6
ENDBRANCH   4   5
ENDBRANCH   3   4
ENDBRANCH   2   3
ENDBRANCH   1   2
BRANCH   1  12
ATOM     12  C   UNL     1      57.108  27.762  52.458  1.00  0.00     0.000 C 
BRANCH  12  13
ATOM     13  C   UNL     1      55.727  28.341  52.818  1.00  0.00    -0.000 C 
BRANCH  13  14
ATOM     14  C   UNL     1      54.939  28.824  51.591  1.00  0.00    -0.000 C 
BRANCH  14  15
ATOM     15  C   UNL     1      55.039  27.809  50.441  1.00  0.00    -0.000 C 
BRANCH  15  16
ATOM     16  C   UNL     1      53.663  27.280  49.997  1.00  0.00    -0.000 C 
BRANCH  16  17
ATOM     17  C   UNL     1      53.634  25.758  49.758  1.00  0.00    -0.000 C 
BRANCH  17  18
ATOM     18  C   UNL     1      54.799  25.012  50.446  1.00  0.00    -0.000 C 
BRANCH  18  19
ATOM     19  C   UNL     1      54.422  24.416  51.812  1.00  0.00    -0.003 C 
ATOM     20  C   UNL     1      55.559  24.499  52.829  1.00  0.00     0.004 C 
ENDBRANCH  18  19
ENDBRANCH  17  18
ENDBRANCH  16  17
ENDBRANCH  15  16
ENDBRANCH  14  15
ENDBRANCH  13  14
ENDBRANCH  12  13
ENDBRANCH   1  12
TORSDOF 16
ENDMDL
MODEL 6
REMARK VINA RESULT:    -3.098      1.270      2.962
REMARK INTER + INTRA:          -8.766
REMARK INTER:                  -6.036
REMARK INTRA:                  -2.730
REMARK UNBOUND:                -2.771
REMARK SMILES CCCCCCCCCCCCCCCCCC(=O)[O-]
REMARK SMILES IDX 10 1 11 2 12 3 13 4 14 5 15 6 16 7 17 8 18 9 19 10 20 11
REMARK SMILES IDX 9 12 8 13 7 14 6 15 5 16 4 17 3 18 2 19 1 20
REMARK H PARENT
REMARK Flexibility Score: inf
ROOT
ATOM      1  C   UNL     1      58.607  24.921  51.094  1.00  0.00     0.000 C 
ENDROOT
BRANCH   1   2
ATOM      2  C   UNL     1      57.529  25.351  50.087  1.00  0.00     0.000 C 
BRANCH   2   3
ATOM      3  C   UNL     1      56.140  25.345  50.736  1.00  0.00     0.000 C 
BRANCH   3   4
ATOM      4  C   UNL     1      55.036  25.325  49.673  1.00  0.00     0.000 C 
BRANCH   4   5
ATOM      5  C   UNL     1      53.990  26.412  49.945  1.00  0.00     0.000 C 
BRANCH   5   6
ATOM      6  C   UNL     1      54.659  27.729  50.367  1.00  0.00     0.000 C 
BRANCH   6   7
ATOM      7  C   UNL     1      54.066  28.323  51.657  1.00  0.00     0.006 C 
BRANCH   7   8
ATOM      8  C   UNL     1      54.272  29.841  51.797  1.00  0.00     0.053 C 
BRANCH   8   9
ATOM      9  C   UNL     1      54.650  30.244  53.190  1.00  0.00     0.041 C 
ATOM     10  O   UNL     1      54.190  29.612  54.178  1.00  0.00    -0.550 OA
ATOM     11  O   UNL     1      55.481  31.337  53.402  1.00  0.00    -0.550 OA
ENDBRANCH   8   9
ENDBRANCH   7   8
ENDBRANCH   6   7
ENDBRANCH   5   6
ENDBRANCH   4   5
ENDBRANCH   3   4
ENDBRANCH   2   3
ENDBRANCH   1   2
BRANCH   1  12
ATOM     12  C   UNL     1      59.979  24.680  50.438  1.00  0.00     0.000 C 
BRANCH  12  13
ATOM     13  C   UNL     1      60.738  25.956  50.027  1.00  0.00    -0.000 C 
BRANCH  13  14
ATOM     14  C   UNL     1      60.760  27.024  51.131  1.00  0.00    -0.000 C 
BRANCH  14  15
ATOM     15  C   UNL     1      60.565  28.429  50.540  1.00  0.00    -0.000 C 
BRANCH  15  16
ATOM     16  C   UNL     1      59.161  28.631  49.942  1.00  0.00    -0.000 C 
BRANCH  16  17
ATOM     17  C   UNL     1      58.040  28.680  50.999  1.00  0.00    -0.000 C 
BRANCH  17  18
ATOM     18  C   UNL     1      58.413  29.522  52.241  1.00  0.00    -0.000 C 
BRANCH  18  19
ATOM     19  C   UNL     1      58.104  28.818  53.572  1.00  0.00    -0.003 C 
ATOM     20  C   UNL     1      57.305  27.529  53.389  1.00  0.00     0.004 C 
ENDBRANCH  18  19
ENDBRANCH  17  18
ENDBRANCH  16  17
ENDBRANCH  15  16
ENDBRANCH  14  15
ENDBRANCH  13  14
ENDBRANCH  12  13
ENDBRANCH   1  12
TORSDOF 16
ENDMDL
MODEL 7
REMARK VINA RESULT:    -3.076     12.619     15.200
REMARK INTER + INTRA:          -8.723
REMARK INTER:                  -7.339
REMARK INTRA:                  -1.385
REMARK UNBOUND:                -2.771
REMARK SMILES CCCCCCCCCCCCCCCCCC(=O)[O-]
REMARK SMILES IDX 10 1 11 2 12 3 13 4 14 5 15 6 16 7 17 8 18 9 19 10 20 11
REMARK SMILES IDX 9 12 8 13 7 14 6 15 5 16 4 17 3 18 2 19 1 20
REMARK H PARENT
REMARK Flexibility Score: inf
ROOT
ATOM      1  C   UNL     1      64.157  29.244  61.291  1.00  0.00     0.000 C 
ENDROOT
BRANCH   1   2
ATOM      2  C   UNL     1      64.561  29.092  59.816  1.00  0.00     0.000 C 
BRANCH   2   3
ATOM      3  C   UNL     1      65.817  28.223  59.678  1.00  0.00     0.000 C 
BRANCH   3   4
ATOM      4  C   UNL     1      66.351  27.806  61.053  1.00  0.00     0.000 C 
BRANCH   4   5
ATOM      5  C   UNL     1      67.777  28.326  61.270  1.00  0.00     0.000 C 
BRANCH   5   6
ATOM      6  C   UNL     1      68.460  28.639  59.931  1.00  0.00     0.000 C 
BRANCH   6   7
ATOM      7  C   UNL     1      69.989  28.770  60.048  1.00  0.00     0.006 C 
BRANCH   7   8
ATOM      8  C   UNL     1      70.475  29.183  61.448  1.00  0.00     0.053 C 
BRANCH   8   9
ATOM      9  C   UNL     1      71.793  29.895  61.412  1.00  0.00     0.041 C 
ATOM     10  O   UNL     1      71.925  30.947  60.733  1.00  0.00    -0.550 OA
ATOM     11  O   UNL     1      72.886  29.380  62.098  1.00  0.00    -0.550 OA
ENDBRANCH   8   9
ENDBRANCH   7   8
ENDBRANCH   6   7
ENDBRANCH   5   6
ENDBRANCH   4   5
ENDBRANCH   3   4
ENDBRANCH   2   3
ENDBRANCH   1   2
BRANCH   1  12
ATOM     12  C   UNL     1      62.723  28.762  61.574  1.00  0.00     0.000 C 
BRANCH  12  13
ATOM     13  C   UNL     1      61.651  29.867  61.572  1.00  0.00    -0.000 C 
BRANCH  13  14
ATOM     14  C   UNL     1      61.089  30.156  60.172  1.00  0.00    -0.000 C 
BRANCH  14  15
ATOM     15  C   UNL     1      61.268  31.637  59.803  1.00  0.00    -0.000 C 
BRANCH  15  16
ATOM     16  C   UNL     1      62.168  32.391  60.799  1.00  0.00    -0.000 C 
BRANCH  16  17
ATOM     17  C   UNL     1      63.393  33.057  60.142  1.00  0.00    -0.000 C 
BRANCH  17  18
ATOM     18  C   UNL     1      64.509  33.408  61.152  1.00  0.00    -0.000 C 
BRANCH  18  19
ATOM     19  C   UNL     1      64.569  34.903  61.502  1.00  0.00    -0.003 C 
ATOM     20  C   UNL     1      63.219  35.602  61.354  1.00  0.00     0.004 C 
ENDBRANCH  18  19
ENDBRANCH  17  18
ENDBRANCH  16  17
ENDBRANCH  15  16
ENDBRANCH  14  15
ENDBRANCH  13  14
ENDBRANCH  12  13
ENDBRANCH   1  12
TORSDOF 16
ENDMDL
MODEL 8
REMARK VINA RESULT:    -3.069      2.622      5.535
REMARK INTER + INTRA:          -8.710
REMARK INTER:                  -5.755
REMARK INTRA:                  -2.955
REMARK UNBOUND:                -2.771
REMARK SMILES CCCCCCCCCCCCCCCCCC(=O)[O-]
REMARK SMILES IDX 10 1 11 2 12 3 13 4 14 5 15 6 16 7 17 8 18 9 19 10 20 11
REMARK SMILES IDX 9 12 8 13 7 14 6 15 5 16 4 17 3 18 2 19 1 20
REMARK H PARENT
REMARK Flexibility Score: inf
ROOT
ATOM      1  C   UNL     1      58.215  25.092  52.572  1.00  0.00     0.000 C 
ENDROOT
BRANCH   1   2
ATOM      2  C   UNL     1      59.022  24.568  51.374  1.00  0.00     0.000 C 
BRANCH   2   3
ATOM      3  C   UNL     1      58.834  25.470  50.149  1.00  0.00     0.000 C 
BRANCH   3   4
ATOM      4  C   UNL     1      60.181  25.995  49.640  1.00  0.00     0.000 C 
BRANCH   4   5
ATOM      5  C   UNL     1      60.263  27.521  49.772  1.00  0.00     0.000 C 
BRANCH   5   6
ATOM      6  C   UNL     1      58.870  28.130  49.994  1.00  0.00     0.000 C 
BRANCH   6   7
ATOM      7  C   UNL     1      58.786  28.998  51.263  1.00  0.00     0.006 C 
BRANCH   7   8
ATOM      8  C   UNL     1      59.720  28.541  52.396  1.00  0.00     0.053 C 
BRANCH   8   9
ATOM      9  C   UNL     1      60.690  29.607  52.808  1.00  0.00     0.041 C 
ATOM     10  O   UNL     1      60.616  30.119  53.955  1.00  0.00    -0.550 OA
ATOM     11  O   UNL     1      61.652  30.060  51.914  1.00  0.00    -0.550 OA
ENDBRANCH   8   9
ENDBRANCH   7   8
ENDBRANCH   6   7
ENDBRANCH   5   6
ENDBRANCH   4   5
ENDBRANCH   3   4
ENDBRANCH   2   3
ENDBRANCH   1   2
BRANCH   1  12
ATOM     12  C   UNL     1      56.777  25.494  52.197  1.00  0.00     0.000 C 
BRANCH  12  13
ATOM     13  C   UNL     1      56.247  26.757  52.903  1.00  0.00    -0.000 C 
BRANCH  13  14
ATOM     14  C   UNL     1      55.423  27.661  51.975  1.00  0.00    -0.000 C 
BRANCH  14  15
ATOM     15  C   UNL     1      55.516  27.184  50.517  1.00  0.00    -0.000 C 
BRANCH  15  16
ATOM     16  C   UNL     1      54.163  26.701  49.965  1.00  0.00    -0.000 C 
BRANCH  16  17
ATOM     17  C   UNL     1      54.242  25.347  49.232  1.00  0.00    -0.000 C 
BRANCH  17  18
ATOM     18  C   UNL     1      53.952  24.139  50.152  1.00  0.00    -0.000 C 
BRANCH  18  19
ATOM     19  C   UNL     1      53.164  24.511  51.419  1.00  0.00    -0.003 C 
ATOM     20  C   UNL     1      53.557  23.667  52.631  1.00  0.00     0.004 C 
ENDBRANCH  18  19
ENDBRANCH  17  18
ENDBRANCH  16  17
ENDBRANCH  15  16
ENDBRANCH  14  15
ENDBRANCH  13  14
ENDBRANCH  12  13
ENDBRANCH   1  12
TORSDOF 16
ENDMDL
MODEL 9
REMARK VINA RESULT:    -2.985      3.582      7.042
REMARK INTER + INTRA:          -8.547
REMARK INTER:                  -6.276
REMARK INTRA:                  -2.271
REMARK UNBOUND:                -2.771
REMARK SMILES CCCCCCCCCCCCCCCCCC(=O)[O-]
REMARK SMILES IDX 10 1 11 2 12 3 13 4 14 5 15 6 16 7 17 8 18 9 19 10 20 11
REMARK SMILES IDX 9 12 8 13 7 14 6 15 5 16 4 17 3 18 2 19 1 20
REMARK H PARENT
REMARK Flexibility Score: inf
ROOT
ATOM      1  C   UNL     1      56.280  25.592  51.422  1.00  0.00     0.000 C 
ENDROOT
BRANCH   1   2
ATOM      2  C   UNL     1      56.862  26.933  51.894  1.00  0.00     0.000 C 
BRANCH   2   3
ATOM      3  C   UNL     1      57.059  27.892  50.714  1.00  0.00     0.000 C 
BRANCH   3   4
ATOM      4  C   UNL     1      58.396  28.634  50.825  1.00  0.00     0.000 C 
BRANCH   4   5
ATOM      5  C   UNL     1      59.296  28.328  49.622  1.00  0.00     0.000 C 
BRANCH   5   6
ATOM      6  C   UNL     1      60.035  26.995  49.810  1.00  0.00     0.000 C 
BRANCH   6   7
ATOM      7  C   UNL     1      61.563  27.127  49.680  1.00  0.00     0.006 C 
BRANCH   7   8
ATOM      8  C   UNL     1      62.139  28.391  50.342  1.00  0.00     0.053 C 
BRANCH   8   9
ATOM      9  C   UNL     1      63.584  28.605  50.011  1.00  0.00     0.041 C 
ATOM     10  O   UNL     1      63.966  29.704  49.529  1.00  0.00    -0.550 OA
ATOM     11  O   UNL     1      64.505  27.583  50.201  1.00  0.00    -0.550 OA
ENDBRANCH   8   9
ENDBRANCH   7   8
ENDBRANCH   6   7
ENDBRANCH   5   6
ENDBRANCH   4   5
ENDBRANCH   3   4
ENDBRANCH   2   3
ENDBRANCH   1   2
BRANCH   1  12
ATOM     12  C   UNL     1      56.006  25.556  49.908  1.00  0.00     0.000 C 
BRANCH  12  13
ATOM     13  C   UNL     1      54.584  25.117  49.512  1.00  0.00    -0.000 C 
BRANCH  13  14
ATOM     14  C   UNL     1      53.491  25.796  50.349  1.00  0.00    -0.000 C 
BRANCH  14  15
ATOM     15  C   UNL     1      53.127  27.171  49.767  1.00  0.00    -0.000 C 
BRANCH  15  16
ATOM     16  C   UNL     1      53.539  28.333  50.688  1.00  0.00    -0.000 C 
BRANCH  16  17
ATOM     17  C   UNL     1      53.025  28.187  52.134  1.00  0.00    -0.000 C 
BRANCH  17  18
ATOM     18  C   UNL     1      53.933  28.881  53.175  1.00  0.00    -0.000 C 
BRANCH  18  19
ATOM     19  C   UNL     1      54.713  30.077  52.605  1.00  0.00    -0.003 C 
ATOM     20  C   UNL     1      55.935  30.443  53.447  1.00  0.00     0.004 C 
ENDBRANCH  18  19
ENDBRANCH  17  18
ENDBRANCH  16  17
ENDBRANCH  15  16
ENDBRANCH  14  15
ENDBRANCH  13  14
ENDBRANCH  12  13
ENDBRANCH   1  12
TORSDOF 16
ENDMDL
