MODEL 1
REMARK VINA RESULT:    -3.176      0.000      0.000
REMARK INTER + INTRA:          -7.504
REMARK INTER:                  -5.775
REMARK INTRA:                  -1.729
REMARK UNBOUND:                -1.729
REMARK SMILES CCCCCCCCCCCCCC[C@@H](C)C(=O)[O-]
REMARK SMILES IDX 9 1 10 2 11 3 12 4 13 5 14 6 15 7 16 8 17 9 18 10 19 11 8 12
REMARK SMILES IDX 7 13 6 14 5 15 4 16 3 17 2 18 1 19
REMARK H PARENT
REMARK Flexibility Score: inf
ROOT
ATOM      1  C   UNL     1       6.939  -0.564  -3.628  1.00  0.00     0.000 C 
ENDROOT
BRANCH   1   2
ATOM      2  C   UNL     1       7.081   0.779  -2.896  1.00  0.00     0.000 C 
BRANCH   2   3
ATOM      3  C   UNL     1       8.406   0.896  -2.127  1.00  0.00     0.000 C 
BRANCH   3   4
ATOM      4  C   UNL     1       8.169   1.412  -0.700  1.00  0.00     0.000 C 
BRANCH   4   5
ATOM      5  C   UNL     1       9.461   1.478   0.132  1.00  0.00     0.001 C 
BRANCH   5   6
ATOM      6  C   UNL     1       9.299   2.322   1.410  1.00  0.00     0.009 C 
BRANCH   6   7
ATOM      7  C   UNL     1       8.094   1.877   2.269  1.00  0.00     0.032 C 
ATOM      8  C   UNL     1       8.523   1.107   3.525  1.00  0.00     0.014 C 
BRANCH   7   9
ATOM      9  C   UNL     1       7.275   3.075   2.664  1.00  0.00     0.044 C 
ATOM     10  O   UNL     1       6.922   3.922   1.799  1.00  0.00    -0.550 OA
ATOM     11  O   UNL     1       6.904   3.256   3.990  1.00  0.00    -0.550 OA
ENDBRANCH   7   9
ENDBRANCH   6   7
ENDBRANCH   5   6
ENDBRANCH   4   5
ENDBRANCH   3   4
ENDBRANCH   2   3
ENDBRANCH   1   2
BRANCH   1  12
ATOM     12  C   UNL     1       7.327  -1.764  -2.746  1.00  0.00     0.000 C 
BRANCH  12  13
ATOM     13  C   UNL     1       8.531  -2.543  -3.300  1.00  0.00    -0.000 C 
BRANCH  13  14
ATOM     14  C   UNL     1       9.562  -2.887  -2.212  1.00  0.00    -0.000 C 
BRANCH  14  15
ATOM     15  C   UNL     1       8.923  -3.046  -0.823  1.00  0.00    -0.000 C 
BRANCH  15  16
ATOM     16  C   UNL     1       9.487  -2.056   0.208  1.00  0.00    -0.000 C 
BRANCH  16  17
ATOM     17  C   UNL     1       8.707  -2.138   1.529  1.00  0.00    -0.000 C 
BRANCH  17  18
ATOM     18  C   UNL     1       9.142  -3.328   2.398  1.00  0.00    -0.003 C 
ATOM     19  C   UNL     1       8.162  -4.500   2.330  1.00  0.00     0.004 C 
ENDBRANCH  17  18
ENDBRANCH  16  17
ENDBRANCH  15  16
ENDBRANCH  14  15
ENDBRANCH  13  14
ENDBRANCH  12  13
ENDBRANCH   1  12
TORSDOF 14
ENDMDL
MODEL 2
REMARK VINA RESULT:    -3.170      1.236      3.951
REMARK INTER + INTRA:          -7.492
REMARK INTER:                  -5.498
REMARK INTRA:                  -1.994
REMARK UNBOUND:                -1.729
REMARK SMILES CCCCCCCCCCCCCC[C@@H](C)C(=O)[O-]
REMARK SMILES IDX 9 1 10 2 11 3 12 4 13 5 14 6 15 7 16 8 17 9 18 10 19 11 8 12
REMARK SMILES IDX 7 13 6 14 5 15 4 16 3 17 2 18 1 19
REMARK H PARENT
REMARK Flexibility Score: inf
ROOT
ATOM      1  C   UNL     1       8.823  -3.512  -0.789  1.00  0.00     0.000 C 
ENDROOT
BRANCH   1   2
ATOM      2  C   UNL     1       9.041  -2.609   0.435  1.00  0.00     0.000 C 
BRANCH   2   3
ATOM      3  C   UNL     1      10.101  -1.525   0.189  1.00  0.00     0.000 C 
BRANCH   3   4
ATOM      4  C   UNL     1      10.143  -0.524   1.353  1.00  0.00     0.000 C 
BRANCH   4   5
ATOM      5  C   UNL     1       8.743  -0.153   1.871  1.00  0.00     0.001 C 
BRANCH   5   6
ATOM      6  C   UNL     1       8.597   1.354   2.155  1.00  0.00     0.009 C 
BRANCH   6   7
ATOM      7  C   UNL     1       7.549   1.654   3.249  1.00  0.00     0.032 C 
ATOM      8  C   UNL     1       8.084   1.386   4.663  1.00  0.00     0.014 C 
BRANCH   7   9
ATOM      9  C   UNL     1       7.091   3.083   3.143  1.00  0.00     0.044 C 
ATOM     10  O   UNL     1       6.867   3.762   4.180  1.00  0.00    -0.550 OA
ATOM     11  O   UNL     1       6.912   3.663   1.893  1.00  0.00    -0.550 OA
ENDBRANCH   7   9
ENDBRANCH   6   7
ENDBRANCH   5   6
ENDBRANCH   4   5
ENDBRANCH   3   4
ENDBRANCH   2   3
ENDBRANCH   1   2
BRANCH   1  12
ATOM     12  C   UNL     1       8.995  -2.758  -2.119  1.00  0.00     0.000 C 
BRANCH  12  13
ATOM     13  C   UNL     1       7.692  -2.681  -2.931  1.00  0.00    -0.000 C 
BRANCH  13  14
ATOM     14  C   UNL     1       7.174  -1.240  -3.079  1.00  0.00    -0.000 C 
BRANCH  14  15
ATOM     15  C   UNL     1       8.260  -0.191  -2.790  1.00  0.00    -0.000 C 
BRANCH  15  16
ATOM     16  C   UNL     1       7.893   0.737  -1.621  1.00  0.00    -0.000 C 
BRANCH  16  17
ATOM     17  C   UNL     1       8.939   1.851  -1.459  1.00  0.00    -0.000 C 
BRANCH  17  18
ATOM     18  C   UNL     1       8.303   3.245  -1.346  1.00  0.00    -0.003 C 
ATOM     19  C   UNL     1       6.846   3.271  -1.808  1.00  0.00     0.004 C 
ENDBRANCH  17  18
ENDBRANCH  16  17
ENDBRANCH  15  16
ENDBRANCH  14  15
ENDBRANCH  13  14
ENDBRANCH  12  13
ENDBRANCH   1  12
TORSDOF 14
ENDMDL
MODEL 3
REMARK VINA RESULT:    -3.153      2.552      5.114
REMARK INTER + INTRA:          -7.462
REMARK INTER:                  -5.876
REMARK INTRA:                  -1.586
REMARK UNBOUND:                -1.729
REMARK SMILES CCCCCCCCCCCCCC[C@@H](C)C(=O)[O-]
REMARK SMILES IDX 9 1 10 2 11 3 12 4 13 5 14 6 15 7 16 8 17 9 18 10 19 11 8 12
REMARK SMILES IDX 7 13 6 14 5 15 4 16 3 17 2 18 1 19
REMARK H PARENT
REMARK Flexibility Score: inf
ROOT
ATOM      1  C   UNL     1       6.822   0.689  -3.060  1.00  0.00     0.000 C 
ENDROOT
BRANCH   1   2
ATOM      2  C   UNL     1       7.609  -0.338  -2.231  1.00  0.00     0.000 C 
BRANCH   2   3
ATOM      3  C   UNL     1       7.513  -1.760  -2.804  1.00  0.00     0.000 C 
BRANCH   3   4
ATOM      4  C   UNL     1       8.412  -2.729  -2.021  1.00  0.00     0.000 C 
BRANCH   4   5
ATOM      5  C   UNL     1       8.726  -2.234  -0.600  1.00  0.00     0.001 C 
BRANCH   5   6
ATOM      6  C   UNL     1       9.334  -3.335   0.290  1.00  0.00     0.009 C 
BRANCH   6   7
ATOM      7  C   UNL     1       8.857  -3.245   1.756  1.00  0.00     0.032 C 
ATOM      8  C   UNL     1       8.155  -4.528   2.223  1.00  0.00     0.014 C 
BRANCH   7   9
ATOM      9  C   UNL     1      10.025  -2.950   2.658  1.00  0.00     0.044 C 
ATOM     10  O   UNL     1      11.201  -3.216   2.290  1.00  0.00    -0.550 OA
ATOM     11  O   UNL     1       9.810  -2.381   3.907  1.00  0.00    -0.550 OA
ENDBRANCH   7   9
ENDBRANCH   6   7
ENDBRANCH   5   6
ENDBRANCH   4   5
ENDBRANCH   3   4
ENDBRANCH   2   3
ENDBRANCH   1   2
BRANCH   1  12
ATOM     12  C   UNL     1       7.049   2.134  -2.583  1.00  0.00     0.000 C 
BRANCH  12  13
ATOM     13  C   UNL     1       8.143   2.240  -1.508  1.00  0.00    -0.000 C 
BRANCH  13  14
ATOM     14  C   UNL     1       7.752   3.187  -0.361  1.00  0.00    -0.000 C 
BRANCH  14  15
ATOM     15  C   UNL     1       8.191   2.659   1.015  1.00  0.00    -0.000 C 
BRANCH  15  16
ATOM     16  C   UNL     1       8.925   1.312   0.928  1.00  0.00    -0.000 C 
BRANCH  16  17
ATOM     17  C   UNL     1       8.681   0.474   2.192  1.00  0.00    -0.000 C 
BRANCH  17  18
ATOM     18  C   UNL     1       7.892   1.240   3.264  1.00  0.00    -0.003 C 
ATOM     19  C   UNL     1       8.626   1.309   4.604  1.00  0.00     0.004 C 
ENDBRANCH  17  18
ENDBRANCH  16  17
ENDBRANCH  15  16
ENDBRANCH  14  15
ENDBRANCH  13  14
ENDBRANCH  12  13
ENDBRANCH   1  12
TORSDOF 14
ENDMDL
MODEL 4
REMARK VINA RESULT:    -3.128      1.591      2.437
REMARK INTER + INTRA:          -7.416
REMARK INTER:                  -5.661
REMARK INTRA:                  -1.755
REMARK UNBOUND:                -1.729
REMARK SMILES CCCCCCCCCCCCCC[C@@H](C)C(=O)[O-]
REMARK SMILES IDX 9 1 10 2 11 3 12 4 13 5 14 6 15 7 16 8 17 9 18 10 19 11 8 12
REMARK SMILES IDX 7 13 6 14 5 15 4 16 3 17 2 18 1 19
REMARK H PARENT
REMARK Flexibility Score: inf
ROOT
ATOM      1  C   UNL     1       7.245  -2.557  -3.593  1.00  0.00     0.000 C 
ENDROOT
BRANCH   1   2
ATOM      2  C   UNL     1       7.666  -1.529  -2.530  1.00  0.00     0.000 C 
BRANCH   2   3
ATOM      3  C   UNL     1       7.254  -0.096  -2.898  1.00  0.00     0.000 C 
BRANCH   3   4
ATOM      4  C   UNL     1       7.618   0.885  -1.773  1.00  0.00     0.000 C 
BRANCH   4   5
ATOM      5  C   UNL     1       7.416   2.355  -2.176  1.00  0.00     0.001 C 
BRANCH   5   6
ATOM      6  C   UNL     1       8.193   3.329  -1.270  1.00  0.00     0.009 C 
BRANCH   6   7
ATOM      7  C   UNL     1       8.116   2.942   0.223  1.00  0.00     0.032 C 
ATOM      8  C   UNL     1       9.482   3.017   0.919  1.00  0.00     0.014 C 
BRANCH   7   9
ATOM      9  C   UNL     1       7.135   3.835   0.934  1.00  0.00     0.044 C 
ATOM     10  O   UNL     1       6.584   4.791   0.326  1.00  0.00    -0.550 OA
ATOM     11  O   UNL     1       6.833   3.607   2.270  1.00  0.00    -0.550 OA
ENDBRANCH   7   9
ENDBRANCH   6   7
ENDBRANCH   5   6
ENDBRANCH   4   5
ENDBRANCH   3   4
ENDBRANCH   2   3
ENDBRANCH   1   2
BRANCH   1  12
ATOM     12  C   UNL     1       7.540  -4.006  -3.166  1.00  0.00     0.000 C 
BRANCH  12  13
ATOM     13  C   UNL     1       8.911  -4.156  -2.487  1.00  0.00    -0.000 C 
BRANCH  13  14
ATOM     14  C   UNL     1       8.869  -5.105  -1.276  1.00  0.00    -0.000 C 
BRANCH  14  15
ATOM     15  C   UNL     1       9.973  -4.803  -0.251  1.00  0.00    -0.000 C 
BRANCH  15  16
ATOM     16  C   UNL     1      10.143  -3.299   0.014  1.00  0.00    -0.000 C 
BRANCH  16  17
ATOM     17  C   UNL     1       9.001  -2.767   0.893  1.00  0.00    -0.000 C 
BRANCH  17  18
ATOM     18  C   UNL     1       8.992  -1.233   0.985  1.00  0.00    -0.003 C 
ATOM     19  C   UNL     1      10.223  -0.595   0.342  1.00  0.00     0.004 C 
ENDBRANCH  17  18
ENDBRANCH  16  17
ENDBRANCH  15  16
ENDBRANCH  14  15
ENDBRANCH  13  14
ENDBRANCH  12  13
ENDBRANCH   1  12
TORSDOF 14
ENDMDL
MODEL 5
REMARK VINA RESULT:    -3.103      3.782      6.437
REMARK INTER + INTRA:          -7.372
REMARK INTER:                  -6.008
REMARK INTRA:                  -1.364
REMARK UNBOUND:                -1.729
REMARK SMILES CCCCCCCCCCCCCC[C@@H](C)C(=O)[O-]
REMARK SMILES IDX 9 1 10 2 11 3 12 4 13 5 14 6 15 7 16 8 17 9 18 10 19 11 8 12
REMARK SMILES IDX 7 13 6 14 5 15 4 16 3 17 2 18 1 19
REMARK H PARENT
REMARK Flexibility Score: inf
ROOT
ATOM      1  C   UNL     1       6.936   0.102  -4.032  1.00  0.00     0.000 C 
ENDROOT
BRANCH   1   2
ATOM      2  C   UNL     1       7.303   0.391  -2.568  1.00  0.00     0.000 C 
BRANCH   2   3
ATOM      3  C   UNL     1       8.007  -0.795  -1.890  1.00  0.00     0.000 C 
BRANCH   3   4
ATOM      4  C   UNL     1       7.684  -2.111  -2.613  1.00  0.00     0.000 C 
BRANCH   4   5
ATOM      5  C   UNL     1       8.377  -3.327  -1.976  1.00  0.00     0.001 C 
BRANCH   5   6
ATOM      6  C   UNL     1       9.063  -2.984  -0.640  1.00  0.00     0.009 C 
BRANCH   6   7
ATOM      7  C   UNL     1       9.081  -4.175   0.343  1.00  0.00     0.032 C 
ATOM      8  C   UNL     1      10.502  -4.690   0.613  1.00  0.00     0.014 C 
BRANCH   7   9
ATOM      9  C   UNL     1       8.429  -3.781   1.640  1.00  0.00     0.044 C 
ATOM     10  O   UNL     1       7.761  -4.621   2.301  1.00  0.00    -0.550 OA
ATOM     11  O   UNL     1       8.561  -2.483   2.116  1.00  0.00    -0.550 OA
ENDBRANCH   7   9
ENDBRANCH   6   7
ENDBRANCH   5   6
ENDBRANCH   4   5
ENDBRANCH   3   4
ENDBRANCH   2   3
ENDBRANCH   1   2
BRANCH   1  12
ATOM     12  C   UNL     1       5.507   0.552  -4.383  1.00  0.00     0.000 C 
BRANCH  12  13
ATOM     13  C   UNL     1       4.677  -0.564  -5.037  1.00  0.00    -0.000 C 
BRANCH  13  14
ATOM     14  C   UNL     1       5.553  -1.628  -5.720  1.00  0.00    -0.000 C 
BRANCH  14  15
ATOM     15  C   UNL     1       5.348  -3.032  -5.127  1.00  0.00    -0.000 C 
BRANCH  15  16
ATOM     16  C   UNL     1       4.742  -4.019  -6.137  1.00  0.00    -0.000 C 
BRANCH  16  17
ATOM     17  C   UNL     1       3.255  -3.716  -6.373  1.00  0.00    -0.000 C 
BRANCH  17  18
ATOM     18  C   UNL     1       2.418  -3.827  -5.090  1.00  0.00    -0.003 C 
ATOM     19  C   UNL     1       1.543  -2.598  -4.845  1.00  0.00     0.004 C 
ENDBRANCH  17  18
ENDBRANCH  16  17
ENDBRANCH  15  16
ENDBRANCH  14  15
ENDBRANCH  13  14
ENDBRANCH  12  13
ENDBRANCH   1  12
TORSDOF 14
ENDMDL
MODEL 6
REMARK VINA RESULT:    -3.093      4.698      6.667
REMARK INTER + INTRA:          -7.353
REMARK INTER:                  -6.112
REMARK INTRA:                  -1.241
REMARK UNBOUND:                -1.729
REMARK SMILES CCCCCCCCCCCCCC[C@@H](C)C(=O)[O-]
REMARK SMILES IDX 9 1 10 2 11 3 12 4 13 5 14 6 15 7 16 8 17 9 18 10 19 11 8 12
REMARK SMILES IDX 7 13 6 14 5 15 4 16 3 17 2 18 1 19
REMARK H PARENT
REMARK Flexibility Score: inf
ROOT
ATOM      1  C   UNL     1       6.025  -4.060  -4.744  1.00  0.00     0.000 C 
ENDROOT
BRANCH   1   2
ATOM      2  C   UNL     1       6.514  -2.643  -4.408  1.00  0.00     0.000 C 
BRANCH   2   3
ATOM      3  C   UNL     1       7.417  -2.608  -3.166  1.00  0.00     0.000 C 
BRANCH   3   4
ATOM      4  C   UNL     1       7.590  -1.170  -2.654  1.00  0.00     0.000 C 
BRANCH   4   5
ATOM      5  C   UNL     1       8.353  -1.100  -1.321  1.00  0.00     0.001 C 
BRANCH   5   6
ATOM      6  C   UNL     1       9.240  -2.336  -1.081  1.00  0.00     0.009 C 
BRANCH   6   7
ATOM      7  C   UNL     1       9.466  -2.625   0.419  1.00  0.00     0.032 C 
ATOM      8  C   UNL     1       8.848  -1.549   1.322  1.00  0.00     0.014 C 
BRANCH   7   9
ATOM      9  C   UNL     1       8.898  -3.972   0.774  1.00  0.00     0.044 C 
ATOM     10  O   UNL     1       9.033  -4.950  -0.010  1.00  0.00    -0.550 OA
ATOM     11  O   UNL     1       8.217  -4.144   1.972  1.00  0.00    -0.550 OA
ENDBRANCH   7   9
ENDBRANCH   6   7
ENDBRANCH   5   6
ENDBRANCH   4   5
ENDBRANCH   3   4
ENDBRANCH   2   3
ENDBRANCH   1   2
BRANCH   1  12
ATOM     12  C   UNL     1       6.721  -5.143  -3.901  1.00  0.00     0.000 C 
BRANCH  12  13
ATOM     13  C   UNL     1       5.811  -6.348  -3.613  1.00  0.00    -0.000 C 
BRANCH  13  14
ATOM     14  C   UNL     1       4.494  -6.294  -4.406  1.00  0.00    -0.000 C 
BRANCH  14  15
ATOM     15  C   UNL     1       3.259  -6.221  -3.493  1.00  0.00    -0.000 C 
BRANCH  15  16
ATOM     16  C   UNL     1       2.017  -5.677  -4.217  1.00  0.00    -0.000 C 
BRANCH  16  17
ATOM     17  C   UNL     1       2.390  -4.504  -5.135  1.00  0.00    -0.000 C 
BRANCH  17  18
ATOM     18  C   UNL     1       1.509  -3.267  -4.901  1.00  0.00    -0.003 C 
ATOM     19  C   UNL     1       2.272  -1.954  -5.079  1.00  0.00     0.004 C 
ENDBRANCH  17  18
ENDBRANCH  16  17
ENDBRANCH  15  16
ENDBRANCH  14  15
ENDBRANCH  13  14
ENDBRANCH  12  13
ENDBRANCH   1  12
TORSDOF 14
ENDMDL
MODEL 7
REMARK VINA RESULT:    -3.093      4.942      7.396
REMARK INTER + INTRA:          -7.352
REMARK INTER:                  -5.832
REMARK INTRA:                  -1.520
REMARK UNBOUND:                -1.729
REMARK SMILES CCCCCCCCCCCCCC[C@@H](C)C(=O)[O-]
REMARK SMILES IDX 9 1 10 2 11 3 12 4 13 5 14 6 15 7 16 8 17 9 18 10 19 11 8 12
REMARK SMILES IDX 7 13 6 14 5 15 4 16 3 17 2 18 1 19
REMARK H PARENT
REMARK Flexibility Score: inf
ROOT
ATOM      1  C   UNL     1       8.233  -2.103  -2.021  1.00  0.00     0.000 C 
ENDROOT
BRANCH   1   2
ATOM      2  C   UNL     1       7.296  -1.261  -2.902  1.00  0.00     0.000 C 
BRANCH   2   3
ATOM      3  C   UNL     1       7.293   0.224  -2.510  1.00  0.00     0.000 C 
BRANCH   3   4
ATOM      4  C   UNL     1       6.469   1.053  -3.507  1.00  0.00     0.000 C 
BRANCH   4   5
ATOM      5  C   UNL     1       5.954   0.219  -4.693  1.00  0.00     0.001 C 
BRANCH   5   6
ATOM      6  C   UNL     1       4.422   0.282  -4.839  1.00  0.00     0.009 C 
BRANCH   6   7
ATOM      7  C   UNL     1       3.861  -0.859  -5.716  1.00  0.00     0.032 C 
ATOM      8  C   UNL     1       4.567  -2.198  -5.457  1.00  0.00     0.014 C 
BRANCH   7   9
ATOM      9  C   UNL     1       2.384  -1.011  -5.477  1.00  0.00     0.044 C 
ATOM     10  O   UNL     1       1.638  -1.497  -6.368  1.00  0.00    -0.550 OA
ATOM     11  O   UNL     1       1.832  -0.612  -4.266  1.00  0.00    -0.550 OA
ENDBRANCH   7   9
ENDBRANCH   6   7
ENDBRANCH   5   6
ENDBRANCH   4   5
ENDBRANCH   3   4
ENDBRANCH   2   3
ENDBRANCH   1   2
BRANCH   1  12
ATOM     12  C   UNL     1       8.244  -3.589  -2.420  1.00  0.00     0.000 C 
BRANCH  12  13
ATOM     13  C   UNL     1       7.198  -3.923  -3.497  1.00  0.00    -0.000 C 
BRANCH  13  14
ATOM     14  C   UNL     1       6.845  -5.420  -3.532  1.00  0.00    -0.000 C 
BRANCH  14  15
ATOM     15  C   UNL     1       5.698  -5.732  -4.507  1.00  0.00    -0.000 C 
BRANCH  15  16
ATOM     16  C   UNL     1       4.768  -6.842  -3.994  1.00  0.00    -0.000 C 
BRANCH  16  17
ATOM     17  C   UNL     1       3.461  -6.249  -3.444  1.00  0.00    -0.000 C 
BRANCH  17  18
ATOM     18  C   UNL     1       2.394  -6.061  -4.534  1.00  0.00    -0.003 C 
ATOM     19  C   UNL     1       1.871  -4.626  -4.609  1.00  0.00     0.004 C 
ENDBRANCH  17  18
ENDBRANCH  16  17
ENDBRANCH  15  16
ENDBRANCH  14  15
ENDBRANCH  13  14
ENDBRANCH  12  13
ENDBRANCH   1  12
TORSDOF 14
ENDMDL
MODEL 8
REMARK VINA RESULT:    -3.080      2.414      5.139
REMARK INTER + INTRA:          -7.329
REMARK INTER:                  -5.664
REMARK INTRA:                  -1.665
REMARK UNBOUND:                -1.729
REMARK SMILES CCCCCCCCCCCCCC[C@@H](C)C(=O)[O-]
REMARK SMILES IDX 9 1 10 2 11 3 12 4 13 5 14 6 15 7 16 8 17 9 18 10 19 11 8 12
REMARK SMILES IDX 7 13 6 14 5 15 4 16 3 17 2 18 1 19
REMARK H PARENT
REMARK Flexibility Score: inf
ROOT
ATOM      1  C   UNL     1       7.109  -1.842  -3.217  1.00  0.00     0.000 C 
ENDROOT
BRANCH   1   2
ATOM      2  C   UNL     1       7.611  -3.289  -3.337  1.00  0.00     0.000 C 
BRANCH   2   3
ATOM      3  C   UNL     1       8.849  -3.560  -2.469  1.00  0.00     0.000 C 
BRANCH   3   4
ATOM      4  C   UNL     1       8.686  -4.865  -1.674  1.00  0.00     0.000 C 
BRANCH   4   5
ATOM      5  C   UNL     1       9.120  -4.726  -0.205  1.00  0.00     0.001 C 
BRANCH   5   6
ATOM      6  C   UNL     1       9.117  -3.263   0.276  1.00  0.00     0.009 C 
BRANCH   6   7
ATOM      7  C   UNL     1       8.687  -3.123   1.753  1.00  0.00     0.032 C 
ATOM      8  C   UNL     1       8.246  -4.461   2.364  1.00  0.00     0.014 C 
BRANCH   7   9
ATOM      9  C   UNL     1       9.814  -2.543   2.564  1.00  0.00     0.044 C 
ATOM     10  O   UNL     1       9.709  -2.426   3.814  1.00  0.00    -0.550 OA
ATOM     11  O   UNL     1      10.981  -2.131   1.933  1.00  0.00    -0.550 OA
ENDBRANCH   7   9
ENDBRANCH   6   7
ENDBRANCH   5   6
ENDBRANCH   4   5
ENDBRANCH   3   4
ENDBRANCH   2   3
ENDBRANCH   1   2
BRANCH   1  12
ATOM     12  C   UNL     1       7.847  -1.048  -2.124  1.00  0.00     0.000 C 
BRANCH  12  13
ATOM     13  C   UNL     1       7.546   0.459  -2.180  1.00  0.00    -0.000 C 
BRANCH  13  14
ATOM     14  C   UNL     1       8.273   1.246  -1.075  1.00  0.00    -0.000 C 
BRANCH  14  15
ATOM     15  C   UNL     1       9.150   0.346  -0.190  1.00  0.00    -0.000 C 
BRANCH  15  16
ATOM     16  C   UNL     1       9.915   1.135   0.884  1.00  0.00    -0.000 C 
BRANCH  16  17
ATOM     17  C   UNL     1       9.150   1.128   2.216  1.00  0.00    -0.000 C 
BRANCH  17  18
ATOM     18  C   UNL     1       8.706   2.533   2.649  1.00  0.00    -0.003 C 
ATOM     19  C   UNL     1       7.226   2.595   3.029  1.00  0.00     0.004 C 
ENDBRANCH  17  18
ENDBRANCH  16  17
ENDBRANCH  15  16
ENDBRANCH  14  15
ENDBRANCH  13  14
ENDBRANCH  12  13
ENDBRANCH   1  12
TORSDOF 14
ENDMDL
MODEL 9
REMARK VINA RESULT:    -3.056      3.245      5.541
REMARK INTER + INTRA:          -7.287
REMARK INTER:                  -4.795
REMARK INTRA:                  -2.492
REMARK UNBOUND:                -1.729
REMARK SMILES CCCCCCCCCCCCCC[C@@H](C)C(=O)[O-]
REMARK SMILES IDX 9 1 10 2 11 3 12 4 13 5 14 6 15 7 16 8 17 9 18 10 19 11 8 12
REMARK SMILES IDX 7 13 6 14 5 15 4 16 3 17 2 18 1 19
REMARK H PARENT
REMARK Flexibility Score: inf
ROOT
ATOM      1  C   UNL     1       7.716  -0.405  -4.009  1.00  0.00     0.000 C 
ENDROOT
BRANCH   1   2
ATOM      2  C   UNL     1       7.271  -1.373  -2.902  1.00  0.00     0.000 C 
BRANCH   2   3
ATOM      3  C   UNL     1       7.432  -2.847  -3.306  1.00  0.00     0.000 C 
BRANCH   3   4
ATOM      4  C   UNL     1       8.302  -3.602  -2.290  1.00  0.00     0.000 C 
BRANCH   4   5
ATOM      5  C   UNL     1       8.659  -2.750  -1.061  1.00  0.00     0.001 C 
BRANCH   5   6
ATOM      6  C   UNL     1       9.836  -3.334  -0.257  1.00  0.00     0.009 C 
BRANCH   6   7
ATOM      7  C   UNL     1       9.518  -3.477   1.247  1.00  0.00     0.032 C 
ATOM      8  C   UNL     1       8.814  -2.237   1.817  1.00  0.00     0.014 C 
BRANCH   7   9
ATOM      9  C   UNL     1       8.664  -4.694   1.477  1.00  0.00     0.044 C 
ATOM     10  O   UNL     1       7.721  -4.666   2.312  1.00  0.00    -0.550 OA
ATOM     11  O   UNL     1       8.915  -5.861   0.766  1.00  0.00    -0.550 OA
ENDBRANCH   7   9
ENDBRANCH   6   7
ENDBRANCH   5   6
ENDBRANCH   4   5
ENDBRANCH   3   4
ENDBRANCH   2   3
ENDBRANCH   1   2
BRANCH   1  12
ATOM     12  C   UNL     1       8.070   0.992  -3.467  1.00  0.00     0.000 C 
BRANCH  12  13
ATOM     13  C   UNL     1       7.297   1.345  -2.186  1.00  0.00    -0.000 C 
BRANCH  13  14
ATOM     14  C   UNL     1       8.128   2.197  -1.212  1.00  0.00    -0.000 C 
BRANCH  14  15
ATOM     15  C   UNL     1       8.855   1.347  -0.158  1.00  0.00    -0.000 C 
BRANCH  15  16
ATOM     16  C   UNL     1      10.379   1.336  -0.352  1.00  0.00    -0.000 C 
BRANCH  16  17
ATOM     17  C   UNL     1      10.842   0.008  -0.970  1.00  0.00    -0.000 C 
BRANCH  17  18
ATOM     18  C   UNL     1      11.509   0.196  -2.340  1.00  0.00    -0.003 C 
ATOM     19  C   UNL     1      11.312  -1.006  -3.265  1.00  0.00     0.004 C 
ENDBRANCH  17  18
ENDBRANCH  16  17
ENDBRANCH  15  16
ENDBRANCH  14  15
ENDBRANCH  13  14
ENDBRANCH  12  13
ENDBRANCH   1  12
TORSDOF 14
ENDMDL
