MODEL 1
REMARK VINA RESULT:    32.622      0.000      0.000
REMARK INTER + INTRA:          51.893
REMARK INTER:                  53.600
REMARK INTRA:                  -1.707
REMARK UNBOUND:                -1.707
REMARK SMILES C[C@H]1O[C@@H](OC[C@@H]2O[C@H](Oc3c(-c4ccc(O)c(O)c4)oc4cc(O)cc(O)c4c3=O)[C@H](O)[C@@H](O)[C@@H]2O)[C@@H](O)[C@@H](O)[C@@H]1O
REMARK SMILES IDX 7 1 36 2 34 3 32 4 9 5 8 6 6 7 5 8 4 9 1 10 2 11 42 12 3 13
REMARK SMILES IDX 40 14 38 15 43 16 41 18 39 20 37 22 35 24 10 26 11 27 12 28
REMARK SMILES IDX 30 29 21 30 29 31 31 32 22 33 27 34 23 35 26 36 24 37 13 38
REMARK SMILES IDX 20 39 14 40 18 41 15 42 16 43 19 44 17 46 28 48 25 50 33 52
REMARK H PARENT 43 17 41 19 39 21 37 23 35 25 19 45 17 47 28 49 25 51 33 53
REMARK Flexibility Score: inf
ROOT
ATOM      1  C   UNL     1      -4.452  10.405  -8.432  1.00  0.00     0.180 C 
ATOM      2  C   UNL     1      -4.927  11.770  -9.016  1.00  0.00     0.177 C 
ATOM      3  C   UNL     1      -4.059  12.907  -8.515  1.00  0.00     0.180 C 
ATOM      4  C   UNL     1      -3.923  12.825  -7.003  1.00  0.00     0.214 C 
ATOM      5  C   UNL     1      -3.387  11.429  -6.608  1.00  0.00     0.339 C 
ATOM      6  O   UNL     1      -4.242  10.429  -7.041  1.00  0.00    -0.332 OA
ENDROOT
BRANCH   1   7
ATOM      7  C   UNL     1      -5.483   9.288  -8.689  1.00  0.00     0.198 C 
BRANCH   7   8
ATOM      8  O   UNL     1      -6.204   9.020  -7.495  1.00  0.00    -0.347 OA
BRANCH   8   9
ATOM      9  C   UNL     1      -7.621   9.123  -7.576  1.00  0.00     0.281 C 
ATOM     10  C   UNL     1      -7.636  12.018  -5.695  1.00  0.00     0.041 C 
ATOM     11  C   UNL     1      -8.599  10.986  -6.297  1.00  0.00     0.150 C 
ATOM     12  C   UNL     1      -9.033   9.967  -5.236  1.00  0.00     0.174 C 
ATOM     13  O   UNL     1      -8.082  10.479  -7.522  1.00  0.00    -0.344 OA
ATOM     14  C   UNL     1      -9.505   8.656  -5.869  1.00  0.00     0.179 C 
ATOM     15  C   UNL     1      -8.478   8.038  -6.829  1.00  0.00     0.202 C 
BRANCH  12  16
ATOM     16  O   UNL     1     -10.023  10.498  -4.388  1.00  0.00    -0.388 OA
ATOM     17  H   UNL     1     -10.941  10.237  -4.738  1.00  0.00     0.211 HD
ENDBRANCH  12  16
BRANCH  14  18
ATOM     18  O   UNL     1      -9.902   7.727  -4.866  1.00  0.00    -0.387 OA
ATOM     19  H   UNL     1     -10.847   7.476  -5.093  1.00  0.00     0.211 HD
ENDBRANCH  14  18
BRANCH  15  20
ATOM     20  O   UNL     1      -7.682   7.107  -6.165  1.00  0.00    -0.385 OA
ATOM     21  H   UNL     1      -6.773   7.182  -6.534  1.00  0.00     0.211 HD
ENDBRANCH  15  20
ENDBRANCH   8   9
ENDBRANCH   7   8
ENDBRANCH   1   7
BRANCH   2  22
ATOM     22  O   UNL     1      -6.262  12.038  -8.666  1.00  0.00    -0.387 OA
ATOM     23  H   UNL     1      -6.814  11.814  -9.456  1.00  0.00     0.211 HD
ENDBRANCH   2  22
BRANCH   3  24
ATOM     24  O   UNL     1      -2.789  12.880  -9.125  1.00  0.00    -0.387 OA
ATOM     25  H   UNL     1      -2.915  12.654 -10.103  1.00  0.00     0.211 HD
ENDBRANCH   3  24
BRANCH   5  26
ATOM     26  O   UNL     1      -3.358  11.389  -5.188  1.00  0.00    -0.454 OA
BRANCH  26  27
ATOM     27  C   UNL     1      -3.219  10.255  -4.369  1.00  0.00     0.214 A 
ATOM     28  C   UNL     1      -1.987  10.012  -3.732  1.00  0.00     0.180 A 
ATOM     29  C   UNL     1      -4.314   9.419  -4.041  1.00  0.00     0.239 A 
ATOM     30  O   UNL     1      -1.890   9.077  -2.798  1.00  0.00    -0.452 OA
ATOM     31  C   UNL     1      -4.151   8.412  -3.053  1.00  0.00     0.111 A 
ATOM     32  O   UNL     1      -5.436   9.648  -4.559  1.00  0.00    -0.285 OA
ATOM     33  C   UNL     1      -2.910   8.327  -2.403  1.00  0.00     0.146 A 
ATOM     34  C   UNL     1      -5.162   7.469  -2.728  1.00  0.00     0.134 A 
ATOM     35  C   UNL     1      -2.749   7.452  -1.335  1.00  0.00     0.094 A 
ATOM     36  C   UNL     1      -4.963   6.589  -1.659  1.00  0.00     0.093 A 
ATOM     37  C   UNL     1      -3.784   6.619  -0.927  1.00  0.00     0.123 A 
BRANCH  28  38
ATOM     38  C   UNL     1      -0.758  10.691  -4.174  1.00  0.00     0.025 A 
ATOM     39  C   UNL     1       0.043  11.302  -3.210  1.00  0.00     0.062 A 
ATOM     40  C   UNL     1      -0.263  10.526  -5.457  1.00  0.00     0.016 A 
ATOM     41  C   UNL     1       1.325  11.748  -3.541  1.00  0.00     0.158 A 
ATOM     42  C   UNL     1       0.974  11.020  -5.818  1.00  0.00     0.051 A 
ATOM     43  C   UNL     1       1.778  11.641  -4.862  1.00  0.00     0.157 A 
BRANCH  41  44
ATOM     44  O   UNL     1       2.125  12.311  -2.536  1.00  0.00    -0.504 OA
ATOM     45  H   UNL     1       3.109  12.560  -2.737  1.00  0.00     0.293 HD
ENDBRANCH  41  44
BRANCH  43  46
ATOM     46  O   UNL     1       3.034  12.099  -5.248  1.00  0.00    -0.504 OA
ATOM     47  H   UNL     1       3.433  11.846  -6.150  1.00  0.00     0.293 HD
ENDBRANCH  43  46
ENDBRANCH  28  38
BRANCH  34  48
ATOM     48  O   UNL     1      -6.332   7.338  -3.496  1.00  0.00    -0.507 OA
ATOM     49  H   UNL     1      -6.814   8.169  -3.819  1.00  0.00     0.293 HD
ENDBRANCH  34  48
BRANCH  37  50
ATOM     50  O   UNL     1      -3.638   5.812   0.180  1.00  0.00    -0.508 OA
ATOM     51  H   UNL     1      -4.431   5.445   0.673  1.00  0.00     0.293 HD
ENDBRANCH  37  50
ENDBRANCH  26  27
ENDBRANCH   5  26
BRANCH   4  52
ATOM     52  O   UNL     1      -5.140  13.125  -6.368  1.00  0.00    -0.384 OA
ATOM     53  H   UNL     1      -5.885  12.976  -7.026  1.00  0.00     0.211 HD
ENDBRANCH   4  52
TORSDOF 16
ENDMDL
MODEL 2
REMARK VINA RESULT:    33.078      1.406      6.328
REMARK INTER + INTRA:          52.642
REMARK INTER:                  51.343
REMARK INTRA:                   1.300
REMARK UNBOUND:                -1.707
REMARK SMILES C[C@H]1O[C@@H](OC[C@@H]2O[C@H](Oc3c(-c4ccc(O)c(O)c4)oc4cc(O)cc(O)c4c3=O)[C@H](O)[C@@H](O)[C@@H]2O)[C@@H](O)[C@@H](O)[C@@H]1O
REMARK SMILES IDX 7 1 36 2 34 3 32 4 9 5 8 6 6 7 5 8 4 9 1 10 2 11 42 12 3 13
REMARK SMILES IDX 40 14 38 15 43 16 41 18 39 20 37 22 35 24 10 26 11 27 12 28
REMARK SMILES IDX 30 29 21 30 29 31 31 32 22 33 27 34 23 35 26 36 24 37 13 38
REMARK SMILES IDX 20 39 14 40 18 41 15 42 16 43 19 44 17 46 28 48 25 50 33 52
REMARK H PARENT 43 17 41 19 39 21 37 23 35 25 19 45 17 47 28 49 25 51 33 53
REMARK Flexibility Score: inf
ROOT
ATOM      1  C   UNL     1      -8.508  10.678  -5.657  1.00  0.00     0.180 C 
ATOM      2  C   UNL     1      -9.684   9.659  -5.745  1.00  0.00     0.177 C 
ATOM      3  C   UNL     1      -9.590   8.623  -4.642  1.00  0.00     0.180 C 
ATOM      4  C   UNL     1      -8.187   8.040  -4.600  1.00  0.00     0.214 C 
ATOM      5  C   UNL     1      -7.156   9.183  -4.453  1.00  0.00     0.339 C 
ATOM      6  O   UNL     1      -7.246  10.072  -5.511  1.00  0.00    -0.332 OA
ENDROOT
BRANCH   1   7
ATOM      7  C   UNL     1      -8.418  11.552  -6.924  1.00  0.00     0.198 C 
BRANCH   7   8
ATOM      8  O   UNL     1      -7.100  12.063  -7.058  1.00  0.00    -0.347 OA
BRANCH   8   9
ATOM      9  C   UNL     1      -6.494  11.917  -8.338  1.00  0.00     0.281 C 
ATOM     10  C   UNL     1      -6.201   8.500  -7.941  1.00  0.00     0.041 C 
ATOM     11  C   UNL     1      -5.768   9.629  -8.886  1.00  0.00     0.150 C 
ATOM     12  C   UNL     1      -4.329  10.065  -8.585  1.00  0.00     0.174 C 
ATOM     13  O   UNL     1      -6.764  10.645  -8.938  1.00  0.00    -0.344 OA
ATOM     14  C   UNL     1      -4.053  11.489  -9.073  1.00  0.00     0.179 C 
ATOM     15  C   UNL     1      -5.056  12.521  -8.540  1.00  0.00     0.202 C 
BRANCH  12  16
ATOM     16  O   UNL     1      -3.394   9.161  -9.125  1.00  0.00    -0.388 OA
ATOM     17  H   UNL     1      -2.476   9.353  -8.733  1.00  0.00     0.211 HD
ENDBRANCH  12  16
BRANCH  14  18
ATOM     18  O   UNL     1      -2.712  11.870  -8.782  1.00  0.00    -0.387 OA
ATOM     19  H   UNL     1      -2.254  11.028  -8.486  1.00  0.00     0.211 HD
ENDBRANCH  14  18
BRANCH  15  20
ATOM     20  O   UNL     1      -4.573  13.124  -7.380  1.00  0.00    -0.385 OA
ATOM     21  H   UNL     1      -5.127  13.920  -7.211  1.00  0.00     0.211 HD
ENDBRANCH  15  20
ENDBRANCH   8   9
ENDBRANCH   7   8
ENDBRANCH   1   7
BRANCH   2  22
ATOM     22  O   UNL     1      -9.692   8.994  -6.983  1.00  0.00    -0.387 OA
ATOM     23  H   UNL     1      -9.294   8.100  -6.829  1.00  0.00     0.211 HD
ENDBRANCH   2  22
BRANCH   3  24
ATOM     24  O   UNL     1      -9.927   9.184  -3.394  1.00  0.00    -0.387 OA
ATOM     25  H   UNL     1      -9.957  10.190  -3.499  1.00  0.00     0.211 HD
ENDBRANCH   3  24
BRANCH   5  26
ATOM     26  O   UNL     1      -5.869   8.583  -4.499  1.00  0.00    -0.454 OA
BRANCH  26  27
ATOM     27  C   UNL     1      -4.632   9.195  -4.234  1.00  0.00     0.214 A 
ATOM     28  C   UNL     1      -3.801   8.662  -3.230  1.00  0.00     0.180 A 
ATOM     29  C   UNL     1      -4.119  10.245  -5.034  1.00  0.00     0.239 A 
ATOM     30  O   UNL     1      -2.552   9.085  -3.102  1.00  0.00    -0.452 OA
ATOM     31  C   UNL     1      -2.782  10.682  -4.837  1.00  0.00     0.111 A 
ATOM     32  O   UNL     1      -4.824  10.703  -5.969  1.00  0.00    -0.285 OA
ATOM     33  C   UNL     1      -2.007  10.008  -3.882  1.00  0.00     0.146 A 
ATOM     34  C   UNL     1      -2.215  11.787  -5.526  1.00  0.00     0.134 A 
ATOM     35  C   UNL     1      -0.655  10.308  -3.754  1.00  0.00     0.094 A 
ATOM     36  C   UNL     1      -0.856  12.075  -5.364  1.00  0.00     0.093 A 
ATOM     37  C   UNL     1      -0.065  11.302  -4.525  1.00  0.00     0.123 A 
BRANCH  28  38
ATOM     38  C   UNL     1      -4.331   7.727  -2.224  1.00  0.00     0.025 A 
ATOM     39  C   UNL     1      -3.726   6.477  -2.100  1.00  0.00     0.062 A 
ATOM     40  C   UNL     1      -5.229   8.141  -1.255  1.00  0.00     0.016 A 
ATOM     41  C   UNL     1      -4.032   5.653  -1.014  1.00  0.00     0.158 A 
ATOM     42  C   UNL     1      -5.592   7.314  -0.213  1.00  0.00     0.051 A 
ATOM     43  C   UNL     1      -4.999   6.058  -0.086  1.00  0.00     0.157 A 
BRANCH  41  44
ATOM     44  O   UNL     1      -3.368   4.424  -0.891  1.00  0.00    -0.504 OA
ATOM     45  H   UNL     1      -2.545   4.340  -0.268  1.00  0.00     0.293 HD
ENDBRANCH  41  44
BRANCH  43  46
ATOM     46  O   UNL     1      -5.361   5.259   0.995  1.00  0.00    -0.504 OA
ATOM     47  H   UNL     1      -5.653   5.670   1.880  1.00  0.00     0.293 HD
ENDBRANCH  43  46
ENDBRANCH  28  38
BRANCH  34  48
ATOM     48  O   UNL     1      -2.995  12.653  -6.313  1.00  0.00    -0.507 OA
ATOM     49  H   UNL     1      -2.675  12.912  -7.238  1.00  0.00     0.293 HD
ENDBRANCH  34  48
BRANCH  37  50
ATOM     50  O   UNL     1       1.290  11.538  -4.444  1.00  0.00    -0.508 OA
ATOM     51  H   UNL     1       1.687  12.082  -3.700  1.00  0.00     0.293 HD
ENDBRANCH  37  50
ENDBRANCH  26  27
ENDBRANCH   5  26
BRANCH   4  52
ATOM     52  O   UNL     1      -7.936   7.243  -5.730  1.00  0.00    -0.384 OA
ATOM     53  H   UNL     1      -8.793   7.148  -6.246  1.00  0.00     0.211 HD
ENDBRANCH   4  52
TORSDOF 16
ENDMDL
MODEL 3
REMARK VINA RESULT:    33.584      0.654      1.575
REMARK INTER + INTRA:          53.473
REMARK INTER:                  50.715
REMARK INTRA:                   2.759
REMARK UNBOUND:                -1.707
REMARK SMILES C[C@H]1O[C@@H](OC[C@@H]2O[C@H](Oc3c(-c4ccc(O)c(O)c4)oc4cc(O)cc(O)c4c3=O)[C@H](O)[C@@H](O)[C@@H]2O)[C@@H](O)[C@@H](O)[C@@H]1O
REMARK SMILES IDX 7 1 36 2 34 3 32 4 9 5 8 6 6 7 5 8 4 9 1 10 2 11 42 12 3 13
REMARK SMILES IDX 40 14 38 15 43 16 41 18 39 20 37 22 35 24 10 26 11 27 12 28
REMARK SMILES IDX 30 29 21 30 29 31 31 32 22 33 27 34 23 35 26 36 24 37 13 38
REMARK SMILES IDX 20 39 14 40 18 41 15 42 16 43 19 44 17 46 28 48 25 50 33 52
REMARK H PARENT 43 17 41 19 39 21 37 23 35 25 19 45 17 47 28 49 25 51 33 53
REMARK Flexibility Score: inf
ROOT
ATOM      1  C   UNL     1      -4.209  10.492  -8.540  1.00  0.00     0.180 C 
ATOM      2  C   UNL     1      -4.673  11.859  -9.125  1.00  0.00     0.177 C 
ATOM      3  C   UNL     1      -3.891  13.006  -8.516  1.00  0.00     0.180 C 
ATOM      4  C   UNL     1      -3.886  12.881  -7.002  1.00  0.00     0.214 C 
ATOM      5  C   UNL     1      -3.343  11.490  -6.599  1.00  0.00     0.339 C 
ATOM      6  O   UNL     1      -4.123  10.479  -7.135  1.00  0.00    -0.332 OA
ENDROOT
BRANCH   1   7
ATOM      7  C   UNL     1      -5.176   9.353  -8.919  1.00  0.00     0.198 C 
BRANCH   7   8
ATOM      8  O   UNL     1      -6.468   9.630  -8.397  1.00  0.00    -0.347 OA
BRANCH   8   9
ATOM      9  C   UNL     1      -6.551   9.827  -6.990  1.00  0.00     0.281 C 
ATOM     10  C   UNL     1      -8.779   7.213  -6.636  1.00  0.00     0.041 C 
ATOM     11  C   UNL     1      -8.154   8.361  -5.831  1.00  0.00     0.150 C 
ATOM     12  C   UNL     1      -9.116   9.553  -5.754  1.00  0.00     0.174 C 
ATOM     13  O   UNL     1      -6.826   8.616  -6.275  1.00  0.00    -0.344 OA
ATOM     14  C   UNL     1      -8.373  10.863  -5.478  1.00  0.00     0.179 C 
ATOM     15  C   UNL     1      -7.239  11.142  -6.474  1.00  0.00     0.202 C 
BRANCH  12  16
ATOM     16  O   UNL     1     -10.125   9.339  -4.796  1.00  0.00    -0.388 OA
ATOM     17  H   UNL     1      -9.698   9.089  -3.909  1.00  0.00     0.211 HD
ENDBRANCH  12  16
BRANCH  14  18
ATOM     18  O   UNL     1      -9.285  11.954  -5.411  1.00  0.00    -0.387 OA
ATOM     19  H   UNL     1      -9.014  12.479  -4.600  1.00  0.00     0.211 HD
ENDBRANCH  14  18
BRANCH  15  20
ATOM     20  O   UNL     1      -7.690  11.943  -7.522  1.00  0.00    -0.385 OA
ATOM     21  H   UNL     1      -7.099  12.729  -7.565  1.00  0.00     0.211 HD
ENDBRANCH  15  20
ENDBRANCH   8   9
ENDBRANCH   7   8
ENDBRANCH   1   7
BRANCH   2  22
ATOM     22  O   UNL     1      -6.042  12.077  -8.888  1.00  0.00    -0.387 OA
ATOM     23  H   UNL     1      -6.530  11.355  -9.358  1.00  0.00     0.211 HD
ENDBRANCH   2  22
BRANCH   3  24
ATOM     24  O   UNL     1      -2.571  13.035  -9.011  1.00  0.00    -0.387 OA
ATOM     25  H   UNL     1      -2.241  12.081  -9.081  1.00  0.00     0.211 HD
ENDBRANCH   3  24
BRANCH   5  26
ATOM     26  O   UNL     1      -3.438  11.407  -5.183  1.00  0.00    -0.454 OA
BRANCH  26  27
ATOM     27  C   UNL     1      -3.267  10.265  -4.383  1.00  0.00     0.214 A 
ATOM     28  C   UNL     1      -2.018  10.031  -3.775  1.00  0.00     0.180 A 
ATOM     29  C   UNL     1      -4.343   9.410  -4.042  1.00  0.00     0.239 A 
ATOM     30  O   UNL     1      -1.889   9.086  -2.855  1.00  0.00    -0.452 OA
ATOM     31  C   UNL     1      -4.145   8.392  -3.071  1.00  0.00     0.111 A 
ATOM     32  O   UNL     1      -5.479   9.630  -4.534  1.00  0.00    -0.285 OA
ATOM     33  C   UNL     1      -2.890   8.317  -2.448  1.00  0.00     0.146 A 
ATOM     34  C   UNL     1      -5.136   7.432  -2.736  1.00  0.00     0.134 A 
ATOM     35  C   UNL     1      -2.694   7.431  -1.396  1.00  0.00     0.094 A 
ATOM     36  C   UNL     1      -4.904   6.542  -1.683  1.00  0.00     0.093 A 
ATOM     37  C   UNL     1      -3.710   6.579  -0.977  1.00  0.00     0.123 A 
BRANCH  28  38
ATOM     38  C   UNL     1      -0.808  10.732  -4.234  1.00  0.00     0.025 A 
ATOM     39  C   UNL     1       0.047  11.272  -3.274  1.00  0.00     0.062 A 
ATOM     40  C   UNL     1      -0.383  10.653  -5.550  1.00  0.00     0.016 A 
ATOM     41  C   UNL     1       1.313  11.732  -3.642  1.00  0.00     0.158 A 
ATOM     42  C   UNL     1       0.837  11.164  -5.941  1.00  0.00     0.051 A 
ATOM     43  C   UNL     1       1.696  11.714  -4.989  1.00  0.00     0.157 A 
BRANCH  41  44
ATOM     44  O   UNL     1       2.170  12.222  -2.645  1.00  0.00    -0.504 OA
ATOM     45  H   UNL     1       1.841  12.958  -1.995  1.00  0.00     0.293 HD
ENDBRANCH  41  44
BRANCH  43  46
ATOM     46  O   UNL     1       2.935  12.191  -5.409  1.00  0.00    -0.504 OA
ATOM     47  H   UNL     1       3.611  11.577  -5.859  1.00  0.00     0.293 HD
ENDBRANCH  43  46
ENDBRANCH  28  38
BRANCH  34  48
ATOM     48  O   UNL     1      -6.321   7.295  -3.481  1.00  0.00    -0.507 OA
ATOM     49  H   UNL     1      -6.291   7.386  -4.490  1.00  0.00     0.293 HD
ENDBRANCH  34  48
BRANCH  37  50
ATOM     50  O   UNL     1      -3.529   5.760   0.117  1.00  0.00    -0.508 OA
ATOM     51  H   UNL     1      -4.120   5.821   0.925  1.00  0.00     0.293 HD
ENDBRANCH  37  50
ENDBRANCH  26  27
ENDBRANCH   5  26
BRANCH   4  52
ATOM     52  O   UNL     1      -5.164  13.125  -6.470  1.00  0.00    -0.384 OA
ATOM     53  H   UNL     1      -5.842  12.971  -7.195  1.00  0.00     0.211 HD
ENDBRANCH   4  52
TORSDOF 16
ENDMDL
MODEL 4
REMARK VINA RESULT:    33.816     12.942     16.904
REMARK INTER + INTRA:          53.855
REMARK INTER:                  49.916
REMARK INTRA:                   3.939
REMARK UNBOUND:                -1.707
REMARK SMILES C[C@H]1O[C@@H](OC[C@@H]2O[C@H](Oc3c(-c4ccc(O)c(O)c4)oc4cc(O)cc(O)c4c3=O)[C@H](O)[C@@H](O)[C@@H]2O)[C@@H](O)[C@@H](O)[C@@H]1O
REMARK SMILES IDX 7 1 36 2 34 3 32 4 9 5 8 6 6 7 5 8 4 9 1 10 2 11 42 12 3 13
REMARK SMILES IDX 40 14 38 15 43 16 41 18 39 20 37 22 35 24 10 26 11 27 12 28
REMARK SMILES IDX 30 29 21 30 29 31 31 32 22 33 27 34 23 35 26 36 24 37 13 38
REMARK SMILES IDX 20 39 14 40 18 41 15 42 16 43 19 44 17 46 28 48 25 50 33 52
REMARK H PARENT 43 17 41 19 39 21 37 23 35 25 19 45 17 47 28 49 25 51 33 53
REMARK Flexibility Score: inf
ROOT
ATOM      1  C   UNL     1       8.420  10.878   7.616  1.00  0.00     0.180 C 
ATOM      2  C   UNL     1       8.689  12.408   7.738  1.00  0.00     0.177 C 
ATOM      3  C   UNL     1       8.146  12.953   9.045  1.00  0.00     0.180 C 
ATOM      4  C   UNL     1       6.709  12.498   9.237  1.00  0.00     0.214 C 
ATOM      5  C   UNL     1       6.639  10.956   9.143  1.00  0.00     0.339 C 
ATOM      6  O   UNL     1       7.094  10.513   7.913  1.00  0.00    -0.332 OA
ENDROOT
BRANCH   1   7
ATOM      7  C   UNL     1       8.695  10.365   6.188  1.00  0.00     0.198 C 
BRANCH   7   8
ATOM      8  O   UNL     1       7.466  10.188   5.499  1.00  0.00    -0.347 OA
BRANCH   8   9
ATOM      9  C   UNL     1       6.599  11.316   5.455  1.00  0.00     0.281 C 
ATOM     10  C   UNL     1       3.880   9.414   6.408  1.00  0.00     0.041 C 
ATOM     11  C   UNL     1       4.230  10.821   5.905  1.00  0.00     0.150 C 
ATOM     12  C   UNL     1       3.969  10.937   4.398  1.00  0.00     0.174 C 
ATOM     13  O   UNL     1       5.511  11.216   6.381  1.00  0.00    -0.344 OA
ATOM     14  C   UNL     1       4.791  12.062   3.765  1.00  0.00     0.179 C 
ATOM     15  C   UNL     1       6.296  11.951   4.050  1.00  0.00     0.202 C 
BRANCH  12  16
ATOM     16  O   UNL     1       2.598  11.104   4.124  1.00  0.00    -0.388 OA
ATOM     17  H   UNL     1       2.340  12.074   4.284  1.00  0.00     0.211 HD
ENDBRANCH  12  16
BRANCH  14  18
ATOM     18  O   UNL     1       4.534  12.149   2.367  1.00  0.00    -0.387 OA
ATOM     19  H   UNL     1       5.152  11.485   1.940  1.00  0.00     0.211 HD
ENDBRANCH  14  18
BRANCH  15  20
ATOM     20  O   UNL     1       6.944  11.275   3.018  1.00  0.00    -0.385 OA
ATOM     21  H   UNL     1       6.641  10.340   3.044  1.00  0.00     0.211 HD
ENDBRANCH  15  20
ENDBRANCH   8   9
ENDBRANCH   7   8
ENDBRANCH   1   7
BRANCH   2  22
ATOM     22  O   UNL     1       8.096  13.117   6.678  1.00  0.00    -0.387 OA
ATOM     23  H   UNL     1       8.028  12.487   5.918  1.00  0.00     0.211 HD
ENDBRANCH   2  22
BRANCH   3  24
ATOM     24  O   UNL     1       8.942  12.541  10.132  1.00  0.00    -0.387 OA
ATOM     25  H   UNL     1       9.911  12.570   9.842  1.00  0.00     0.211 HD
ENDBRANCH   3  24
BRANCH   5  26
ATOM     26  O   UNL     1       5.267  10.601   9.251  1.00  0.00    -0.454 OA
BRANCH  26  27
ATOM     27  C   UNL     1       4.717   9.308   9.246  1.00  0.00     0.214 A 
ATOM     28  C   UNL     1       3.339   9.146   9.010  1.00  0.00     0.180 A 
ATOM     29  C   UNL     1       5.519   8.143   9.328  1.00  0.00     0.239 A 
ATOM     30  O   UNL     1       2.834   7.940   8.793  1.00  0.00    -0.452 OA
ATOM     31  C   UNL     1       4.924   6.871   9.116  1.00  0.00     0.111 A 
ATOM     32  O   UNL     1       6.760   8.265   9.489  1.00  0.00    -0.285 OA
ATOM     33  C   UNL     1       3.563   6.833   8.780  1.00  0.00     0.146 A 
ATOM     34  C   UNL     1       5.628   5.647   9.271  1.00  0.00     0.134 A 
ATOM     35  C   UNL     1       2.973   5.624   8.428  1.00  0.00     0.094 A 
ATOM     36  C   UNL     1       5.002   4.445   8.925  1.00  0.00     0.093 A 
ATOM     37  C   UNL     1       3.698   4.438   8.450  1.00  0.00     0.123 A 
BRANCH  28  38
ATOM     38  C   UNL     1       2.411  10.283   9.126  1.00  0.00     0.025 A 
ATOM     39  C   UNL     1       1.318  10.336   8.262  1.00  0.00     0.062 A 
ATOM     40  C   UNL     1       2.457  11.146  10.208  1.00  0.00     0.016 A 
ATOM     41  C   UNL     1       0.289  11.254   8.485  1.00  0.00     0.158 A 
ATOM     42  C   UNL     1       1.484  12.103  10.406  1.00  0.00     0.051 A 
ATOM     43  C   UNL     1       0.391  12.169   9.540  1.00  0.00     0.157 A 
BRANCH  41  44
ATOM     44  O   UNL     1      -0.821  11.247   7.627  1.00  0.00    -0.504 OA
ATOM     45  H   UNL     1      -0.687  11.347   6.606  1.00  0.00     0.293 HD
ENDBRANCH  41  44
BRANCH  43  46
ATOM     46  O   UNL     1      -0.592  13.124   9.784  1.00  0.00    -0.504 OA
ATOM     47  H   UNL     1      -0.379  14.119   9.754  1.00  0.00     0.293 HD
ENDBRANCH  43  46
ENDBRANCH  28  38
BRANCH  34  48
ATOM     48  O   UNL     1       6.916   5.595   9.834  1.00  0.00    -0.507 OA
ATOM     49  H   UNL     1       7.223   6.339  10.449  1.00  0.00     0.293 HD
ENDBRANCH  34  48
BRANCH  37  50
ATOM     50  O   UNL     1       3.124   3.259   8.025  1.00  0.00    -0.508 OA
ATOM     51  H   UNL     1       3.615   2.386   8.078  1.00  0.00     0.293 HD
ENDBRANCH  37  50
ENDBRANCH  26  27
ENDBRANCH   5  26
BRANCH   4  52
ATOM     52  O   UNL     1       5.852  13.124   8.316  1.00  0.00    -0.384 OA
ATOM     53  H   UNL     1       5.787  12.543   7.500  1.00  0.00     0.211 HD
ENDBRANCH   4  52
TORSDOF 16
ENDMDL
