MODEL 1
REMARK VINA RESULT:    -5.535      0.000      0.000
REMARK INTER + INTRA:          -6.995
REMARK INTER:                  -6.829
REMARK INTRA:                  -0.166
REMARK UNBOUND:                -0.166
REMARK SMILES CCOC(=O)c1ccc(O)c(O)c1
REMARK SMILES IDX 4 1 5 2 3 3 2 4 1 5 6 6 13 7 7 8 11 9 8 10 9 11 12 12 10 14
REMARK H PARENT 12 13 10 15
REMARK Flexibility Score: inf
ROOT
ATOM      1  C   UNL     1     -27.909  -8.376  -0.644  1.00  0.00     0.338 C 
ATOM      2  O   UNL     1     -28.610  -9.133   0.084  1.00  0.00    -0.246 OA
ENDROOT
BRANCH   1   3
ATOM      3  O   UNL     1     -26.709  -8.844  -1.189  1.00  0.00    -0.462 OA
BRANCH   3   4
ATOM      4  C   UNL     1     -26.431 -10.229  -1.363  1.00  0.00     0.230 C 
ATOM      5  C   UNL     1     -25.336 -10.653  -0.398  1.00  0.00     0.049 C 
ENDBRANCH   3   4
ENDBRANCH   1   3
BRANCH   1   6
ATOM      6  C   UNL     1     -28.356  -6.993  -0.924  1.00  0.00     0.064 A 
ATOM      7  C   UNL     1     -28.070  -6.381  -2.157  1.00  0.00     0.065 A 
ATOM      8  C   UNL     1     -29.075  -6.271   0.045  1.00  0.00     0.020 A 
ATOM      9  C   UNL     1     -28.494  -5.070  -2.420  1.00  0.00     0.158 A 
ATOM     10  C   UNL     1     -29.498  -4.965  -0.215  1.00  0.00     0.051 A 
ATOM     11  C   UNL     1     -29.212  -4.360  -1.443  1.00  0.00     0.157 A 
BRANCH   9  12
ATOM     12  O   UNL     1     -28.206  -4.472  -3.645  1.00  0.00    -0.504 OA
ATOM     13  H   UNL     1     -28.759  -4.664  -4.473  1.00  0.00     0.293 HD
ENDBRANCH   9  12
BRANCH  11  14
ATOM     14  O   UNL     1     -29.648  -3.055  -1.673  1.00  0.00    -0.504 OA
ATOM     15  H   UNL     1     -29.284  -2.493  -2.433  1.00  0.00     0.293 HD
ENDBRANCH  11  14
ENDBRANCH   1   6
TORSDOF 5
ENDMDL
MODEL 2
REMARK VINA RESULT:    -5.413      1.275      2.022
REMARK INTER + INTRA:          -6.844
REMARK INTER:                  -6.568
REMARK INTRA:                  -0.276
REMARK UNBOUND:                -0.166
REMARK SMILES CCOC(=O)c1ccc(O)c(O)c1
REMARK SMILES IDX 4 1 5 2 3 3 2 4 1 5 6 6 13 7 7 8 11 9 8 10 9 11 12 12 10 14
REMARK H PARENT 12 13 10 15
REMARK Flexibility Score: inf
ROOT
ATOM      1  C   UNL     1     -28.131  -8.330  -0.500  1.00  0.00     0.338 C 
ATOM      2  O   UNL     1     -26.973  -8.750  -0.778  1.00  0.00    -0.246 OA
ENDROOT
BRANCH   1   3
ATOM      3  O   UNL     1     -29.053  -9.180   0.121  1.00  0.00    -0.462 OA
BRANCH   3   4
ATOM      4  C   UNL     1     -28.809  -9.788   1.384  1.00  0.00     0.230 C 
ATOM      5  C   UNL     1     -29.556  -9.028   2.468  1.00  0.00     0.049 C 
ENDBRANCH   3   4
ENDBRANCH   1   3
BRANCH   1   6
ATOM      6  C   UNL     1     -28.517  -6.940  -0.829  1.00  0.00     0.064 A 
ATOM      7  C   UNL     1     -28.183  -6.376  -2.074  1.00  0.00     0.065 A 
ATOM      8  C   UNL     1     -29.225  -6.162   0.103  1.00  0.00     0.020 A 
ATOM      9  C   UNL     1     -28.550  -5.059  -2.383  1.00  0.00     0.158 A 
ATOM     10  C   UNL     1     -29.590  -4.848  -0.203  1.00  0.00     0.051 A 
ATOM     11  C   UNL     1     -29.258  -4.292  -1.442  1.00  0.00     0.157 A 
BRANCH   9  12
ATOM     12  O   UNL     1     -28.215  -4.510  -3.620  1.00  0.00    -0.504 OA
ATOM     13  H   UNL     1     -27.705  -3.637  -3.693  1.00  0.00     0.293 HD
ENDBRANCH   9  12
BRANCH  11  14
ATOM     14  O   UNL     1     -29.636  -2.978  -1.719  1.00  0.00    -0.504 OA
ATOM     15  H   UNL     1     -30.519  -2.755  -2.161  1.00  0.00     0.293 HD
ENDBRANCH  11  14
ENDBRANCH   1   6
TORSDOF 5
ENDMDL
MODEL 3
REMARK VINA RESULT:    -5.405     10.176     12.382
REMARK INTER + INTRA:          -6.834
REMARK INTER:                  -6.613
REMARK INTRA:                  -0.221
REMARK UNBOUND:                -0.166
REMARK SMILES CCOC(=O)c1ccc(O)c(O)c1
REMARK SMILES IDX 4 1 5 2 3 3 2 4 1 5 6 6 13 7 7 8 11 9 8 10 9 11 12 12 10 14
REMARK H PARENT 12 13 10 15
REMARK Flexibility Score: inf
ROOT
ATOM      1  C   UNL     1     -35.571 -15.791   3.808  1.00  0.00     0.338 C 
ATOM      2  O   UNL     1     -36.020 -16.887   4.245  1.00  0.00    -0.246 OA
ENDROOT
BRANCH   1   3
ATOM      3  O   UNL     1     -36.409 -14.926   3.096  1.00  0.00    -0.462 OA
BRANCH   3   4
ATOM      4  C   UNL     1     -37.372 -14.091   3.730  1.00  0.00     0.230 C 
ATOM      5  C   UNL     1     -37.560 -12.821   2.917  1.00  0.00     0.049 C 
ENDBRANCH   3   4
ENDBRANCH   1   3
BRANCH   1   6
ATOM      6  C   UNL     1     -34.159 -15.417   4.048  1.00  0.00     0.064 A 
ATOM      7  C   UNL     1     -33.379 -16.120   4.983  1.00  0.00     0.065 A 
ATOM      8  C   UNL     1     -33.579 -14.350   3.341  1.00  0.00     0.020 A 
ATOM      9  C   UNL     1     -32.041 -15.763   5.209  1.00  0.00     0.158 A 
ATOM     10  C   UNL     1     -32.247 -13.994   3.565  1.00  0.00     0.051 A 
ATOM     11  C   UNL     1     -31.473 -14.695   4.494  1.00  0.00     0.157 A 
BRANCH   9  12
ATOM     12  O   UNL     1     -31.276 -16.466   6.137  1.00  0.00    -0.504 OA
ATOM     13  H   UNL     1     -30.518 -16.025   6.644  1.00  0.00     0.293 HD
ENDBRANCH   9  12
BRANCH  11  14
ATOM     14  O   UNL     1     -30.146 -14.316   4.696  1.00  0.00    -0.504 OA
ATOM     15  H   UNL     1     -29.794 -13.414   4.400  1.00  0.00     0.293 HD
ENDBRANCH  11  14
ENDBRANCH   1   6
TORSDOF 5
ENDMDL
MODEL 4
REMARK VINA RESULT:    -5.302      8.085     10.925
REMARK INTER + INTRA:          -6.708
REMARK INTER:                  -6.410
REMARK INTRA:                  -0.298
REMARK UNBOUND:                -0.166
REMARK SMILES CCOC(=O)c1ccc(O)c(O)c1
REMARK SMILES IDX 4 1 5 2 3 3 2 4 1 5 6 6 13 7 7 8 11 9 8 10 9 11 12 12 10 14
REMARK H PARENT 12 13 10 15
REMARK Flexibility Score: inf
ROOT
ATOM      1  C   UNL     1     -26.362 -13.586   2.693  1.00  0.00     0.338 C 
ATOM      2  O   UNL     1     -26.891 -12.894   1.779  1.00  0.00    -0.246 OA
ENDROOT
BRANCH   1   3
ATOM      3  O   UNL     1     -25.749 -12.956   3.781  1.00  0.00    -0.462 OA
BRANCH   3   4
ATOM      4  C   UNL     1     -24.648 -12.066   3.634  1.00  0.00     0.230 C 
ATOM      5  C   UNL     1     -23.475 -12.806   3.011  1.00  0.00     0.049 C 
ENDBRANCH   3   4
ENDBRANCH   1   3
BRANCH   1   6
ATOM      6  C   UNL     1     -26.391 -15.064   2.619  1.00  0.00     0.064 A 
ATOM      7  C   UNL     1     -27.182 -15.814   3.507  1.00  0.00     0.065 A 
ATOM      8  C   UNL     1     -25.623 -15.739   1.654  1.00  0.00     0.020 A 
ATOM      9  C   UNL     1     -27.207 -17.214   3.433  1.00  0.00     0.158 A 
ATOM     10  C   UNL     1     -25.646 -17.134   1.580  1.00  0.00     0.051 A 
ATOM     11  C   UNL     1     -26.435 -17.876   2.464  1.00  0.00     0.157 A 
BRANCH   9  12
ATOM     12  O   UNL     1     -27.996 -17.948   4.318  1.00  0.00    -0.504 OA
ATOM     13  H   UNL     1     -28.287 -17.568   5.211  1.00  0.00     0.293 HD
ENDBRANCH   9  12
BRANCH  11  14
ATOM     14  O   UNL     1     -26.438 -19.268   2.366  1.00  0.00    -0.504 OA
ATOM     15  H   UNL     1     -25.989 -19.856   3.057  1.00  0.00     0.293 HD
ENDBRANCH  11  14
ENDBRANCH   1   6
TORSDOF 5
ENDMDL
MODEL 5
REMARK VINA RESULT:    -5.199      2.029      5.387
REMARK INTER + INTRA:          -6.581
REMARK INTER:                  -6.295
REMARK INTRA:                  -0.286
REMARK UNBOUND:                -0.166
REMARK SMILES CCOC(=O)c1ccc(O)c(O)c1
REMARK SMILES IDX 4 1 5 2 3 3 2 4 1 5 6 6 13 7 7 8 11 9 8 10 9 11 12 12 10 14
REMARK H PARENT 12 13 10 15
REMARK Flexibility Score: inf
ROOT
ATOM      1  C   UNL     1     -29.747  -4.415   0.047  1.00  0.00     0.338 C 
ATOM      2  O   UNL     1     -29.008  -3.502   0.509  1.00  0.00    -0.246 OA
ENDROOT
BRANCH   1   3
ATOM      3  O   UNL     1     -31.043  -4.115  -0.384  1.00  0.00    -0.462 OA
BRANCH   3   4
ATOM      4  C   UNL     1     -32.015  -3.510   0.463  1.00  0.00     0.230 C 
ATOM      5  C   UNL     1     -32.774  -4.589   1.218  1.00  0.00     0.049 C 
ENDBRANCH   3   4
ENDBRANCH   1   3
BRANCH   1   6
ATOM      6  C   UNL     1     -29.244  -5.804  -0.043  1.00  0.00     0.064 A 
ATOM      7  C   UNL     1     -28.297  -6.165  -1.017  1.00  0.00     0.065 A 
ATOM      8  C   UNL     1     -29.711  -6.785   0.850  1.00  0.00     0.020 A 
ATOM      9  C   UNL     1     -27.822  -7.482  -1.100  1.00  0.00     0.158 A 
ATOM     10  C   UNL     1     -29.239  -8.098   0.769  1.00  0.00     0.051 A 
ATOM     11  C   UNL     1     -28.297  -8.452  -0.201  1.00  0.00     0.157 A 
BRANCH   9  12
ATOM     12  O   UNL     1     -26.883  -7.829  -2.069  1.00  0.00    -0.504 OA
ATOM     13  H   UNL     1     -27.147  -8.328  -2.910  1.00  0.00     0.293 HD
ENDBRANCH   9  12
BRANCH  11  14
ATOM     14  O   UNL     1     -27.845  -9.771  -0.257  1.00  0.00    -0.504 OA
ATOM     15  H   UNL     1     -26.974 -10.021  -0.709  1.00  0.00     0.293 HD
ENDBRANCH  11  14
ENDBRANCH   1   6
TORSDOF 5
ENDMDL
MODEL 6
REMARK VINA RESULT:    -5.186      8.460     10.995
REMARK INTER + INTRA:          -6.564
REMARK INTER:                  -6.280
REMARK INTRA:                  -0.284
REMARK UNBOUND:                -0.166
REMARK SMILES CCOC(=O)c1ccc(O)c(O)c1
REMARK SMILES IDX 4 1 5 2 3 3 2 4 1 5 6 6 13 7 7 8 11 9 8 10 9 11 12 12 10 14
REMARK H PARENT 12 13 10 15
REMARK Flexibility Score: inf
ROOT
ATOM      1  C   UNL     1     -31.373 -12.931   2.707  1.00  0.00     0.338 C 
ATOM      2  O   UNL     1     -30.469 -13.213   1.872  1.00  0.00    -0.246 OA
ENDROOT
BRANCH   1   3
ATOM      3  O   UNL     1     -31.805 -11.608   2.849  1.00  0.00    -0.462 OA
BRANCH   3   4
ATOM      4  C   UNL     1     -32.192 -10.801   1.741  1.00  0.00     0.230 C 
ATOM      5  C   UNL     1     -33.660 -11.039   1.425  1.00  0.00     0.049 C 
ENDBRANCH   3   4
ENDBRANCH   1   3
BRANCH   1   6
ATOM      6  C   UNL     1     -31.981 -13.996   3.535  1.00  0.00     0.064 A 
ATOM      7  C   UNL     1     -31.203 -14.725   4.452  1.00  0.00     0.065 A 
ATOM      8  C   UNL     1     -33.349 -14.295   3.414  1.00  0.00     0.020 A 
ATOM      9  C   UNL     1     -31.781 -15.734   5.236  1.00  0.00     0.158 A 
ATOM     10  C   UNL     1     -33.926 -15.300   4.194  1.00  0.00     0.051 A 
ATOM     11  C   UNL     1     -33.150 -16.022   5.105  1.00  0.00     0.157 A 
BRANCH   9  12
ATOM     12  O   UNL     1     -31.001 -16.450   6.143  1.00  0.00    -0.504 OA
ATOM     13  H   UNL     1     -30.617 -16.015   6.973  1.00  0.00     0.293 HD
ENDBRANCH   9  12
BRANCH  11  14
ATOM     14  O   UNL     1     -33.754 -17.020   5.870  1.00  0.00    -0.504 OA
ATOM     15  H   UNL     1     -33.281 -17.460   6.649  1.00  0.00     0.293 HD
ENDBRANCH  11  14
ENDBRANCH   1   6
TORSDOF 5
ENDMDL
MODEL 7
REMARK VINA RESULT:    -5.181      9.895     11.965
REMARK INTER + INTRA:          -6.558
REMARK INTER:                  -6.352
REMARK INTRA:                  -0.206
REMARK UNBOUND:                -0.166
REMARK SMILES CCOC(=O)c1ccc(O)c(O)c1
REMARK SMILES IDX 4 1 5 2 3 3 2 4 1 5 6 6 13 7 7 8 11 9 8 10 9 11 12 12 10 14
REMARK H PARENT 12 13 10 15
REMARK Flexibility Score: inf
ROOT
ATOM      1  C   UNL     1     -35.323 -15.778   3.857  1.00  0.00     0.338 C 
ATOM      2  O   UNL     1     -35.810 -16.876   4.246  1.00  0.00    -0.246 OA
ENDROOT
BRANCH   1   3
ATOM      3  O   UNL     1     -36.104 -14.893   3.106  1.00  0.00    -0.462 OA
BRANCH   3   4
ATOM      4  C   UNL     1     -37.216 -14.194   3.654  1.00  0.00     0.230 C 
ATOM      5  C   UNL     1     -37.428 -12.896   2.890  1.00  0.00     0.049 C 
ENDBRANCH   3   4
ENDBRANCH   1   3
BRANCH   1   6
ATOM      6  C   UNL     1     -33.926 -15.422   4.195  1.00  0.00     0.064 A 
ATOM      7  C   UNL     1     -33.308 -14.302   3.611  1.00  0.00     0.065 A 
ATOM      8  C   UNL     1     -33.198 -16.203   5.109  1.00  0.00     0.020 A 
ATOM      9  C   UNL     1     -31.985 -13.967   3.933  1.00  0.00     0.158 A 
ATOM     10  C   UNL     1     -31.879 -15.871   5.430  1.00  0.00     0.051 A 
ATOM     11  C   UNL     1     -31.268 -14.757   4.848  1.00  0.00     0.157 A 
BRANCH   9  12
ATOM     12  O   UNL     1     -31.382 -12.855   3.349  1.00  0.00    -0.504 OA
ATOM     13  H   UNL     1     -31.785 -11.929   3.428  1.00  0.00     0.293 HD
ENDBRANCH   9  12
BRANCH  11  14
ATOM     14  O   UNL     1     -29.951 -14.450   5.189  1.00  0.00    -0.504 OA
ATOM     15  H   UNL     1     -29.228 -14.337   4.490  1.00  0.00     0.293 HD
ENDBRANCH  11  14
ENDBRANCH   1   6
TORSDOF 5
ENDMDL
MODEL 8
REMARK VINA RESULT:    -5.112      6.186      7.534
REMARK INTER + INTRA:          -6.473
REMARK INTER:                  -6.169
REMARK INTRA:                  -0.304
REMARK UNBOUND:                -0.166
REMARK SMILES CCOC(=O)c1ccc(O)c(O)c1
REMARK SMILES IDX 4 1 5 2 3 3 2 4 1 5 6 6 13 7 7 8 11 9 8 10 9 11 12 12 10 14
REMARK H PARENT 12 13 10 15
REMARK Flexibility Score: inf
ROOT
ATOM      1  C   UNL     1     -26.954 -13.042   1.650  1.00  0.00     0.338 C 
ATOM      2  O   UNL     1     -28.006 -12.380   1.425  1.00  0.00    -0.246 OA
ENDROOT
BRANCH   1   3
ATOM      3  O   UNL     1     -27.025 -14.428   1.829  1.00  0.00    -0.462 OA
BRANCH   3   4
ATOM      4  C   UNL     1     -26.539 -15.354   0.864  1.00  0.00     0.230 C 
ATOM      5  C   UNL     1     -25.518 -16.276   1.511  1.00  0.00     0.049 C 
ENDBRANCH   3   4
ENDBRANCH   1   3
BRANCH   1   6
ATOM      6  C   UNL     1     -25.645 -12.356   1.724  1.00  0.00     0.064 A 
ATOM      7  C   UNL     1     -25.293 -11.376   0.779  1.00  0.00     0.065 A 
ATOM      8  C   UNL     1     -24.734 -12.678   2.745  1.00  0.00     0.020 A 
ATOM      9  C   UNL     1     -24.052 -10.728   0.851  1.00  0.00     0.158 A 
ATOM     10  C   UNL     1     -23.496 -12.033   2.818  1.00  0.00     0.051 A 
ATOM     11  C   UNL     1     -23.150 -11.059   1.877  1.00  0.00     0.157 A 
BRANCH   9  12
ATOM     12  O   UNL     1     -23.712  -9.758  -0.090  1.00  0.00    -0.504 OA
ATOM     13  H   UNL     1     -22.964  -9.094   0.077  1.00  0.00     0.293 HD
ENDBRANCH   9  12
BRANCH  11  14
ATOM     14  O   UNL     1     -21.907 -10.432   1.976  1.00  0.00    -0.504 OA
ATOM     15  H   UNL     1     -21.511  -9.902   1.210  1.00  0.00     0.293 HD
ENDBRANCH  11  14
ENDBRANCH   1   6
TORSDOF 5
ENDMDL
MODEL 9
REMARK VINA RESULT:    -5.110      6.436      7.386
REMARK INTER + INTRA:          -6.471
REMARK INTER:                  -6.166
REMARK INTRA:                  -0.306
REMARK UNBOUND:                -0.166
REMARK SMILES CCOC(=O)c1ccc(O)c(O)c1
REMARK SMILES IDX 4 1 5 2 3 3 2 4 1 5 6 6 13 7 7 8 11 9 8 10 9 11 12 12 10 14
REMARK H PARENT 12 13 10 15
REMARK Flexibility Score: inf
ROOT
ATOM      1  C   UNL     1     -30.868 -11.583   2.099  1.00  0.00     0.338 C 
ATOM      2  O   UNL     1     -29.765 -10.967   2.096  1.00  0.00    -0.246 OA
ENDROOT
BRANCH   1   3
ATOM      3  O   UNL     1     -30.888 -12.981   2.070  1.00  0.00    -0.462 OA
BRANCH   3   4
ATOM      4  C   UNL     1     -30.658 -13.778   3.227  1.00  0.00     0.230 C 
ATOM      5  C   UNL     1     -31.984 -14.094   3.900  1.00  0.00     0.049 C 
ENDBRANCH   3   4
ENDBRANCH   1   3
BRANCH   1   6
ATOM      6  C   UNL     1     -32.141 -10.828   2.134  1.00  0.00     0.064 A 
ATOM      7  C   UNL     1     -32.218  -9.578   2.773  1.00  0.00     0.065 A 
ATOM      8  C   UNL     1     -33.293 -11.355   1.527  1.00  0.00     0.020 A 
ATOM      9  C   UNL     1     -33.425  -8.865   2.805  1.00  0.00     0.158 A 
ATOM     10  C   UNL     1     -34.497 -10.646   1.558  1.00  0.00     0.051 A 
ATOM     11  C   UNL     1     -34.570  -9.403   2.193  1.00  0.00     0.157 A 
BRANCH   9  12
ATOM     12  O   UNL     1     -33.491  -7.626   3.440  1.00  0.00    -0.504 OA
ATOM     13  H   UNL     1     -32.707  -6.984   3.435  1.00  0.00     0.293 HD
ENDBRANCH   9  12
BRANCH  11  14
ATOM     14  O   UNL     1     -35.785  -8.719   2.208  1.00  0.00    -0.504 OA
ATOM     15  H   UNL     1     -36.095  -8.156   1.426  1.00  0.00     0.293 HD
ENDBRANCH  11  14
ENDBRANCH   1   6
TORSDOF 5
ENDMDL
