MODEL 1
REMARK VINA RESULT:    -4.504      0.000      0.000
REMARK INTER + INTRA:          -5.033
REMARK INTER:                  -4.767
REMARK INTRA:                  -0.266
REMARK UNBOUND:                -0.266
REMARK SMILES O=c1cc(-c2ccccc2)oc2ccccc12
REMARK SMILES IDX 4 1 3 2 2 3 1 4 17 5 16 6 15 7 14 8 13 9 12 10 11 11 5 12
REMARK SMILES IDX 8 13 7 14 9 15 6 16 10 17
REMARK H PARENT
REMARK Flexibility Score: inf
ROOT
ATOM      1  C   UNL     1     126.115 115.580 108.811  1.00  0.00     0.138 A 
ATOM      2  C   UNL     1     125.616 116.858 108.482  1.00  0.00     0.100 A 
ATOM      3  C   UNL     1     126.417 117.983 108.681  1.00  0.00     0.193 A 
ATOM      4  O   UNL     1     125.971 119.125 108.386  1.00  0.00    -0.289 OA
ATOM      5  C   UNL     1     127.708 117.826 109.206  1.00  0.00     0.065 A 
ATOM      6  C   UNL     1     128.568 118.917 109.431  1.00  0.00     0.016 A 
ATOM      7  C   UNL     1     129.846 118.705 109.956  1.00  0.00     0.001 A 
ATOM      8  C   UNL     1     130.274 117.409 110.260  1.00  0.00     0.004 A 
ATOM      9  C   UNL     1     129.428 116.319 110.039  1.00  0.00     0.048 A 
ATOM     10  C   UNL     1     128.147 116.521 109.514  1.00  0.00     0.138 A 
ATOM     11  O   UNL     1     127.348 115.478 109.308  1.00  0.00    -0.456 OA
ENDROOT
BRANCH   1  12
ATOM     12  C   UNL     1     125.322 114.325 108.629  1.00  0.00     0.017 A 
ATOM     13  C   UNL     1     123.750 112.010 108.256  1.00  0.00     0.000 A 
ATOM     14  C   UNL     1     125.064 111.896 108.710  1.00  0.00     0.001 A 
ATOM     15  C   UNL     1     123.214 113.269 107.987  1.00  0.00     0.001 A 
ATOM     16  C   UNL     1     125.848 113.039 108.895  1.00  0.00     0.012 A 
ATOM     17  C   UNL     1     123.990 114.417 108.171  1.00  0.00     0.012 A 
ENDBRANCH   1  12
TORSDOF 1
ENDMDL
MODEL 2
REMARK VINA RESULT:    -4.432      1.226      1.979
REMARK INTER + INTRA:          -4.957
REMARK INTER:                  -4.699
REMARK INTRA:                  -0.258
REMARK UNBOUND:                -0.266
REMARK SMILES O=c1cc(-c2ccccc2)oc2ccccc12
REMARK SMILES IDX 4 1 3 2 2 3 1 4 17 5 16 6 15 7 14 8 13 9 12 10 11 11 5 12
REMARK SMILES IDX 8 13 7 14 9 15 6 16 10 17
REMARK H PARENT
REMARK Flexibility Score: inf
ROOT
ATOM      1  C   UNL     1     126.804 115.148 109.114  1.00  0.00     0.138 A 
ATOM      2  C   UNL     1     126.631 116.486 109.525  1.00  0.00     0.100 A 
ATOM      3  C   UNL     1     127.743 117.239 109.907  1.00  0.00     0.193 A 
ATOM      4  O   UNL     1     127.588 118.436 110.274  1.00  0.00    -0.289 OA
ATOM      5  C   UNL     1     129.016 116.652 109.878  1.00  0.00     0.065 A 
ATOM      6  C   UNL     1     130.178 117.355 110.250  1.00  0.00     0.016 A 
ATOM      7  C   UNL     1     131.424 116.722 110.202  1.00  0.00     0.001 A 
ATOM      8  C   UNL     1     131.520 115.390 109.786  1.00  0.00     0.004 A 
ATOM      9  C   UNL     1     130.372 114.686 109.413  1.00  0.00     0.048 A 
ATOM     10  C   UNL     1     129.120 115.310 109.458  1.00  0.00     0.138 A 
ATOM     11  O   UNL     1     128.034 114.631 109.103  1.00  0.00    -0.456 OA
ENDROOT
BRANCH   1  12
ATOM     12  C   UNL     1     125.668 114.274 108.690  1.00  0.00     0.017 A 
ATOM     13  C   UNL     1     123.574 112.544 107.917  1.00  0.00     0.000 A 
ATOM     14  C   UNL     1     123.437 113.923 107.755  1.00  0.00     0.001 A 
ATOM     15  C   UNL     1     124.747 112.022 108.461  1.00  0.00     0.001 A 
ATOM     16  C   UNL     1     124.471 114.784 108.137  1.00  0.00     0.012 A 
ATOM     17  C   UNL     1     125.785 112.876 108.845  1.00  0.00     0.012 A 
ENDBRANCH   1  12
TORSDOF 1
ENDMDL
MODEL 3
REMARK VINA RESULT:    -4.361     16.669     19.087
REMARK INTER + INTRA:          -4.882
REMARK INTER:                  -4.657
REMARK INTRA:                  -0.225
REMARK UNBOUND:                -0.266
REMARK SMILES O=c1cc(-c2ccccc2)oc2ccccc12
REMARK SMILES IDX 4 1 3 2 2 3 1 4 17 5 16 6 15 7 14 8 13 9 12 10 11 11 5 12
REMARK SMILES IDX 8 13 7 14 9 15 6 16 10 17
REMARK H PARENT
REMARK Flexibility Score: inf
ROOT
ATOM      1  C   UNL     1     119.051 106.598 122.134  1.00  0.00     0.138 A 
ATOM      2  C   UNL     1     118.247 107.493 121.397  1.00  0.00     0.100 A 
ATOM      3  C   UNL     1     116.859 107.437 121.525  1.00  0.00     0.193 A 
ATOM      4  O   UNL     1     116.140 108.238 120.866  1.00  0.00    -0.289 OA
ATOM      5  C   UNL     1     116.282 106.490 122.383  1.00  0.00     0.065 A 
ATOM      6  C   UNL     1     114.890 106.380 122.558  1.00  0.00     0.016 A 
ATOM      7  C   UNL     1     114.368 105.418 123.427  1.00  0.00     0.001 A 
ATOM      8  C   UNL     1     115.225 104.561 124.125  1.00  0.00     0.004 A 
ATOM      9  C   UNL     1     116.609 104.664 123.958  1.00  0.00     0.048 A 
ATOM     10  C   UNL     1     117.142 105.624 123.091  1.00  0.00     0.138 A 
ATOM     11  O   UNL     1     118.460 105.713 122.938  1.00  0.00    -0.456 OA
ENDROOT
BRANCH   1  12
ATOM     12  C   UNL     1     120.544 106.591 122.055  1.00  0.00     0.017 A 
ATOM     13  C   UNL     1     123.358 106.500 121.848  1.00  0.00     0.000 A 
ATOM     14  C   UNL     1     122.747 107.484 122.625  1.00  0.00     0.001 A 
ATOM     15  C   UNL     1     122.578 105.563 121.173  1.00  0.00     0.001 A 
ATOM     16  C   UNL     1     121.353 107.534 122.731  1.00  0.00     0.012 A 
ATOM     17  C   UNL     1     121.184 105.605 121.274  1.00  0.00     0.012 A 
ENDBRANCH   1  12
TORSDOF 1
ENDMDL
MODEL 4
REMARK VINA RESULT:    -4.332     16.446     18.395
REMARK INTER + INTRA:          -4.851
REMARK INTER:                  -4.621
REMARK INTRA:                  -0.230
REMARK UNBOUND:                -0.266
REMARK SMILES O=c1cc(-c2ccccc2)oc2ccccc12
REMARK SMILES IDX 4 1 3 2 2 3 1 4 17 5 16 6 15 7 14 8 13 9 12 10 11 11 5 12
REMARK SMILES IDX 8 13 7 14 9 15 6 16 10 17
REMARK H PARENT
REMARK Flexibility Score: inf
ROOT
ATOM      1  C   UNL     1     118.809 105.803 122.448  1.00  0.00     0.138 A 
ATOM      2  C   UNL     1     119.437 104.758 121.740  1.00  0.00     0.100 A 
ATOM      3  C   UNL     1     120.796 104.852 121.434  1.00  0.00     0.193 A 
ATOM      4  O   UNL     1     121.358 103.917 120.800  1.00  0.00    -0.289 OA
ATOM      5  C   UNL     1     121.516 105.987 121.834  1.00  0.00     0.065 A 
ATOM      6  C   UNL     1     122.886 106.146 121.557  1.00  0.00     0.016 A 
ATOM      7  C   UNL     1     123.557 107.298 121.980  1.00  0.00     0.001 A 
ATOM      8  C   UNL     1     122.869 108.296 122.677  1.00  0.00     0.004 A 
ATOM      9  C   UNL     1     121.508 108.146 122.957  1.00  0.00     0.048 A 
ATOM     10  C   UNL     1     120.828 106.997 122.539  1.00  0.00     0.138 A 
ATOM     11  O   UNL     1     119.532 106.864 122.809  1.00  0.00    -0.456 OA
ENDROOT
BRANCH   1  12
ATOM     12  C   UNL     1     117.360 105.781 122.816  1.00  0.00     0.017 A 
ATOM     13  C   UNL     1     114.609 105.814 123.451  1.00  0.00     0.000 A 
ATOM     14  C   UNL     1     115.450 104.873 124.043  1.00  0.00     0.001 A 
ATOM     15  C   UNL     1     115.128 106.739 122.546  1.00  0.00     0.001 A 
ATOM     16  C   UNL     1     116.814 104.851 123.731  1.00  0.00     0.012 A 
ATOM     17  C   UNL     1     116.490 106.725 122.230  1.00  0.00     0.012 A 
ENDBRANCH   1  12
TORSDOF 1
ENDMDL
MODEL 5
REMARK VINA RESULT:    -4.301      2.761      4.818
REMARK INTER + INTRA:          -4.818
REMARK INTER:                  -4.568
REMARK INTRA:                  -0.250
REMARK UNBOUND:                -0.266
REMARK SMILES O=c1cc(-c2ccccc2)oc2ccccc12
REMARK SMILES IDX 4 1 3 2 2 3 1 4 17 5 16 6 15 7 14 8 13 9 12 10 11 11 5 12
REMARK SMILES IDX 8 13 7 14 9 15 6 16 10 17
REMARK H PARENT
REMARK Flexibility Score: inf
ROOT
ATOM      1  C   UNL     1     124.827 111.405 108.686  1.00  0.00     0.138 A 
ATOM      2  C   UNL     1     123.711 112.019 108.082  1.00  0.00     0.100 A 
ATOM      3  C   UNL     1     123.659 113.411 107.984  1.00  0.00     0.193 A 
ATOM      4  O   UNL     1     122.661 113.960 107.443  1.00  0.00    -0.289 OA
ATOM      5  C   UNL     1     124.718 114.178 108.490  1.00  0.00     0.065 A 
ATOM      6  C   UNL     1     124.729 115.583 108.424  1.00  0.00     0.016 A 
ATOM      7  C   UNL     1     125.812 116.300 108.944  1.00  0.00     0.001 A 
ATOM      8  C   UNL     1     126.885 115.624 109.531  1.00  0.00     0.004 A 
ATOM      9  C   UNL     1     126.883 114.228 109.600  1.00  0.00     0.048 A 
ATOM     10  C   UNL     1     125.805 113.501 109.083  1.00  0.00     0.138 A 
ATOM     11  O   UNL     1     125.811 112.173 109.154  1.00  0.00    -0.456 OA
ENDROOT
BRANCH   1  12
ATOM     12  C   UNL     1     124.961 109.922 108.831  1.00  0.00     0.017 A 
ATOM     13  C   UNL     1     125.255 107.138 109.192  1.00  0.00     0.000 A 
ATOM     14  C   UNL     1     124.684 107.633 108.020  1.00  0.00     0.001 A 
ATOM     15  C   UNL     1     125.681 108.019 110.185  1.00  0.00     0.001 A 
ATOM     16  C   UNL     1     124.535 109.012 107.836  1.00  0.00     0.012 A 
ATOM     17  C   UNL     1     125.537 109.399 110.009  1.00  0.00     0.012 A 
ENDBRANCH   1  12
TORSDOF 1
ENDMDL
MODEL 6
REMARK VINA RESULT:    -4.283      1.279      6.253
REMARK INTER + INTRA:          -4.799
REMARK INTER:                  -4.533
REMARK INTRA:                  -0.266
REMARK UNBOUND:                -0.266
REMARK SMILES O=c1cc(-c2ccccc2)oc2ccccc12
REMARK SMILES IDX 4 1 3 2 2 3 1 4 17 5 16 6 15 7 14 8 13 9 12 10 11 11 5 12
REMARK SMILES IDX 8 13 7 14 9 15 6 16 10 17
REMARK H PARENT
REMARK Flexibility Score: inf
ROOT
ATOM      1  C   UNL     1     127.260 115.511 109.507  1.00  0.00     0.138 A 
ATOM      2  C   UNL     1     127.620 114.327 110.185  1.00  0.00     0.100 A 
ATOM      3  C   UNL     1     126.780 113.214 110.120  1.00  0.00     0.193 A 
ATOM      4  O   UNL     1     127.103 112.156 110.726  1.00  0.00    -0.289 OA
ATOM      5  C   UNL     1     125.589 113.290 109.383  1.00  0.00     0.065 A 
ATOM      6  C   UNL     1     124.699 112.205 109.278  1.00  0.00     0.016 A 
ATOM      7  C   UNL     1     123.525 112.334 108.529  1.00  0.00     0.001 A 
ATOM      8  C   UNL     1     123.231 113.539 107.885  1.00  0.00     0.004 A 
ATOM      9  C   UNL     1     124.110 114.621 107.984  1.00  0.00     0.048 A 
ATOM     10  C   UNL     1     125.288 114.503 108.730  1.00  0.00     0.138 A 
ATOM     11  O   UNL     1     126.118 115.538 108.819  1.00  0.00    -0.456 OA
ENDROOT
BRANCH   1  12
ATOM     12  C   UNL     1     128.101 116.747 109.525  1.00  0.00     0.017 A 
ATOM     13  C   UNL     1     129.624 119.124 109.499  1.00  0.00     0.000 A 
ATOM     14  C   UNL     1     130.070 118.017 110.220  1.00  0.00     0.001 A 
ATOM     15  C   UNL     1     128.425 119.055 108.791  1.00  0.00     0.001 A 
ATOM     16  C   UNL     1     129.320 116.837 110.237  1.00  0.00     0.012 A 
ATOM     17  C   UNL     1     127.669 117.880 108.802  1.00  0.00     0.012 A 
ENDBRANCH   1  12
TORSDOF 1
ENDMDL
MODEL 7
REMARK VINA RESULT:    -4.178      1.668      5.992
REMARK INTER + INTRA:          -4.688
REMARK INTER:                  -4.423
REMARK INTRA:                  -0.266
REMARK UNBOUND:                -0.266
REMARK SMILES O=c1cc(-c2ccccc2)oc2ccccc12
REMARK SMILES IDX 4 1 3 2 2 3 1 4 17 5 16 6 15 7 14 8 13 9 12 10 11 11 5 12
REMARK SMILES IDX 8 13 7 14 9 15 6 16 10 17
REMARK H PARENT
REMARK Flexibility Score: inf
ROOT
ATOM      1  C   UNL     1     125.648 115.083 108.829  1.00  0.00     0.138 A 
ATOM      2  C   UNL     1     124.380 115.116 108.211  1.00  0.00     0.100 A 
ATOM      3  C   UNL     1     123.682 113.924 108.007  1.00  0.00     0.193 A 
ATOM      4  O   UNL     1     122.548 113.954 107.455  1.00  0.00    -0.289 OA
ATOM      5  C   UNL     1     124.253 112.711 108.420  1.00  0.00     0.065 A 
ATOM      6  C   UNL     1     123.603 111.476 108.244  1.00  0.00     0.016 A 
ATOM      7  C   UNL     1     124.217 110.295 108.674  1.00  0.00     0.001 A 
ATOM      8  C   UNL     1     125.477 110.338 109.278  1.00  0.00     0.004 A 
ATOM      9  C   UNL     1     126.129 111.561 109.457  1.00  0.00     0.048 A 
ATOM     10  C   UNL     1     125.523 112.748 109.031  1.00  0.00     0.138 A 
ATOM     11  O   UNL     1     126.152 113.907 109.204  1.00  0.00    -0.456 OA
ENDROOT
BRANCH   1  12
ATOM     12  C   UNL     1     126.461 116.312 109.084  1.00  0.00     0.017 A 
ATOM     13  C   UNL     1     127.920 118.687 109.533  1.00  0.00     0.000 A 
ATOM     14  C   UNL     1     128.495 117.449 109.821  1.00  0.00     0.001 A 
ATOM     15  C   UNL     1     126.624 118.750 109.024  1.00  0.00     0.001 A 
ATOM     16  C   UNL     1     127.776 116.269 109.601  1.00  0.00     0.012 A 
ATOM     17  C   UNL     1     125.899 117.576 108.800  1.00  0.00     0.012 A 
ENDBRANCH   1  12
TORSDOF 1
ENDMDL
MODEL 8
REMARK VINA RESULT:    -4.164     17.111     19.732
REMARK INTER + INTRA:          -4.673
REMARK INTER:                  -4.407
REMARK INTRA:                  -0.266
REMARK UNBOUND:                -0.266
REMARK SMILES O=c1cc(-c2ccccc2)oc2ccccc12
REMARK SMILES IDX 4 1 3 2 2 3 1 4 17 5 16 6 15 7 14 8 13 9 12 10 11 11 5 12
REMARK SMILES IDX 8 13 7 14 9 15 6 16 10 17
REMARK H PARENT
REMARK Flexibility Score: inf
ROOT
ATOM      1  C   UNL     1     118.969 106.094 122.645  1.00  0.00     0.138 A 
ATOM      2  C   UNL     1     119.108 104.802 123.194  1.00  0.00     0.100 A 
ATOM      3  C   UNL     1     117.976 104.116 123.635  1.00  0.00     0.193 A 
ATOM      4  O   UNL     1     118.100 102.960 124.125  1.00  0.00    -0.289 OA
ATOM      5  C   UNL     1     116.716 104.722 123.527  1.00  0.00     0.065 A 
ATOM      6  C   UNL     1     115.535 104.085 123.953  1.00  0.00     0.016 A 
ATOM      7  C   UNL     1     114.304 104.735 123.822  1.00  0.00     0.001 A 
ATOM      8  C   UNL     1     114.241 106.018 123.270  1.00  0.00     0.004 A 
ATOM      9  C   UNL     1     115.409 106.657 122.844  1.00  0.00     0.048 A 
ATOM     10  C   UNL     1     116.646 106.016 122.970  1.00  0.00     0.138 A 
ATOM     11  O   UNL     1     117.751 106.632 122.563  1.00  0.00    -0.456 OA
ENDROOT
BRANCH   1  12
ATOM     12  C   UNL     1     120.129 106.897 122.150  1.00  0.00     0.017 A 
ATOM     13  C   UNL     1     122.257 108.487 121.192  1.00  0.00     0.000 A 
ATOM     14  C   UNL     1     122.509 107.206 121.685  1.00  0.00     0.001 A 
ATOM     15  C   UNL     1     120.954 108.981 121.173  1.00  0.00     0.001 A 
ATOM     16  C   UNL     1     121.458 106.415 122.161  1.00  0.00     0.012 A 
ATOM     17  C   UNL     1     119.898 108.196 121.646  1.00  0.00     0.012 A 
ENDBRANCH   1  12
TORSDOF 1
ENDMDL
MODEL 9
REMARK VINA RESULT:    -3.192      1.186      2.453
REMARK INTER + INTRA:          -3.645
REMARK INTER:                  -3.383
REMARK INTRA:                  -0.262
REMARK UNBOUND:                -0.266
REMARK SMILES O=c1cc(-c2ccccc2)oc2ccccc12
REMARK SMILES IDX 4 1 3 2 2 3 1 4 17 5 16 6 15 7 14 8 13 9 12 10 11 11 5 12
REMARK SMILES IDX 8 13 7 14 9 15 6 16 10 17
REMARK H PARENT
REMARK Flexibility Score: inf
ROOT
ATOM      1  C   UNL     1     126.834 114.840 109.319  1.00  0.00     0.138 A 
ATOM      2  C   UNL     1     127.853 114.331 110.151  1.00  0.00     0.100 A 
ATOM      3  C   UNL     1     128.909 115.159 110.533  1.00  0.00     0.193 A 
ATOM      4  O   UNL     1     129.820 114.703 111.277  1.00  0.00    -0.289 OA
ATOM      5  C   UNL     1     128.943 116.487 110.082  1.00  0.00     0.065 A 
ATOM      6  C   UNL     1     129.979 117.374 110.429  1.00  0.00     0.016 A 
ATOM      7  C   UNL     1     129.963 118.688 109.952  1.00  0.00     0.001 A 
ATOM      8  C   UNL     1     128.921 119.125 109.129  1.00  0.00     0.004 A 
ATOM      9  C   UNL     1     127.888 118.251 108.780  1.00  0.00     0.048 A 
ATOM     10  C   UNL     1     127.893 116.933 109.252  1.00  0.00     0.138 A 
ATOM     11  O   UNL     1     126.907 116.109 108.914  1.00  0.00    -0.456 OA
ENDROOT
BRANCH   1  12
ATOM     12  C   UNL     1     125.668 114.021 108.865  1.00  0.00     0.017 A 
ATOM     13  C   UNL     1     123.419 112.558 107.986  1.00  0.00     0.000 A 
ATOM     14  C   UNL     1     124.547 111.888 108.461  1.00  0.00     0.001 A 
ATOM     15  C   UNL     1     123.405 113.951 107.946  1.00  0.00     0.001 A 
ATOM     16  C   UNL     1     125.664 112.607 108.897  1.00  0.00     0.012 A 
ATOM     17  C   UNL     1     124.517 114.679 108.381  1.00  0.00     0.012 A 
ENDBRANCH   1  12
TORSDOF 1
ENDMDL
