MODEL 1
REMARK VINA RESULT:    -4.634      0.000      0.000
REMARK INTER + INTRA:          -6.742
REMARK INTER:                  -6.260
REMARK INTRA:                  -0.482
REMARK UNBOUND:                -0.482
REMARK SMILES O=C[C@@H](O)[C@@H](O)[C@@H](O)CO
REMARK SMILES IDX 7 1 9 2 10 3 5 5 3 6 2 7 1 8 4 9 6 11 8 13
REMARK H PARENT 10 4 4 10 6 12 8 14
REMARK Flexibility Score: inf
ROOT
ATOM      1  C   UNL     1      -3.697  -0.122   2.701  1.00  0.00     0.171 C 
ENDROOT
BRANCH   1   2
ATOM      2  C   UNL     1      -2.287   0.152   3.262  1.00  0.00     0.190 C 
BRANCH   2   3
ATOM      3  O   UNL     1      -1.435   0.675   2.278  1.00  0.00    -0.394 OA
ATOM      4  H   UNL     1      -1.363   1.651   2.446  1.00  0.00     0.210 HD
ENDBRANCH   2   3
ENDBRANCH   1   2
BRANCH   1   5
ATOM      5  C   UNL     1      -3.757  -1.303   1.689  1.00  0.00     0.181 C 
BRANCH   5   6
ATOM      6  C   UNL     1      -5.072  -2.135   1.671  1.00  0.00     0.209 C 
BRANCH   6   7
ATOM      7  C   UNL     1      -5.119  -3.114   0.528  1.00  0.00     0.258 C 
ATOM      8  O   UNL     1      -4.945  -2.736  -0.620  1.00  0.00    -0.300 OA
ENDBRANCH   6   7
BRANCH   6   9
ATOM      9  O   UNL     1      -5.251  -2.805   2.892  1.00  0.00    -0.383 OA
ATOM     10  H   UNL     1      -5.756  -2.192   3.488  1.00  0.00     0.211 HD
ENDBRANCH   6   9
ENDBRANCH   5   6
BRANCH   5  11
ATOM     11  O   UNL     1      -3.480  -0.823   0.396  1.00  0.00    -0.387 OA
ATOM     12  H   UNL     1      -4.273  -1.010  -0.172  1.00  0.00     0.211 HD
ENDBRANCH   5  11
ENDBRANCH   1   5
BRANCH   1  13
ATOM     13  O   UNL     1      -4.620  -0.314   3.744  1.00  0.00    -0.388 OA
ATOM     14  H   UNL     1      -4.183   0.003   4.578  1.00  0.00     0.211 HD
ENDBRANCH   1  13
TORSDOF 8
ENDMDL
MODEL 2
REMARK VINA RESULT:    -3.660      0.547      3.870
REMARK INTER + INTRA:          -5.425
REMARK INTER:                  -4.802
REMARK INTRA:                  -0.623
REMARK UNBOUND:                -0.482
REMARK SMILES O=C[C@@H](O)[C@@H](O)[C@@H](O)CO
REMARK SMILES IDX 7 1 9 2 10 3 5 5 3 6 2 7 1 8 4 9 6 11 8 13
REMARK H PARENT 10 4 4 10 6 12 8 14
REMARK Flexibility Score: inf
ROOT
ATOM      1  C   UNL     1      -4.664  -2.725   1.412  1.00  0.00     0.171 C 
ENDROOT
BRANCH   1   2
ATOM      2  C   UNL     1      -5.438  -3.123   0.139  1.00  0.00     0.190 C 
BRANCH   2   3
ATOM      3  O   UNL     1      -4.689  -2.870  -1.020  1.00  0.00    -0.394 OA
ATOM      4  H   UNL     1      -4.227  -2.002  -0.881  1.00  0.00     0.210 HD
ENDBRANCH   2   3
ENDBRANCH   1   2
BRANCH   1   5
ATOM      5  C   UNL     1      -4.300  -1.213   1.484  1.00  0.00     0.181 C 
BRANCH   5   6
ATOM      6  C   UNL     1      -3.656  -0.718   2.812  1.00  0.00     0.209 C 
BRANCH   6   7
ATOM      7  C   UNL     1      -2.692   0.419   2.595  1.00  0.00     0.258 C 
ATOM      8  O   UNL     1      -1.490   0.212   2.551  1.00  0.00    -0.300 OA
ENDBRANCH   6   7
BRANCH   6   9
ATOM      9  O   UNL     1      -4.646  -0.346   3.734  1.00  0.00    -0.383 OA
ATOM     10  H   UNL     1      -5.501  -0.284   3.233  1.00  0.00     0.211 HD
ENDBRANCH   6   9
ENDBRANCH   5   6
BRANCH   5  11
ATOM     11  O   UNL     1      -3.469  -0.880   0.399  1.00  0.00    -0.387 OA
ATOM     12  H   UNL     1      -3.592  -1.576  -0.299  1.00  0.00     0.211 HD
ENDBRANCH   5  11
ENDBRANCH   1   5
BRANCH   1  13
ATOM     13  O   UNL     1      -5.361  -3.125   2.565  1.00  0.00    -0.388 OA
ATOM     14  H   UNL     1      -5.890  -3.929   2.318  1.00  0.00     0.211 HD
ENDBRANCH   1  13
TORSDOF 8
ENDMDL
MODEL 3
REMARK VINA RESULT:    -3.428      0.922      4.249
REMARK INTER + INTRA:          -5.112
REMARK INTER:                  -4.874
REMARK INTRA:                  -0.239
REMARK UNBOUND:                -0.482
REMARK SMILES O=C[C@@H](O)[C@@H](O)[C@@H](O)CO
REMARK SMILES IDX 7 1 9 2 10 3 5 5 3 6 2 7 1 8 4 9 6 11 8 13
REMARK H PARENT 10 4 4 10 6 12 8 14
REMARK Flexibility Score: inf
ROOT
ATOM      1  C   UNL     1      -4.741  -1.515   0.980  1.00  0.00     0.171 C 
ENDROOT
BRANCH   1   2
ATOM      2  C   UNL     1      -5.181  -2.925   0.537  1.00  0.00     0.190 C 
BRANCH   2   3
ATOM      3  O   UNL     1      -4.962  -3.125  -0.834  1.00  0.00    -0.394 OA
ATOM      4  H   UNL     1      -5.653  -3.766  -1.147  1.00  0.00     0.210 HD
ENDBRANCH   2   3
ENDBRANCH   1   2
BRANCH   1   5
ATOM      5  C   UNL     1      -4.124  -1.463   2.408  1.00  0.00     0.181 C 
BRANCH   5   6
ATOM      6  C   UNL     1      -3.657  -0.066   2.911  1.00  0.00     0.209 C 
BRANCH   6   7
ATOM      7  C   UNL     1      -2.197  -0.046   3.282  1.00  0.00     0.258 C 
ATOM      8  O   UNL     1      -1.416   0.675   2.683  1.00  0.00    -0.300 OA
ENDBRANCH   6   7
BRANCH   6   9
ATOM      9  O   UNL     1      -3.928   0.923   1.953  1.00  0.00    -0.383 OA
ATOM     10  H   UNL     1      -3.882   0.484   1.063  1.00  0.00     0.211 HD
ENDBRANCH   6   9
ENDBRANCH   5   6
BRANCH   5  11
ATOM     11  O   UNL     1      -5.028  -2.023   3.328  1.00  0.00    -0.387 OA
ATOM     12  H   UNL     1      -5.614  -2.651   2.831  1.00  0.00     0.211 HD
ENDBRANCH   5  11
ENDBRANCH   1   5
BRANCH   1  13
ATOM     13  O   UNL     1      -3.865  -0.947   0.038  1.00  0.00    -0.388 OA
ATOM     14  H   UNL     1      -4.255  -0.073  -0.228  1.00  0.00     0.211 HD
ENDBRANCH   1  13
TORSDOF 8
ENDMDL
MODEL 4
REMARK VINA RESULT:    -2.679      0.985      2.550
REMARK INTER + INTRA:          -4.101
REMARK INTER:                  -3.828
REMARK INTRA:                  -0.273
REMARK UNBOUND:                -0.482
REMARK SMILES O=C[C@@H](O)[C@@H](O)[C@@H](O)CO
REMARK SMILES IDX 7 1 9 2 10 3 5 5 3 6 2 7 1 8 4 9 6 11 8 13
REMARK H PARENT 10 4 4 10 6 12 8 14
REMARK Flexibility Score: inf
ROOT
ATOM      1  C   UNL     1      -2.067  -0.049   2.508  1.00  0.00     0.171 C 
ENDROOT
BRANCH   1   2
ATOM      2  C   UNL     1      -1.702   0.344   3.953  1.00  0.00     0.190 C 
BRANCH   2   3
ATOM      3  O   UNL     1      -0.377   0.797   4.044  1.00  0.00    -0.394 OA
ATOM      4  H   UNL     1      -0.397   1.780   3.903  1.00  0.00     0.210 HD
ENDBRANCH   2   3
ENDBRANCH   1   2
BRANCH   1   5
ATOM      5  C   UNL     1      -3.597  -0.195   2.258  1.00  0.00     0.181 C 
BRANCH   5   6
ATOM      6  C   UNL     1      -4.038  -1.355   1.320  1.00  0.00     0.209 C 
BRANCH   6   7
ATOM      7  C   UNL     1      -5.276  -2.056   1.814  1.00  0.00     0.258 C 
ATOM      8  O   UNL     1      -5.232  -2.767   2.805  1.00  0.00    -0.300 OA
ENDBRANCH   6   7
BRANCH   6   9
ATOM      9  O   UNL     1      -4.235  -0.888   0.011  1.00  0.00    -0.383 OA
ATOM     10  H   UNL     1      -3.687  -0.066  -0.089  1.00  0.00     0.211 HD
ENDBRANCH   6   9
ENDBRANCH   5   6
BRANCH   5  11
ATOM     11  O   UNL     1      -4.264  -0.300   3.492  1.00  0.00    -0.387 OA
ATOM     12  H   UNL     1      -3.818  -1.015   4.016  1.00  0.00     0.211 HD
ENDBRANCH   5  11
ENDBRANCH   1   5
BRANCH   1  13
ATOM     13  O   UNL     1      -1.496   0.848   1.588  1.00  0.00    -0.388 OA
ATOM     14  H   UNL     1      -1.756   0.536   0.681  1.00  0.00     0.211 HD
ENDBRANCH   1  13
TORSDOF 8
ENDMDL
MODEL 5
REMARK VINA RESULT:    -2.446      1.207      2.169
REMARK INTER + INTRA:          -3.786
REMARK INTER:                  -3.513
REMARK INTRA:                  -0.272
REMARK UNBOUND:                -0.482
REMARK SMILES O=C[C@@H](O)[C@@H](O)[C@@H](O)CO
REMARK SMILES IDX 7 1 9 2 10 3 5 5 3 6 2 7 1 8 4 9 6 11 8 13
REMARK H PARENT 10 4 4 10 6 12 8 14
REMARK Flexibility Score: inf
ROOT
ATOM      1  C   UNL     1      -3.532  -1.016   2.130  1.00  0.00     0.171 C 
ENDROOT
BRANCH   1   2
ATOM      2  C   UNL     1      -3.333   0.074   3.203  1.00  0.00     0.190 C 
BRANCH   2   3
ATOM      3  O   UNL     1      -2.022   0.070   3.702  1.00  0.00    -0.394 OA
ATOM      4  H   UNL     1      -1.460  -0.410   3.037  1.00  0.00     0.210 HD
ENDBRANCH   2   3
ENDBRANCH   1   2
BRANCH   1   5
ATOM      5  C   UNL     1      -4.977  -1.592   2.072  1.00  0.00     0.181 C 
BRANCH   5   6
ATOM      6  C   UNL     1      -5.372  -2.344   0.768  1.00  0.00     0.209 C 
BRANCH   6   7
ATOM      7  C   UNL     1      -5.846  -1.409  -0.314  1.00  0.00     0.258 C 
ATOM      8  O   UNL     1      -5.047  -0.872  -1.063  1.00  0.00    -0.300 OA
ENDBRANCH   6   7
BRANCH   6   9
ATOM      9  O   UNL     1      -4.302  -3.123   0.301  1.00  0.00    -0.383 OA
ATOM     10  H   UNL     1      -3.637  -3.174   1.037  1.00  0.00     0.211 HD
ENDBRANCH   6   9
ENDBRANCH   5   6
BRANCH   5  11
ATOM     11  O   UNL     1      -5.192  -2.425   3.186  1.00  0.00    -0.387 OA
ATOM     12  H   UNL     1      -4.510  -2.196   3.870  1.00  0.00     0.211 HD
ENDBRANCH   5  11
ENDBRANCH   1   5
BRANCH   1  13
ATOM     13  O   UNL     1      -3.131  -0.550   0.866  1.00  0.00    -0.388 OA
ATOM     14  H   UNL     1      -3.342  -1.269   0.213  1.00  0.00     0.211 HD
ENDBRANCH   1  13
TORSDOF 8
ENDMDL
MODEL 6
REMARK VINA RESULT:    -1.755      1.198      4.004
REMARK INTER + INTRA:          -2.852
REMARK INTER:                  -2.688
REMARK INTRA:                  -0.164
REMARK UNBOUND:                -0.482
REMARK SMILES O=C[C@@H](O)[C@@H](O)[C@@H](O)CO
REMARK SMILES IDX 7 1 9 2 10 3 5 5 3 6 2 7 1 8 4 9 6 11 8 13
REMARK H PARENT 10 4 4 10 6 12 8 14
REMARK Flexibility Score: inf
ROOT
ATOM      1  C   UNL     1      -5.143  -2.612   0.727  1.00  0.00     0.171 C 
ENDROOT
BRANCH   1   2
ATOM      2  C   UNL     1      -5.283  -1.562  -0.393  1.00  0.00     0.190 C 
BRANCH   2   3
ATOM      3  O   UNL     1      -4.091  -1.424  -1.121  1.00  0.00    -0.394 OA
ATOM      4  H   UNL     1      -3.511  -0.801  -0.610  1.00  0.00     0.210 HD
ENDBRANCH   2   3
ENDBRANCH   1   2
BRANCH   1   5
ATOM      5  C   UNL     1      -4.371  -2.103   1.980  1.00  0.00     0.181 C 
BRANCH   5   6
ATOM      6  C   UNL     1      -3.875  -0.629   1.936  1.00  0.00     0.209 C 
BRANCH   6   7
ATOM      7  C   UNL     1      -3.639  -0.060   3.311  1.00  0.00     0.258 C 
ATOM      8  O   UNL     1      -4.580   0.182   4.051  1.00  0.00    -0.300 OA
ENDBRANCH   6   7
BRANCH   6   9
ATOM      9  O   UNL     1      -2.711  -0.520   1.160  1.00  0.00    -0.383 OA
ATOM     10  H   UNL     1      -2.407  -1.444   0.961  1.00  0.00     0.211 HD
ENDBRANCH   6   9
ENDBRANCH   5   6
BRANCH   5  11
ATOM     11  O   UNL     1      -5.157  -2.308   3.128  1.00  0.00    -0.387 OA
ATOM     12  H   UNL     1      -4.602  -2.799   3.789  1.00  0.00     0.211 HD
ENDBRANCH   5  11
ENDBRANCH   1   5
BRANCH   1  13
ATOM     13  O   UNL     1      -6.400  -3.124   1.092  1.00  0.00    -0.388 OA
ATOM     14  H   UNL     1      -7.082  -2.566   0.634  1.00  0.00     0.211 HD
ENDBRANCH   1  13
TORSDOF 8
ENDMDL
