MODEL 1
REMARK VINA RESULT:    -1.487      0.000      0.000
REMARK INTER + INTRA:          -3.946
REMARK INTER:                  -2.790
REMARK INTRA:                  -1.156
REMARK UNBOUND:                -1.156
REMARK SMILES CCCCCCCCC=CCCCCCCCC(=O)[O-]
REMARK SMILES IDX 10 1 9 2 11 3 12 4 13 5 14 6 15 7 16 8 17 9 18 10 19 11
REMARK SMILES IDX 20 12 8 13 7 14 6 15 5 16 4 17 3 18 2 19 1 20
REMARK H PARENT
REMARK Flexibility Score: inf
ROOT
ATOM      1  C   UNL     1     -55.819 121.501  -8.499  1.00  0.00    -0.031 C 
ATOM      2  C   UNL     1     -54.761 122.235  -8.878  1.00  0.00    -0.031 C 
ENDROOT
BRANCH   1   3
ATOM      3  C   UNL     1     -57.106 121.516  -9.278  1.00  0.00     0.027 C 
BRANCH   3   4
ATOM      4  C   UNL     1     -57.442 120.118  -9.818  1.00  0.00     0.004 C 
BRANCH   4   5
ATOM      5  C   UNL     1     -57.710 120.116 -11.332  1.00  0.00     0.000 C 
BRANCH   5   6
ATOM      6  C   UNL     1     -56.626 120.869 -12.120  1.00  0.00     0.000 C 
BRANCH   6   7
ATOM      7  C   UNL     1     -55.274 120.135 -12.125  1.00  0.00     0.000 C 
BRANCH   7   8
ATOM      8  C   UNL     1     -54.071 121.051 -11.814  1.00  0.00     0.006 C 
BRANCH   8   9
ATOM      9  C   UNL     1     -52.772 120.256 -11.623  1.00  0.00     0.053 C 
BRANCH   9  10
ATOM     10  C   UNL     1     -52.667 119.753 -10.218  1.00  0.00     0.041 C 
ATOM     11  O   UNL     1     -53.603 119.077  -9.714  1.00  0.00    -0.550 OA
ATOM     12  O   UNL     1     -51.510 119.982  -9.484  1.00  0.00    -0.550 OA
ENDBRANCH   9  10
ENDBRANCH   8   9
ENDBRANCH   7   8
ENDBRANCH   6   7
ENDBRANCH   5   6
ENDBRANCH   4   5
ENDBRANCH   3   4
ENDBRANCH   1   3
BRANCH   2  13
ATOM     13  C   UNL     1     -53.473 122.218  -8.102  1.00  0.00     0.027 C 
BRANCH  13  14
ATOM     14  C   UNL     1     -52.646 123.482  -8.370  1.00  0.00     0.004 C 
BRANCH  14  15
ATOM     15  C   UNL     1     -51.367 123.144  -9.153  1.00  0.00     0.000 C 
BRANCH  15  16
ATOM     16  C   UNL     1     -50.190 124.067  -8.798  1.00  0.00     0.000 C 
BRANCH  16  17
ATOM     17  C   UNL     1     -48.887 123.667  -9.511  1.00  0.00    -0.000 C 
BRANCH  17  18
ATOM     18  C   UNL     1     -48.899 124.004 -11.013  1.00  0.00    -0.000 C 
BRANCH  18  19
ATOM     19  C   UNL     1     -48.910 122.785 -11.954  1.00  0.00    -0.003 C 
ATOM     20  C   UNL     1     -48.995 121.453 -11.210  1.00  0.00     0.004 C 
ENDBRANCH  18  19
ENDBRANCH  17  18
ENDBRANCH  16  17
ENDBRANCH  15  16
ENDBRANCH  14  15
ENDBRANCH  13  14
ENDBRANCH   2  13
TORSDOF 15
ENDMDL
MODEL 2
REMARK VINA RESULT:    -0.904      1.929      5.586
REMARK INTER + INTRA:          -2.852
REMARK INTER:                  -3.104
REMARK INTRA:                   0.251
REMARK UNBOUND:                -1.156
REMARK SMILES CCCCCCCCC=CCCCCCCCC(=O)[O-]
REMARK SMILES IDX 10 1 9 2 11 3 12 4 13 5 14 6 15 7 16 8 17 9 18 10 19 11
REMARK SMILES IDX 20 12 8 13 7 14 6 15 5 16 4 17 3 18 2 19 1 20
REMARK H PARENT
REMARK Flexibility Score: inf
ROOT
ATOM      1  C   UNL     1     -55.818 121.653 -11.929  1.00  0.00    -0.031 C 
ATOM      2  C   UNL     1     -56.321 120.424 -12.123  1.00  0.00    -0.031 C 
ENDROOT
BRANCH   1   3
ATOM      3  C   UNL     1     -54.355 121.944 -12.124  1.00  0.00     0.027 C 
BRANCH   3   4
ATOM      4  C   UNL     1     -53.508 120.678 -11.928  1.00  0.00     0.004 C 
BRANCH   4   5
ATOM      5  C   UNL     1     -52.002 120.942 -12.091  1.00  0.00     0.000 C 
BRANCH   5   6
ATOM      6  C   UNL     1     -51.399 121.666 -10.877  1.00  0.00     0.000 C 
BRANCH   6   7
ATOM      7  C   UNL     1     -50.305 120.843 -10.175  1.00  0.00     0.000 C 
BRANCH   7   8
ATOM      8  C   UNL     1     -48.876 121.366 -10.431  1.00  0.00     0.006 C 
BRANCH   8   9
ATOM      9  C   UNL     1     -48.875 122.743 -11.108  1.00  0.00     0.053 C 
BRANCH   9  10
ATOM     10  C   UNL     1     -49.245 123.810 -10.127  1.00  0.00     0.041 C 
ATOM     11  O   UNL     1     -49.461 124.988 -10.520  1.00  0.00    -0.550 OA
ATOM     12  O   UNL     1     -49.407 123.493  -8.784  1.00  0.00    -0.550 OA
ENDBRANCH   9  10
ENDBRANCH   8   9
ENDBRANCH   7   8
ENDBRANCH   6   7
ENDBRANCH   5   6
ENDBRANCH   4   5
ENDBRANCH   3   4
ENDBRANCH   1   3
BRANCH   2  13
ATOM     13  C   UNL     1     -57.784 120.132 -11.931  1.00  0.00     0.027 C 
BRANCH  13  14
ATOM     14  C   UNL     1     -58.211 120.366 -10.476  1.00  0.00     0.004 C 
BRANCH  14  15
ATOM     15  C   UNL     1     -57.016 120.206  -9.523  1.00  0.00     0.000 C 
BRANCH  15  16
ATOM     16  C   UNL     1     -56.776 121.453  -8.656  1.00  0.00     0.000 C 
BRANCH  16  17
ATOM     17  C   UNL     1     -55.417 122.117  -8.938  1.00  0.00    -0.000 C 
BRANCH  17  18
ATOM     18  C   UNL     1     -54.223 121.243  -8.512  1.00  0.00    -0.000 C 
BRANCH  18  19
ATOM     19  C   UNL     1     -52.880 121.988  -8.392  1.00  0.00    -0.003 C 
ATOM     20  C   UNL     1     -53.036 123.508  -8.396  1.00  0.00     0.004 C 
ENDBRANCH  18  19
ENDBRANCH  17  18
ENDBRANCH  16  17
ENDBRANCH  15  16
ENDBRANCH  14  15
ENDBRANCH  13  14
ENDBRANCH   2  13
TORSDOF 15
ENDMDL
MODEL 3
REMARK VINA RESULT:    -0.878      1.730      4.005
REMARK INTER + INTRA:          -2.803
REMARK INTER:                  -2.657
REMARK INTRA:                  -0.147
REMARK UNBOUND:                -1.156
REMARK SMILES CCCCCCCCC=CCCCCCCCC(=O)[O-]
REMARK SMILES IDX 10 1 9 2 11 3 12 4 13 5 14 6 15 7 16 8 17 9 18 10 19 11
REMARK SMILES IDX 20 12 8 13 7 14 6 15 5 16 4 17 3 18 2 19 1 20
REMARK H PARENT
REMARK Flexibility Score: inf
ROOT
ATOM      1  C   UNL     1     -51.795 120.998 -10.318  1.00  0.00    -0.031 C 
ATOM      2  C   UNL     1     -50.969 121.190 -11.358  1.00  0.00    -0.031 C 
ENDROOT
BRANCH   1   3
ATOM      3  C   UNL     1     -53.290 121.057 -10.479  1.00  0.00     0.027 C 
BRANCH   3   4
ATOM      4  C   UNL     1     -53.728 122.398 -11.087  1.00  0.00     0.004 C 
BRANCH   4   5
ATOM      5  C   UNL     1     -55.014 122.278 -11.922  1.00  0.00     0.000 C 
BRANCH   5   6
ATOM      6  C   UNL     1     -55.456 120.817 -12.111  1.00  0.00     0.000 C 
BRANCH   6   7
ATOM      7  C   UNL     1     -56.986 120.654 -12.124  1.00  0.00     0.000 C 
BRANCH   7   8
ATOM      8  C   UNL     1     -57.578 120.253 -10.757  1.00  0.00     0.006 C 
BRANCH   8   9
ATOM      9  C   UNL     1     -56.494 120.082  -9.684  1.00  0.00     0.053 C 
BRANCH   9  10
ATOM     10  C   UNL     1     -56.408 121.305  -8.826  1.00  0.00     0.041 C 
ATOM     11  O   UNL     1     -55.427 121.469  -8.052  1.00  0.00    -0.550 OA
ATOM     12  O   UNL     1     -57.381 122.291  -8.923  1.00  0.00    -0.550 OA
ENDBRANCH   9  10
ENDBRANCH   8   9
ENDBRANCH   7   8
ENDBRANCH   6   7
ENDBRANCH   5   6
ENDBRANCH   4   5
ENDBRANCH   3   4
ENDBRANCH   1   3
BRANCH   2  13
ATOM     13  C   UNL     1     -49.475 121.129 -11.199  1.00  0.00     0.027 C 
BRANCH  13  14
ATOM     14  C   UNL     1     -48.953 122.325 -10.394  1.00  0.00     0.004 C 
BRANCH  14  15
ATOM     15  C   UNL     1     -48.929 123.597 -11.256  1.00  0.00     0.000 C 
BRANCH  15  16
ATOM     16  C   UNL     1     -49.010 124.884 -10.419  1.00  0.00     0.000 C 
BRANCH  16  17
ATOM     17  C   UNL     1     -49.096 124.605  -8.909  1.00  0.00    -0.000 C 
BRANCH  17  18
ATOM     18  C   UNL     1     -50.259 123.667  -8.539  1.00  0.00    -0.000 C 
BRANCH  18  19
ATOM     19  C   UNL     1     -51.490 124.365  -7.930  1.00  0.00    -0.003 C 
ATOM     20  C   UNL     1     -52.811 123.707  -8.329  1.00  0.00     0.004 C 
ENDBRANCH  18  19
ENDBRANCH  17  18
ENDBRANCH  16  17
ENDBRANCH  15  16
ENDBRANCH  14  15
ENDBRANCH  13  14
ENDBRANCH   2  13
TORSDOF 15
ENDMDL
MODEL 4
REMARK VINA RESULT:    -0.836      1.308      2.988
REMARK INTER + INTRA:          -2.725
REMARK INTER:                  -2.438
REMARK INTRA:                  -0.287
REMARK UNBOUND:                -1.156
REMARK SMILES CCCCCCCCC=CCCCCCCCC(=O)[O-]
REMARK SMILES IDX 10 1 9 2 11 3 12 4 13 5 14 6 15 7 16 8 17 9 18 10 19 11
REMARK SMILES IDX 20 12 8 13 7 14 6 15 5 16 4 17 3 18 2 19 1 20
REMARK H PARENT
REMARK Flexibility Score: inf
ROOT
ATOM      1  C   UNL     1     -54.971 122.313 -11.936  1.00  0.00    -0.031 C 
ATOM      2  C   UNL     1     -53.997 122.944 -11.262  1.00  0.00    -0.031 C 
ENDROOT
BRANCH   1   3
ATOM      3  C   UNL     1     -56.339 122.115 -11.341  1.00  0.00     0.027 C 
BRANCH   3   4
ATOM      4  C   UNL     1     -56.586 120.637 -11.003  1.00  0.00     0.004 C 
BRANCH   4   5
ATOM      5  C   UNL     1     -57.024 120.429  -9.543  1.00  0.00     0.000 C 
BRANCH   5   6
ATOM      6  C   UNL     1     -56.666 121.627  -8.648  1.00  0.00     0.000 C 
BRANCH   6   7
ATOM      7  C   UNL     1     -55.178 122.009  -8.729  1.00  0.00     0.000 C 
BRANCH   7   8
ATOM      8  C   UNL     1     -54.224 120.886  -8.270  1.00  0.00     0.006 C 
BRANCH   8   9
ATOM      9  C   UNL     1     -53.044 120.698  -9.233  1.00  0.00     0.053 C 
BRANCH   9  10
ATOM     10  C   UNL     1     -53.107 119.353  -9.884  1.00  0.00     0.041 C 
ATOM     11  O   UNL     1     -53.072 118.306  -9.185  1.00  0.00    -0.550 OA
ATOM     12  O   UNL     1     -53.261 119.256 -11.262  1.00  0.00    -0.550 OA
ENDBRANCH   9  10
ENDBRANCH   8   9
ENDBRANCH   7   8
ENDBRANCH   6   7
ENDBRANCH   5   6
ENDBRANCH   4   5
ENDBRANCH   3   4
ENDBRANCH   1   3
BRANCH   2  13
ATOM     13  C   UNL     1     -52.630 123.144 -11.856  1.00  0.00     0.027 C 
BRANCH  13  14
ATOM     14  C   UNL     1     -51.939 121.801 -12.125  1.00  0.00     0.004 C 
BRANCH  14  15
ATOM     15  C   UNL     1     -50.491 121.818 -11.610  1.00  0.00     0.000 C 
BRANCH  15  16
ATOM     16  C   UNL     1     -49.696 123.036 -12.111  1.00  0.00     0.000 C 
BRANCH  16  17
ATOM     17  C   UNL     1     -48.932 123.749 -10.983  1.00  0.00    -0.000 C 
BRANCH  17  18
ATOM     18  C   UNL     1     -49.267 123.192  -9.587  1.00  0.00    -0.000 C 
BRANCH  18  19
ATOM     19  C   UNL     1     -49.979 124.182  -8.645  1.00  0.00    -0.003 C 
ATOM     20  C   UNL     1     -51.428 123.794  -8.352  1.00  0.00     0.004 C 
ENDBRANCH  18  19
ENDBRANCH  17  18
ENDBRANCH  16  17
ENDBRANCH  15  16
ENDBRANCH  14  15
ENDBRANCH  13  14
ENDBRANCH   2  13
TORSDOF 15
ENDMDL
MODEL 5
REMARK VINA RESULT:    -0.815      1.705      6.723
REMARK INTER + INTRA:          -2.686
REMARK INTER:                  -1.332
REMARK INTRA:                  -1.353
REMARK UNBOUND:                -1.156
REMARK SMILES CCCCCCCCC=CCCCCCCCC(=O)[O-]
REMARK SMILES IDX 10 1 9 2 11 3 12 4 13 5 14 6 15 7 16 8 17 9 18 10 19 11
REMARK SMILES IDX 20 12 8 13 7 14 6 15 5 16 4 17 3 18 2 19 1 20
REMARK H PARENT
REMARK Flexibility Score: inf
ROOT
ATOM      1  C   UNL     1     -52.024 120.587 -10.566  1.00  0.00    -0.031 C 
ATOM      2  C   UNL     1     -52.531 120.717 -11.801  1.00  0.00    -0.031 C 
ENDROOT
BRANCH   1   3
ATOM      3  C   UNL     1     -50.620 121.021 -10.242  1.00  0.00     0.027 C 
BRANCH   3   4
ATOM      4  C   UNL     1     -50.002 121.809 -11.407  1.00  0.00     0.004 C 
BRANCH   4   5
ATOM      5  C   UNL     1     -48.985 122.862 -10.937  1.00  0.00     0.000 C 
BRANCH   5   6
ATOM      6  C   UNL     1     -49.023 123.076  -9.415  1.00  0.00     0.000 C 
BRANCH   6   7
ATOM      7  C   UNL     1     -49.470 124.495  -9.024  1.00  0.00     0.000 C 
BRANCH   7   8
ATOM      8  C   UNL     1     -50.710 124.524  -8.106  1.00  0.00     0.006 C 
BRANCH   8   9
ATOM      9  C   UNL     1     -51.595 123.284  -8.288  1.00  0.00     0.053 C 
BRANCH   9  10
ATOM     10  C   UNL     1     -52.942 123.672  -8.808  1.00  0.00     0.041 C 
ATOM     11  O   UNL     1     -53.314 123.298  -9.953  1.00  0.00    -0.550 OA
ATOM     12  O   UNL     1     -53.812 124.402  -8.007  1.00  0.00    -0.550 OA
ENDBRANCH   9  10
ENDBRANCH   8   9
ENDBRANCH   7   8
ENDBRANCH   6   7
ENDBRANCH   5   6
ENDBRANCH   4   5
ENDBRANCH   3   4
ENDBRANCH   1   3
BRANCH   2  13
ATOM     13  C   UNL     1     -53.935 120.285 -12.125  1.00  0.00     0.027 C 
BRANCH  13  14
ATOM     14  C   UNL     1     -54.897 121.480 -12.124  1.00  0.00     0.004 C 
BRANCH  14  15
ATOM     15  C   UNL     1     -56.358 121.006 -12.068  1.00  0.00     0.000 C 
BRANCH  15  16
ATOM     16  C   UNL     1     -56.502 119.591 -11.483  1.00  0.00     0.000 C 
BRANCH  16  17
ATOM     17  C   UNL     1     -56.762 119.601  -9.967  1.00  0.00    -0.000 C 
BRANCH  17  18
ATOM     18  C   UNL     1     -57.372 120.925  -9.472  1.00  0.00    -0.000 C 
BRANCH  18  19
ATOM     19  C   UNL     1     -56.459 121.760  -8.554  1.00  0.00    -0.003 C 
ATOM     20  C   UNL     1     -55.142 121.059  -8.220  1.00  0.00     0.004 C 
ENDBRANCH  18  19
ENDBRANCH  17  18
ENDBRANCH  16  17
ENDBRANCH  15  16
ENDBRANCH  14  15
ENDBRANCH  13  14
ENDBRANCH   2  13
TORSDOF 15
ENDMDL
MODEL 6
REMARK VINA RESULT:    -0.707      1.991      5.571
REMARK INTER + INTRA:          -2.483
REMARK INTER:                  -2.048
REMARK INTRA:                  -0.434
REMARK UNBOUND:                -1.156
REMARK SMILES CCCCCCCCC=CCCCCCCCC(=O)[O-]
REMARK SMILES IDX 10 1 9 2 11 3 12 4 13 5 14 6 15 7 16 8 17 9 18 10 19 11
REMARK SMILES IDX 20 12 8 13 7 14 6 15 5 16 4 17 3 18 2 19 1 20
REMARK H PARENT
REMARK Flexibility Score: inf
ROOT
ATOM      1  C   UNL     1     -54.618 119.462  -9.852  1.00  0.00    -0.031 C 
ATOM      2  C   UNL     1     -55.281 119.359 -11.013  1.00  0.00    -0.031 C 
ENDROOT
BRANCH   1   3
ATOM      3  C   UNL     1     -53.115 119.514  -9.805  1.00  0.00     0.027 C 
BRANCH   3   4
ATOM      4  C   UNL     1     -52.552 120.299 -11.000  1.00  0.00     0.004 C 
BRANCH   4   5
ATOM      5  C   UNL     1     -51.086 120.716 -10.797  1.00  0.00     0.000 C 
BRANCH   5   6
ATOM      6  C   UNL     1     -50.661 121.848 -11.746  1.00  0.00     0.000 C 
BRANCH   6   7
ATOM      7  C   UNL     1     -49.250 122.381 -11.444  1.00  0.00     0.000 C 
BRANCH   7   8
ATOM      8  C   UNL     1     -49.068 123.877 -11.776  1.00  0.00     0.006 C 
BRANCH   8   9
ATOM      9  C   UNL     1     -48.875 124.731 -10.516  1.00  0.00     0.053 C 
BRANCH   9  10
ATOM     10  C   UNL     1     -49.258 123.957  -9.294  1.00  0.00     0.041 C 
ATOM     11  O   UNL     1     -48.961 122.736  -9.196  1.00  0.00    -0.550 OA
ATOM     12  O   UNL     1     -49.895 124.597  -8.239  1.00  0.00    -0.550 OA
ENDBRANCH   9  10
ENDBRANCH   8   9
ENDBRANCH   7   8
ENDBRANCH   6   7
ENDBRANCH   5   6
ENDBRANCH   4   5
ENDBRANCH   3   4
ENDBRANCH   1   3
BRANCH   2  13
ATOM     13  C   UNL     1     -56.784 119.309 -11.061  1.00  0.00     0.027 C 
BRANCH  13  14
ATOM     14  C   UNL     1     -57.361 120.573 -11.710  1.00  0.00     0.004 C 
BRANCH  14  15
ATOM     15  C   UNL     1     -56.714 121.836 -11.119  1.00  0.00     0.000 C 
BRANCH  15  16
ATOM     16  C   UNL     1     -55.806 122.564 -12.125  1.00  0.00     0.000 C 
BRANCH  16  17
ATOM     17  C   UNL     1     -54.503 123.073 -11.485  1.00  0.00    -0.000 C 
BRANCH  17  18
ATOM     18  C   UNL     1     -54.502 122.953  -9.950  1.00  0.00    -0.000 C 
BRANCH  18  19
ATOM     19  C   UNL     1     -53.197 123.397  -9.263  1.00  0.00    -0.003 C 
ATOM     20  C   UNL     1     -52.891 122.608  -7.991  1.00  0.00     0.004 C 
ENDBRANCH  18  19
ENDBRANCH  17  18
ENDBRANCH  16  17
ENDBRANCH  15  16
ENDBRANCH  14  15
ENDBRANCH  13  14
ENDBRANCH   2  13
TORSDOF 15
ENDMDL
MODEL 7
REMARK VINA RESULT:    -0.683      1.564      5.123
REMARK INTER + INTRA:          -2.437
REMARK INTER:                  -2.017
REMARK INTRA:                  -0.420
REMARK UNBOUND:                -1.156
REMARK SMILES CCCCCCCCC=CCCCCCCCC(=O)[O-]
REMARK SMILES IDX 10 1 9 2 11 3 12 4 13 5 14 6 15 7 16 8 17 9 18 10 19 11
REMARK SMILES IDX 20 12 8 13 7 14 6 15 5 16 4 17 3 18 2 19 1 20
REMARK H PARENT
REMARK Flexibility Score: inf
ROOT
ATOM      1  C   UNL     1     -56.326 121.498  -8.582  1.00  0.00    -0.031 C 
ATOM      2  C   UNL     1     -56.483 121.406  -9.912  1.00  0.00    -0.031 C 
ENDROOT
BRANCH   1   3
ATOM      3  C   UNL     1     -55.197 122.287  -7.976  1.00  0.00     0.027 C 
BRANCH   3   4
ATOM      4  C   UNL     1     -54.311 122.911  -9.065  1.00  0.00     0.004 C 
BRANCH   4   5
ATOM      5  C   UNL     1     -52.812 122.676  -8.815  1.00  0.00     0.000 C 
BRANCH   5   6
ATOM      6  C   UNL     1     -52.153 123.842  -8.061  1.00  0.00     0.000 C 
BRANCH   6   7
ATOM      7  C   UNL     1     -50.642 123.949  -8.332  1.00  0.00     0.000 C 
BRANCH   7   8
ATOM      8  C   UNL     1     -50.247 123.605  -9.784  1.00  0.00     0.006 C 
BRANCH   8   9
ATOM      9  C   UNL     1     -48.877 122.920  -9.865  1.00  0.00     0.053 C 
BRANCH   9  10
ATOM     10  C   UNL     1     -49.011 121.541 -10.427  1.00  0.00     0.041 C 
ATOM     11  O   UNL     1     -48.879 120.534  -9.680  1.00  0.00    -0.550 OA
ATOM     12  O   UNL     1     -49.338 121.366 -11.766  1.00  0.00    -0.550 OA
ENDBRANCH   9  10
ENDBRANCH   8   9
ENDBRANCH   7   8
ENDBRANCH   6   7
ENDBRANCH   5   6
ENDBRANCH   4   5
ENDBRANCH   3   4
ENDBRANCH   1   3
BRANCH   2  13
ATOM     13  C   UNL     1     -57.612 120.620 -10.519  1.00  0.00     0.027 C 
BRANCH  13  14
ATOM     14  C   UNL     1     -57.153 119.870 -11.776  1.00  0.00     0.004 C 
BRANCH  14  15
ATOM     15  C   UNL     1     -55.632 119.988 -11.960  1.00  0.00     0.000 C 
BRANCH  15  16
ATOM     16  C   UNL     1     -55.165 121.443 -12.125  1.00  0.00     0.000 C 
BRANCH  16  17
ATOM     17  C   UNL     1     -53.637 121.591 -12.014  1.00  0.00    -0.000 C 
BRANCH  17  18
ATOM     18  C   UNL     1     -52.910 120.238 -11.915  1.00  0.00    -0.000 C 
BRANCH  18  19
ATOM     19  C   UNL     1     -52.264 119.944 -10.548  1.00  0.00    -0.003 C 
ATOM     20  C   UNL     1     -53.274 119.495  -9.492  1.00  0.00     0.004 C 
ENDBRANCH  18  19
ENDBRANCH  17  18
ENDBRANCH  16  17
ENDBRANCH  15  16
ENDBRANCH  14  15
ENDBRANCH  13  14
ENDBRANCH   2  13
TORSDOF 15
ENDMDL
