MODEL 1
REMARK VINA RESULT:    -6.448      0.000      0.000
REMARK INTER + INTRA:          -9.409
REMARK INTER:                  -8.709
REMARK INTRA:                  -0.700
REMARK UNBOUND:                -0.700
REMARK SMILES CC[C@@H](CC[C@@H](C)[C@@H]1CC[C@@H]2[C@H]3CC(=O)C4=CC(=O)CC[C@@]4(C)[C@@H]3CC[C@]21C)C(C)C
REMARK SMILES IDX 4 1 3 2 2 3 1 4 29 5 30 6 31 7 5 8 6 9 7 10 8 11 9 12 27 13
REMARK SMILES IDX 10 14 11 15 26 16 28 17 12 18 25 19 24 20 13 21 22 22 14 23
REMARK SMILES IDX 16 24 21 25 23 26 15 27 17 28 20 29 18 30 19 31
REMARK H PARENT
REMARK Flexibility Score: inf
ROOT
ATOM      1  C   UNL     1     -22.302  13.583 -30.218  1.00  0.00     0.004 C 
ENDROOT
BRANCH   1   2
ATOM      2  C   UNL     1     -23.617  13.774 -31.033  1.00  0.00    -0.009 C 
BRANCH   2   3
ATOM      3  C   UNL     1     -23.637  15.235 -31.567  1.00  0.00     0.000 C 
ATOM      4  C   UNL     1     -24.720  16.126 -30.960  1.00  0.00     0.004 C 
ENDBRANCH   2   3
BRANCH   2   5
ATOM      5  C   UNL     1     -24.893  13.348 -30.220  1.00  0.00    -0.014 C 
ATOM      6  C   UNL     1     -26.106  13.010 -31.100  1.00  0.00     0.007 C 
ATOM      7  C   UNL     1     -24.619  12.219 -29.211  1.00  0.00     0.007 C 
ENDBRANCH   2   5
ENDBRANCH   1   2
BRANCH   1   8
ATOM      8  C   UNL     1     -21.245  12.600 -30.777  1.00  0.00     0.004 C 
BRANCH   8   9
ATOM      9  C   UNL     1     -20.702  11.560 -29.750  1.00  0.00    -0.011 C 
ATOM     10  C   UNL     1     -21.739  10.453 -29.499  1.00  0.00     0.008 C 
BRANCH   9  11
ATOM     11  C   UNL     1     -19.271  10.968 -30.014  1.00  0.00    -0.002 C 
ATOM     12  C   UNL     1     -18.832   9.876 -29.000  1.00  0.00     0.005 C 
ATOM     13  C   UNL     1     -18.013  11.876 -30.194  1.00  0.00    -0.026 C 
ATOM     14  C   UNL     1     -17.299   9.927 -28.935  1.00  0.00     0.005 C 
ATOM     15  C   UNL     1     -16.908  10.806 -30.113  1.00  0.00    -0.001 C 
ATOM     16  C   UNL     1     -17.872  12.549 -31.581  1.00  0.00     0.007 C 
ATOM     17  C   UNL     1     -17.920  12.944 -29.067  1.00  0.00     0.012 C 
ATOM     18  C   UNL     1     -15.473  11.380 -30.165  1.00  0.00     0.004 C 
ATOM     19  C   UNL     1     -16.470  13.172 -31.765  1.00  0.00     0.005 C 
ATOM     20  C   UNL     1     -15.297  12.170 -31.507  1.00  0.00     0.003 C 
ATOM     21  C   UNL     1     -14.443  10.242 -30.079  1.00  0.00     0.085 C 
ATOM     22  C   UNL     1     -13.864  12.825 -31.639  1.00  0.00    -0.000 C 
ATOM     23  C   UNL     1     -13.051  10.738 -30.309  1.00  0.00     0.159 C 
ATOM     24  C   UNL     1     -12.787  11.776 -31.332  1.00  0.00     0.005 C 
ATOM     25  C   UNL     1     -13.671  13.353 -33.098  1.00  0.00     0.020 C 
ATOM     26  C   UNL     1     -13.677  14.000 -30.642  1.00  0.00     0.017 C 
ATOM     27  O   UNL     1     -12.098  10.201 -29.680  1.00  0.00    -0.295 OA
ATOM     28  C   UNL     1     -11.568  11.833 -31.905  1.00  0.00     0.055 C 
ATOM     29  C   UNL     1     -12.244  13.835 -33.383  1.00  0.00     0.081 C 
ATOM     30  C   UNL     1     -11.235  12.826 -32.935  1.00  0.00     0.156 C 
ATOM     31  O   UNL     1     -10.074  12.851 -33.421  1.00  0.00    -0.295 OA
ENDBRANCH   9  11
ENDBRANCH   8   9
ENDBRANCH   1   8
TORSDOF 6
ENDMDL
MODEL 2
REMARK VINA RESULT:    -6.000      1.067      2.190
REMARK INTER + INTRA:          -8.805
REMARK INTER:                  -8.980
REMARK INTRA:                   0.176
REMARK UNBOUND:                -0.700
REMARK SMILES CC[C@@H](CC[C@@H](C)[C@@H]1CC[C@@H]2[C@H]3CC(=O)C4=CC(=O)CC[C@@]4(C)[C@@H]3CC[C@]21C)C(C)C
REMARK SMILES IDX 4 1 3 2 2 3 1 4 29 5 30 6 31 7 5 8 6 9 7 10 8 11 9 12 27 13
REMARK SMILES IDX 10 14 11 15 26 16 28 17 12 18 25 19 24 20 13 21 22 22 14 23
REMARK SMILES IDX 16 24 21 25 23 26 15 27 17 28 20 29 18 30 19 31
REMARK H PARENT
REMARK Flexibility Score: inf
ROOT
ATOM      1  C   UNL     1     -23.532  10.734 -29.848  1.00  0.00     0.004 C 
ENDROOT
BRANCH   1   2
ATOM      2  C   UNL     1     -24.694  11.123 -28.885  1.00  0.00    -0.009 C 
BRANCH   2   3
ATOM      3  C   UNL     1     -25.614   9.878 -28.723  1.00  0.00     0.000 C 
ATOM      4  C   UNL     1     -26.514   9.902 -27.488  1.00  0.00     0.004 C 
ENDBRANCH   2   3
BRANCH   2   5
ATOM      5  C   UNL     1     -25.429  12.438 -29.333  1.00  0.00    -0.014 C 
ATOM      6  C   UNL     1     -24.590  13.336 -30.254  1.00  0.00     0.007 C 
ATOM      7  C   UNL     1     -26.818  12.177 -29.941  1.00  0.00     0.007 C 
ENDBRANCH   2   5
ENDBRANCH   1   2
BRANCH   1   8
ATOM      8  C   UNL     1     -22.086  10.810 -29.300  1.00  0.00     0.004 C 
BRANCH   8   9
ATOM      9  C   UNL     1     -21.042  11.434 -30.276  1.00  0.00    -0.011 C 
ATOM     10  C   UNL     1     -21.013  12.964 -30.135  1.00  0.00     0.008 C 
BRANCH   9  11
ATOM     11  C   UNL     1     -19.596  10.820 -30.270  1.00  0.00    -0.002 C 
ATOM     12  C   UNL     1     -19.307   9.875 -29.072  1.00  0.00     0.005 C 
ATOM     13  C   UNL     1     -18.315  11.702 -30.403  1.00  0.00    -0.026 C 
ATOM     14  C   UNL     1     -17.795   9.942 -28.813  1.00  0.00     0.005 C 
ATOM     15  C   UNL     1     -17.242  10.659 -30.036  1.00  0.00    -0.001 C 
ATOM     16  C   UNL     1     -17.986  12.186 -31.836  1.00  0.00     0.007 C 
ATOM     17  C   UNL     1     -18.356  12.911 -29.425  1.00  0.00     0.012 C 
ATOM     18  C   UNL     1     -15.806  11.228 -29.975  1.00  0.00     0.004 C 
ATOM     19  C   UNL     1     -16.564  12.786 -31.916  1.00  0.00     0.005 C 
ATOM     20  C   UNL     1     -15.447  11.834 -31.376  1.00  0.00     0.003 C 
ATOM     21  C   UNL     1     -14.810  10.117 -29.605  1.00  0.00     0.085 C 
ATOM     22  C   UNL     1     -14.000  12.473 -31.405  1.00  0.00    -0.000 C 
ATOM     23  C   UNL     1     -13.394  10.585 -29.715  1.00  0.00     0.159 C 
ATOM     24  C   UNL     1     -12.986  11.479 -30.822  1.00  0.00     0.005 C 
ATOM     25  C   UNL     1     -13.613  12.803 -32.882  1.00  0.00     0.020 C 
ATOM     26  C   UNL     1     -13.931  13.771 -30.557  1.00  0.00     0.017 C 
ATOM     27  O   UNL     1     -12.538  10.142 -28.901  1.00  0.00    -0.295 OA
ATOM     28  C   UNL     1     -11.702  11.466 -31.233  1.00  0.00     0.055 C 
ATOM     29  C   UNL     1     -12.155  13.250 -33.040  1.00  0.00     0.081 C 
ATOM     30  C   UNL     1     -11.226  12.315 -32.333  1.00  0.00     0.156 C 
ATOM     31  O   UNL     1     -10.011  12.281 -32.663  1.00  0.00    -0.295 OA
ENDBRANCH   9  11
ENDBRANCH   8   9
ENDBRANCH   1   8
TORSDOF 6
ENDMDL
MODEL 3
REMARK VINA RESULT:    -4.397      8.671     11.170
REMARK INTER + INTRA:          -6.640
REMARK INTER:                  -4.916
REMARK INTRA:                  -1.723
REMARK UNBOUND:                -0.700
REMARK SMILES CC[C@@H](CC[C@@H](C)[C@@H]1CC[C@@H]2[C@H]3CC(=O)C4=CC(=O)CC[C@@]4(C)[C@@H]3CC[C@]21C)C(C)C
REMARK SMILES IDX 4 1 3 2 2 3 1 4 29 5 30 6 31 7 5 8 6 9 7 10 8 11 9 12 27 13
REMARK SMILES IDX 10 14 11 15 26 16 28 17 12 18 25 19 24 20 13 21 22 22 14 23
REMARK SMILES IDX 16 24 21 25 23 26 15 27 17 28 20 29 18 30 19 31
REMARK H PARENT
REMARK Flexibility Score: inf
ROOT
ATOM      1  C   UNL     1     -26.849  11.858 -28.229  1.00  0.00     0.004 C 
ENDROOT
BRANCH   1   2
ATOM      2  C   UNL     1     -26.308  10.426 -28.524  1.00  0.00    -0.009 C 
BRANCH   2   3
ATOM      3  C   UNL     1     -25.639   9.894 -27.224  1.00  0.00     0.000 C 
ATOM      4  C   UNL     1     -24.111   9.875 -27.250  1.00  0.00     0.004 C 
ENDBRANCH   2   3
BRANCH   2   5
ATOM      5  C   UNL     1     -25.399  10.380 -29.804  1.00  0.00    -0.014 C 
ATOM      6  C   UNL     1     -26.131   9.910 -31.070  1.00  0.00     0.007 C 
ATOM      7  C   UNL     1     -24.652  11.699 -30.063  1.00  0.00     0.007 C 
ENDBRANCH   2   5
ENDBRANCH   1   2
BRANCH   1   8
ATOM      8  C   UNL     1     -28.346  12.135 -28.510  1.00  0.00     0.004 C 
BRANCH   8   9
ATOM      9  C   UNL     1     -28.696  12.419 -30.002  1.00  0.00    -0.011 C 
ATOM     10  C   UNL     1     -30.022  11.744 -30.387  1.00  0.00     0.008 C 
BRANCH   9  11
ATOM     11  C   UNL     1     -28.644  13.915 -30.480  1.00  0.00    -0.002 C 
ATOM     12  C   UNL     1     -29.801  14.324 -31.433  1.00  0.00     0.005 C 
ATOM     13  C   UNL     1     -27.363  14.544 -31.113  1.00  0.00    -0.026 C 
ATOM     14  C   UNL     1     -29.263  15.458 -32.317  1.00  0.00     0.005 C 
ATOM     15  C   UNL     1     -27.958  15.861 -31.647  1.00  0.00    -0.001 C 
ATOM     16  C   UNL     1     -26.252  14.939 -30.110  1.00  0.00     0.007 C 
ATOM     17  C   UNL     1     -26.778  13.635 -32.231  1.00  0.00     0.012 C 
ATOM     18  C   UNL     1     -26.954  16.727 -32.443  1.00  0.00     0.004 C 
ATOM     19  C   UNL     1     -25.170  15.815 -30.783  1.00  0.00     0.005 C 
ATOM     20  C   UNL     1     -25.743  17.076 -31.510  1.00  0.00     0.003 C 
ATOM     21  C   UNL     1     -27.636  18.015 -32.932  1.00  0.00     0.085 C 
ATOM     22  C   UNL     1     -24.641  17.938 -32.247  1.00  0.00    -0.000 C 
ATOM     23  C   UNL     1     -26.654  18.962 -33.546  1.00  0.00     0.159 C 
ATOM     24  C   UNL     1     -25.305  19.125 -32.957  1.00  0.00     0.005 C 
ATOM     25  C   UNL     1     -23.616  18.471 -31.194  1.00  0.00     0.020 C 
ATOM     26  C   UNL     1     -23.887  17.107 -33.319  1.00  0.00     0.017 C 
ATOM     27  O   UNL     1     -27.019  19.677 -34.519  1.00  0.00    -0.295 OA
ATOM     28  C   UNL     1     -24.650  20.289 -33.140  1.00  0.00     0.055 C 
ATOM     29  C   UNL     1     -22.616  19.475 -31.779  1.00  0.00     0.081 C 
ATOM     30  C   UNL     1     -23.315  20.530 -32.576  1.00  0.00     0.156 C 
ATOM     31  O   UNL     1     -22.737  21.627 -32.796  1.00  0.00    -0.295 OA
ENDBRANCH   9  11
ENDBRANCH   8   9
ENDBRANCH   1   8
TORSDOF 6
ENDMDL
