MODEL 1
REMARK VINA RESULT:    -1.469      0.000      0.000
REMARK INTER + INTRA:          -1.428
REMARK INTER:                  -2.070
REMARK INTRA:                   0.642
REMARK UNBOUND:                 0.642
REMARK SMILES CC1=CCCC(C)=CCC(C)(C)C=CC1
REMARK SMILES IDX 2 1 3 2 1 3 4 4 5 5 6 6 7 7 8 8 15 10 14 11 13 12 10 13
REMARK SMILES IDX 11 14 12 15 9 16
REMARK H PARENT
REMARK Flexibility Score: 60.00
ROOT
ATOM      1  C   UNL     1     167.318 173.293 143.309  1.00  0.00    -0.074 C 
ATOM      2  C   UNL     1     166.439 173.891 144.156  1.00  0.00    -0.027 C 
ATOM      3  C   UNL     1     168.633 172.796 143.855  1.00  0.00     0.039 C 
ENDROOT
BRANCH   2   4
ATOM      4  C   UNL     1     165.122 174.515 143.759  1.00  0.00     0.032 C 
BRANCH   4   5
ATOM      5  C   UNL     1     165.267 175.924 143.160  1.00  0.00     0.034 C 
BRANCH   5   6
ATOM      6  C   UNL     1     164.612 175.991 141.791  1.00  0.00    -0.077 C 
ATOM      7  C   UNL     1     163.105 176.039 141.737  1.00  0.00     0.039 C 
ATOM      8  C   UNL     1     165.287 176.085 140.618  1.00  0.00    -0.027 CG0
ATOM      9  G   UNL     1     166.790 176.033 140.427  1.00  0.00     0.000 G0
ENDBRANCH   5   6
ENDBRANCH   4   5
ENDBRANCH   2   4
BRANCH   1  10
ATOM     10  C   UNL     1     167.004 172.974 141.858  1.00  0.00     0.057 C 
BRANCH  10  11
ATOM     11  C   UNL     1     168.204 173.147 140.967  1.00  0.00    -0.026 C 
ATOM     12  C   UNL     1     168.337 174.023 139.947  1.00  0.00    -0.024 C 
BRANCH  12  13
ATOM     13  C   UNL     1     167.295 174.995 139.375  1.00  0.00    -0.014 C 
ATOM     14  C   UNL     1     166.084 174.216 138.811  1.00  0.00     0.016 C 
ATOM     15  C   UNL     1     167.951 175.731 138.179  1.00  0.00     0.016 C 
BRANCH  13  16
ATOM     16  C   UNL     1     166.806 176.060 140.406  1.00  0.00     0.038 CG0
ATOM     17  G   UNL     1     165.302 176.098 140.591  1.00  0.00     0.000 G0
ENDBRANCH  13  16
ENDBRANCH  12  13
ENDBRANCH  10  11
ENDBRANCH   1  10
TORSDOF 0
ENDMDL
MODEL 2
REMARK VINA RESULT:    -1.378      3.144      4.735
REMARK INTER + INTRA:          -1.301
REMARK INTER:                  -1.923
REMARK INTRA:                   0.622
REMARK UNBOUND:                 0.642
REMARK SMILES CC1=CCCC(C)=CCC(C)(C)C=CC1
REMARK SMILES IDX 2 1 3 2 1 3 4 4 5 5 6 6 7 7 8 8 15 10 14 11 13 12 10 13
REMARK SMILES IDX 11 14 12 15 9 16
REMARK H PARENT
REMARK Flexibility Score: 60.00
ROOT
ATOM      1  C   UNL     1     170.274 172.770 139.539  1.00  0.00    -0.074 C 
ATOM      2  C   UNL     1     169.984 174.098 139.513  1.00  0.00    -0.027 C 
ATOM      3  C   UNL     1     171.677 172.324 139.212  1.00  0.00     0.039 C 
ENDROOT
BRANCH   2   4
ATOM      4  C   UNL     1     168.617 174.703 139.733  1.00  0.00     0.032 C 
BRANCH   4   5
ATOM      5  C   UNL     1     167.766 174.774 138.454  1.00  0.00     0.034 C 
BRANCH   5   6
ATOM      6  C   UNL     1     166.417 174.111 138.675  1.00  0.00    -0.077 C 
ATOM      7  C   UNL     1     165.359 174.902 139.403  1.00  0.00     0.039 C 
ATOM      8  C   UNL     1     166.073 172.887 138.201  1.00  0.00    -0.027 CG0
ATOM      9  G   UNL     1     166.973 171.910 137.469  1.00  0.00     0.000 G0
ENDBRANCH   5   6
ENDBRANCH   4   5
ENDBRANCH   2   4
BRANCH   1  10
ATOM     10  C   UNL     1     169.298 171.704 140.006  1.00  0.00     0.057 C 
BRANCH  10  11
ATOM     11  C   UNL     1     169.388 170.451 139.178  1.00  0.00    -0.026 C 
ATOM     12  C   UNL     1     168.439 169.952 138.356  1.00  0.00    -0.024 C 
BRANCH  12  13
ATOM     13  C   UNL     1     167.012 170.464 138.116  1.00  0.00    -0.014 C 
ATOM     14  C   UNL     1     166.205 170.450 139.435  1.00  0.00     0.016 C 
ATOM     15  C   UNL     1     166.314 169.470 137.153  1.00  0.00     0.016 C 
BRANCH  13  16
ATOM     16  C   UNL     1     166.961 171.890 137.481  1.00  0.00     0.038 CG0
ATOM     17  G   UNL     1     166.051 172.860 138.208  1.00  0.00     0.000 G0
ENDBRANCH  13  16
ENDBRANCH  12  13
ENDBRANCH  10  11
ENDBRANCH   1  10
TORSDOF 0
ENDMDL
MODEL 3
REMARK VINA RESULT:    -1.309      2.569      4.608
REMARK INTER + INTRA:          -1.203
REMARK INTER:                  -1.920
REMARK INTRA:                   0.716
REMARK UNBOUND:                 0.642
REMARK SMILES CC1=CCCC(C)=CCC(C)(C)C=CC1
REMARK SMILES IDX 2 1 3 2 1 3 4 4 5 5 6 6 7 7 8 8 15 10 14 11 13 12 10 13
REMARK SMILES IDX 11 14 12 15 9 16
REMARK H PARENT
REMARK Flexibility Score: 60.00
ROOT
ATOM      1  C   UNL     1     169.293 170.820 140.174  1.00  0.00    -0.074 C 
ATOM      2  C   UNL     1     169.048 170.397 138.906  1.00  0.00    -0.027 C 
ATOM      3  C   UNL     1     169.411 169.794 141.274  1.00  0.00     0.039 C 
ENDROOT
BRANCH   2   4
ATOM      4  C   UNL     1     168.820 171.293 137.710  1.00  0.00     0.032 C 
BRANCH   4   5
ATOM      5  C   UNL     1     167.398 171.194 137.133  1.00  0.00     0.034 C 
BRANCH   5   6
ATOM      6  C   UNL     1     166.369 171.580 138.182  1.00  0.00    -0.077 C 
ATOM      7  C   UNL     1     165.375 170.529 138.608  1.00  0.00     0.039 C 
ATOM      8  C   UNL     1     166.326 172.780 138.814  1.00  0.00    -0.027 CG0
ATOM      9  G   UNL     1     167.202 173.986 138.536  1.00  0.00     0.000 G0
ENDBRANCH   5   6
ENDBRANCH   4   5
ENDBRANCH   2   4
BRANCH   1  10
ATOM     10  C   UNL     1     169.586 172.264 140.539  1.00  0.00     0.057 C 
BRANCH  10  11
ATOM     11  C   UNL     1     168.507 172.862 141.402  1.00  0.00    -0.026 C 
ATOM     12  C   UNL     1     167.687 173.887 141.082  1.00  0.00    -0.024 C 
BRANCH  12  13
ATOM     13  C   UNL     1     167.690 174.759 139.819  1.00  0.00    -0.014 C 
ATOM     14  C   UNL     1     169.102 175.337 139.566  1.00  0.00     0.016 C 
ATOM     15  C   UNL     1     166.752 175.965 140.081  1.00  0.00     0.016 C 
BRANCH  13  16
ATOM     16  C   UNL     1     167.190 174.009 138.543  1.00  0.00     0.038 CG0
ATOM     17  G   UNL     1     166.343 172.786 138.836  1.00  0.00     0.000 G0
ENDBRANCH  13  16
ENDBRANCH  12  13
ENDBRANCH  10  11
ENDBRANCH   1  10
TORSDOF 0
ENDMDL
MODEL 4
REMARK VINA RESULT:    -1.300     14.688     16.095
REMARK INTER + INTRA:          -1.190
REMARK INTER:                  -2.024
REMARK INTRA:                   0.834
REMARK UNBOUND:                 0.642
REMARK SMILES CC1=CCCC(C)=CCC(C)(C)C=CC1
REMARK SMILES IDX 2 1 3 2 1 3 4 4 5 5 6 6 7 7 8 8 15 10 14 11 13 12 10 13
REMARK SMILES IDX 11 14 12 15 9 16
REMARK H PARENT
REMARK Flexibility Score: 60.00
ROOT
ATOM      1  C   UNL     1     163.812 157.964 138.455  1.00  0.00    -0.074 C 
ATOM      2  C   UNL     1     163.007 158.485 137.492  1.00  0.00    -0.027 C 
ATOM      3  C   UNL     1     164.201 156.509 138.370  1.00  0.00     0.039 C 
ENDROOT
BRANCH   2   4
ATOM      4  C   UNL     1     162.460 159.894 137.473  1.00  0.00     0.032 C 
BRANCH   4   5
ATOM      5  C   UNL     1     160.923 159.953 137.439  1.00  0.00     0.034 C 
BRANCH   5   6
ATOM      6  C   UNL     1     160.348 159.657 138.813  1.00  0.00    -0.077 C 
ATOM      7  C   UNL     1     159.276 158.601 138.912  1.00  0.00     0.039 C 
ATOM      8  C   UNL     1     160.781 160.224 139.967  1.00  0.00    -0.027 CG0
ATOM      9  G   UNL     1     161.822 161.317 140.109  1.00  0.00     0.000 G0
ENDBRANCH   5   6
ENDBRANCH   4   5
ENDBRANCH   2   4
BRANCH   1  10
ATOM     10  C   UNL     1     164.456 158.791 139.554  1.00  0.00     0.057 C 
BRANCH  10  11
ATOM     11  C   UNL     1     163.759 158.618 140.877  1.00  0.00    -0.026 C 
ATOM     12  C   UNL     1     163.077 159.562 141.563  1.00  0.00    -0.024 C 
BRANCH  12  13
ATOM     13  C   UNL     1     162.907 161.052 141.235  1.00  0.00    -0.014 C 
ATOM     14  C   UNL     1     164.260 161.669 140.814  1.00  0.00     0.016 C 
ATOM     15  C   UNL     1     162.471 161.770 142.538  1.00  0.00     0.016 C 
BRANCH  13  16
ATOM     16  C   UNL     1     161.834 161.328 140.134  1.00  0.00     0.038 CG0
ATOM     17  G   UNL     1     160.807 160.223 139.979  1.00  0.00     0.000 G0
ENDBRANCH  13  16
ENDBRANCH  12  13
ENDBRANCH  10  11
ENDBRANCH   1  10
TORSDOF 0
ENDMDL
MODEL 5
REMARK VINA RESULT:    -1.143      2.616      3.913
REMARK INTER + INTRA:          -0.969
REMARK INTER:                  -1.630
REMARK INTRA:                   0.661
REMARK UNBOUND:                 0.642
REMARK SMILES CC1=CCCC(C)=CCC(C)(C)C=CC1
REMARK SMILES IDX 2 1 3 2 1 3 4 4 5 5 6 6 7 7 8 8 15 10 14 11 13 12 10 13
REMARK SMILES IDX 11 14 12 15 9 16
REMARK H PARENT
REMARK Flexibility Score: 60.00
ROOT
ATOM      1  C   UNL     1     166.775 171.002 141.199  1.00  0.00    -0.074 C 
ATOM      2  C   UNL     1     166.066 172.069 141.654  1.00  0.00    -0.027 C 
ATOM      3  C   UNL     1     166.953 169.808 142.103  1.00  0.00     0.039 C 
ENDROOT
BRANCH   2   4
ATOM      4  C   UNL     1     165.865 173.370 140.912  1.00  0.00     0.032 C 
BRANCH   4   5
ATOM      5  C   UNL     1     167.006 174.379 141.126  1.00  0.00     0.034 C 
BRANCH   5   6
ATOM      6  C   UNL     1     167.665 174.727 139.802  1.00  0.00    -0.077 C 
ATOM      7  C   UNL     1     167.016 175.793 138.955  1.00  0.00     0.039 C 
ATOM      8  C   UNL     1     168.834 174.199 139.362  1.00  0.00    -0.027 CG0
ATOM      9  G   UNL     1     169.645 173.105 140.028  1.00  0.00     0.000 G0
ENDBRANCH   5   6
ENDBRANCH   4   5
ENDBRANCH   2   4
BRANCH   1  10
ATOM     10  C   UNL     1     167.297 170.880 139.779  1.00  0.00     0.057 C 
BRANCH  10  11
ATOM     11  C   UNL     1     168.581 170.098 139.711  1.00  0.00    -0.026 C 
ATOM     12  C   UNL     1     169.813 170.583 139.442  1.00  0.00    -0.024 C 
BRANCH  12  13
ATOM     13  C   UNL     1     170.219 172.012 139.055  1.00  0.00    -0.014 C 
ATOM     14  C   UNL     1     169.766 172.328 137.611  1.00  0.00     0.016 C 
ATOM     15  C   UNL     1     171.767 172.077 139.065  1.00  0.00     0.016 C 
BRANCH  13  16
ATOM     16  C   UNL     1     169.670 173.100 140.032  1.00  0.00     0.038 CG0
ATOM     17  G   UNL     1     168.837 174.173 139.359  1.00  0.00     0.000 G0
ENDBRANCH  13  16
ENDBRANCH  12  13
ENDBRANCH  10  11
ENDBRANCH   1  10
TORSDOF 0
ENDMDL
MODEL 6
REMARK VINA RESULT:    -1.111     14.174     15.643
REMARK INTER + INTRA:          -0.923
REMARK INTER:                  -1.744
REMARK INTRA:                   0.821
REMARK UNBOUND:                 0.642
REMARK SMILES CC1=CCCC(C)=CCC(C)(C)C=CC1
REMARK SMILES IDX 2 1 3 2 1 3 4 4 5 5 6 6 7 7 8 8 15 10 14 11 13 12 10 13
REMARK SMILES IDX 11 14 12 15 9 16
REMARK H PARENT
REMARK Flexibility Score: 60.00
ROOT
ATOM      1  C   UNL     1     164.412 157.673 138.433  1.00  0.00    -0.074 C 
ATOM      2  C   UNL     1     163.798 158.552 137.599  1.00  0.00    -0.027 C 
ATOM      3  C   UNL     1     164.034 156.215 138.362  1.00  0.00     0.039 C 
ENDROOT
BRANCH   2   4
ATOM      4  C   UNL     1     164.000 160.050 137.598  1.00  0.00     0.032 C 
BRANCH   4   5
ATOM      5  C   UNL     1     162.714 160.841 137.888  1.00  0.00     0.034 C 
BRANCH   5   6
ATOM      6  C   UNL     1     162.298 160.669 139.339  1.00  0.00    -0.077 C 
ATOM      7  C   UNL     1     160.899 160.180 139.614  1.00  0.00     0.039 C 
ATOM      8  C   UNL     1     163.120 160.855 140.403  1.00  0.00    -0.027 CG0
ATOM      9  G   UNL     1     164.548 161.363 140.370  1.00  0.00     0.000 G0
ENDBRANCH   5   6
ENDBRANCH   4   5
ENDBRANCH   2   4
BRANCH   1  10
ATOM     10  C   UNL     1     165.560 158.047 139.355  1.00  0.00     0.057 C 
BRANCH  10  11
ATOM     11  C   UNL     1     165.143 158.069 140.801  1.00  0.00    -0.026 C 
ATOM     12  C   UNL     1     165.098 159.146 141.615  1.00  0.00    -0.024 C 
BRANCH  12  13
ATOM     13  C   UNL     1     165.534 160.589 141.323  1.00  0.00    -0.014 C 
ATOM     14  C   UNL     1     166.962 160.611 140.732  1.00  0.00     0.016 C 
ATOM     15  C   UNL     1     165.596 161.341 142.677  1.00  0.00     0.016 C 
BRANCH  13  16
ATOM     16  C   UNL     1     164.556 161.354 140.375  1.00  0.00     0.038 CG0
ATOM     17  G   UNL     1     163.127 160.851 140.422  1.00  0.00     0.000 G0
ENDBRANCH  13  16
ENDBRANCH  12  13
ENDBRANCH  10  11
ENDBRANCH   1  10
TORSDOF 0
ENDMDL
MODEL 7
REMARK VINA RESULT:    -1.109      2.496      4.298
REMARK INTER + INTRA:          -0.920
REMARK INTER:                  -1.574
REMARK INTRA:                   0.654
REMARK UNBOUND:                 0.642
REMARK SMILES CC1=CCCC(C)=CCC(C)(C)C=CC1
REMARK SMILES IDX 2 1 3 2 1 3 4 4 5 5 6 6 7 7 8 8 15 10 14 11 13 12 10 13
REMARK SMILES IDX 11 14 12 15 9 16
REMARK H PARENT
REMARK Flexibility Score: 60.00
ROOT
ATOM      1  C   UNL     1     169.503 171.803 139.178  1.00  0.00    -0.074 C 
ATOM      2  C   UNL     1     169.063 170.560 139.508  1.00  0.00    -0.027 C 
ATOM      3  C   UNL     1     170.953 172.148 139.410  1.00  0.00     0.039 C 
ENDROOT
BRANCH   2   4
ATOM      4  C   UNL     1     167.632 170.082 139.418  1.00  0.00     0.032 C 
BRANCH   4   5
ATOM      5  C   UNL     1     166.848 170.246 140.731  1.00  0.00     0.034 C 
BRANCH   5   6
ATOM      6  C   UNL     1     165.612 171.101 140.510  1.00  0.00    -0.077 C 
ATOM      7  C   UNL     1     164.344 170.403 140.088  1.00  0.00     0.039 C 
ATOM      8  C   UNL     1     165.550 172.438 140.735  1.00  0.00    -0.027 CG0
ATOM      9  G   UNL     1     166.695 173.346 141.136  1.00  0.00     0.000 G0
ENDBRANCH   5   6
ENDBRANCH   4   5
ENDBRANCH   2   4
BRANCH   1  10
ATOM     10  C   UNL     1     168.650 172.836 138.464  1.00  0.00     0.057 C 
BRANCH  10  11
ATOM     11  C   UNL     1     168.937 174.235 138.940  1.00  0.00    -0.026 C 
ATOM     12  C   UNL     1     168.156 174.998 139.736  1.00  0.00    -0.024 C 
BRANCH  12  13
ATOM     13  C   UNL     1     166.757 174.688 140.287  1.00  0.00    -0.014 C 
ATOM     14  C   UNL     1     165.725 174.632 139.138  1.00  0.00     0.016 C 
ATOM     15  C   UNL     1     166.344 175.869 141.203  1.00  0.00     0.016 C 
BRANCH  13  16
ATOM     16  C   UNL     1     166.694 173.369 141.120  1.00  0.00     0.038 CG0
ATOM     17  G   UNL     1     165.558 172.443 140.730  1.00  0.00     0.000 G0
ENDBRANCH  13  16
ENDBRANCH  12  13
ENDBRANCH  10  11
ENDBRANCH   1  10
TORSDOF 0
ENDMDL
MODEL 8
REMARK VINA RESULT:    -1.106     14.271     15.791
REMARK INTER + INTRA:          -0.917
REMARK INTER:                  -1.562
REMARK INTRA:                   0.645
REMARK UNBOUND:                 0.642
REMARK SMILES CC1=CCCC(C)=CCC(C)(C)C=CC1
REMARK SMILES IDX 2 1 3 2 1 3 4 4 5 5 6 6 7 7 8 8 15 10 14 11 13 12 10 13
REMARK SMILES IDX 11 14 12 15 9 16
REMARK H PARENT
REMARK Flexibility Score: 60.00
ROOT
ATOM      1  C   UNL     1     163.842 160.742 141.917  1.00  0.00    -0.074 C 
ATOM      2  C   UNL     1     165.060 161.306 142.131  1.00  0.00    -0.027 C 
ATOM      3  C   UNL     1     163.029 160.295 143.105  1.00  0.00     0.039 C 
ENDROOT
BRANCH   2   4
ATOM      4  C   UNL     1     166.033 161.731 141.055  1.00  0.00     0.032 C 
BRANCH   4   5
ATOM      5  C   UNL     1     167.042 160.635 140.675  1.00  0.00     0.034 C 
BRANCH   5   6
ATOM      6  C   UNL     1     166.962 160.328 139.189  1.00  0.00    -0.077 C 
ATOM      7  C   UNL     1     167.816 161.150 138.257  1.00  0.00     0.039 C 
ATOM      8  C   UNL     1     166.232 159.320 138.649  1.00  0.00    -0.027 CG0
ATOM      9  G   UNL     1     165.287 158.388 139.383  1.00  0.00     0.000 G0
ENDBRANCH   5   6
ENDBRANCH   4   5
ENDBRANCH   2   4
BRANCH   1  10
ATOM     10  C   UNL     1     163.185 160.649 140.552  1.00  0.00     0.057 C 
BRANCH  10  11
ATOM     11  C   UNL     1     162.390 159.381 140.390  1.00  0.00    -0.026 C 
ATOM     12  C   UNL     1     162.719 158.309 139.636  1.00  0.00    -0.024 C 
BRANCH  12  13
ATOM     13  C   UNL     1     163.917 158.130 138.693  1.00  0.00    -0.014 C 
ATOM     14  C   UNL     1     163.784 159.065 137.469  1.00  0.00     0.016 C 
ATOM     15  C   UNL     1     163.875 156.677 138.155  1.00  0.00     0.016 C 
BRANCH  13  16
ATOM     16  C   UNL     1     165.296 158.361 139.388  1.00  0.00     0.038 CG0
ATOM     17  G   UNL     1     166.212 159.315 138.646  1.00  0.00     0.000 G0
ENDBRANCH  13  16
ENDBRANCH  12  13
ENDBRANCH  10  11
ENDBRANCH   1  10
TORSDOF 0
ENDMDL
MODEL 9
REMARK VINA RESULT:    -1.068     14.607     16.170
REMARK INTER + INTRA:          -0.863
REMARK INTER:                  -1.654
REMARK INTRA:                   0.791
REMARK UNBOUND:                 0.642
REMARK SMILES CC1=CCCC(C)=CCC(C)(C)C=CC1
REMARK SMILES IDX 2 1 3 2 1 3 4 4 5 5 6 6 7 7 8 8 15 10 14 11 13 12 10 13
REMARK SMILES IDX 11 14 12 15 9 16
REMARK H PARENT
REMARK Flexibility Score: 60.00
ROOT
ATOM      1  C   UNL     1     159.455 159.554 139.955  1.00  0.00    -0.074 C 
ATOM      2  C   UNL     1     160.027 159.079 138.817  1.00  0.00    -0.027 C 
ATOM      3  C   UNL     1     158.310 158.789 140.569  1.00  0.00     0.039 C 
ENDROOT
BRANCH   2   4
ATOM      4  C   UNL     1     161.123 159.764 138.033  1.00  0.00     0.032 C 
BRANCH   4   5
ATOM      5  C   UNL     1     162.402 158.920 137.906  1.00  0.00     0.034 C 
BRANCH   5   6
ATOM      6  C   UNL     1     162.854 158.428 139.270  1.00  0.00    -0.077 C 
ATOM      7  C   UNL     1     162.828 156.942 139.522  1.00  0.00     0.039 C 
ATOM      8  C   UNL     1     163.348 159.224 140.251  1.00  0.00    -0.027 CG0
ATOM      9  G   UNL     1     163.446 160.737 140.231  1.00  0.00     0.000 G0
ENDBRANCH   5   6
ENDBRANCH   4   5
ENDBRANCH   2   4
BRANCH   1  10
ATOM     10  C   UNL     1     159.985 160.749 140.729  1.00  0.00     0.057 C 
BRANCH  10  11
ATOM     11  C   UNL     1     160.691 160.338 141.993  1.00  0.00    -0.026 C 
ATOM     12  C   UNL     1     161.951 160.661 142.359  1.00  0.00    -0.024 C 
BRANCH  12  13
ATOM     13  C   UNL     1     163.011 161.439 141.566  1.00  0.00    -0.014 C 
ATOM     14  C   UNL     1     164.264 161.685 142.439  1.00  0.00     0.016 C 
ATOM     15  C   UNL     1     162.416 162.831 141.233  1.00  0.00     0.016 C 
BRANCH  13  16
ATOM     16  C   UNL     1     163.425 160.742 140.231  1.00  0.00     0.038 CG0
ATOM     17  G   UNL     1     163.330 159.230 140.266  1.00  0.00     0.000 G0
ENDBRANCH  13  16
ENDBRANCH  12  13
ENDBRANCH  10  11
ENDBRANCH   1  10
TORSDOF 0
ENDMDL
