MODEL 1
REMARK VINA RESULT:    -5.903      0.000      0.000
REMARK INTER + INTRA:          -8.807
REMARK INTER:                  -7.974
REMARK INTRA:                  -0.834
REMARK UNBOUND:                -0.834
REMARK SMILES CC(=O)CCC=C(C)CCC=C(C)C
REMARK SMILES IDX 7 1 6 2 8 3 9 4 10 5 11 6 13 7 12 8 14 9 5 10 4 11 2 12 3 13
REMARK SMILES IDX 1 14
REMARK H PARENT
REMARK Flexibility Score: inf
ROOT
ATOM      1  C   UNL     1      32.164  20.128  18.115  1.00  0.00    -0.077 C 
ATOM      2  C   UNL     1      32.887  20.987  18.869  1.00  0.00    -0.028 C 
ATOM      3  C   UNL     1      31.951  18.689  18.526  1.00  0.00     0.039 C 
ENDROOT
BRANCH   1   4
ATOM      4  C   UNL     1      31.562  20.619  16.815  1.00  0.00     0.034 C 
BRANCH   4   5
ATOM      5  C   UNL     1      32.197  19.907  15.615  1.00  0.00     0.032 C 
BRANCH   5   6
ATOM      6  C   UNL     1      33.686  20.150  15.560  1.00  0.00    -0.028 C 
ATOM      7  C   UNL     1      36.060  19.508  15.540  1.00  0.00     0.039 C 
ATOM      8  C   UNL     1      34.597  19.154  15.601  1.00  0.00    -0.080 C 
ATOM      9  C   UNL     1      34.180  17.707  15.706  1.00  0.00     0.039 C 
ENDBRANCH   5   6
ENDBRANCH   4   5
ENDBRANCH   1   4
BRANCH   2  10
ATOM     10  C   UNL     1      33.508  20.641  20.200  1.00  0.00     0.035 C 
BRANCH  10  11
ATOM     11  C   UNL     1      33.196  21.723  21.243  1.00  0.00     0.079 C 
BRANCH  11  12
ATOM     12  C   UNL     1      32.275  21.241  22.339  1.00  0.00     0.130 C 
ATOM     13  O   UNL     1      31.684  20.175  22.240  1.00  0.00    -0.300 OA
ATOM     14  C   UNL     1      32.084  22.066  23.575  1.00  0.00     0.087 C 
ENDBRANCH  11  12
ENDBRANCH  10  11
ENDBRANCH   2  10
TORSDOF 6
ENDMDL
MODEL 2
REMARK VINA RESULT:    -5.839      2.392      6.591
REMARK INTER + INTRA:          -8.720
REMARK INTER:                  -8.041
REMARK INTRA:                  -0.679
REMARK UNBOUND:                -0.834
REMARK SMILES CC(=O)CCC=C(C)CCC=C(C)C
REMARK SMILES IDX 7 1 6 2 8 3 9 4 10 5 11 6 13 7 12 8 14 9 5 10 4 11 2 12 3 13
REMARK SMILES IDX 1 14
REMARK H PARENT
REMARK Flexibility Score: inf
ROOT
ATOM      1  C   UNL     1      32.983  20.589  18.529  1.00  0.00    -0.077 C 
ATOM      2  C   UNL     1      32.008  20.286  17.641  1.00  0.00    -0.028 C 
ATOM      3  C   UNL     1      34.230  21.338  18.121  1.00  0.00     0.039 C 
ENDROOT
BRANCH   1   4
ATOM      4  C   UNL     1      32.824  20.155  19.971  1.00  0.00     0.034 C 
BRANCH   4   5
ATOM      5  C   UNL     1      33.045  21.334  20.925  1.00  0.00     0.032 C 
BRANCH   5   6
ATOM      6  C   UNL     1      33.776  20.900  22.172  1.00  0.00    -0.028 C 
ATOM      7  C   UNL     1      34.146  20.698  24.595  1.00  0.00     0.039 C 
ATOM      8  C   UNL     1      33.338  21.178  23.418  1.00  0.00    -0.080 C 
ATOM      9  C   UNL     1      32.063  21.953  23.652  1.00  0.00     0.039 C 
ENDBRANCH   5   6
ENDBRANCH   4   5
ENDBRANCH   1   4
BRANCH   2  10
ATOM     10  C   UNL     1      32.021  20.691  16.187  1.00  0.00     0.035 C 
BRANCH  10  11
ATOM     11  C   UNL     1      32.235  19.467  15.285  1.00  0.00     0.079 C 
BRANCH  11  12
ATOM     12  C   UNL     1      33.671  18.999  15.252  1.00  0.00     0.130 C 
ATOM     13  O   UNL     1      34.566  19.744  14.878  1.00  0.00    -0.300 OA
ATOM     14  C   UNL     1      34.017  17.610  15.692  1.00  0.00     0.087 C 
ENDBRANCH  11  12
ENDBRANCH  10  11
ENDBRANCH   2  10
TORSDOF 6
ENDMDL
MODEL 3
REMARK VINA RESULT:    -5.812      2.378      6.572
REMARK INTER + INTRA:          -8.684
REMARK INTER:                  -7.997
REMARK INTRA:                  -0.687
REMARK UNBOUND:                -0.834
REMARK SMILES CC(=O)CCC=C(C)CCC=C(C)C
REMARK SMILES IDX 7 1 6 2 8 3 9 4 10 5 11 6 13 7 12 8 14 9 5 10 4 11 2 12 3 13
REMARK SMILES IDX 1 14
REMARK H PARENT
REMARK Flexibility Score: inf
ROOT
ATOM      1  C   UNL     1      32.999  20.579  18.443  1.00  0.00    -0.077 C 
ATOM      2  C   UNL     1      31.994  20.293  17.583  1.00  0.00    -0.028 C 
ATOM      3  C   UNL     1      34.231  21.338  18.006  1.00  0.00     0.039 C 
ENDROOT
BRANCH   1   4
ATOM      4  C   UNL     1      32.892  20.114  19.880  1.00  0.00     0.034 C 
BRANCH   4   5
ATOM      5  C   UNL     1      33.642  21.064  20.820  1.00  0.00     0.032 C 
BRANCH   5   6
ATOM      6  C   UNL     1      32.732  21.603  21.896  1.00  0.00    -0.028 C 
ATOM      7  C   UNL     1      31.986  22.003  24.205  1.00  0.00     0.039 C 
ATOM      8  C   UNL     1      32.961  21.423  23.214  1.00  0.00    -0.080 C 
ATOM      9  C   UNL     1      34.166  20.658  23.708  1.00  0.00     0.039 C 
ENDBRANCH   5   6
ENDBRANCH   4   5
ENDBRANCH   1   4
BRANCH   2  10
ATOM     10  C   UNL     1      31.955  20.729  16.139  1.00  0.00     0.035 C 
BRANCH  10  11
ATOM     11  C   UNL     1      32.152  19.526  15.204  1.00  0.00     0.079 C 
BRANCH  11  12
ATOM     12  C   UNL     1      33.564  18.989  15.220  1.00  0.00     0.130 C 
ATOM     13  O   UNL     1      34.506  19.688  14.875  1.00  0.00    -0.300 OA
ATOM     14  C   UNL     1      33.827  17.587  15.676  1.00  0.00     0.087 C 
ENDBRANCH  11  12
ENDBRANCH  10  11
ENDBRANCH   2  10
TORSDOF 6
ENDMDL
MODEL 4
REMARK VINA RESULT:    -5.764      6.064      9.344
REMARK INTER + INTRA:          -8.619
REMARK INTER:                  -7.839
REMARK INTRA:                  -0.780
REMARK UNBOUND:                -0.834
REMARK SMILES CC(=O)CCC=C(C)CCC=C(C)C
REMARK SMILES IDX 7 1 6 2 8 3 9 4 10 5 11 6 13 7 12 8 14 9 5 10 4 11 2 12 3 13
REMARK SMILES IDX 1 14
REMARK H PARENT
REMARK Flexibility Score: inf
ROOT
ATOM      1  C   UNL     1      29.043  18.058  27.146  1.00  0.00    -0.077 C 
ATOM      2  C   UNL     1      27.743  18.432  27.183  1.00  0.00    -0.028 C 
ATOM      3  C   UNL     1      29.741  17.474  28.353  1.00  0.00     0.039 C 
ENDROOT
BRANCH   1   4
ATOM      4  C   UNL     1      29.824  18.242  25.862  1.00  0.00     0.034 C 
BRANCH   4   5
ATOM      5  C   UNL     1      29.141  19.266  24.949  1.00  0.00     0.032 C 
BRANCH   5   6
ATOM      6  C   UNL     1      30.114  20.326  24.490  1.00  0.00    -0.028 C 
ATOM      7  C   UNL     1      31.619  21.446  22.900  1.00  0.00     0.039 C 
ATOM      8  C   UNL     1      30.658  20.342  23.255  1.00  0.00    -0.080 C 
ATOM      9  C   UNL     1      30.323  19.283  22.231  1.00  0.00     0.039 C 
ENDBRANCH   5   6
ENDBRANCH   4   5
ENDBRANCH   1   4
BRANCH   2  10
ATOM     10  C   UNL     1      26.842  18.269  28.382  1.00  0.00     0.035 C 
BRANCH  10  11
ATOM     11  C   UNL     1      26.234  19.618  28.792  1.00  0.00     0.079 C 
BRANCH  11  12
ATOM     12  C   UNL     1      27.268  20.613  29.265  1.00  0.00     0.130 C 
ATOM     13  O   UNL     1      27.350  21.723  28.759  1.00  0.00    -0.300 OA
ATOM     14  C   UNL     1      28.202  20.250  30.379  1.00  0.00     0.087 C 
ENDBRANCH  11  12
ENDBRANCH  10  11
ENDBRANCH   2  10
TORSDOF 6
ENDMDL
MODEL 5
REMARK VINA RESULT:    -5.696      2.237      3.061
REMARK INTER + INTRA:          -8.527
REMARK INTER:                  -7.748
REMARK INTRA:                  -0.779
REMARK UNBOUND:                -0.834
REMARK SMILES CC(=O)CCC=C(C)CCC=C(C)C
REMARK SMILES IDX 7 1 6 2 8 3 9 4 10 5 11 6 13 7 12 8 14 9 5 10 4 11 2 12 3 13
REMARK SMILES IDX 1 14
REMARK H PARENT
REMARK Flexibility Score: inf
ROOT
ATOM      1  C   UNL     1      32.318  19.930  20.415  1.00  0.00    -0.077 C 
ATOM      2  C   UNL     1      31.636  19.428  21.471  1.00  0.00    -0.028 C 
ATOM      3  C   UNL     1      33.398  20.972  20.586  1.00  0.00     0.039 C 
ENDROOT
BRANCH   1   4
ATOM      4  C   UNL     1      31.979  19.442  19.023  1.00  0.00     0.034 C 
BRANCH   4   5
ATOM      5  C   UNL     1      32.341  20.496  17.971  1.00  0.00     0.032 C 
BRANCH   5   6
ATOM      6  C   UNL     1      33.272  19.929  16.926  1.00  0.00    -0.028 C 
ATOM      7  C   UNL     1      35.336  19.809  15.595  1.00  0.00     0.039 C 
ATOM      8  C   UNL     1      34.488  20.453  16.660  1.00  0.00    -0.080 C 
ATOM      9  C   UNL     1      35.007  21.660  17.403  1.00  0.00     0.039 C 
ENDBRANCH   5   6
ENDBRANCH   4   5
ENDBRANCH   1   4
BRANCH   2  10
ATOM     10  C   UNL     1      31.898  19.797  22.911  1.00  0.00     0.035 C 
BRANCH  10  11
ATOM     11  C   UNL     1      32.636  18.663  23.637  1.00  0.00     0.079 C 
BRANCH  11  12
ATOM     12  C   UNL     1      33.784  19.153  24.487  1.00  0.00     0.130 C 
ATOM     13  O   UNL     1      33.993  18.679  25.594  1.00  0.00    -0.300 OA
ATOM     14  C   UNL     1      34.693  20.227  23.972  1.00  0.00     0.087 C 
ENDBRANCH  11  12
ENDBRANCH  10  11
ENDBRANCH   2  10
TORSDOF 6
ENDMDL
MODEL 6
REMARK VINA RESULT:    -5.624      2.890      6.602
REMARK INTER + INTRA:          -8.430
REMARK INTER:                  -7.652
REMARK INTRA:                  -0.778
REMARK UNBOUND:                -0.834
REMARK SMILES CC(=O)CCC=C(C)CCC=C(C)C
REMARK SMILES IDX 7 1 6 2 8 3 9 4 10 5 11 6 13 7 12 8 14 9 5 10 4 11 2 12 3 13
REMARK SMILES IDX 1 14
REMARK H PARENT
REMARK Flexibility Score: inf
ROOT
ATOM      1  C   UNL     1      32.571  20.891  21.447  1.00  0.00    -0.077 C 
ATOM      2  C   UNL     1      33.268  20.980  20.290  1.00  0.00    -0.028 C 
ATOM      3  C   UNL     1      31.611  19.755  21.715  1.00  0.00     0.039 C 
ENDROOT
BRANCH   1   4
ATOM      4  C   UNL     1      32.748  21.969  22.496  1.00  0.00     0.034 C 
BRANCH   4   5
ATOM      5  C   UNL     1      32.810  21.359  23.901  1.00  0.00     0.032 C 
BRANCH   5   6
ATOM      6  C   UNL     1      34.173  20.775  24.185  1.00  0.00    -0.028 C 
ATOM      7  C   UNL     1      35.758  19.045  24.922  1.00  0.00     0.039 C 
ATOM      8  C   UNL     1      34.354  19.529  24.673  1.00  0.00    -0.080 C 
ATOM      9  C   UNL     1      33.185  18.621  24.973  1.00  0.00     0.039 C 
ENDBRANCH   5   6
ENDBRANCH   4   5
ENDBRANCH   1   4
BRANCH   2  10
ATOM     10  C   UNL     1      33.215  19.959  19.180  1.00  0.00     0.035 C 
BRANCH  10  11
ATOM     11  C   UNL     1      32.504  20.535  17.947  1.00  0.00     0.079 C 
BRANCH  11  12
ATOM     12  C   UNL     1      33.425  20.711  16.762  1.00  0.00     0.130 C 
ATOM     13  O   UNL     1      33.053  20.435  15.631  1.00  0.00    -0.300 OA
ATOM     14  C   UNL     1      34.810  21.244  16.963  1.00  0.00     0.087 C 
ENDBRANCH  11  12
ENDBRANCH  10  11
ENDBRANCH   2  10
TORSDOF 6
ENDMDL
MODEL 7
REMARK VINA RESULT:    -5.610      2.407      3.228
REMARK INTER + INTRA:          -8.412
REMARK INTER:                  -7.827
REMARK INTRA:                  -0.585
REMARK UNBOUND:                -0.834
REMARK SMILES CC(=O)CCC=C(C)CCC=C(C)C
REMARK SMILES IDX 7 1 6 2 8 3 9 4 10 5 11 6 13 7 12 8 14 9 5 10 4 11 2 12 3 13
REMARK SMILES IDX 1 14
REMARK H PARENT
REMARK Flexibility Score: inf
ROOT
ATOM      1  C   UNL     1      32.261  19.933  20.435  1.00  0.00    -0.077 C 
ATOM      2  C   UNL     1      31.507  19.435  21.443  1.00  0.00    -0.028 C 
ATOM      3  C   UNL     1      33.341  20.961  20.678  1.00  0.00     0.039 C 
ENDROOT
BRANCH   1   4
ATOM      4  C   UNL     1      32.005  19.454  19.021  1.00  0.00     0.034 C 
BRANCH   4   5
ATOM      5  C   UNL     1      32.385  20.533  18.001  1.00  0.00     0.032 C 
BRANCH   5   6
ATOM      6  C   UNL     1      33.306  19.983  16.939  1.00  0.00    -0.028 C 
ATOM      7  C   UNL     1      35.375  19.859  15.615  1.00  0.00     0.039 C 
ATOM      8  C   UNL     1      34.537  20.483  16.701  1.00  0.00    -0.080 C 
ATOM      9  C   UNL     1      35.085  21.646  17.495  1.00  0.00     0.039 C 
ENDBRANCH   5   6
ENDBRANCH   4   5
ENDBRANCH   1   4
BRANCH   2  10
ATOM     10  C   UNL     1      31.682  19.795  22.898  1.00  0.00     0.035 C 
BRANCH  10  11
ATOM     11  C   UNL     1      30.319  19.996  23.574  1.00  0.00     0.079 C 
BRANCH  11  12
ATOM     12  C   UNL     1      30.072  19.029  24.707  1.00  0.00     0.130 C 
ATOM     13  O   UNL     1      30.977  18.338  25.153  1.00  0.00    -0.300 OA
ATOM     14  C   UNL     1      28.705  18.914  25.310  1.00  0.00     0.087 C 
ENDBRANCH  11  12
ENDBRANCH  10  11
ENDBRANCH   2  10
TORSDOF 6
ENDMDL
MODEL 8
REMARK VINA RESULT:    -5.588      2.831      6.571
REMARK INTER + INTRA:          -8.382
REMARK INTER:                  -7.807
REMARK INTRA:                  -0.575
REMARK UNBOUND:                -0.834
REMARK SMILES CC(=O)CCC=C(C)CCC=C(C)C
REMARK SMILES IDX 7 1 6 2 8 3 9 4 10 5 11 6 13 7 12 8 14 9 5 10 4 11 2 12 3 13
REMARK SMILES IDX 1 14
REMARK H PARENT
REMARK Flexibility Score: inf
ROOT
ATOM      1  C   UNL     1      33.300  20.980  19.687  1.00  0.00    -0.077 C 
ATOM      2  C   UNL     1      32.460  19.995  19.294  1.00  0.00    -0.028 C 
ATOM      3  C   UNL     1      34.361  21.538  18.767  1.00  0.00     0.039 C 
ENDROOT
BRANCH   1   4
ATOM      4  C   UNL     1      33.182  21.529  21.093  1.00  0.00     0.034 C 
BRANCH   4   5
ATOM      5  C   UNL     1      33.172  20.395  22.124  1.00  0.00     0.032 C 
BRANCH   5   6
ATOM      6  C   UNL     1      34.252  20.588  23.161  1.00  0.00    -0.028 C 
ATOM      7  C   UNL     1      35.475  20.100  25.238  1.00  0.00     0.039 C 
ATOM      8  C   UNL     1      34.358  19.821  24.267  1.00  0.00    -0.080 C 
ATOM      9  C   UNL     1      33.387  18.698  24.544  1.00  0.00     0.039 C 
ENDBRANCH   5   6
ENDBRANCH   4   5
ENDBRANCH   1   4
BRANCH   2  10
ATOM     10  C   UNL     1      32.444  19.386  17.913  1.00  0.00     0.035 C 
BRANCH  10  11
ATOM     11  C   UNL     1      33.403  18.189  17.837  1.00  0.00     0.079 C 
BRANCH  11  12
ATOM     12  C   UNL     1      34.049  18.034  16.481  1.00  0.00     0.130 C 
ATOM     13  O   UNL     1      33.688  17.157  15.709  1.00  0.00    -0.300 OA
ATOM     14  C   UNL     1      35.141  18.969  16.060  1.00  0.00     0.087 C 
ENDBRANCH  11  12
ENDBRANCH  10  11
ENDBRANCH   2  10
TORSDOF 6
ENDMDL
MODEL 9
REMARK VINA RESULT:    -5.531      1.725      2.651
REMARK INTER + INTRA:          -8.305
REMARK INTER:                  -7.509
REMARK INTRA:                  -0.796
REMARK UNBOUND:                -0.834
REMARK SMILES CC(=O)CCC=C(C)CCC=C(C)C
REMARK SMILES IDX 7 1 6 2 8 3 9 4 10 5 11 6 13 7 12 8 14 9 5 10 4 11 2 12 3 13
REMARK SMILES IDX 1 14
REMARK H PARENT
REMARK Flexibility Score: inf
ROOT
ATOM      1  C   UNL     1      33.078  20.907  20.478  1.00  0.00    -0.077 C 
ATOM      2  C   UNL     1      33.121  21.793  21.500  1.00  0.00    -0.028 C 
ATOM      3  C   UNL     1      32.282  19.626  20.565  1.00  0.00     0.039 C 
ENDROOT
BRANCH   1   4
ATOM      4  C   UNL     1      33.862  21.202  19.216  1.00  0.00     0.034 C 
BRANCH   4   5
ATOM      5  C   UNL     1      33.050  20.835  17.970  1.00  0.00     0.032 C 
BRANCH   5   6
ATOM      6  C   UNL     1      33.859  19.985  17.020  1.00  0.00    -0.028 C 
ATOM      7  C   UNL     1      34.405  17.957  15.740  1.00  0.00     0.039 C 
ATOM      8  C   UNL     1      33.526  18.717  16.700  1.00  0.00    -0.080 C 
ATOM      9  C   UNL     1      32.301  18.051  17.280  1.00  0.00     0.039 C 
ENDBRANCH   5   6
ENDBRANCH   4   5
ENDBRANCH   1   4
BRANCH   2  10
ATOM     10  C   UNL     1      32.359  21.642  22.794  1.00  0.00     0.035 C 
BRANCH  10  11
ATOM     11  C   UNL     1      33.298  21.208  23.929  1.00  0.00     0.079 C 
BRANCH  11  12
ATOM     12  C   UNL     1      33.157  19.748  24.288  1.00  0.00     0.130 C 
ATOM     13  O   UNL     1      32.110  19.149  24.086  1.00  0.00    -0.300 OA
ATOM     14  C   UNL     1      34.313  19.009  24.889  1.00  0.00     0.087 C 
ENDBRANCH  11  12
ENDBRANCH  10  11
ENDBRANCH   2  10
TORSDOF 6
ENDMDL
