MODEL 1
REMARK VINA RESULT:    -2.912      0.000      0.000
REMARK INTER + INTRA:          -3.275
REMARK INTER:                  -3.252
REMARK INTRA:                  -0.023
REMARK UNBOUND:                -0.023
REMARK SMILES CCCC(=O)[O-]
REMARK SMILES IDX 3 1 4 2 5 3 6 4 2 5 1 6
REMARK H PARENT
REMARK Flexibility Score: inf
ROOT
ATOM      1  C   UNL     1     -18.773  -1.636 -23.557  1.00  0.00     0.052 C 
ENDROOT
BRANCH   1   2
ATOM      2  C   UNL     1     -17.605  -0.908 -22.964  1.00  0.00     0.041 C 
ATOM      3  O   UNL     1     -17.015  -1.373 -21.953  1.00  0.00    -0.550 OA
ATOM      4  O   UNL     1     -17.149   0.266 -23.548  1.00  0.00    -0.550 OA
ENDBRANCH   1   2
BRANCH   1   5
ATOM      5  C   UNL     1     -19.683  -0.693 -24.355  1.00  0.00     0.003 C 
ATOM      6  C   UNL     1     -20.125  -1.301 -25.686  1.00  0.00     0.004 C 
ENDBRANCH   1   5
TORSDOF 2
ENDMDL
MODEL 2
REMARK VINA RESULT:    -2.835      2.159      3.383
REMARK INTER + INTRA:          -3.190
REMARK INTER:                  -3.179
REMARK INTRA:                  -0.011
REMARK UNBOUND:                -0.023
REMARK SMILES CCCC(=O)[O-]
REMARK SMILES IDX 3 1 4 2 5 3 6 4 2 5 1 6
REMARK H PARENT
REMARK Flexibility Score: inf
ROOT
ATOM      1  C   UNL     1     -18.832  -1.672 -23.589  1.00  0.00     0.052 C 
ENDROOT
BRANCH   1   2
ATOM      2  C   UNL     1     -19.639  -0.902 -24.590  1.00  0.00     0.041 C 
ATOM      3  O   UNL     1     -20.052  -1.463 -25.639  1.00  0.00    -0.550 OA
ATOM      4  O   UNL     1     -19.963   0.426 -24.346  1.00  0.00    -0.550 OA
ENDBRANCH   1   2
BRANCH   1   5
ATOM      5  C   UNL     1     -17.622  -0.869 -23.097  1.00  0.00     0.003 C 
ATOM      6  C   UNL     1     -17.147  -1.320 -21.716  1.00  0.00     0.004 C 
ENDBRANCH   1   5
TORSDOF 2
ENDMDL
MODEL 3
REMARK VINA RESULT:    -2.824      2.209      3.460
REMARK INTER + INTRA:          -3.177
REMARK INTER:                  -3.165
REMARK INTRA:                  -0.012
REMARK UNBOUND:                -0.023
REMARK SMILES CCCC(=O)[O-]
REMARK SMILES IDX 3 1 4 2 5 3 6 4 2 5 1 6
REMARK H PARENT
REMARK Flexibility Score: inf
ROOT
ATOM      1  C   UNL     1     -19.009  -1.615 -23.483  1.00  0.00     0.052 C 
ENDROOT
BRANCH   1   2
ATOM      2  C   UNL     1     -19.768  -0.878 -24.544  1.00  0.00     0.041 C 
ATOM      3  O   UNL     1     -20.086   0.329 -24.374  1.00  0.00    -0.550 OA
ATOM      4  O   UNL     1     -20.094  -1.515 -25.734  1.00  0.00    -0.550 OA
ENDBRANCH   1   2
BRANCH   1   5
ATOM      5  C   UNL     1     -17.723  -0.878 -23.090  1.00  0.00     0.003 C 
ATOM      6  C   UNL     1     -17.255  -1.236 -21.679  1.00  0.00     0.004 C 
ENDBRANCH   1   5
TORSDOF 2
ENDMDL
MODEL 4
REMARK VINA RESULT:    -2.810     16.758     17.216
REMARK INTER + INTRA:          -3.162
REMARK INTER:                  -3.123
REMARK INTRA:                  -0.039
REMARK UNBOUND:                -0.023
REMARK SMILES CCCC(=O)[O-]
REMARK SMILES IDX 3 1 4 2 5 3 6 4 2 5 1 6
REMARK H PARENT
REMARK Flexibility Score: inf
ROOT
ATOM      1  C   UNL     1      -5.818  -8.480 -14.712  1.00  0.00     0.052 C 
ENDROOT
BRANCH   1   2
ATOM      2  C   UNL     1      -6.571  -9.726 -15.070  1.00  0.00     0.041 C 
ATOM      3  O   UNL     1      -7.619 -10.036 -14.445  1.00  0.00    -0.550 OA
ATOM      4  O   UNL     1      -6.132 -10.525 -16.117  1.00  0.00    -0.550 OA
ENDBRANCH   1   2
BRANCH   1   5
ATOM      5  C   UNL     1      -4.598  -8.274 -15.618  1.00  0.00     0.003 C 
ATOM      6  C   UNL     1      -4.841  -7.211 -16.688  1.00  0.00     0.004 C 
ENDBRANCH   1   5
TORSDOF 2
ENDMDL
MODEL 5
REMARK VINA RESULT:    -2.697     16.357     17.097
REMARK INTER + INTRA:          -3.035
REMARK INTER:                  -3.030
REMARK INTRA:                  -0.006
REMARK UNBOUND:                -0.023
REMARK SMILES CCCC(=O)[O-]
REMARK SMILES IDX 3 1 4 2 5 3 6 4 2 5 1 6
REMARK H PARENT
REMARK Flexibility Score: inf
ROOT
ATOM      1  C   UNL     1      -5.185  -7.212 -16.490  1.00  0.00     0.052 C 
ENDROOT
BRANCH   1   2
ATOM      2  C   UNL     1      -4.094  -7.013 -17.497  1.00  0.00     0.041 C 
ATOM      3  O   UNL     1      -4.336  -7.134 -18.727  1.00  0.00    -0.550 OA
ATOM      4  O   UNL     1      -2.818  -6.660 -17.078  1.00  0.00    -0.550 OA
ENDBRANCH   1   2
BRANCH   1   5
ATOM      5  C   UNL     1      -4.750  -8.155 -15.361  1.00  0.00     0.003 C 
ATOM      6  C   UNL     1      -5.940  -8.734 -14.596  1.00  0.00     0.004 C 
ENDBRANCH   1   5
TORSDOF 2
ENDMDL
MODEL 6
REMARK VINA RESULT:    -2.690     16.732     17.273
REMARK INTER + INTRA:          -3.027
REMARK INTER:                  -2.963
REMARK INTRA:                  -0.064
REMARK UNBOUND:                -0.023
REMARK SMILES CCCC(=O)[O-]
REMARK SMILES IDX 3 1 4 2 5 3 6 4 2 5 1 6
REMARK H PARENT
REMARK Flexibility Score: inf
ROOT
ATOM      1  C   UNL     1      -6.329  -9.121 -15.217  1.00  0.00     0.052 C 
ENDROOT
BRANCH   1   2
ATOM      2  C   UNL     1      -5.172  -8.199 -15.456  1.00  0.00     0.041 C 
ATOM      3  O   UNL     1      -4.107  -8.333 -14.798  1.00  0.00    -0.550 OA
ATOM      4  O   UNL     1      -5.261  -7.213 -16.430  1.00  0.00    -0.550 OA
ENDBRANCH   1   2
BRANCH   1   5
ATOM      5  C   UNL     1      -6.011 -10.556 -15.655  1.00  0.00     0.003 C 
ATOM      6  C   UNL     1      -5.599 -10.637 -17.125  1.00  0.00     0.004 C 
ENDBRANCH   1   5
TORSDOF 2
ENDMDL
MODEL 7
REMARK VINA RESULT:    -2.668     16.809     17.325
REMARK INTER + INTRA:          -3.002
REMARK INTER:                  -2.977
REMARK INTRA:                  -0.025
REMARK UNBOUND:                -0.023
REMARK SMILES CCCC(=O)[O-]
REMARK SMILES IDX 3 1 4 2 5 3 6 4 2 5 1 6
REMARK H PARENT
REMARK Flexibility Score: inf
ROOT
ATOM      1  C   UNL     1      -5.120  -7.273 -16.374  1.00  0.00     0.052 C 
ENDROOT
BRANCH   1   2
ATOM      2  C   UNL     1      -4.873  -8.137 -15.175  1.00  0.00     0.041 C 
ATOM      3  O   UNL     1      -3.696  -8.445 -14.848  1.00  0.00    -0.550 OA
ATOM      4  O   UNL     1      -5.940  -8.573 -14.401  1.00  0.00    -0.550 OA
ENDBRANCH   1   2
BRANCH   1   5
ATOM      5  C   UNL     1      -3.828  -6.999 -17.153  1.00  0.00     0.003 C 
ATOM      6  C   UNL     1      -3.957  -7.347 -18.635  1.00  0.00     0.004 C 
ENDBRANCH   1   5
TORSDOF 2
ENDMDL
MODEL 8
REMARK VINA RESULT:    -2.584      2.110      2.712
REMARK INTER + INTRA:          -2.909
REMARK INTER:                  -2.870
REMARK INTRA:                  -0.039
REMARK UNBOUND:                -0.023
REMARK SMILES CCCC(=O)[O-]
REMARK SMILES IDX 3 1 4 2 5 3 6 4 2 5 1 6
REMARK H PARENT
REMARK Flexibility Score: inf
ROOT
ATOM      1  C   UNL     1     -17.663  -1.072 -23.028  1.00  0.00     0.052 C 
ENDROOT
BRANCH   1   2
ATOM      2  C   UNL     1     -17.737   0.358 -23.468  1.00  0.00     0.041 C 
ATOM      3  O   UNL     1     -16.691   0.974 -23.802  1.00  0.00    -0.550 OA
ATOM      4  O   UNL     1     -18.967   0.999 -23.541  1.00  0.00    -0.550 OA
ENDBRANCH   1   2
BRANCH   1   5
ATOM      5  C   UNL     1     -19.022  -1.587 -22.538  1.00  0.00     0.003 C 
ATOM      6  C   UNL     1     -19.107  -1.642 -21.012  1.00  0.00     0.004 C 
ENDBRANCH   1   5
TORSDOF 2
ENDMDL
MODEL 9
REMARK VINA RESULT:    -2.507      2.244      4.038
REMARK INTER + INTRA:          -2.824
REMARK INTER:                  -2.818
REMARK INTRA:                  -0.006
REMARK UNBOUND:                -0.023
REMARK SMILES CCCC(=O)[O-]
REMARK SMILES IDX 3 1 4 2 5 3 6 4 2 5 1 6
REMARK H PARENT
REMARK Flexibility Score: inf
ROOT
ATOM      1  C   UNL     1     -17.275  -0.501 -21.326  1.00  0.00     0.052 C 
ENDROOT
BRANCH   1   2
ATOM      2  C   UNL     1     -17.497  -0.510 -22.808  1.00  0.00     0.041 C 
ATOM      3  O   UNL     1     -17.027   0.412 -23.525  1.00  0.00    -0.550 OA
ATOM      4  O   UNL     1     -18.196  -1.554 -23.399  1.00  0.00    -0.550 OA
ENDBRANCH   1   2
BRANCH   1   5
ATOM      5  C   UNL     1     -16.632  -1.807 -20.842  1.00  0.00     0.003 C 
ATOM      6  C   UNL     1     -15.783  -1.606 -19.586  1.00  0.00     0.004 C 
ENDBRANCH   1   5
TORSDOF 2
ENDMDL
