MODEL 1
REMARK VINA RESULT:    -4.558      0.000      0.000
REMARK INTER + INTRA:          -6.102
REMARK INTER:                  -5.624
REMARK INTRA:                  -0.478
REMARK UNBOUND:                -0.478
REMARK SMILES CCCCC=CC(C)=O
REMARK SMILES IDX 4 1 3 2 2 3 1 4 5 5 6 6 7 7 9 8 8 9
REMARK H PARENT
REMARK Flexibility Score: inf
ROOT
ATOM      1  C   UNL     1       7.840  30.518  28.698  1.00  0.00     0.027 C 
ENDROOT
BRANCH   1   2
ATOM      2  C   UNL     1       6.609  30.303  27.800  1.00  0.00     0.004 C 
BRANCH   2   3
ATOM      3  C   UNL     1       5.811  31.589  27.517  1.00  0.00    -0.003 C 
ATOM      4  C   UNL     1       5.881  32.020  26.052  1.00  0.00     0.004 C 
ENDBRANCH   2   3
ENDBRANCH   1   2
BRANCH   1   5
ATOM      5  C   UNL     1       9.131  30.471  27.922  1.00  0.00    -0.023 C 
ATOM      6  C   UNL     1       9.860  31.549  27.589  1.00  0.00     0.042 C 
BRANCH   6   7
ATOM      7  C   UNL     1       9.528  32.957  27.908  1.00  0.00     0.152 C 
ATOM      8  O   UNL     1       8.776  33.645  27.168  1.00  0.00    -0.295 OA
ATOM      9  C   UNL     1      10.125  33.588  29.125  1.00  0.00     0.093 C 
ENDBRANCH   6   7
ENDBRANCH   1   5
TORSDOF 4
ENDMDL
MODEL 2
REMARK VINA RESULT:    -4.393     16.157     17.393
REMARK INTER + INTRA:          -5.898
REMARK INTER:                  -5.428
REMARK INTRA:                  -0.470
REMARK UNBOUND:                -0.478
REMARK SMILES CCCCC=CC(C)=O
REMARK SMILES IDX 4 1 3 2 2 3 1 4 5 5 6 6 7 7 9 8 8 9
REMARK H PARENT
REMARK Flexibility Score: inf
ROOT
ATOM      1  C   UNL     1      -7.548  33.253  20.969  1.00  0.00     0.027 C 
ENDROOT
BRANCH   1   2
ATOM      2  C   UNL     1      -7.967  34.552  21.680  1.00  0.00     0.004 C 
BRANCH   2   3
ATOM      3  C   UNL     1      -7.317  34.744  23.063  1.00  0.00    -0.003 C 
ATOM      4  C   UNL     1      -8.333  35.090  24.152  1.00  0.00     0.004 C 
ENDBRANCH   2   3
ENDBRANCH   1   2
BRANCH   1   5
ATOM      5  C   UNL     1      -8.668  32.246  20.907  1.00  0.00    -0.023 C 
ATOM      6  C   UNL     1      -8.866  31.271  21.809  1.00  0.00     0.042 C 
BRANCH   6   7
ATOM      7  C   UNL     1      -8.029  31.003  23.001  1.00  0.00     0.152 C 
ATOM      8  O   UNL     1      -8.253  31.563  24.107  1.00  0.00    -0.295 OA
ATOM      9  C   UNL     1      -6.870  30.067  22.883  1.00  0.00     0.093 C 
ENDBRANCH   6   7
ENDBRANCH   1   5
TORSDOF 4
ENDMDL
MODEL 3
REMARK VINA RESULT:    -4.331     16.910     17.706
REMARK INTER + INTRA:          -5.821
REMARK INTER:                  -5.493
REMARK INTRA:                  -0.328
REMARK UNBOUND:                -0.478
REMARK SMILES CCCCC=CC(C)=O
REMARK SMILES IDX 4 1 3 2 2 3 1 4 5 5 6 6 7 7 9 8 8 9
REMARK H PARENT
REMARK Flexibility Score: inf
ROOT
ATOM      1  C   UNL     1      -8.252  34.709  22.151  1.00  0.00     0.027 C 
ENDROOT
BRANCH   1   2
ATOM      2  C   UNL     1      -7.391  34.779  23.425  1.00  0.00     0.004 C 
BRANCH   2   3
ATOM      3  C   UNL     1      -8.205  34.721  24.731  1.00  0.00    -0.003 C 
ATOM      4  C   UNL     1      -9.000  36.000  24.992  1.00  0.00     0.004 C 
ENDBRANCH   2   3
ENDBRANCH   1   2
BRANCH   1   5
ATOM      5  C   UNL     1      -7.500  34.125  20.983  1.00  0.00    -0.023 C 
ATOM      6  C   UNL     1      -7.577  32.842  20.593  1.00  0.00     0.042 C 
BRANCH   6   7
ATOM      7  C   UNL     1      -8.392  31.784  21.233  1.00  0.00     0.152 C 
ATOM      8  O   UNL     1      -9.578  31.553  20.876  1.00  0.00    -0.295 OA
ATOM      9  C   UNL     1      -7.803  30.988  22.353  1.00  0.00     0.093 C 
ENDBRANCH   6   7
ENDBRANCH   1   5
TORSDOF 4
ENDMDL
MODEL 4
REMARK VINA RESULT:    -4.251     16.485     17.308
REMARK INTER + INTRA:          -5.722
REMARK INTER:                  -5.296
REMARK INTRA:                  -0.426
REMARK UNBOUND:                -0.478
REMARK SMILES CCCCC=CC(C)=O
REMARK SMILES IDX 4 1 3 2 2 3 1 4 5 5 6 6 7 7 9 8 8 9
REMARK H PARENT
REMARK Flexibility Score: inf
ROOT
ATOM      1  C   UNL     1      -7.330  30.725  22.302  1.00  0.00     0.027 C 
ENDROOT
BRANCH   1   2
ATOM      2  C   UNL     1      -7.524  30.189  23.732  1.00  0.00     0.004 C 
BRANCH   2   3
ATOM      3  C   UNL     1      -8.750  30.777  24.457  1.00  0.00    -0.003 C 
ATOM      4  C   UNL     1      -8.429  32.066  25.212  1.00  0.00     0.004 C 
ENDBRANCH   2   3
ENDBRANCH   1   2
BRANCH   1   5
ATOM      5  C   UNL     1      -8.633  31.115  21.654  1.00  0.00    -0.023 C 
ATOM      6  C   UNL     1      -8.842  32.269  20.998  1.00  0.00     0.042 C 
BRANCH   6   7
ATOM      7  C   UNL     1      -7.852  33.353  20.805  1.00  0.00     0.152 C 
ATOM      8  O   UNL     1      -7.043  33.348  19.840  1.00  0.00    -0.295 OA
ATOM      9  C   UNL     1      -7.790  34.468  21.799  1.00  0.00     0.093 C 
ENDBRANCH   6   7
ENDBRANCH   1   5
TORSDOF 4
ENDMDL
MODEL 5
REMARK VINA RESULT:    -4.223      1.539      3.668
REMARK INTER + INTRA:          -5.689
REMARK INTER:                  -5.123
REMARK INTRA:                  -0.565
REMARK UNBOUND:                -0.478
REMARK SMILES CCCCC=CC(C)=O
REMARK SMILES IDX 4 1 3 2 2 3 1 4 5 5 6 6 7 7 9 8 8 9
REMARK H PARENT
REMARK Flexibility Score: inf
ROOT
ATOM      1  C   UNL     1       8.624  30.990  28.772  1.00  0.00     0.027 C 
ENDROOT
BRANCH   1   2
ATOM      2  C   UNL     1       9.646  31.131  27.631  1.00  0.00     0.004 C 
BRANCH   2   3
ATOM      3  C   UNL     1       9.958  32.591  27.249  1.00  0.00    -0.003 C 
ATOM      4  C   UNL     1       8.898  33.573  27.747  1.00  0.00     0.004 C 
ENDBRANCH   2   3
ENDBRANCH   1   2
BRANCH   1   5
ATOM      5  C   UNL     1       7.593  29.928  28.490  1.00  0.00    -0.023 C 
ATOM      6  C   UNL     1       6.386  30.163  27.950  1.00  0.00     0.042 C 
BRANCH   6   7
ATOM      7  C   UNL     1       5.853  31.486  27.549  1.00  0.00     0.152 C 
ATOM      8  O   UNL     1       5.286  32.250  28.374  1.00  0.00    -0.295 OA
ATOM      9  C   UNL     1       5.964  31.914  26.121  1.00  0.00     0.093 C 
ENDBRANCH   6   7
ENDBRANCH   1   5
TORSDOF 4
ENDMDL
MODEL 6
REMARK VINA RESULT:    -4.152     16.155     17.162
REMARK INTER + INTRA:          -5.600
REMARK INTER:                  -5.305
REMARK INTRA:                  -0.296
REMARK UNBOUND:                -0.478
REMARK SMILES CCCCC=CC(C)=O
REMARK SMILES IDX 4 1 3 2 2 3 1 4 5 5 6 6 7 7 9 8 8 9
REMARK H PARENT
REMARK Flexibility Score: inf
ROOT
ATOM      1  C   UNL     1      -9.096  32.915  22.181  1.00  0.00     0.027 C 
ENDROOT
BRANCH   1   2
ATOM      2  C   UNL     1      -8.803  31.447  22.537  1.00  0.00     0.004 C 
BRANCH   2   3
ATOM      3  C   UNL     1      -7.329  31.041  22.349  1.00  0.00    -0.003 C 
ATOM      4  C   UNL     1      -6.955  29.786  23.138  1.00  0.00     0.004 C 
ENDBRANCH   2   3
ENDBRANCH   1   2
BRANCH   1   5
ATOM      5  C   UNL     1      -7.862  33.778  22.248  1.00  0.00    -0.023 C 
ATOM      6  C   UNL     1      -7.500  34.508  23.316  1.00  0.00     0.042 C 
BRANCH   6   7
ATOM      7  C   UNL     1      -8.240  34.605  24.596  1.00  0.00     0.152 C 
ATOM      8  O   UNL     1      -8.297  33.639  25.403  1.00  0.00    -0.295 OA
ATOM      9  C   UNL     1      -8.961  35.872  24.927  1.00  0.00     0.093 C 
ENDBRANCH   6   7
ENDBRANCH   1   5
TORSDOF 4
ENDMDL
MODEL 7
REMARK VINA RESULT:    -4.111     17.031     17.558
REMARK INTER + INTRA:          -5.550
REMARK INTER:                  -5.257
REMARK INTRA:                  -0.293
REMARK UNBOUND:                -0.478
REMARK SMILES CCCCC=CC(C)=O
REMARK SMILES IDX 4 1 3 2 2 3 1 4 5 5 6 6 7 7 9 8 8 9
REMARK H PARENT
REMARK Flexibility Score: inf
ROOT
ATOM      1  C   UNL     1      -8.992  32.596  24.015  1.00  0.00     0.027 C 
ENDROOT
BRANCH   1   2
ATOM      2  C   UNL     1      -8.428  33.527  25.103  1.00  0.00     0.004 C 
BRANCH   2   3
ATOM      3  C   UNL     1      -8.023  34.919  24.584  1.00  0.00    -0.003 C 
ATOM      4  C   UNL     1      -9.010  36.014  24.992  1.00  0.00     0.004 C 
ENDBRANCH   2   3
ENDBRANCH   1   2
BRANCH   1   5
ATOM      5  C   UNL     1      -7.957  31.632  23.494  1.00  0.00    -0.023 C 
ATOM      6  C   UNL     1      -7.636  31.487  22.198  1.00  0.00     0.042 C 
BRANCH   6   7
ATOM      7  C   UNL     1      -8.235  32.227  21.063  1.00  0.00     0.152 C 
ATOM      8  O   UNL     1      -9.329  31.877  20.547  1.00  0.00    -0.295 OA
ATOM      9  C   UNL     1      -7.508  33.404  20.496  1.00  0.00     0.093 C 
ENDBRANCH   6   7
ENDBRANCH   1   5
TORSDOF 4
ENDMDL
MODEL 8
REMARK VINA RESULT:    -4.089     16.665     17.359
REMARK INTER + INTRA:          -5.523
REMARK INTER:                  -5.032
REMARK INTRA:                  -0.491
REMARK UNBOUND:                -0.478
REMARK SMILES CCCCC=CC(C)=O
REMARK SMILES IDX 4 1 3 2 2 3 1 4 5 5 6 6 7 7 9 8 8 9
REMARK H PARENT
REMARK Flexibility Score: inf
ROOT
ATOM      1  C   UNL     1      -8.345  31.142  21.644  1.00  0.00     0.027 C 
ENDROOT
BRANCH   1   2
ATOM      2  C   UNL     1      -7.776  32.451  21.070  1.00  0.00     0.004 C 
BRANCH   2   3
ATOM      3  C   UNL     1      -8.481  33.719  21.588  1.00  0.00    -0.003 C 
ATOM      4  C   UNL     1      -7.503  34.837  21.947  1.00  0.00     0.004 C 
ENDBRANCH   2   3
ENDBRANCH   1   2
BRANCH   1   5
ATOM      5  C   UNL     1      -7.414  30.501  22.641  1.00  0.00    -0.023 C 
ATOM      6  C   UNL     1      -7.600  30.506  23.971  1.00  0.00     0.042 C 
BRANCH   6   7
ATOM      7  C   UNL     1      -8.729  31.142  24.690  1.00  0.00     0.152 C 
ATOM      8  O   UNL     1      -9.814  30.533  24.889  1.00  0.00    -0.295 OA
ATOM      9  C   UNL     1      -8.589  32.552  25.165  1.00  0.00     0.093 C 
ENDBRANCH   6   7
ENDBRANCH   1   5
TORSDOF 4
ENDMDL
