MODEL 1
REMARK VINA RESULT:    -1.899      0.000      0.000
REMARK INTER + INTRA:          -5.404
REMARK INTER:                  -3.674
REMARK INTRA:                  -1.730
REMARK UNBOUND:                -1.730
REMARK SMILES CCCCCCCCCCCCCCCCCC(=O)[O-]
REMARK SMILES IDX 10 1 11 2 12 3 13 4 14 5 15 6 16 7 17 8 18 9 19 10 20 11
REMARK SMILES IDX 9 12 8 13 7 14 6 15 5 16 4 17 3 18 2 19 1 20
REMARK H PARENT
REMARK Flexibility Score: inf
ROOT
ATOM      1  C   UNL     1     -23.971   2.296 -32.696  1.00  0.00     0.000 C 
ENDROOT
BRANCH   1   2
ATOM      2  C   UNL     1     -24.040   3.747 -32.195  1.00  0.00     0.000 C 
BRANCH   2   3
ATOM      3  C   UNL     1     -25.468   4.183 -31.837  1.00  0.00     0.000 C 
BRANCH   3   4
ATOM      4  C   UNL     1     -26.048   5.106 -32.915  1.00  0.00     0.000 C 
BRANCH   4   5
ATOM      5  C   UNL     1     -27.556   4.883 -33.080  1.00  0.00     0.000 C 
BRANCH   5   6
ATOM      6  C   UNL     1     -27.865   4.157 -34.398  1.00  0.00     0.000 C 
BRANCH   6   7
ATOM      7  C   UNL     1     -28.152   5.120 -35.564  1.00  0.00     0.006 C 
BRANCH   7   8
ATOM      8  C   UNL     1     -27.081   5.099 -36.670  1.00  0.00     0.053 C 
BRANCH   8   9
ATOM      9  C   UNL     1     -27.666   4.975 -38.042  1.00  0.00     0.041 C 
ATOM     10  O   UNL     1     -26.915   4.933 -39.053  1.00  0.00    -0.550 OA
ATOM     11  O   UNL     1     -29.045   4.937 -38.210  1.00  0.00    -0.550 OA
ENDBRANCH   8   9
ENDBRANCH   7   8
ENDBRANCH   6   7
ENDBRANCH   5   6
ENDBRANCH   4   5
ENDBRANCH   3   4
ENDBRANCH   2   3
ENDBRANCH   1   2
BRANCH   1  12
ATOM     12  C   UNL     1     -24.077   2.191 -34.224  1.00  0.00     0.000 C 
BRANCH  12  13
ATOM     13  C   UNL     1     -22.774   2.646 -34.897  1.00  0.00    -0.000 C 
BRANCH  13  14
ATOM     14  C   UNL     1     -22.767   4.148 -35.237  1.00  0.00    -0.000 C 
BRANCH  14  15
ATOM     15  C   UNL     1     -23.994   4.642 -36.028  1.00  0.00    -0.000 C 
BRANCH  15  16
ATOM     16  C   UNL     1     -23.716   5.004 -37.499  1.00  0.00    -0.000 C 
BRANCH  16  17
ATOM     17  C   UNL     1     -22.283   4.667 -37.964  1.00  0.00    -0.000 C 
BRANCH  17  18
ATOM     18  C   UNL     1     -22.261   3.636 -39.102  1.00  0.00    -0.000 C 
BRANCH  18  19
ATOM     19  C   UNL     1     -23.496   2.730 -39.047  1.00  0.00    -0.003 C 
ATOM     20  C   UNL     1     -23.134   1.336 -38.540  1.00  0.00     0.004 C 
ENDBRANCH  18  19
ENDBRANCH  17  18
ENDBRANCH  16  17
ENDBRANCH  15  16
ENDBRANCH  14  15
ENDBRANCH  13  14
ENDBRANCH  12  13
ENDBRANCH   1  12
TORSDOF 16
ENDMDL
MODEL 2
REMARK VINA RESULT:    -1.825      2.885      4.840
REMARK INTER + INTRA:          -5.261
REMARK INTER:                  -4.247
REMARK INTRA:                  -1.014
REMARK UNBOUND:                -1.730
REMARK SMILES CCCCCCCCCCCCCCCCCC(=O)[O-]
REMARK SMILES IDX 10 1 11 2 12 3 13 4 14 5 15 6 16 7 17 8 18 9 19 10 20 11
REMARK SMILES IDX 9 12 8 13 7 14 6 15 5 16 4 17 3 18 2 19 1 20
REMARK H PARENT
REMARK Flexibility Score: inf
ROOT
ATOM      1  C   UNL     1     -26.339   4.741 -36.384  1.00  0.00     0.000 C 
ENDROOT
BRANCH   1   2
ATOM      2  C   UNL     1     -27.831   5.064 -36.210  1.00  0.00     0.000 C 
BRANCH   2   3
ATOM      3  C   UNL     1     -28.439   4.406 -34.962  1.00  0.00     0.000 C 
BRANCH   3   4
ATOM      4  C   UNL     1     -27.348   3.794 -34.077  1.00  0.00     0.000 C 
BRANCH   4   5
ATOM      5  C   UNL     1     -26.797   4.828 -33.088  1.00  0.00     0.000 C 
BRANCH   5   6
ATOM      6  C   UNL     1     -25.265   4.752 -33.008  1.00  0.00     0.000 C 
BRANCH   6   7
ATOM      7  C   UNL     1     -24.745   3.331 -32.723  1.00  0.00     0.006 C 
BRANCH   7   8
ATOM      8  C   UNL     1     -24.249   2.584 -33.974  1.00  0.00     0.053 C 
BRANCH   8   9
ATOM      9  C   UNL     1     -22.789   2.256 -33.913  1.00  0.00     0.041 C 
ATOM     10  O   UNL     1     -21.926   3.166 -34.039  1.00  0.00    -0.550 OA
ATOM     11  O   UNL     1     -22.377   0.940 -33.748  1.00  0.00    -0.550 OA
ENDBRANCH   8   9
ENDBRANCH   7   8
ENDBRANCH   6   7
ENDBRANCH   5   6
ENDBRANCH   4   5
ENDBRANCH   3   4
ENDBRANCH   2   3
ENDBRANCH   1   2
BRANCH   1  12
ATOM     12  C   UNL     1     -25.807   5.124 -37.773  1.00  0.00     0.000 C 
BRANCH  12  13
ATOM     13  C   UNL     1     -24.277   5.009 -37.824  1.00  0.00    -0.000 C 
BRANCH  13  14
ATOM     14  C   UNL     1     -23.794   3.712 -38.500  1.00  0.00    -0.000 C 
BRANCH  14  15
ATOM     15  C   UNL     1     -23.479   2.554 -37.533  1.00  0.00    -0.000 C 
BRANCH  15  16
ATOM     16  C   UNL     1     -22.441   1.539 -38.049  1.00  0.00    -0.000 C 
BRANCH  16  17
ATOM     17  C   UNL     1     -23.020   0.509 -39.043  1.00  0.00    -0.000 C 
BRANCH  17  18
ATOM     18  C   UNL     1     -22.417  -0.891 -38.857  1.00  0.00    -0.000 C 
BRANCH  18  19
ATOM     19  C   UNL     1     -21.549  -0.953 -37.596  1.00  0.00    -0.003 C 
ATOM     20  C   UNL     1     -21.002  -2.361 -37.372  1.00  0.00     0.004 C 
ENDBRANCH  18  19
ENDBRANCH  17  18
ENDBRANCH  16  17
ENDBRANCH  15  16
ENDBRANCH  14  15
ENDBRANCH  13  14
ENDBRANCH  12  13
ENDBRANCH   1  12
TORSDOF 16
ENDMDL
MODEL 3
REMARK VINA RESULT:    -1.663      3.039      5.981
REMARK INTER + INTRA:          -4.949
REMARK INTER:                  -3.762
REMARK INTRA:                  -1.187
REMARK UNBOUND:                -1.730
REMARK SMILES CCCCCCCCCCCCCCCCCC(=O)[O-]
REMARK SMILES IDX 10 1 11 2 12 3 13 4 14 5 15 6 16 7 17 8 18 9 19 10 20 11
REMARK SMILES IDX 9 12 8 13 7 14 6 15 5 16 4 17 3 18 2 19 1 20
REMARK H PARENT
REMARK Flexibility Score: inf
ROOT
ATOM      1  C   UNL     1     -23.442   2.509 -33.515  1.00  0.00     0.000 C 
ENDROOT
BRANCH   1   2
ATOM      2  C   UNL     1     -22.899   3.465 -34.588  1.00  0.00     0.000 C 
BRANCH   2   3
ATOM      3  C   UNL     1     -22.773   2.800 -35.967  1.00  0.00     0.000 C 
BRANCH   3   4
ATOM      4  C   UNL     1     -23.494   3.623 -37.041  1.00  0.00     0.000 C 
BRANCH   4   5
ATOM      5  C   UNL     1     -22.920   3.334 -38.434  1.00  0.00     0.000 C 
BRANCH   5   6
ATOM      6  C   UNL     1     -23.539   2.061 -39.031  1.00  0.00     0.000 C 
BRANCH   6   7
ATOM      7  C   UNL     1     -22.542   0.891 -39.123  1.00  0.00     0.006 C 
BRANCH   7   8
ATOM      8  C   UNL     1     -23.207  -0.497 -39.125  1.00  0.00     0.053 C 
BRANCH   8   9
ATOM      9  C   UNL     1     -22.414  -1.522 -38.374  1.00  0.00     0.041 C 
ATOM     10  O   UNL     1     -21.563  -1.164 -37.516  1.00  0.00    -0.550 OA
ATOM     11  O   UNL     1     -22.590  -2.873 -38.643  1.00  0.00    -0.550 OA
ENDBRANCH   8   9
ENDBRANCH   7   8
ENDBRANCH   6   7
ENDBRANCH   5   6
ENDBRANCH   4   5
ENDBRANCH   3   4
ENDBRANCH   2   3
ENDBRANCH   1   2
BRANCH   1  12
ATOM     12  C   UNL     1     -24.362   3.211 -32.505  1.00  0.00     0.000 C 
BRANCH  12  13
ATOM     13  C   UNL     1     -25.839   2.976 -32.854  1.00  0.00    -0.000 C 
BRANCH  13  14
ATOM     14  C   UNL     1     -26.384   3.990 -33.877  1.00  0.00    -0.000 C 
BRANCH  14  15
ATOM     15  C   UNL     1     -27.855   3.778 -34.283  1.00  0.00    -0.000 C 
BRANCH  15  16
ATOM     16  C   UNL     1     -28.447   4.879 -35.182  1.00  0.00    -0.000 C 
BRANCH  16  17
ATOM     17  C   UNL     1     -28.873   4.379 -36.579  1.00  0.00    -0.000 C 
BRANCH  17  18
ATOM     18  C   UNL     1     -28.158   5.125 -37.715  1.00  0.00    -0.000 C 
BRANCH  18  19
ATOM     19  C   UNL     1     -26.636   4.999 -37.583  1.00  0.00    -0.003 C 
ATOM     20  C   UNL     1     -25.954   5.109 -38.944  1.00  0.00     0.004 C 
ENDBRANCH  18  19
ENDBRANCH  17  18
ENDBRANCH  16  17
ENDBRANCH  15  16
ENDBRANCH  14  15
ENDBRANCH  13  14
ENDBRANCH  12  13
ENDBRANCH   1  12
TORSDOF 16
ENDMDL
MODEL 4
REMARK VINA RESULT:    -1.659      1.006      2.332
REMARK INTER + INTRA:          -4.942
REMARK INTER:                  -3.131
REMARK INTRA:                  -1.811
REMARK UNBOUND:                -1.730
REMARK SMILES CCCCCCCCCCCCCCCCCC(=O)[O-]
REMARK SMILES IDX 10 1 11 2 12 3 13 4 14 5 15 6 16 7 17 8 18 9 19 10 20 11
REMARK SMILES IDX 9 12 8 13 7 14 6 15 5 16 4 17 3 18 2 19 1 20
REMARK H PARENT
REMARK Flexibility Score: inf
ROOT
ATOM      1  C   UNL     1     -22.890   2.448 -34.050  1.00  0.00     0.000 C 
ENDROOT
BRANCH   1   2
ATOM      2  C   UNL     1     -24.343   2.945 -34.096  1.00  0.00     0.000 C 
BRANCH   2   3
ATOM      3  C   UNL     1     -24.651   3.980 -33.003  1.00  0.00     0.000 C 
BRANCH   3   4
ATOM      4  C   UNL     1     -26.155   4.266 -32.927  1.00  0.00     0.000 C 
BRANCH   4   5
ATOM      5  C   UNL     1     -26.871   3.798 -34.199  1.00  0.00     0.000 C 
BRANCH   5   6
ATOM      6  C   UNL     1     -28.317   4.314 -34.239  1.00  0.00     0.000 C 
BRANCH   6   7
ATOM      7  C   UNL     1     -28.669   5.023 -35.560  1.00  0.00     0.006 C 
BRANCH   7   8
ATOM      8  C   UNL     1     -27.500   5.099 -36.559  1.00  0.00     0.053 C 
BRANCH   8   9
ATOM      9  C   UNL     1     -27.915   4.782 -37.962  1.00  0.00     0.041 C 
ATOM     10  O   UNL     1     -27.190   5.125 -38.934  1.00  0.00    -0.550 OA
ATOM     11  O   UNL     1     -29.121   4.134 -38.202  1.00  0.00    -0.550 OA
ENDBRANCH   8   9
ENDBRANCH   7   8
ENDBRANCH   6   7
ENDBRANCH   5   6
ENDBRANCH   4   5
ENDBRANCH   3   4
ENDBRANCH   2   3
ENDBRANCH   1   2
BRANCH   1  12
ATOM     12  C   UNL     1     -22.640   1.258 -34.989  1.00  0.00     0.000 C 
BRANCH  12  13
ATOM     13  C   UNL     1     -22.319   1.740 -36.411  1.00  0.00    -0.000 C 
BRANCH  13  14
ATOM     14  C   UNL     1     -22.439   0.623 -37.465  1.00  0.00    -0.000 C 
BRANCH  14  15
ATOM     15  C   UNL     1     -22.894   1.091 -38.860  1.00  0.00    -0.000 C 
BRANCH  15  16
ATOM     16  C   UNL     1     -22.733   2.600 -39.125  1.00  0.00    -0.000 C 
BRANCH  16  17
ATOM     17  C   UNL     1     -24.050   3.396 -39.006  1.00  0.00    -0.000 C 
BRANCH  17  18
ATOM     18  C   UNL     1     -23.816   4.873 -38.656  1.00  0.00    -0.000 C 
BRANCH  18  19
ATOM     19  C   UNL     1     -24.033   5.125 -37.160  1.00  0.00    -0.003 C 
ATOM     20  C   UNL     1     -22.708   5.111 -36.401  1.00  0.00     0.004 C 
ENDBRANCH  18  19
ENDBRANCH  17  18
ENDBRANCH  16  17
ENDBRANCH  15  16
ENDBRANCH  14  15
ENDBRANCH  13  14
ENDBRANCH  12  13
ENDBRANCH   1  12
TORSDOF 16
ENDMDL
MODEL 5
REMARK VINA RESULT:    -0.937     13.417     15.770
REMARK INTER + INTRA:          -3.543
REMARK INTER:                  -3.802
REMARK INTRA:                   0.258
REMARK UNBOUND:                -1.730
REMARK SMILES CCCCCCCCCCCCCCCCCC(=O)[O-]
REMARK SMILES IDX 10 1 11 2 12 3 13 4 14 5 15 6 16 7 17 8 18 9 19 10 20 11
REMARK SMILES IDX 9 12 8 13 7 14 6 15 5 16 4 17 3 18 2 19 1 20
REMARK H PARENT
REMARK Flexibility Score: inf
ROOT
ATOM      1  C   UNL     1     -10.317   0.843 -35.027  1.00  0.00     0.000 C 
ENDROOT
BRANCH   1   2
ATOM      2  C   UNL     1      -9.139   1.748 -34.634  1.00  0.00     0.000 C 
BRANCH   2   3
ATOM      3  C   UNL     1      -9.557   2.889 -33.694  1.00  0.00     0.000 C 
BRANCH   3   4
ATOM      4  C   UNL     1      -8.875   4.204 -34.090  1.00  0.00     0.000 C 
BRANCH   4   5
ATOM      5  C   UNL     1      -9.683   4.941 -35.165  1.00  0.00     0.000 C 
BRANCH   5   6
ATOM      6  C   UNL     1      -8.933   4.953 -36.505  1.00  0.00     0.000 C 
BRANCH   6   7
ATOM      7  C   UNL     1      -9.823   4.559 -37.699  1.00  0.00     0.006 C 
BRANCH   7   8
ATOM      8  C   UNL     1     -11.287   5.017 -37.565  1.00  0.00     0.053 C 
BRANCH   8   9
ATOM      9  C   UNL     1     -12.260   4.010 -38.096  1.00  0.00     0.041 C 
ATOM     10  O   UNL     1     -12.943   4.266 -39.123  1.00  0.00    -0.550 OA
ATOM     11  O   UNL     1     -12.437   2.800 -37.438  1.00  0.00    -0.550 OA
ENDBRANCH   8   9
ENDBRANCH   7   8
ENDBRANCH   6   7
ENDBRANCH   5   6
ENDBRANCH   4   5
ENDBRANCH   3   4
ENDBRANCH   2   3
ENDBRANCH   1   2
BRANCH   1  12
ATOM     12  C   UNL     1     -10.135   0.202 -36.411  1.00  0.00     0.000 C 
BRANCH  12  13
ATOM     13  C   UNL     1     -10.033   1.276 -37.504  1.00  0.00    -0.000 C 
BRANCH  13  14
ATOM     14  C   UNL     1      -8.899   1.005 -38.509  1.00  0.00    -0.000 C 
BRANCH  14  15
ATOM     15  C   UNL     1      -8.875  -0.421 -39.094  1.00  0.00    -0.000 C 
BRANCH  15  16
ATOM     16  C   UNL     1      -9.503  -1.503 -38.196  1.00  0.00    -0.000 C 
BRANCH  16  17
ATOM     17  C   UNL     1      -9.112  -2.943 -38.592  1.00  0.00    -0.000 C 
BRANCH  17  18
ATOM     18  C   UNL     1     -10.305  -3.751 -39.123  1.00  0.00    -0.000 C 
BRANCH  18  19
ATOM     19  C   UNL     1     -10.192  -5.226 -38.723  1.00  0.00    -0.003 C 
ATOM     20  C   UNL     1      -9.426  -5.385 -37.412  1.00  0.00     0.004 C 
ENDBRANCH  18  19
ENDBRANCH  17  18
ENDBRANCH  16  17
ENDBRANCH  15  16
ENDBRANCH  14  15
ENDBRANCH  13  14
ENDBRANCH  12  13
ENDBRANCH   1  12
TORSDOF 16
ENDMDL
MODEL 6
REMARK VINA RESULT:    -0.672      1.400      2.332
REMARK INTER + INTRA:          -3.031
REMARK INTER:                  -3.237
REMARK INTRA:                   0.206
REMARK UNBOUND:                -1.730
REMARK SMILES CCCCCCCCCCCCCCCCCC(=O)[O-]
REMARK SMILES IDX 10 1 11 2 12 3 13 4 14 5 15 6 16 7 17 8 18 9 19 10 20 11
REMARK SMILES IDX 9 12 8 13 7 14 6 15 5 16 4 17 3 18 2 19 1 20
REMARK H PARENT
REMARK Flexibility Score: inf
ROOT
ATOM      1  C   UNL     1     -22.568   1.025 -33.506  1.00  0.00     0.000 C 
ENDROOT
BRANCH   1   2
ATOM      2  C   UNL     1     -23.940   1.536 -33.041  1.00  0.00     0.000 C 
BRANCH   2   3
ATOM      3  C   UNL     1     -23.986   3.064 -32.895  1.00  0.00     0.000 C 
BRANCH   3   4
ATOM      4  C   UNL     1     -25.145   3.495 -31.989  1.00  0.00     0.000 C 
BRANCH   4   5
ATOM      5  C   UNL     1     -25.958   4.625 -32.634  1.00  0.00     0.000 C 
BRANCH   5   6
ATOM      6  C   UNL     1     -27.061   4.061 -33.542  1.00  0.00     0.000 C 
BRANCH   6   7
ATOM      7  C   UNL     1     -28.113   5.113 -33.938  1.00  0.00     0.006 C 
BRANCH   7   8
ATOM      8  C   UNL     1     -28.854   4.792 -35.249  1.00  0.00     0.053 C 
BRANCH   8   9
ATOM      9  C   UNL     1     -27.989   4.957 -36.460  1.00  0.00     0.041 C 
ATOM     10  O   UNL     1     -28.509   5.124 -37.595  1.00  0.00    -0.550 OA
ATOM     11  O   UNL     1     -26.606   4.894 -36.341  1.00  0.00    -0.550 OA
ENDBRANCH   8   9
ENDBRANCH   7   8
ENDBRANCH   6   7
ENDBRANCH   5   6
ENDBRANCH   4   5
ENDBRANCH   3   4
ENDBRANCH   2   3
ENDBRANCH   1   2
BRANCH   1  12
ATOM     12  C   UNL     1     -22.053   1.760 -34.753  1.00  0.00     0.000 C 
BRANCH  12  13
ATOM     13  C   UNL     1     -23.132   2.693 -35.323  1.00  0.00    -0.000 C 
BRANCH  13  14
ATOM     14  C   UNL     1     -22.544   3.915 -36.052  1.00  0.00    -0.000 C 
BRANCH  14  15
ATOM     15  C   UNL     1     -22.192   3.682 -37.534  1.00  0.00    -0.000 C 
BRANCH  15  16
ATOM     16  C   UNL     1     -23.322   3.068 -38.383  1.00  0.00    -0.000 C 
BRANCH  16  17
ATOM     17  C   UNL     1     -22.917   1.768 -39.111  1.00  0.00    -0.000 C 
BRANCH  17  18
ATOM     18  C   UNL     1     -23.217   0.511 -38.282  1.00  0.00    -0.000 C 
BRANCH  18  19
ATOM     19  C   UNL     1     -23.041  -0.758 -39.123  1.00  0.00    -0.003 C 
ATOM     20  C   UNL     1     -22.147  -1.771 -38.413  1.00  0.00     0.004 C 
ENDBRANCH  18  19
ENDBRANCH  17  18
ENDBRANCH  16  17
ENDBRANCH  15  16
ENDBRANCH  14  15
ENDBRANCH  13  14
ENDBRANCH  12  13
ENDBRANCH   1  12
TORSDOF 16
ENDMDL
MODEL 7
REMARK VINA RESULT:    -0.563      1.899      3.541
REMARK INTER + INTRA:          -2.819
REMARK INTER:                  -1.589
REMARK INTRA:                  -1.229
REMARK UNBOUND:                -1.730
REMARK SMILES CCCCCCCCCCCCCCCCCC(=O)[O-]
REMARK SMILES IDX 10 1 11 2 12 3 13 4 14 5 15 6 16 7 17 8 18 9 19 10 20 11
REMARK SMILES IDX 9 12 8 13 7 14 6 15 5 16 4 17 3 18 2 19 1 20
REMARK H PARENT
REMARK Flexibility Score: inf
ROOT
ATOM      1  C   UNL     1     -26.807   4.217 -33.169  1.00  0.00     0.000 C 
ENDROOT
BRANCH   1   2
ATOM      2  C   UNL     1     -26.889   3.438 -34.491  1.00  0.00     0.000 C 
BRANCH   2   3
ATOM      3  C   UNL     1     -28.227   3.641 -35.218  1.00  0.00     0.000 C 
BRANCH   3   4
ATOM      4  C   UNL     1     -28.144   4.810 -36.206  1.00  0.00     0.000 C 
BRANCH   4   5
ATOM      5  C   UNL     1     -29.045   4.569 -37.423  1.00  0.00     0.000 C 
BRANCH   5   6
ATOM      6  C   UNL     1     -28.212   4.428 -38.706  1.00  0.00     0.000 C 
BRANCH   6   7
ATOM      7  C   UNL     1     -26.842   5.124 -38.616  1.00  0.00     0.006 C 
BRANCH   7   8
ATOM      8  C   UNL     1     -25.658   4.227 -39.018  1.00  0.00     0.053 C 
BRANCH   8   9
ATOM      9  C   UNL     1     -24.363   4.665 -38.406  1.00  0.00     0.041 C 
ATOM     10  O   UNL     1     -23.331   4.783 -39.118  1.00  0.00    -0.550 OA
ATOM     11  O   UNL     1     -24.288   4.914 -37.042  1.00  0.00    -0.550 OA
ENDBRANCH   8   9
ENDBRANCH   7   8
ENDBRANCH   6   7
ENDBRANCH   5   6
ENDBRANCH   4   5
ENDBRANCH   3   4
ENDBRANCH   2   3
ENDBRANCH   1   2
BRANCH   1  12
ATOM     12  C   UNL     1     -25.642   3.757 -32.281  1.00  0.00     0.000 C 
BRANCH  12  13
ATOM     13  C   UNL     1     -25.410   2.245 -32.421  1.00  0.00    -0.000 C 
BRANCH  13  14
ATOM     14  C   UNL     1     -23.953   1.890 -32.771  1.00  0.00    -0.000 C 
BRANCH  14  15
ATOM     15  C   UNL     1     -23.219   2.934 -33.635  1.00  0.00    -0.000 C 
BRANCH  15  16
ATOM     16  C   UNL     1     -22.460   2.359 -34.845  1.00  0.00    -0.000 C 
BRANCH  16  17
ATOM     17  C   UNL     1     -23.309   2.277 -36.132  1.00  0.00    -0.000 C 
BRANCH  17  18
ATOM     18  C   UNL     1     -22.487   1.840 -37.353  1.00  0.00    -0.000 C 
BRANCH  18  19
ATOM     19  C   UNL     1     -23.273   0.850 -38.219  1.00  0.00    -0.003 C 
ATOM     20  C   UNL     1     -22.403  -0.335 -38.631  1.00  0.00     0.004 C 
ENDBRANCH  18  19
ENDBRANCH  17  18
ENDBRANCH  16  17
ENDBRANCH  15  16
ENDBRANCH  14  15
ENDBRANCH  13  14
ENDBRANCH  12  13
ENDBRANCH   1  12
TORSDOF 16
ENDMDL
MODEL 8
REMARK VINA RESULT:    -0.354      3.183      4.992
REMARK INTER + INTRA:          -2.416
REMARK INTER:                  -1.471
REMARK INTRA:                  -0.945
REMARK UNBOUND:                -1.730
REMARK SMILES CCCCCCCCCCCCCCCCCC(=O)[O-]
REMARK SMILES IDX 10 1 11 2 12 3 13 4 14 5 15 6 16 7 17 8 18 9 19 10 20 11
REMARK SMILES IDX 9 12 8 13 7 14 6 15 5 16 4 17 3 18 2 19 1 20
REMARK H PARENT
REMARK Flexibility Score: inf
ROOT
ATOM      1  C   UNL     1     -23.377   4.550 -35.984  1.00  0.00     0.000 C 
ENDROOT
BRANCH   1   2
ATOM      2  C   UNL     1     -24.814   4.642 -36.521  1.00  0.00     0.000 C 
BRANCH   2   3
ATOM      3  C   UNL     1     -25.817   5.111 -35.456  1.00  0.00     0.000 C 
BRANCH   3   4
ATOM      4  C   UNL     1     -27.047   4.197 -35.419  1.00  0.00     0.000 C 
BRANCH   4   5
ATOM      5  C   UNL     1     -27.363   3.756 -33.984  1.00  0.00     0.000 C 
BRANCH   5   6
ATOM      6  C   UNL     1     -26.647   4.653 -32.963  1.00  0.00     0.000 C 
BRANCH   6   7
ATOM      7  C   UNL     1     -25.304   4.071 -32.485  1.00  0.00     0.006 C 
BRANCH   7   8
ATOM      8  C   UNL     1     -25.009   2.659 -33.020  1.00  0.00     0.053 C 
BRANCH   8   9
ATOM      9  C   UNL     1     -23.547   2.411 -33.226  1.00  0.00     0.041 C 
ATOM     10  O   UNL     1     -23.146   1.304 -33.677  1.00  0.00    -0.550 OA
ATOM     11  O   UNL     1     -22.620   3.390 -32.891  1.00  0.00    -0.550 OA
ENDBRANCH   8   9
ENDBRANCH   7   8
ENDBRANCH   6   7
ENDBRANCH   5   6
ENDBRANCH   4   5
ENDBRANCH   3   4
ENDBRANCH   2   3
ENDBRANCH   1   2
BRANCH   1  12
ATOM     12  C   UNL     1     -22.414   3.885 -36.978  1.00  0.00     0.000 C 
BRANCH  12  13
ATOM     13  C   UNL     1     -22.282   2.382 -36.691  1.00  0.00    -0.000 C 
BRANCH  13  14
ATOM     14  C   UNL     1     -23.350   1.537 -37.410  1.00  0.00    -0.000 C 
BRANCH  14  15
ATOM     15  C   UNL     1     -22.855   0.792 -38.665  1.00  0.00    -0.000 C 
BRANCH  15  16
ATOM     16  C   UNL     1     -23.748  -0.376 -39.124  1.00  0.00    -0.000 C 
BRANCH  16  17
ATOM     17  C   UNL     1     -23.308  -1.749 -38.573  1.00  0.00    -0.000 C 
BRANCH  17  18
ATOM     18  C   UNL     1     -21.787  -1.951 -38.639  1.00  0.00    -0.000 C 
BRANCH  18  19
ATOM     19  C   UNL     1     -21.154  -1.822 -37.250  1.00  0.00    -0.003 C 
ATOM     20  C   UNL     1     -20.545  -3.147 -36.797  1.00  0.00     0.004 C 
ENDBRANCH  18  19
ENDBRANCH  17  18
ENDBRANCH  16  17
ENDBRANCH  15  16
ENDBRANCH  14  15
ENDBRANCH  13  14
ENDBRANCH  12  13
ENDBRANCH   1  12
TORSDOF 16
ENDMDL
