MODEL 1
REMARK VINA RESULT:    -5.594      0.000      0.000
REMARK INTER + INTRA:          -7.192
REMARK INTER:                  -6.902
REMARK INTRA:                  -0.291
REMARK UNBOUND:                -0.291
REMARK SMILES O=c1c(O)c(-c2cc(O)c(O)c(O)c2)oc2cc(O)cc(O)c12
REMARK SMILES IDX 5 1 3 2 2 3 1 4 23 5 21 6 20 7 18 8 17 9 16 10 15 11 6 12
REMARK SMILES IDX 7 13 8 14 14 15 10 16 12 17 9 18 11 20 13 22 4 24 22 26
REMARK SMILES IDX 19 28
REMARK H PARENT 9 19 11 21 13 23 4 25 22 27 19 29
REMARK Flexibility Score: inf
ROOT
ATOM      1  C   UNL     1       5.248  34.687   4.323  1.00  0.00     0.180 A 
ATOM      2  C   UNL     1       4.351  35.320   3.445  1.00  0.00     0.208 A 
ATOM      3  C   UNL     1       3.765  34.572   2.412  1.00  0.00     0.238 A 
ATOM      4  O   UNL     1       2.921  35.131   1.664  1.00  0.00    -0.285 OA
ATOM      5  C   UNL     1       4.095  33.204   2.259  1.00  0.00     0.111 A 
ATOM      6  C   UNL     1       3.592  32.360   1.224  1.00  0.00     0.134 A 
ATOM      7  C   UNL     1       3.884  30.990   1.247  1.00  0.00     0.093 A 
ATOM      8  C   UNL     1       4.712  30.446   2.228  1.00  0.00     0.123 A 
ATOM      9  C   UNL     1       5.259  31.273   3.210  1.00  0.00     0.094 A 
ATOM     10  C   UNL     1       4.956  32.637   3.236  1.00  0.00     0.146 A 
ATOM     11  O   UNL     1       5.487  33.387   4.192  1.00  0.00    -0.452 OA
ENDROOT
BRANCH   1  12
ATOM     12  C   UNL     1       5.925  35.416   5.419  1.00  0.00     0.029 A 
ATOM     13  C   UNL     1       5.581  35.136   6.750  1.00  0.00     0.062 A 
ATOM     14  C   UNL     1       6.216  35.791   7.812  1.00  0.00     0.162 A 
ATOM     15  C   UNL     1       6.946  36.343   5.159  1.00  0.00     0.062 A 
ATOM     16  C   UNL     1       7.229  36.741   7.541  1.00  0.00     0.200 A 
ATOM     17  C   UNL     1       7.589  37.005   6.213  1.00  0.00     0.162 A 
BRANCH  14  18
ATOM     18  O   UNL     1       5.812  35.467   9.109  1.00  0.00    -0.504 OA
ATOM     19  H   UNL     1       5.170  36.022   9.656  1.00  0.00     0.293 HD
ENDBRANCH  14  18
BRANCH  16  20
ATOM     20  O   UNL     1       7.897  37.435   8.553  1.00  0.00    -0.502 OA
ATOM     21  H   UNL     1       8.476  38.247   8.395  1.00  0.00     0.293 HD
ENDBRANCH  16  20
BRANCH  17  22
ATOM     22  O   UNL     1       8.598  37.931   5.945  1.00  0.00    -0.504 OA
ATOM     23  H   UNL     1       9.388  38.050   6.567  1.00  0.00     0.293 HD
ENDBRANCH  17  22
ENDBRANCH   1  12
BRANCH   2  24
ATOM     24  O   UNL     1       4.023  36.666   3.627  1.00  0.00    -0.502 OA
ATOM     25  H   UNL     1       4.558  37.419   3.211  1.00  0.00     0.293 HD
ENDBRANCH   2  24
BRANCH   6  26
ATOM     26  O   UNL     1       2.831  32.817   0.145  1.00  0.00    -0.507 OA
ATOM     27  H   UNL     1       1.867  33.113   0.206  1.00  0.00     0.293 HD
ENDBRANCH   6  26
BRANCH   8  28
ATOM     28  O   UNL     1       4.995  29.082   2.210  1.00  0.00    -0.508 OA
ATOM     29  H   UNL     1       4.345  28.411   1.816  1.00  0.00     0.293 HD
ENDBRANCH   8  28
TORSDOF 7
ENDMDL
MODEL 2
REMARK VINA RESULT:    -5.558      1.244      2.741
REMARK INTER + INTRA:          -7.148
REMARK INTER:                  -6.812
REMARK INTRA:                  -0.336
REMARK UNBOUND:                -0.291
REMARK SMILES O=c1c(O)c(-c2cc(O)c(O)c(O)c2)oc2cc(O)cc(O)c12
REMARK SMILES IDX 5 1 3 2 2 3 1 4 23 5 21 6 20 7 18 8 17 9 16 10 15 11 6 12
REMARK SMILES IDX 7 13 8 14 14 15 10 16 12 17 9 18 11 20 13 22 4 24 22 26
REMARK SMILES IDX 19 28
REMARK H PARENT 9 19 11 21 13 23 4 25 22 27 19 29
REMARK Flexibility Score: inf
ROOT
ATOM      1  C   UNL     1       5.594  34.183   4.302  1.00  0.00     0.180 A 
ATOM      2  C   UNL     1       6.245  33.003   3.903  1.00  0.00     0.208 A 
ATOM      3  C   UNL     1       5.654  32.198   2.916  1.00  0.00     0.238 A 
ATOM      4  O   UNL     1       6.268  31.171   2.525  1.00  0.00    -0.285 OA
ATOM      5  C   UNL     1       4.411  32.574   2.352  1.00  0.00     0.111 A 
ATOM      6  C   UNL     1       3.702  31.814   1.375  1.00  0.00     0.134 A 
ATOM      7  C   UNL     1       2.545  32.347   0.792  1.00  0.00     0.093 A 
ATOM      8  C   UNL     1       2.037  33.581   1.196  1.00  0.00     0.123 A 
ATOM      9  C   UNL     1       2.690  34.306   2.194  1.00  0.00     0.094 A 
ATOM     10  C   UNL     1       3.866  33.817   2.769  1.00  0.00     0.146 A 
ATOM     11  O   UNL     1       4.462  34.542   3.707  1.00  0.00    -0.452 OA
ENDROOT
BRANCH   1  12
ATOM     12  C   UNL     1       6.143  35.069   5.353  1.00  0.00     0.029 A 
ATOM     13  C   UNL     1       5.695  34.932   6.675  1.00  0.00     0.062 A 
ATOM     14  C   UNL     1       6.209  35.739   7.697  1.00  0.00     0.162 A 
ATOM     15  C   UNL     1       7.145  36.009   5.066  1.00  0.00     0.062 A 
ATOM     16  C   UNL     1       7.203  36.700   7.397  1.00  0.00     0.200 A 
ATOM     17  C   UNL     1       7.667  36.822   6.080  1.00  0.00     0.162 A 
BRANCH  14  18
ATOM     18  O   UNL     1       5.705  35.552   8.986  1.00  0.00    -0.504 OA
ATOM     19  H   UNL     1       5.034  36.164   9.426  1.00  0.00     0.293 HD
ENDBRANCH  14  18
BRANCH  16  20
ATOM     20  O   UNL     1       7.752  37.542   8.368  1.00  0.00    -0.502 OA
ATOM     21  H   UNL     1       7.709  38.549   8.332  1.00  0.00     0.293 HD
ENDBRANCH  16  20
BRANCH  17  22
ATOM     22  O   UNL     1       8.659  37.759   5.785  1.00  0.00    -0.504 OA
ATOM     23  H   UNL     1       9.627  37.487   5.662  1.00  0.00     0.293 HD
ENDBRANCH  17  22
ENDBRANCH   1  12
BRANCH   2  24
ATOM     24  O   UNL     1       7.482  32.661   4.457  1.00  0.00    -0.502 OA
ATOM     25  H   UNL     1       7.608  31.848   5.047  1.00  0.00     0.293 HD
ENDBRANCH   2  24
BRANCH   6  26
ATOM     26  O   UNL     1       4.071  30.530   0.965  1.00  0.00    -0.507 OA
ATOM     27  H   UNL     1       3.891  30.145   0.050  1.00  0.00     0.293 HD
ENDBRANCH   6  26
BRANCH   8  28
ATOM     28  O   UNL     1       0.875  34.073   0.605  1.00  0.00    -0.508 OA
ATOM     29  H   UNL     1       0.774  35.054   0.371  1.00  0.00     0.293 HD
ENDBRANCH   8  28
TORSDOF 7
ENDMDL
MODEL 3
REMARK VINA RESULT:    -5.512      8.570     11.835
REMARK INTER + INTRA:          -7.092
REMARK INTER:                  -6.745
REMARK INTRA:                  -0.347
REMARK UNBOUND:                -0.291
REMARK SMILES O=c1c(O)c(-c2cc(O)c(O)c(O)c2)oc2cc(O)cc(O)c12
REMARK SMILES IDX 5 1 3 2 2 3 1 4 23 5 21 6 20 7 18 8 17 9 16 10 15 11 6 12
REMARK SMILES IDX 7 13 8 14 14 15 10 16 12 17 9 18 11 20 13 22 4 24 22 26
REMARK SMILES IDX 19 28
REMARK H PARENT 9 19 11 21 13 23 4 25 22 27 19 29
REMARK Flexibility Score: inf
ROOT
ATOM      1  C   UNL     1       6.767  23.931   6.149  1.00  0.00     0.180 A 
ATOM      2  C   UNL     1       6.829  25.240   6.656  1.00  0.00     0.208 A 
ATOM      3  C   UNL     1       5.718  26.085   6.501  1.00  0.00     0.238 A 
ATOM      4  O   UNL     1       5.761  27.238   7.005  1.00  0.00    -0.285 OA
ATOM      5  C   UNL     1       4.566  25.616   5.827  1.00  0.00     0.111 A 
ATOM      6  C   UNL     1       3.398  26.398   5.578  1.00  0.00     0.134 A 
ATOM      7  C   UNL     1       2.267  25.791   5.017  1.00  0.00     0.093 A 
ATOM      8  C   UNL     1       2.283  24.450   4.638  1.00  0.00     0.123 A 
ATOM      9  C   UNL     1       3.439  23.691   4.821  1.00  0.00     0.094 A 
ATOM     10  C   UNL     1       4.572  24.258   5.412  1.00  0.00     0.146 A 
ATOM     11  O   UNL     1       5.647  23.500   5.580  1.00  0.00    -0.452 OA
ENDROOT
BRANCH   1  12
ATOM     12  C   UNL     1       7.906  22.991   6.252  1.00  0.00     0.029 A 
ATOM     13  C   UNL     1       8.939  23.051   5.305  1.00  0.00     0.062 A 
ATOM     14  C   UNL     1      10.041  22.191   5.385  1.00  0.00     0.162 A 
ATOM     15  C   UNL     1       8.004  22.075   7.312  1.00  0.00     0.062 A 
ATOM     16  C   UNL     1      10.122  21.255   6.443  1.00  0.00     0.200 A 
ATOM     17  C   UNL     1       9.102  21.210   7.403  1.00  0.00     0.162 A 
BRANCH  14  18
ATOM     18  O   UNL     1      11.024  22.302   4.399  1.00  0.00    -0.504 OA
ATOM     19  H   UNL     1      11.059  23.046   3.717  1.00  0.00     0.293 HD
ENDBRANCH  14  18
BRANCH  16  20
ATOM     20  O   UNL     1      11.190  20.364   6.577  1.00  0.00    -0.502 OA
ATOM     21  H   UNL     1      12.158  20.645   6.625  1.00  0.00     0.293 HD
ENDBRANCH  16  20
BRANCH  17  22
ATOM     22  O   UNL     1       9.188  20.298   8.456  1.00  0.00    -0.504 OA
ATOM     23  H   UNL     1       8.359  19.913   8.894  1.00  0.00     0.293 HD
ENDBRANCH  17  22
ENDBRANCH   1  12
BRANCH   2  24
ATOM     24  O   UNL     1       7.969  25.676   7.338  1.00  0.00    -0.502 OA
ATOM     25  H   UNL     1       7.922  26.304   8.131  1.00  0.00     0.293 HD
ENDBRANCH   2  24
BRANCH   6  26
ATOM     26  O   UNL     1       3.308  27.769   5.834  1.00  0.00    -0.507 OA
ATOM     27  H   UNL     1       3.060  28.171   6.726  1.00  0.00     0.293 HD
ENDBRANCH   6  26
BRANCH   8  28
ATOM     28  O   UNL     1       1.145  23.882   4.068  1.00  0.00    -0.508 OA
ATOM     29  H   UNL     1       0.773  22.998   4.394  1.00  0.00     0.293 HD
ENDBRANCH   8  28
TORSDOF 7
ENDMDL
MODEL 4
REMARK VINA RESULT:    -5.422      9.144     11.892
REMARK INTER + INTRA:          -6.981
REMARK INTER:                  -6.626
REMARK INTRA:                  -0.355
REMARK UNBOUND:                -0.291
REMARK SMILES O=c1c(O)c(-c2cc(O)c(O)c(O)c2)oc2cc(O)cc(O)c12
REMARK SMILES IDX 5 1 3 2 2 3 1 4 23 5 21 6 20 7 18 8 17 9 16 10 15 11 6 12
REMARK SMILES IDX 7 13 8 14 14 15 10 16 12 17 9 18 11 20 13 22 4 24 22 26
REMARK SMILES IDX 19 28
REMARK H PARENT 9 19 11 21 13 23 4 25 22 27 19 29
REMARK Flexibility Score: inf
ROOT
ATOM      1  C   UNL     1      11.485  25.141   5.061  1.00  0.00     0.180 A 
ATOM      2  C   UNL     1      11.003  23.855   4.764  1.00  0.00     0.208 A 
ATOM      3  C   UNL     1       9.657  23.554   5.026  1.00  0.00     0.238 A 
ATOM      4  O   UNL     1       9.218  22.418   4.707  1.00  0.00    -0.285 OA
ATOM      5  C   UNL     1       8.814  24.537   5.597  1.00  0.00     0.111 A 
ATOM      6  C   UNL     1       7.444  24.330   5.941  1.00  0.00     0.134 A 
ATOM      7  C   UNL     1       6.670  25.412   6.378  1.00  0.00     0.093 A 
ATOM      8  C   UNL     1       7.231  26.677   6.546  1.00  0.00     0.123 A 
ATOM      9  C   UNL     1       8.584  26.878   6.270  1.00  0.00     0.094 A 
ATOM     10  C   UNL     1       9.373  25.827   5.796  1.00  0.00     0.146 A 
ATOM     11  O   UNL     1      10.653  26.061   5.535  1.00  0.00    -0.452 OA
ENDROOT
BRANCH   1  12
ATOM     12  C   UNL     1      12.897  25.525   4.837  1.00  0.00     0.029 A 
ATOM     13  C   UNL     1      13.239  26.264   3.695  1.00  0.00     0.062 A 
ATOM     14  C   UNL     1      14.561  26.662   3.462  1.00  0.00     0.162 A 
ATOM     15  C   UNL     1      13.896  25.214   5.772  1.00  0.00     0.062 A 
ATOM     16  C   UNL     1      15.567  26.325   4.399  1.00  0.00     0.200 A 
ATOM     17  C   UNL     1      15.223  25.606   5.552  1.00  0.00     0.162 A 
BRANCH  14  18
ATOM     18  O   UNL     1      14.826  27.386   2.298  1.00  0.00    -0.504 OA
ATOM     19  H   UNL     1      14.195  28.066   1.898  1.00  0.00     0.293 HD
ENDBRANCH  14  18
BRANCH  16  20
ATOM     20  O   UNL     1      16.906  26.685   4.224  1.00  0.00    -0.502 OA
ATOM     21  H   UNL     1      17.311  26.944   3.336  1.00  0.00     0.293 HD
ENDBRANCH  16  20
BRANCH  17  22
ATOM     22  O   UNL     1      16.211  25.286   6.483  1.00  0.00    -0.504 OA
ATOM     23  H   UNL     1      16.056  24.592   7.204  1.00  0.00     0.293 HD
ENDBRANCH  17  22
ENDBRANCH   1  12
BRANCH   2  24
ATOM     24  O   UNL     1      11.847  22.906   4.181  1.00  0.00    -0.502 OA
ATOM     25  H   UNL     1      11.950  21.969   4.550  1.00  0.00     0.293 HD
ENDBRANCH   2  24
BRANCH   6  26
ATOM     26  O   UNL     1       6.808  23.086   5.898  1.00  0.00    -0.507 OA
ATOM     27  H   UNL     1       6.998  22.367   5.216  1.00  0.00     0.293 HD
ENDBRANCH   6  26
BRANCH   8  28
ATOM     28  O   UNL     1       6.435  27.728   6.999  1.00  0.00    -0.508 OA
ATOM     29  H   UNL     1       5.928  27.670   7.874  1.00  0.00     0.293 HD
ENDBRANCH   8  28
TORSDOF 7
ENDMDL
MODEL 5
REMARK VINA RESULT:    -5.304      2.174      7.134
REMARK INTER + INTRA:          -6.835
REMARK INTER:                  -6.666
REMARK INTRA:                  -0.169
REMARK UNBOUND:                -0.291
REMARK SMILES O=c1c(O)c(-c2cc(O)c(O)c(O)c2)oc2cc(O)cc(O)c12
REMARK SMILES IDX 5 1 3 2 2 3 1 4 23 5 21 6 20 7 18 8 17 9 16 10 15 11 6 12
REMARK SMILES IDX 7 13 8 14 14 15 10 16 12 17 9 18 11 20 13 22 4 24 22 26
REMARK SMILES IDX 19 28
REMARK H PARENT 9 19 11 21 13 23 4 25 22 27 19 29
REMARK Flexibility Score: inf
ROOT
ATOM      1  C   UNL     1       6.326  34.994   4.828  1.00  0.00     0.180 A 
ATOM      2  C   UNL     1       6.534  35.335   6.176  1.00  0.00     0.208 A 
ATOM      3  C   UNL     1       7.259  36.498   6.480  1.00  0.00     0.238 A 
ATOM      4  O   UNL     1       7.395  36.828   7.687  1.00  0.00    -0.285 OA
ATOM      5  C   UNL     1       7.782  37.296   5.434  1.00  0.00     0.111 A 
ATOM      6  C   UNL     1       8.566  38.473   5.627  1.00  0.00     0.134 A 
ATOM      7  C   UNL     1       8.920  39.255   4.520  1.00  0.00     0.093 A 
ATOM      8  C   UNL     1       8.575  38.871   3.226  1.00  0.00     0.123 A 
ATOM      9  C   UNL     1       7.860  37.690   3.020  1.00  0.00     0.094 A 
ATOM     10  C   UNL     1       7.461  36.907   4.107  1.00  0.00     0.146 A 
ATOM     11  O   UNL     1       6.773  35.797   3.870  1.00  0.00    -0.452 OA
ENDROOT
BRANCH   1  12
ATOM     12  C   UNL     1       5.593  33.771   4.429  1.00  0.00     0.029 A 
ATOM     13  C   UNL     1       6.274  32.746   3.756  1.00  0.00     0.062 A 
ATOM     14  C   UNL     1       5.616  31.567   3.383  1.00  0.00     0.162 A 
ATOM     15  C   UNL     1       4.241  33.589   4.760  1.00  0.00     0.062 A 
ATOM     16  C   UNL     1       4.248  31.400   3.700  1.00  0.00     0.200 A 
ATOM     17  C   UNL     1       3.572  32.414   4.393  1.00  0.00     0.162 A 
BRANCH  14  18
ATOM     18  O   UNL     1       6.358  30.597   2.706  1.00  0.00    -0.504 OA
ATOM     19  H   UNL     1       7.025  29.983   3.149  1.00  0.00     0.293 HD
ENDBRANCH  14  18
BRANCH  16  20
ATOM     20  O   UNL     1       3.531  30.253   3.352  1.00  0.00    -0.502 OA
ATOM     21  H   UNL     1       2.525  30.177   3.402  1.00  0.00     0.293 HD
ENDBRANCH  16  20
BRANCH  17  22
ATOM     22  O   UNL     1       2.226  32.245   4.720  1.00  0.00    -0.504 OA
ATOM     23  H   UNL     1       1.869  31.360   5.060  1.00  0.00     0.293 HD
ENDBRANCH  17  22
ENDBRANCH   1  12
BRANCH   2  24
ATOM     24  O   UNL     1       5.990  34.546   7.192  1.00  0.00    -0.502 OA
ATOM     25  H   UNL     1       6.022  33.534   7.172  1.00  0.00     0.293 HD
ENDBRANCH   2  24
BRANCH   6  26
ATOM     26  O   UNL     1       9.042  38.899   6.869  1.00  0.00    -0.507 OA
ATOM     27  H   UNL     1       8.458  39.173   7.645  1.00  0.00     0.293 HD
ENDBRANCH   6  26
BRANCH   8  28
ATOM     28  O   UNL     1       8.958  39.666   2.147  1.00  0.00    -0.508 OA
ATOM     29  H   UNL     1       8.867  39.341   1.191  1.00  0.00     0.293 HD
ENDBRANCH   8  28
TORSDOF 7
ENDMDL
MODEL 6
REMARK VINA RESULT:    -5.196      6.983     10.440
REMARK INTER + INTRA:          -6.702
REMARK INTER:                  -6.472
REMARK INTRA:                  -0.229
REMARK UNBOUND:                -0.291
REMARK SMILES O=c1c(O)c(-c2cc(O)c(O)c(O)c2)oc2cc(O)cc(O)c12
REMARK SMILES IDX 5 1 3 2 2 3 1 4 23 5 21 6 20 7 18 8 17 9 16 10 15 11 6 12
REMARK SMILES IDX 7 13 8 14 14 15 10 16 12 17 9 18 11 20 13 22 4 24 22 26
REMARK SMILES IDX 19 28
REMARK H PARENT 9 19 11 21 13 23 4 25 22 27 19 29
REMARK Flexibility Score: inf
ROOT
ATOM      1  C   UNL     1       7.903  25.702   5.573  1.00  0.00     0.180 A 
ATOM      2  C   UNL     1       7.135  25.228   6.651  1.00  0.00     0.208 A 
ATOM      3  C   UNL     1       5.882  25.809   6.903  1.00  0.00     0.238 A 
ATOM      4  O   UNL     1       5.176  25.343   7.835  1.00  0.00    -0.285 OA
ATOM      5  C   UNL     1       5.420  26.867   6.085  1.00  0.00     0.111 A 
ATOM      6  C   UNL     1       4.184  27.556   6.274  1.00  0.00     0.134 A 
ATOM      7  C   UNL     1       3.768  28.500   5.325  1.00  0.00     0.093 A 
ATOM      8  C   UNL     1       4.571  28.826   4.233  1.00  0.00     0.123 A 
ATOM      9  C   UNL     1       5.808  28.202   4.071  1.00  0.00     0.094 A 
ATOM     10  C   UNL     1       6.234  27.229   4.980  1.00  0.00     0.146 A 
ATOM     11  O   UNL     1       7.412  26.651   4.785  1.00  0.00    -0.452 OA
ENDROOT
BRANCH   1  12
ATOM     12  C   UNL     1       9.243  25.156   5.260  1.00  0.00     0.029 A 
ATOM     13  C   UNL     1      10.381  25.942   5.495  1.00  0.00     0.062 A 
ATOM     14  C   UNL     1      11.664  25.450   5.231  1.00  0.00     0.162 A 
ATOM     15  C   UNL     1       9.406  23.846   4.785  1.00  0.00     0.062 A 
ATOM     16  C   UNL     1      11.819  24.136   4.730  1.00  0.00     0.200 A 
ATOM     17  C   UNL     1      10.685  23.341   4.517  1.00  0.00     0.162 A 
BRANCH  14  18
ATOM     18  O   UNL     1      12.748  26.296   5.479  1.00  0.00    -0.504 OA
ATOM     19  H   UNL     1      12.931  26.733   6.370  1.00  0.00     0.293 HD
ENDBRANCH  14  18
BRANCH  16  20
ATOM     20  O   UNL     1      13.070  23.586   4.439  1.00  0.00    -0.502 OA
ATOM     21  H   UNL     1      13.775  23.383   5.133  1.00  0.00     0.293 HD
ENDBRANCH  16  20
BRANCH  17  22
ATOM     22  O   UNL     1      10.837  22.039   4.038  1.00  0.00    -0.504 OA
ATOM     23  H   UNL     1      11.646  21.765   3.494  1.00  0.00     0.293 HD
ENDBRANCH  17  22
ENDBRANCH   1  12
BRANCH   2  24
ATOM     24  O   UNL     1       7.601  24.167   7.432  1.00  0.00    -0.502 OA
ATOM     25  H   UNL     1       8.443  23.652   7.205  1.00  0.00     0.293 HD
ENDBRANCH   2  24
BRANCH   6  26
ATOM     26  O   UNL     1       3.349  27.374   7.379  1.00  0.00    -0.507 OA
ATOM     27  H   UNL     1       3.399  26.590   8.013  1.00  0.00     0.293 HD
ENDBRANCH   6  26
BRANCH   8  28
ATOM     28  O   UNL     1       4.132  29.781   3.318  1.00  0.00    -0.508 OA
ATOM     29  H   UNL     1       4.071  29.577   2.327  1.00  0.00     0.293 HD
ENDBRANCH   8  28
TORSDOF 7
ENDMDL
MODEL 7
REMARK VINA RESULT:    -5.121      2.020      7.114
REMARK INTER + INTRA:          -6.609
REMARK INTER:                  -6.241
REMARK INTRA:                  -0.367
REMARK UNBOUND:                -0.291
REMARK SMILES O=c1c(O)c(-c2cc(O)c(O)c(O)c2)oc2cc(O)cc(O)c12
REMARK SMILES IDX 5 1 3 2 2 3 1 4 23 5 21 6 20 7 18 8 17 9 16 10 15 11 6 12
REMARK SMILES IDX 7 13 8 14 14 15 10 16 12 17 9 18 11 20 13 22 4 24 22 26
REMARK SMILES IDX 19 28
REMARK H PARENT 9 19 11 21 13 23 4 25 22 27 19 29
REMARK Flexibility Score: inf
ROOT
ATOM      1  C   UNL     1       6.036  35.139   4.622  1.00  0.00     0.180 A 
ATOM      2  C   UNL     1       6.231  35.369   5.995  1.00  0.00     0.208 A 
ATOM      3  C   UNL     1       7.028  36.453   6.397  1.00  0.00     0.238 A 
ATOM      4  O   UNL     1       7.155  36.685   7.628  1.00  0.00    -0.285 OA
ATOM      5  C   UNL     1       7.633  37.282   5.423  1.00  0.00     0.111 A 
ATOM      6  C   UNL     1       8.493  38.383   5.718  1.00  0.00     0.134 A 
ATOM      7  C   UNL     1       8.930  39.214   4.679  1.00  0.00     0.093 A 
ATOM      8  C   UNL     1       8.594  38.947   3.352  1.00  0.00     0.123 A 
ATOM      9  C   UNL     1       7.804  37.839   3.047  1.00  0.00     0.094 A 
ATOM     10  C   UNL     1       7.321  37.012   4.065  1.00  0.00     0.146 A 
ATOM     11  O   UNL     1       6.564  35.974   3.734  1.00  0.00    -0.452 OA
ENDROOT
BRANCH   1  12
ATOM     12  C   UNL     1       5.229  34.004   4.120  1.00  0.00     0.029 A 
ATOM     13  C   UNL     1       3.881  34.205   3.792  1.00  0.00     0.062 A 
ATOM     14  C   UNL     1       3.095  33.158   3.295  1.00  0.00     0.162 A 
ATOM     15  C   UNL     1       5.800  32.738   3.910  1.00  0.00     0.062 A 
ATOM     16  C   UNL     1       3.672  31.880   3.108  1.00  0.00     0.200 A 
ATOM     17  C   UNL     1       5.026  31.683   3.413  1.00  0.00     0.162 A 
BRANCH  14  18
ATOM     18  O   UNL     1       1.757  33.433   3.003  1.00  0.00    -0.504 OA
ATOM     19  H   UNL     1       1.393  34.360   2.841  1.00  0.00     0.293 HD
ENDBRANCH  14  18
BRANCH  16  20
ATOM     20  O   UNL     1       2.943  30.791   2.622  1.00  0.00    -0.502 OA
ATOM     21  H   UNL     1       1.979  30.842   2.328  1.00  0.00     0.293 HD
ENDBRANCH  16  20
BRANCH  17  22
ATOM     22  O   UNL     1       5.600  30.427   3.214  1.00  0.00    -0.504 OA
ATOM     23  H   UNL     1       5.416  29.885   2.378  1.00  0.00     0.293 HD
ENDBRANCH  17  22
ENDBRANCH   1  12
BRANCH   2  24
ATOM     24  O   UNL     1       5.606  34.551   6.940  1.00  0.00    -0.502 OA
ATOM     25  H   UNL     1       5.003  34.919   7.665  1.00  0.00     0.293 HD
ENDBRANCH   2  24
BRANCH   6  26
ATOM     26  O   UNL     1       8.965  38.684   6.998  1.00  0.00    -0.507 OA
ATOM     27  H   UNL     1       8.706  39.504   7.527  1.00  0.00     0.293 HD
ENDBRANCH   6  26
BRANCH   8  28
ATOM     28  O   UNL     1       9.060  39.787   2.342  1.00  0.00    -0.508 OA
ATOM     29  H   UNL     1       8.535  40.600   2.044  1.00  0.00     0.293 HD
ENDBRANCH   8  28
TORSDOF 7
ENDMDL
MODEL 8
REMARK VINA RESULT:    -5.049      8.842     11.581
REMARK INTER + INTRA:          -6.521
REMARK INTER:                  -6.152
REMARK INTRA:                  -0.369
REMARK UNBOUND:                -0.291
REMARK SMILES O=c1c(O)c(-c2cc(O)c(O)c(O)c2)oc2cc(O)cc(O)c12
REMARK SMILES IDX 5 1 3 2 2 3 1 4 23 5 21 6 20 7 18 8 17 9 16 10 15 11 6 12
REMARK SMILES IDX 7 13 8 14 14 15 10 16 12 17 9 18 11 20 13 22 4 24 22 26
REMARK SMILES IDX 19 28
REMARK H PARENT 9 19 11 21 13 23 4 25 22 27 19 29
REMARK Flexibility Score: inf
ROOT
ATOM      1  C   UNL     1      10.651  25.909   4.818  1.00  0.00     0.180 A 
ATOM      2  C   UNL     1      10.803  26.313   3.481  1.00  0.00     0.208 A 
ATOM      3  C   UNL     1      12.097  26.476   2.961  1.00  0.00     0.238 A 
ATOM      4  O   UNL     1      12.227  26.785   1.747  1.00  0.00    -0.285 OA
ATOM      5  C   UNL     1      13.222  26.250   3.790  1.00  0.00     0.111 A 
ATOM      6  C   UNL     1      14.578  26.424   3.380  1.00  0.00     0.134 A 
ATOM      7  C   UNL     1      15.614  26.045   4.243  1.00  0.00     0.093 A 
ATOM      8  C   UNL     1      15.346  25.560   5.522  1.00  0.00     0.123 A 
ATOM      9  C   UNL     1      14.025  25.443   5.956  1.00  0.00     0.094 A 
ATOM     10  C   UNL     1      12.968  25.778   5.104  1.00  0.00     0.146 A 
ATOM     11  O   UNL     1      11.726  25.642   5.550  1.00  0.00    -0.452 OA
ENDROOT
BRANCH   1  12
ATOM     12  C   UNL     1       9.320  25.740   5.444  1.00  0.00     0.029 A 
ATOM     13  C   UNL     1       8.720  24.473   5.460  1.00  0.00     0.062 A 
ATOM     14  C   UNL     1       7.471  24.274   6.062  1.00  0.00     0.162 A 
ATOM     15  C   UNL     1       8.667  26.812   6.073  1.00  0.00     0.062 A 
ATOM     16  C   UNL     1       6.809  25.364   6.674  1.00  0.00     0.200 A 
ATOM     17  C   UNL     1       7.418  26.626   6.679  1.00  0.00     0.162 A 
BRANCH  14  18
ATOM     18  O   UNL     1       6.932  22.986   6.027  1.00  0.00    -0.504 OA
ATOM     19  H   UNL     1       6.148  22.716   5.452  1.00  0.00     0.293 HD
ENDBRANCH  14  18
BRANCH  16  20
ATOM     20  O   UNL     1       5.559  25.235   7.286  1.00  0.00    -0.502 OA
ATOM     21  H   UNL     1       5.159  25.925   7.905  1.00  0.00     0.293 HD
ENDBRANCH  16  20
BRANCH  17  22
ATOM     22  O   UNL     1       6.773  27.698   7.296  1.00  0.00    -0.504 OA
ATOM     23  H   UNL     1       7.169  28.162   8.105  1.00  0.00     0.293 HD
ENDBRANCH  17  22
ENDBRANCH   1  12
BRANCH   2  24
ATOM     24  O   UNL     1       9.679  26.510   2.674  1.00  0.00    -0.502 OA
ATOM     25  H   UNL     1       9.739  26.588   1.666  1.00  0.00     0.293 HD
ENDBRANCH   2  24
BRANCH   6  26
ATOM     26  O   UNL     1      14.959  26.984   2.158  1.00  0.00    -0.507 OA
ATOM     27  H   UNL     1      15.563  26.537   1.483  1.00  0.00     0.293 HD
ENDBRANCH   6  26
BRANCH   8  28
ATOM     28  O   UNL     1      16.402  25.208   6.361  1.00  0.00    -0.508 OA
ATOM     29  H   UNL     1      16.713  25.819   7.107  1.00  0.00     0.293 HD
ENDBRANCH   8  28
TORSDOF 7
ENDMDL
MODEL 9
REMARK VINA RESULT:    -4.997      7.270     10.425
REMARK INTER + INTRA:          -6.457
REMARK INTER:                  -6.101
REMARK INTRA:                  -0.356
REMARK UNBOUND:                -0.291
REMARK SMILES O=c1c(O)c(-c2cc(O)c(O)c(O)c2)oc2cc(O)cc(O)c12
REMARK SMILES IDX 5 1 3 2 2 3 1 4 23 5 21 6 20 7 18 8 17 9 16 10 15 11 6 12
REMARK SMILES IDX 7 13 8 14 14 15 10 16 12 17 9 18 11 20 13 22 4 24 22 26
REMARK SMILES IDX 19 28
REMARK H PARENT 9 19 11 21 13 23 4 25 22 27 19 29
REMARK Flexibility Score: inf
ROOT
ATOM      1  C   UNL     1       7.242  25.924   5.148  1.00  0.00     0.180 A 
ATOM      2  C   UNL     1       7.275  24.522   5.234  1.00  0.00     0.208 A 
ATOM      3  C   UNL     1       8.518  23.868   5.235  1.00  0.00     0.238 A 
ATOM      4  O   UNL     1       8.542  22.616   5.367  1.00  0.00    -0.285 OA
ATOM      5  C   UNL     1       9.710  24.623   5.132  1.00  0.00     0.111 A 
ATOM      6  C   UNL     1      11.022  24.063   5.083  1.00  0.00     0.134 A 
ATOM      7  C   UNL     1      12.137  24.911   5.113  1.00  0.00     0.093 A 
ATOM      8  C   UNL     1      11.987  26.297   5.125  1.00  0.00     0.123 A 
ATOM      9  C   UNL     1      10.709  26.857   5.113  1.00  0.00     0.094 A 
ATOM     10  C   UNL     1       9.577  26.037   5.120  1.00  0.00     0.146 A 
ATOM     11  O   UNL     1       8.380  26.608   5.119  1.00  0.00    -0.452 OA
ENDROOT
BRANCH   1  12
ATOM     12  C   UNL     1       5.970  26.682   5.117  1.00  0.00     0.029 A 
ATOM     13  C   UNL     1       5.360  26.956   3.884  1.00  0.00     0.062 A 
ATOM     14  C   UNL     1       4.146  27.652   3.820  1.00  0.00     0.162 A 
ATOM     15  C   UNL     1       5.331  27.085   6.299  1.00  0.00     0.062 A 
ATOM     16  C   UNL     1       3.519  28.075   5.015  1.00  0.00     0.200 A 
ATOM     17  C   UNL     1       4.116  27.781   6.249  1.00  0.00     0.162 A 
BRANCH  14  18
ATOM     18  O   UNL     1       3.606  27.898   2.556  1.00  0.00    -0.504 OA
ATOM     19  H   UNL     1       2.769  28.439   2.394  1.00  0.00     0.293 HD
ENDBRANCH  14  18
BRANCH  16  20
ATOM     20  O   UNL     1       2.312  28.778   5.021  1.00  0.00    -0.502 OA
ATOM     21  H   UNL     1       1.702  28.863   4.221  1.00  0.00     0.293 HD
ENDBRANCH  16  20
BRANCH  17  22
ATOM     22  O   UNL     1       3.491  28.184   7.429  1.00  0.00    -0.504 OA
ATOM     23  H   UNL     1       3.184  27.512   8.123  1.00  0.00     0.293 HD
ENDBRANCH  17  22
ENDBRANCH   1  12
BRANCH   2  24
ATOM     24  O   UNL     1       6.086  23.797   5.356  1.00  0.00    -0.502 OA
ATOM     25  H   UNL     1       6.020  22.816   5.116  1.00  0.00     0.293 HD
ENDBRANCH   2  24
BRANCH   6  26
ATOM     26  O   UNL     1      11.283  22.695   4.976  1.00  0.00    -0.507 OA
ATOM     27  H   UNL     1      11.589  22.232   4.133  1.00  0.00     0.293 HD
ENDBRANCH   6  26
BRANCH   8  28
ATOM     28  O   UNL     1      13.119  27.111   5.139  1.00  0.00    -0.508 OA
ATOM     29  H   UNL     1      13.975  26.821   5.596  1.00  0.00     0.293 HD
ENDBRANCH   8  28
TORSDOF 7
ENDMDL
