MODEL 1
REMARK VINA RESULT:    -7.157      0.000      0.000
REMARK INTER + INTRA:          -8.944
REMARK INTER:                  -8.622
REMARK INTRA:                  -0.323
REMARK UNBOUND:                -0.323
REMARK SMILES O=c1c(O)c(-c2ccc(O)c(O)c2)oc2cc(O)cc(O)c12
REMARK SMILES IDX 5 1 3 2 2 3 1 4 22 5 20 6 19 7 17 8 16 9 15 10 14 11 6 12
REMARK SMILES IDX 7 13 8 14 9 15 13 16 11 17 10 18 12 20 4 22 21 24 18 26
REMARK H PARENT 10 19 12 21 4 23 21 25 18 27
REMARK Flexibility Score: inf
ROOT
ATOM      1  C   UNL     1       9.790  11.546 -16.025  1.00  0.00     0.180 A 
ATOM      2  C   UNL     1      10.478  10.373 -16.383  1.00  0.00     0.208 A 
ATOM      3  C   UNL     1      10.164   9.173 -15.725  1.00  0.00     0.238 A 
ATOM      4  O   UNL     1      10.820   8.138 -16.011  1.00  0.00    -0.285 OA
ATOM      5  C   UNL     1       9.157   9.157 -14.730  1.00  0.00     0.111 A 
ATOM      6  C   UNL     1       8.730   7.991 -14.028  1.00  0.00     0.134 A 
ATOM      7  C   UNL     1       7.818   8.115 -12.973  1.00  0.00     0.093 A 
ATOM      8  C   UNL     1       7.268   9.356 -12.638  1.00  0.00     0.123 A 
ATOM      9  C   UNL     1       7.634  10.491 -13.357  1.00  0.00     0.094 A 
ATOM     10  C   UNL     1       8.570  10.404 -14.391  1.00  0.00     0.146 A 
ATOM     11  O   UNL     1       8.898  11.512 -15.043  1.00  0.00    -0.452 OA
ENDROOT
BRANCH   1  12
ATOM     12  C   UNL     1      10.049  12.843 -16.691  1.00  0.00     0.025 A 
ATOM     13  C   UNL     1      11.014  13.740 -16.200  1.00  0.00     0.016 A 
ATOM     14  C   UNL     1      11.258  14.947 -16.860  1.00  0.00     0.051 A 
ATOM     15  C   UNL     1      10.551  15.271 -18.026  1.00  0.00     0.157 A 
ATOM     16  C   UNL     1       9.358  13.163 -17.873  1.00  0.00     0.062 A 
ATOM     17  C   UNL     1       9.600  14.372 -18.536  1.00  0.00     0.158 A 
BRANCH  15  18
ATOM     18  O   UNL     1      10.795  16.477 -18.680  1.00  0.00    -0.504 OA
ATOM     19  H   UNL     1      10.267  17.315 -18.464  1.00  0.00     0.293 HD
ENDBRANCH  15  18
BRANCH  17  20
ATOM     20  O   UNL     1       8.885  14.662 -19.698  1.00  0.00    -0.504 OA
ATOM     21  H   UNL     1       8.360  13.956 -20.197  1.00  0.00     0.293 HD
ENDBRANCH  17  20
ENDBRANCH   1  12
BRANCH   2  22
ATOM     22  O   UNL     1      11.484  10.415 -17.353  1.00  0.00    -0.502 OA
ATOM     23  H   UNL     1      12.239  11.089 -17.324  1.00  0.00     0.293 HD
ENDBRANCH   2  22
BRANCH   6  24
ATOM     24  O   UNL     1       9.145   6.693 -14.343  1.00  0.00    -0.507 OA
ATOM     25  H   UNL     1       9.796   6.150 -13.797  1.00  0.00     0.293 HD
ENDBRANCH   6  24
BRANCH   8  26
ATOM     26  O   UNL     1       6.350   9.469 -11.597  1.00  0.00    -0.508 OA
ATOM     27  H   UNL     1       5.369   9.652 -11.772  1.00  0.00     0.293 HD
ENDBRANCH   8  26
TORSDOF 6
ENDMDL
MODEL 2
REMARK VINA RESULT:    -6.867      1.687      7.281
REMARK INTER + INTRA:          -8.594
REMARK INTER:                  -8.275
REMARK INTRA:                  -0.320
REMARK UNBOUND:                -0.323
REMARK SMILES O=c1c(O)c(-c2ccc(O)c(O)c2)oc2cc(O)cc(O)c12
REMARK SMILES IDX 5 1 3 2 2 3 1 4 22 5 20 6 19 7 17 8 16 9 15 10 14 11 6 12
REMARK SMILES IDX 7 13 8 14 9 15 13 16 11 17 10 18 12 20 4 22 21 24 18 26
REMARK H PARENT 10 19 12 21 4 23 21 25 18 27
REMARK Flexibility Score: inf
ROOT
ATOM      1  C   UNL     1       9.938  12.329 -17.070  1.00  0.00     0.180 A 
ATOM      2  C   UNL     1      10.720  13.402 -16.606  1.00  0.00     0.208 A 
ATOM      3  C   UNL     1      10.733  14.601 -17.338  1.00  0.00     0.238 A 
ATOM      4  O   UNL     1      11.476  15.538 -16.947  1.00  0.00    -0.285 OA
ATOM      5  C   UNL     1       9.953  14.718 -18.513  1.00  0.00     0.111 A 
ATOM      6  C   UNL     1       9.859  15.898 -19.309  1.00  0.00     0.134 A 
ATOM      7  C   UNL     1       9.160  15.860 -20.522  1.00  0.00     0.093 A 
ATOM      8  C   UNL     1       8.496  14.701 -20.934  1.00  0.00     0.123 A 
ATOM      9  C   UNL     1       8.533  13.561 -20.135  1.00  0.00     0.094 A 
ATOM     10  C   UNL     1       9.252  13.558 -18.937  1.00  0.00     0.146 A 
ATOM     11  O   UNL     1       9.269  12.448 -18.211  1.00  0.00    -0.452 OA
ENDROOT
BRANCH   1  12
ATOM     12  C   UNL     1       9.854  11.044 -16.341  1.00  0.00     0.025 A 
ATOM     13  C   UNL     1      10.721   9.976 -16.635  1.00  0.00     0.016 A 
ATOM     14  C   UNL     1      10.639   8.781 -15.916  1.00  0.00     0.051 A 
ATOM     15  C   UNL     1       9.702   8.638 -14.884  1.00  0.00     0.157 A 
ATOM     16  C   UNL     1       8.931  10.903 -15.291  1.00  0.00     0.062 A 
ATOM     17  C   UNL     1       8.846   9.707 -14.569  1.00  0.00     0.158 A 
BRANCH  15  18
ATOM     18  O   UNL     1       9.622   7.444 -14.171  1.00  0.00    -0.504 OA
ATOM     19  H   UNL     1       8.964   6.716 -14.425  1.00  0.00     0.293 HD
ENDBRANCH  15  18
BRANCH  17  20
ATOM     20  O   UNL     1       7.907   9.599 -13.543  1.00  0.00    -0.504 OA
ATOM     21  H   UNL     1       7.481  10.412 -13.116  1.00  0.00     0.293 HD
ENDBRANCH  17  20
ENDBRANCH   1  12
BRANCH   2  22
ATOM     22  O   UNL     1      11.500  13.258 -15.456  1.00  0.00    -0.502 OA
ATOM     23  H   UNL     1      11.384  12.484 -14.814  1.00  0.00     0.293 HD
ENDBRANCH   2  22
BRANCH   6  24
ATOM     24  O   UNL     1      10.405  17.132 -18.943  1.00  0.00    -0.507 OA
ATOM     25  H   UNL     1      10.243  18.000 -19.431  1.00  0.00     0.293 HD
ENDBRANCH   6  24
BRANCH   8  26
ATOM     26  O   UNL     1       7.791  14.675 -22.135  1.00  0.00    -0.508 OA
ATOM     27  H   UNL     1       6.879  14.239 -22.205  1.00  0.00     0.293 HD
ENDBRANCH   8  26
TORSDOF 6
ENDMDL
MODEL 3
REMARK VINA RESULT:    -6.730      2.835      7.474
REMARK INTER + INTRA:          -8.429
REMARK INTER:                  -8.317
REMARK INTRA:                  -0.113
REMARK UNBOUND:                -0.323
REMARK SMILES O=c1c(O)c(-c2ccc(O)c(O)c2)oc2cc(O)cc(O)c12
REMARK SMILES IDX 5 1 3 2 2 3 1 4 22 5 20 6 19 7 17 8 16 9 15 10 14 11 6 12
REMARK SMILES IDX 7 13 8 14 9 15 13 16 11 17 10 18 12 20 4 22 21 24 18 26
REMARK H PARENT 10 19 12 21 4 23 21 25 18 27
REMARK Flexibility Score: inf
ROOT
ATOM      1  C   UNL     1       7.395   8.262 -14.820  1.00  0.00     0.180 A 
ATOM      2  C   UNL     1       7.075   8.591 -13.491  1.00  0.00     0.208 A 
ATOM      3  C   UNL     1       7.439   9.855 -12.997  1.00  0.00     0.238 A 
ATOM      4  O   UNL     1       7.198  10.124 -11.792  1.00  0.00    -0.285 OA
ATOM      5  C   UNL     1       8.103  10.777 -13.841  1.00  0.00     0.111 A 
ATOM      6  C   UNL     1       8.482  12.099 -13.458  1.00  0.00     0.134 A 
ATOM      7  C   UNL     1       9.250  12.877 -14.333  1.00  0.00     0.093 A 
ATOM      8  C   UNL     1       9.596  12.406 -15.603  1.00  0.00     0.123 A 
ATOM      9  C   UNL     1       9.180  11.140 -16.008  1.00  0.00     0.094 A 
ATOM     10  C   UNL     1       8.444  10.326 -15.144  1.00  0.00     0.146 A 
ATOM     11  O   UNL     1       8.076   9.123 -15.566  1.00  0.00    -0.452 OA
ENDROOT
BRANCH   1  12
ATOM     12  C   UNL     1       7.022   6.960 -15.418  1.00  0.00     0.025 A 
ATOM     13  C   UNL     1       6.193   6.884 -16.552  1.00  0.00     0.016 A 
ATOM     14  C   UNL     1       5.875   5.645 -17.114  1.00  0.00     0.051 A 
ATOM     15  C   UNL     1       6.391   4.465 -16.562  1.00  0.00     0.157 A 
ATOM     16  C   UNL     1       7.554   5.775 -14.882  1.00  0.00     0.062 A 
ATOM     17  C   UNL     1       7.237   4.532 -15.442  1.00  0.00     0.158 A 
BRANCH  15  18
ATOM     18  O   UNL     1       6.070   3.231 -17.124  1.00  0.00    -0.504 OA
ATOM     19  H   UNL     1       6.392   2.968 -18.048  1.00  0.00     0.293 HD
ENDBRANCH  15  18
BRANCH  17  20
ATOM     20  O   UNL     1       7.772   3.376 -14.874  1.00  0.00    -0.504 OA
ATOM     21  H   UNL     1       8.499   2.839 -15.329  1.00  0.00     0.293 HD
ENDBRANCH  17  20
ENDBRANCH   1  12
BRANCH   2  22
ATOM     22  O   UNL     1       6.439   7.658 -12.668  1.00  0.00    -0.502 OA
ATOM     23  H   UNL     1       6.864   6.774 -12.419  1.00  0.00     0.293 HD
ENDBRANCH   2  22
BRANCH   6  24
ATOM     24  O   UNL     1       8.109  12.699 -12.252  1.00  0.00    -0.507 OA
ATOM     25  H   UNL     1       8.199  12.269 -11.344  1.00  0.00     0.293 HD
ENDBRANCH   6  24
BRANCH   8  26
ATOM     26  O   UNL     1      10.348  13.193 -16.472  1.00  0.00    -0.508 OA
ATOM     27  H   UNL     1       9.912  13.881 -17.076  1.00  0.00     0.293 HD
ENDBRANCH   8  26
TORSDOF 6
ENDMDL
MODEL 4
REMARK VINA RESULT:    -6.500      2.042      7.221
REMARK INTER + INTRA:          -8.152
REMARK INTER:                  -7.818
REMARK INTRA:                  -0.334
REMARK UNBOUND:                -0.323
REMARK SMILES O=c1c(O)c(-c2ccc(O)c(O)c2)oc2cc(O)cc(O)c12
REMARK SMILES IDX 5 1 3 2 2 3 1 4 22 5 20 6 19 7 17 8 16 9 15 10 14 11 6 12
REMARK SMILES IDX 7 13 8 14 9 15 13 16 11 17 10 18 12 20 4 22 21 24 18 26
REMARK H PARENT 10 19 12 21 4 23 21 25 18 27
REMARK Flexibility Score: inf
ROOT
ATOM      1  C   UNL     1       9.082  11.684 -17.918  1.00  0.00     0.180 A 
ATOM      2  C   UNL     1       8.256  11.411 -19.023  1.00  0.00     0.208 A 
ATOM      3  C   UNL     1       8.033  12.423 -19.971  1.00  0.00     0.238 A 
ATOM      4  O   UNL     1       7.250  12.191 -20.929  1.00  0.00    -0.285 OA
ATOM      5  C   UNL     1       8.649  13.687 -19.811  1.00  0.00     0.111 A 
ATOM      6  C   UNL     1       8.525  14.772 -20.731  1.00  0.00     0.134 A 
ATOM      7  C   UNL     1       9.072  16.019 -20.406  1.00  0.00     0.093 A 
ATOM      8  C   UNL     1       9.796  16.202 -19.224  1.00  0.00     0.123 A 
ATOM      9  C   UNL     1       9.973  15.134 -18.348  1.00  0.00     0.094 A 
ATOM     10  C   UNL     1       9.408  13.887 -18.628  1.00  0.00     0.146 A 
ATOM     11  O   UNL     1       9.592  12.900 -17.761  1.00  0.00    -0.452 OA
ENDROOT
BRANCH   1  12
ATOM     12  C   UNL     1       9.384  10.661 -16.890  1.00  0.00     0.025 A 
ATOM     13  C   UNL     1      10.469   9.778 -17.032  1.00  0.00     0.016 A 
ATOM     14  C   UNL     1      10.749   8.837 -16.038  1.00  0.00     0.051 A 
ATOM     15  C   UNL     1       9.959   8.773 -14.882  1.00  0.00     0.157 A 
ATOM     16  C   UNL     1       8.608  10.607 -15.720  1.00  0.00     0.062 A 
ATOM     17  C   UNL     1       8.886   9.666 -14.722  1.00  0.00     0.158 A 
BRANCH  15  18
ATOM     18  O   UNL     1      10.240   7.833 -13.893  1.00  0.00    -0.504 OA
ATOM     19  H   UNL     1      10.887   7.069 -14.055  1.00  0.00     0.293 HD
ENDBRANCH  15  18
BRANCH  17  20
ATOM     20  O   UNL     1       8.086   9.632 -13.580  1.00  0.00    -0.504 OA
ATOM     21  H   UNL     1       7.116   9.922 -13.594  1.00  0.00     0.293 HD
ENDBRANCH  17  20
ENDBRANCH   1  12
BRANCH   2  22
ATOM     22  O   UNL     1       7.640  10.163 -19.150  1.00  0.00    -0.502 OA
ATOM     23  H   UNL     1       6.677  10.004 -18.883  1.00  0.00     0.293 HD
ENDBRANCH   2  22
BRANCH   6  24
ATOM     24  O   UNL     1       7.904  14.669 -21.979  1.00  0.00    -0.507 OA
ATOM     25  H   UNL     1       7.367  15.403 -22.415  1.00  0.00     0.293 HD
ENDBRANCH   6  24
BRANCH   8  26
ATOM     26  O   UNL     1      10.350  17.443 -18.916  1.00  0.00    -0.508 OA
ATOM     27  H   UNL     1      10.357  18.202 -19.587  1.00  0.00     0.293 HD
ENDBRANCH   8  26
TORSDOF 6
ENDMDL
MODEL 5
REMARK VINA RESULT:    -6.360      1.238      3.003
REMARK INTER + INTRA:          -7.984
REMARK INTER:                  -7.666
REMARK INTRA:                  -0.318
REMARK UNBOUND:                -0.323
REMARK SMILES O=c1c(O)c(-c2ccc(O)c(O)c2)oc2cc(O)cc(O)c12
REMARK SMILES IDX 5 1 3 2 2 3 1 4 22 5 20 6 19 7 17 8 16 9 15 10 14 11 6 12
REMARK SMILES IDX 7 13 8 14 9 15 13 16 11 17 10 18 12 20 4 22 21 24 18 26
REMARK H PARENT 10 19 12 21 4 23 21 25 18 27
REMARK Flexibility Score: inf
ROOT
ATOM      1  C   UNL     1       8.809  12.450 -15.392  1.00  0.00     0.180 A 
ATOM      2  C   UNL     1       7.730  12.823 -14.569  1.00  0.00     0.208 A 
ATOM      3  C   UNL     1       7.141  11.854 -13.740  1.00  0.00     0.238 A 
ATOM      4  O   UNL     1       6.143  12.180 -13.046  1.00  0.00    -0.285 OA
ATOM      5  C   UNL     1       7.646  10.532 -13.732  1.00  0.00     0.111 A 
ATOM      6  C   UNL     1       7.152   9.481 -12.902  1.00  0.00     0.134 A 
ATOM      7  C   UNL     1       7.640   8.180 -13.072  1.00  0.00     0.093 A 
ATOM      8  C   UNL     1       8.652   7.904 -13.995  1.00  0.00     0.123 A 
ATOM      9  C   UNL     1       9.183   8.935 -14.768  1.00  0.00     0.094 A 
ATOM     10  C   UNL     1       8.690  10.237 -14.648  1.00  0.00     0.146 A 
ATOM     11  O   UNL     1       9.216  11.186 -15.410  1.00  0.00    -0.452 OA
ENDROOT
BRANCH   1  12
ATOM     12  C   UNL     1       9.497  13.420 -16.274  1.00  0.00     0.025 A 
ATOM     13  C   UNL     1      10.674  14.072 -15.867  1.00  0.00     0.016 A 
ATOM     14  C   UNL     1      11.320  14.965 -16.727  1.00  0.00     0.051 A 
ATOM     15  C   UNL     1      10.807  15.209 -18.008  1.00  0.00     0.157 A 
ATOM     16  C   UNL     1       8.999  13.652 -17.567  1.00  0.00     0.062 A 
ATOM     17  C   UNL     1       9.643  14.546 -18.430  1.00  0.00     0.158 A 
BRANCH  15  18
ATOM     18  O   UNL     1      11.453  16.102 -18.862  1.00  0.00    -0.504 OA
ATOM     19  H   UNL     1      11.028  16.983 -19.128  1.00  0.00     0.293 HD
ENDBRANCH  15  18
BRANCH  17  20
ATOM     20  O   UNL     1       9.112  14.762 -19.701  1.00  0.00    -0.504 OA
ATOM     21  H   UNL     1       9.275  15.620 -20.214  1.00  0.00     0.293 HD
ENDBRANCH  17  20
ENDBRANCH   1  12
BRANCH   2  22
ATOM     22  O   UNL     1       7.234  14.128 -14.609  1.00  0.00    -0.502 OA
ATOM     23  H   UNL     1       7.162  14.656 -15.470  1.00  0.00     0.293 HD
ENDBRANCH   2  22
BRANCH   6  24
ATOM     24  O   UNL     1       6.210   9.666 -11.886  1.00  0.00    -0.507 OA
ATOM     25  H   UNL     1       5.235   9.879 -12.037  1.00  0.00     0.293 HD
ENDBRANCH   6  24
BRANCH   8  26
ATOM     26  O   UNL     1       9.143   6.610 -14.147  1.00  0.00    -0.508 OA
ATOM     27  H   UNL     1       8.845   6.016 -14.913  1.00  0.00     0.293 HD
ENDBRANCH   8  26
TORSDOF 6
ENDMDL
MODEL 6
REMARK VINA RESULT:    -6.343      2.189      3.284
REMARK INTER + INTRA:          -7.964
REMARK INTER:                  -8.085
REMARK INTRA:                   0.121
REMARK UNBOUND:                -0.323
REMARK SMILES O=c1c(O)c(-c2ccc(O)c(O)c2)oc2cc(O)cc(O)c12
REMARK SMILES IDX 5 1 3 2 2 3 1 4 22 5 20 6 19 7 17 8 16 9 15 10 14 11 6 12
REMARK SMILES IDX 7 13 8 14 9 15 13 16 11 17 10 18 12 20 4 22 21 24 18 26
REMARK H PARENT 10 19 12 21 4 23 21 25 18 27
REMARK Flexibility Score: inf
ROOT
ATOM      1  C   UNL     1       9.142  12.848 -18.540  1.00  0.00     0.180 A 
ATOM      2  C   UNL     1       9.555  11.540 -18.848  1.00  0.00     0.208 A 
ATOM      3  C   UNL     1       9.578  10.575 -17.827  1.00  0.00     0.238 A 
ATOM      4  O   UNL     1      10.000   9.421 -18.097  1.00  0.00    -0.285 OA
ATOM      5  C   UNL     1       9.173  10.926 -16.517  1.00  0.00     0.111 A 
ATOM      6  C   UNL     1       9.118  10.020 -15.416  1.00  0.00     0.134 A 
ATOM      7  C   UNL     1       8.828  10.506 -14.135  1.00  0.00     0.093 A 
ATOM      8  C   UNL     1       8.525  11.855 -13.928  1.00  0.00     0.123 A 
ATOM      9  C   UNL     1       8.518  12.736 -15.006  1.00  0.00     0.094 A 
ATOM     10  C   UNL     1       8.840  12.287 -16.290  1.00  0.00     0.146 A 
ATOM     11  O   UNL     1       8.832  13.162 -17.287  1.00  0.00    -0.452 OA
ENDROOT
BRANCH   1  12
ATOM     12  C   UNL     1       9.068  13.912 -19.566  1.00  0.00     0.025 A 
ATOM     13  C   UNL     1       8.602  13.645 -20.866  1.00  0.00     0.016 A 
ATOM     14  C   UNL     1       8.518  14.671 -21.811  1.00  0.00     0.051 A 
ATOM     15  C   UNL     1       8.885  15.980 -21.469  1.00  0.00     0.157 A 
ATOM     16  C   UNL     1       9.415  15.230 -19.223  1.00  0.00     0.062 A 
ATOM     17  C   UNL     1       9.332  16.260 -20.167  1.00  0.00     0.158 A 
BRANCH  15  18
ATOM     18  O   UNL     1       8.802  17.000 -22.415  1.00  0.00    -0.504 OA
ATOM     19  H   UNL     1       9.355  16.983 -23.264  1.00  0.00     0.293 HD
ENDBRANCH  15  18
BRANCH  17  20
ATOM     20  O   UNL     1       9.698  17.552 -19.794  1.00  0.00    -0.504 OA
ATOM     21  H   UNL     1       9.013  18.281 -19.634  1.00  0.00     0.293 HD
ENDBRANCH  17  20
ENDBRANCH   1  12
BRANCH   2  22
ATOM     22  O   UNL     1       9.972  11.220 -20.143  1.00  0.00    -0.502 OA
ATOM     23  H   UNL     1      10.705  10.547 -20.328  1.00  0.00     0.293 HD
ENDBRANCH   2  22
BRANCH   6  24
ATOM     24  O   UNL     1       9.311   8.640 -15.530  1.00  0.00    -0.507 OA
ATOM     25  H   UNL     1       9.938   8.200 -16.187  1.00  0.00     0.293 HD
ENDBRANCH   6  24
BRANCH   8  26
ATOM     26  O   UNL     1       8.223  12.327 -12.653  1.00  0.00    -0.508 OA
ATOM     27  H   UNL     1       8.391  11.766 -11.826  1.00  0.00     0.293 HD
ENDBRANCH   8  26
TORSDOF 6
ENDMDL
MODEL 7
REMARK VINA RESULT:    -6.286      1.373      3.321
REMARK INTER + INTRA:          -7.895
REMARK INTER:                  -7.592
REMARK INTRA:                  -0.303
REMARK UNBOUND:                -0.323
REMARK SMILES O=c1c(O)c(-c2ccc(O)c(O)c2)oc2cc(O)cc(O)c12
REMARK SMILES IDX 5 1 3 2 2 3 1 4 22 5 20 6 19 7 17 8 16 9 15 10 14 11 6 12
REMARK SMILES IDX 7 13 8 14 9 15 13 16 11 17 10 18 12 20 4 22 21 24 18 26
REMARK H PARENT 10 19 12 21 4 23 21 25 18 27
REMARK Flexibility Score: inf
ROOT
ATOM      1  C   UNL     1       8.525  12.242 -15.517  1.00  0.00     0.180 A 
ATOM      2  C   UNL     1       7.569  12.621 -14.558  1.00  0.00     0.208 A 
ATOM      3  C   UNL     1       7.099  11.658 -13.649  1.00  0.00     0.238 A 
ATOM      4  O   UNL     1       6.204  11.990 -12.828  1.00  0.00    -0.285 OA
ATOM      5  C   UNL     1       7.600  10.336 -13.700  1.00  0.00     0.111 A 
ATOM      6  C   UNL     1       7.224   9.291 -12.804  1.00  0.00     0.134 A 
ATOM      7  C   UNL     1       7.686   7.988 -13.029  1.00  0.00     0.093 A 
ATOM      8  C   UNL     1       8.562   7.706 -14.081  1.00  0.00     0.123 A 
ATOM      9  C   UNL     1       8.981   8.731 -14.926  1.00  0.00     0.094 A 
ATOM     10  C   UNL     1       8.509  10.034 -14.748  1.00  0.00     0.146 A 
ATOM     11  O   UNL     1       8.926  10.978 -15.582  1.00  0.00    -0.452 OA
ENDROOT
BRANCH   1  12
ATOM     12  C   UNL     1       9.085  13.205 -16.491  1.00  0.00     0.025 A 
ATOM     13  C   UNL     1       8.399  13.535 -17.674  1.00  0.00     0.016 A 
ATOM     14  C   UNL     1       8.937  14.466 -18.566  1.00  0.00     0.051 A 
ATOM     15  C   UNL     1      10.160  15.090 -18.286  1.00  0.00     0.157 A 
ATOM     16  C   UNL     1      10.301  13.849 -16.205  1.00  0.00     0.062 A 
ATOM     17  C   UNL     1      10.842  14.782 -17.097  1.00  0.00     0.158 A 
BRANCH  15  18
ATOM     18  O   UNL     1      10.695  16.016 -19.180  1.00  0.00    -0.504 OA
ATOM     19  H   UNL     1      10.355  16.093 -20.131  1.00  0.00     0.293 HD
ENDBRANCH  15  18
BRANCH  17  20
ATOM     20  O   UNL     1      12.058  15.391 -16.786  1.00  0.00    -0.504 OA
ATOM     21  H   UNL     1      12.643  15.068 -16.026  1.00  0.00     0.293 HD
ENDBRANCH  17  20
ENDBRANCH   1  12
BRANCH   2  22
ATOM     22  O   UNL     1       7.071  13.926 -14.538  1.00  0.00    -0.502 OA
ATOM     23  H   UNL     1       6.278  14.197 -13.970  1.00  0.00     0.293 HD
ENDBRANCH   2  22
BRANCH   6  24
ATOM     24  O   UNL     1       6.430   9.484 -11.669  1.00  0.00    -0.507 OA
ATOM     25  H   UNL     1       6.501  10.274 -11.046  1.00  0.00     0.293 HD
ENDBRANCH   6  24
BRANCH   8  26
ATOM     26  O   UNL     1       9.028   6.410 -14.289  1.00  0.00    -0.508 OA
ATOM     27  H   UNL     1      10.019   6.204 -14.335  1.00  0.00     0.293 HD
ENDBRANCH   8  26
TORSDOF 6
ENDMDL
MODEL 8
REMARK VINA RESULT:    -6.154      1.889      2.328
REMARK INTER + INTRA:          -7.735
REMARK INTER:                  -7.472
REMARK INTRA:                  -0.264
REMARK UNBOUND:                -0.323
REMARK SMILES O=c1c(O)c(-c2ccc(O)c(O)c2)oc2cc(O)cc(O)c12
REMARK SMILES IDX 5 1 3 2 2 3 1 4 22 5 20 6 19 7 17 8 16 9 15 10 14 11 6 12
REMARK SMILES IDX 7 13 8 14 9 15 13 16 11 17 10 18 12 20 4 22 21 24 18 26
REMARK H PARENT 10 19 12 21 4 23 21 25 18 27
REMARK Flexibility Score: inf
ROOT
ATOM      1  C   UNL     1       8.547  11.252 -17.595  1.00  0.00     0.180 A 
ATOM      2  C   UNL     1       9.498  10.223 -17.719  1.00  0.00     0.208 A 
ATOM      3  C   UNL     1       9.588   9.255 -16.705  1.00  0.00     0.238 A 
ATOM      4  O   UNL     1      10.477   8.368 -16.795  1.00  0.00    -0.285 OA
ATOM      5  C   UNL     1       8.718   9.318 -15.591  1.00  0.00     0.111 A 
ATOM      6  C   UNL     1       8.695   8.368 -14.527  1.00  0.00     0.134 A 
ATOM      7  C   UNL     1       7.882   8.601 -13.411  1.00  0.00     0.093 A 
ATOM      8  C   UNL     1       7.042   9.717 -13.351  1.00  0.00     0.123 A 
ATOM      9  C   UNL     1       7.014  10.619 -14.412  1.00  0.00     0.094 A 
ATOM     10  C   UNL     1       7.841  10.432 -15.523  1.00  0.00     0.146 A 
ATOM     11  O   UNL     1       7.791  11.321 -16.506  1.00  0.00    -0.452 OA
ENDROOT
BRANCH   1  12
ATOM     12  C   UNL     1       8.376  12.294 -18.633  1.00  0.00     0.025 A 
ATOM     13  C   UNL     1       9.301  13.343 -18.779  1.00  0.00     0.016 A 
ATOM     14  C   UNL     1       9.131  14.300 -19.782  1.00  0.00     0.051 A 
ATOM     15  C   UNL     1       8.044  14.217 -20.663  1.00  0.00     0.157 A 
ATOM     16  C   UNL     1       7.299  12.203 -19.532  1.00  0.00     0.062 A 
ATOM     17  C   UNL     1       7.127  13.161 -20.538  1.00  0.00     0.158 A 
BRANCH  15  18
ATOM     18  O   UNL     1       7.877  15.175 -21.661  1.00  0.00    -0.504 OA
ATOM     19  H   UNL     1       7.360  14.974 -22.509  1.00  0.00     0.293 HD
ENDBRANCH  15  18
BRANCH  17  20
ATOM     20  O   UNL     1       6.039  13.047 -21.403  1.00  0.00    -0.504 OA
ATOM     21  H   UNL     1       6.137  13.133 -22.406  1.00  0.00     0.293 HD
ENDBRANCH  17  20
ENDBRANCH   1  12
BRANCH   2  22
ATOM     22  O   UNL     1      10.362  10.193 -18.817  1.00  0.00    -0.502 OA
ATOM     23  H   UNL     1      11.213   9.643 -18.824  1.00  0.00     0.293 HD
ENDBRANCH   2  22
BRANCH   6  24
ATOM     24  O   UNL     1       9.423   7.174 -14.529  1.00  0.00    -0.507 OA
ATOM     25  H   UNL     1       9.610   6.614 -13.712  1.00  0.00     0.293 HD
ENDBRANCH   6  24
BRANCH   8  26
ATOM     26  O   UNL     1       6.225   9.933 -12.244  1.00  0.00    -0.508 OA
ATOM     27  H   UNL     1       6.577   9.833 -11.298  1.00  0.00     0.293 HD
ENDBRANCH   8  26
TORSDOF 6
ENDMDL
MODEL 9
REMARK VINA RESULT:    -5.992      1.913      7.055
REMARK INTER + INTRA:          -7.541
REMARK INTER:                  -7.274
REMARK INTRA:                  -0.267
REMARK UNBOUND:                -0.323
REMARK SMILES O=c1c(O)c(-c2ccc(O)c(O)c2)oc2cc(O)cc(O)c12
REMARK SMILES IDX 5 1 3 2 2 3 1 4 22 5 20 6 19 7 17 8 16 9 15 10 14 11 6 12
REMARK SMILES IDX 7 13 8 14 9 15 13 16 11 17 10 18 12 20 4 22 21 24 18 26
REMARK H PARENT 10 19 12 21 4 23 21 25 18 27
REMARK Flexibility Score: inf
ROOT
ATOM      1  C   UNL     1       8.463  11.741 -16.325  1.00  0.00     0.180 A 
ATOM      2  C   UNL     1       9.521  12.666 -16.293  1.00  0.00     0.208 A 
ATOM      3  C   UNL     1       9.661  13.576 -17.354  1.00  0.00     0.238 A 
ATOM      4  O   UNL     1      10.641  14.366 -17.346  1.00  0.00    -0.285 OA
ATOM      5  C   UNL     1       8.735  13.559 -18.424  1.00  0.00     0.111 A 
ATOM      6  C   UNL     1       8.758  14.461 -19.530  1.00  0.00     0.134 A 
ATOM      7  C   UNL     1       7.870  14.269 -20.596  1.00  0.00     0.093 A 
ATOM      8  C   UNL     1       6.917  13.247 -20.565  1.00  0.00     0.123 A 
ATOM      9  C   UNL     1       6.848  12.399 -19.463  1.00  0.00     0.094 A 
ATOM     10  C   UNL     1       7.744  12.543 -18.400  1.00  0.00     0.146 A 
ATOM     11  O   UNL     1       7.650  11.707 -17.374  1.00  0.00    -0.452 OA
ENDROOT
BRANCH   1  12
ATOM     12  C   UNL     1       8.235  10.768 -15.232  1.00  0.00     0.025 A 
ATOM     13  C   UNL     1       7.190  10.936 -14.307  1.00  0.00     0.016 A 
ATOM     14  C   UNL     1       6.980   9.992 -13.299  1.00  0.00     0.051 A 
ATOM     15  C   UNL     1       7.801   8.859 -13.208  1.00  0.00     0.157 A 
ATOM     16  C   UNL     1       9.042   9.620 -15.149  1.00  0.00     0.062 A 
ATOM     17  C   UNL     1       8.835   8.673 -14.141  1.00  0.00     0.158 A 
BRANCH  15  18
ATOM     18  O   UNL     1       7.589   7.921 -12.200  1.00  0.00    -0.504 OA
ATOM     19  H   UNL     1       6.908   8.074 -11.465  1.00  0.00     0.293 HD
ENDBRANCH  15  18
BRANCH  17  20
ATOM     20  O   UNL     1       9.664   7.554 -14.081  1.00  0.00    -0.504 OA
ATOM     21  H   UNL     1      10.248   7.358 -13.277  1.00  0.00     0.293 HD
ENDBRANCH  17  20
ENDBRANCH   1  12
BRANCH   2  22
ATOM     22  O   UNL     1      10.437  12.651 -15.238  1.00  0.00    -0.502 OA
ATOM     23  H   UNL     1      11.069  13.420 -15.056  1.00  0.00     0.293 HD
ENDBRANCH   2  22
BRANCH   6  24
ATOM     24  O   UNL     1       9.606  15.569 -19.616  1.00  0.00    -0.507 OA
ATOM     25  H   UNL     1      10.115  15.840 -20.444  1.00  0.00     0.293 HD
ENDBRANCH   6  24
BRANCH   8  26
ATOM     26  O   UNL     1       6.028  13.073 -21.623  1.00  0.00    -0.508 OA
ATOM     27  H   UNL     1       6.248  13.393 -22.559  1.00  0.00     0.293 HD
ENDBRANCH   8  26
TORSDOF 6
ENDMDL
