MODEL 1
REMARK VINA RESULT:    -2.910      0.000      0.000
REMARK INTER + INTRA:          -3.725
REMARK INTER:                  -3.506
REMARK INTRA:                  -0.219
REMARK UNBOUND:                -0.219
REMARK SMILES OCC(O)CO
REMARK SMILES IDX 3 1 5 2 6 3 2 5 1 6 4 8
REMARK H PARENT 6 4 1 7 4 9
REMARK Flexibility Score: inf
ROOT
ATOM      1  C   UNL     1       6.584  -7.999   5.558  1.00  0.00     0.165 C 
ENDROOT
BRANCH   1   2
ATOM      2  C   UNL     1       6.867  -7.726   4.078  1.00  0.00     0.190 C 
BRANCH   2   3
ATOM      3  O   UNL     1       7.977  -6.880   3.958  1.00  0.00    -0.394 OA
ATOM      4  H   UNL     1       8.149  -6.789   2.984  1.00  0.00     0.210 HD
ENDBRANCH   2   3
ENDBRANCH   1   2
BRANCH   1   5
ATOM      5  C   UNL     1       7.889  -7.981   6.368  1.00  0.00     0.190 C 
BRANCH   5   6
ATOM      6  O   UNL     1       8.081  -6.726   6.964  1.00  0.00    -0.394 OA
ATOM      7  H   UNL     1       8.577  -6.883   7.809  1.00  0.00     0.210 HD
ENDBRANCH   5   6
ENDBRANCH   1   5
BRANCH   1   8
ATOM      8  O   UNL     1       5.704  -7.019   6.044  1.00  0.00    -0.388 OA
ATOM      9  H   UNL     1       5.848  -6.202   5.497  1.00  0.00     0.211 HD
ENDBRANCH   1   8
TORSDOF 5
ENDMDL
MODEL 2
REMARK VINA RESULT:    -2.875      0.722      2.375
REMARK INTER + INTRA:          -3.682
REMARK INTER:                  -3.489
REMARK INTRA:                  -0.194
REMARK UNBOUND:                -0.219
REMARK SMILES OCC(O)CO
REMARK SMILES IDX 3 1 5 2 6 3 2 5 1 6 4 8
REMARK H PARENT 6 4 1 7 4 9
REMARK Flexibility Score: inf
ROOT
ATOM      1  C   UNL     1       7.740  -8.128   5.954  1.00  0.00     0.165 C 
ENDROOT
BRANCH   1   2
ATOM      2  C   UNL     1       6.216  -8.251   5.884  1.00  0.00     0.190 C 
BRANCH   2   3
ATOM      3  O   UNL     1       5.633  -6.985   6.013  1.00  0.00    -0.394 OA
ATOM      4  H   UNL     1       5.690  -6.751   6.976  1.00  0.00     0.210 HD
ENDBRANCH   2   3
ENDBRANCH   1   2
BRANCH   1   5
ATOM      5  C   UNL     1       8.336  -8.015   4.543  1.00  0.00     0.190 C 
BRANCH   5   6
ATOM      6  O   UNL     1       7.979  -6.792   3.955  1.00  0.00    -0.394 OA
ATOM      7  H   UNL     1       7.236  -6.419   4.498  1.00  0.00     0.210 HD
ENDBRANCH   5   6
ENDBRANCH   1   5
BRANCH   1   8
ATOM      8  O   UNL     1       8.073  -6.991   6.709  1.00  0.00    -0.388 OA
ATOM      9  H   UNL     1       7.705  -7.129   7.620  1.00  0.00     0.211 HD
ENDBRANCH   1   8
TORSDOF 5
ENDMDL
MODEL 3
REMARK VINA RESULT:    -2.858     22.695     23.132
REMARK INTER + INTRA:          -3.662
REMARK INTER:                  -3.450
REMARK INTRA:                  -0.212
REMARK UNBOUND:                -0.219
REMARK SMILES OCC(O)CO
REMARK SMILES IDX 3 1 5 2 6 3 2 5 1 6 4 8
REMARK H PARENT 6 4 1 7 4 9
REMARK Flexibility Score: inf
ROOT
ATOM      1  C   UNL     1      -4.165   7.208  -9.627  1.00  0.00     0.165 C 
ENDROOT
BRANCH   1   2
ATOM      2  C   UNL     1      -4.748   5.844 -10.003  1.00  0.00     0.190 C 
BRANCH   2   3
ATOM      3  O   UNL     1      -3.838   4.833  -9.670  1.00  0.00    -0.394 OA
ATOM      4  H   UNL     1      -2.980   5.290  -9.470  1.00  0.00     0.210 HD
ENDBRANCH   2   3
ENDBRANCH   1   2
BRANCH   1   5
ATOM      5  C   UNL     1      -4.448   7.527  -8.151  1.00  0.00     0.190 C 
BRANCH   5   6
ATOM      6  O   UNL     1      -3.613   6.770  -7.316  1.00  0.00    -0.394 OA
ATOM      7  H   UNL     1      -2.682   7.055  -7.509  1.00  0.00     0.210 HD
ENDBRANCH   5   6
ENDBRANCH   1   5
BRANCH   1   8
ATOM      8  O   UNL     1      -2.780   7.194  -9.857  1.00  0.00    -0.388 OA
ATOM      9  H   UNL     1      -2.368   7.803  -9.189  1.00  0.00     0.211 HD
ENDBRANCH   1   8
TORSDOF 5
ENDMDL
MODEL 4
REMARK VINA RESULT:    -2.794     16.169     17.192
REMARK INTER + INTRA:          -3.585
REMARK INTER:                  -3.409
REMARK INTRA:                  -0.176
REMARK UNBOUND:                -0.219
REMARK SMILES OCC(O)CO
REMARK SMILES IDX 3 1 5 2 6 3 2 5 1 6 4 8
REMARK H PARENT 6 4 1 7 4 9
REMARK Flexibility Score: inf
ROOT
ATOM      1  C   UNL     1      -3.432  -4.571  -8.215  1.00  0.00     0.165 C 
ENDROOT
BRANCH   1   2
ATOM      2  C   UNL     1      -4.769  -4.486  -7.474  1.00  0.00     0.190 C 
BRANCH   2   3
ATOM      3  O   UNL     1      -4.634  -3.662  -6.350  1.00  0.00    -0.394 OA
ATOM      4  H   UNL     1      -3.684  -3.732  -6.070  1.00  0.00     0.210 HD
ENDBRANCH   2   3
ENDBRANCH   1   2
BRANCH   1   5
ATOM      5  C   UNL     1      -2.402  -5.347  -7.381  1.00  0.00     0.190 C 
BRANCH   5   6
ATOM      6  O   UNL     1      -1.577  -4.462  -6.672  1.00  0.00    -0.394 OA
ATOM      7  H   UNL     1      -0.648  -4.800  -6.764  1.00  0.00     0.210 HD
ENDBRANCH   5   6
ENDBRANCH   1   5
BRANCH   1   8
ATOM      8  O   UNL     1      -3.632  -5.213  -9.449  1.00  0.00    -0.388 OA
ATOM      9  H   UNL     1      -2.752  -5.573  -9.734  1.00  0.00     0.211 HD
ENDBRANCH   1   8
TORSDOF 5
ENDMDL
MODEL 5
REMARK VINA RESULT:    -2.758      1.581      2.854
REMARK INTER + INTRA:          -3.541
REMARK INTER:                  -3.356
REMARK INTRA:                  -0.185
REMARK UNBOUND:                -0.219
REMARK SMILES OCC(O)CO
REMARK SMILES IDX 3 1 5 2 6 3 2 5 1 6 4 8
REMARK H PARENT 6 4 1 7 4 9
REMARK Flexibility Score: inf
ROOT
ATOM      1  C   UNL     1       6.651  -7.734   5.752  1.00  0.00     0.165 C 
ENDROOT
BRANCH   1   2
ATOM      2  C   UNL     1       6.254  -9.179   6.064  1.00  0.00     0.190 C 
BRANCH   2   3
ATOM      3  O   UNL     1       4.947  -9.416   5.619  1.00  0.00    -0.394 OA
ATOM      4  H   UNL     1       5.003  -9.496   4.632  1.00  0.00     0.210 HD
ENDBRANCH   2   3
ENDBRANCH   1   2
BRANCH   1   5
ATOM      5  C   UNL     1       7.017  -7.584   4.268  1.00  0.00     0.190 C 
BRANCH   5   6
ATOM      6  O   UNL     1       6.049  -8.200   3.459  1.00  0.00    -0.394 OA
ATOM      7  H   UNL     1       5.945  -7.629   2.653  1.00  0.00     0.210 HD
ENDBRANCH   5   6
ENDBRANCH   1   5
BRANCH   1   8
ATOM      8  O   UNL     1       5.578  -6.884   6.070  1.00  0.00    -0.388 OA
ATOM      9  H   UNL     1       4.744  -7.377   5.851  1.00  0.00     0.211 HD
ENDBRANCH   1   8
TORSDOF 5
ENDMDL
MODEL 6
REMARK VINA RESULT:    -2.727      1.357      2.344
REMARK INTER + INTRA:          -3.503
REMARK INTER:                  -3.284
REMARK INTRA:                  -0.219
REMARK UNBOUND:                -0.219
REMARK SMILES OCC(O)CO
REMARK SMILES IDX 3 1 5 2 6 3 2 5 1 6 4 8
REMARK H PARENT 6 4 1 7 4 9
REMARK Flexibility Score: inf
ROOT
ATOM      1  C   UNL     1       7.354  -7.284   4.426  1.00  0.00     0.165 C 
ENDROOT
BRANCH   1   2
ATOM      2  C   UNL     1       6.837  -8.259   3.364  1.00  0.00     0.190 C 
BRANCH   2   3
ATOM      3  O   UNL     1       5.577  -8.741   3.739  1.00  0.00    -0.394 OA
ATOM      4  H   UNL     1       5.355  -9.462   3.093  1.00  0.00     0.210 HD
ENDBRANCH   2   3
ENDBRANCH   1   2
BRANCH   1   5
ATOM      5  C   UNL     1       6.749  -7.614   5.799  1.00  0.00     0.190 C 
BRANCH   5   6
ATOM      6  O   UNL     1       5.624  -6.813   6.045  1.00  0.00    -0.394 OA
ATOM      7  H   UNL     1       5.456  -6.848   7.023  1.00  0.00     0.210 HD
ENDBRANCH   5   6
ENDBRANCH   1   5
BRANCH   1   8
ATOM      8  O   UNL     1       8.754  -7.370   4.484  1.00  0.00    -0.388 OA
ATOM      9  H   UNL     1       9.107  -6.452   4.342  1.00  0.00     0.211 HD
ENDBRANCH   1   8
TORSDOF 5
ENDMDL
MODEL 7
REMARK VINA RESULT:    -2.720      1.816      2.874
REMARK INTER + INTRA:          -3.495
REMARK INTER:                  -3.277
REMARK INTRA:                  -0.218
REMARK UNBOUND:                -0.219
REMARK SMILES OCC(O)CO
REMARK SMILES IDX 3 1 5 2 6 3 2 5 1 6 4 8
REMARK H PARENT 6 4 1 7 4 9
REMARK Flexibility Score: inf
ROOT
ATOM      1  C   UNL     1       6.654  -8.517   4.735  1.00  0.00     0.165 C 
ENDROOT
BRANCH   1   2
ATOM      2  C   UNL     1       6.787  -7.157   5.427  1.00  0.00     0.190 C 
BRANCH   2   3
ATOM      3  O   UNL     1       5.589  -6.839   6.077  1.00  0.00    -0.394 OA
ATOM      4  H   UNL     1       4.949  -6.580   5.364  1.00  0.00     0.210 HD
ENDBRANCH   2   3
ENDBRANCH   1   2
BRANCH   1   5
ATOM      5  C   UNL     1       6.067  -9.557   5.701  1.00  0.00     0.190 C 
BRANCH   5   6
ATOM      6  O   UNL     1       4.679  -9.660   5.526  1.00  0.00    -0.394 OA
ATOM      7  H   UNL     1       4.510 -10.533   5.084  1.00  0.00     0.210 HD
ENDBRANCH   5   6
ENDBRANCH   1   5
BRANCH   1   8
ATOM      8  O   UNL     1       5.821  -8.380   3.612  1.00  0.00    -0.388 OA
ATOM      9  H   UNL     1       4.895  -8.261   3.951  1.00  0.00     0.211 HD
ENDBRANCH   1   8
TORSDOF 5
ENDMDL
MODEL 8
REMARK VINA RESULT:    -2.713      0.781      2.527
REMARK INTER + INTRA:          -3.487
REMARK INTER:                  -3.265
REMARK INTRA:                  -0.222
REMARK UNBOUND:                -0.219
REMARK SMILES OCC(O)CO
REMARK SMILES IDX 3 1 5 2 6 3 2 5 1 6 4 8
REMARK H PARENT 6 4 1 7 4 9
REMARK Flexibility Score: inf
ROOT
ATOM      1  C   UNL     1       7.643  -8.187   5.368  1.00  0.00     0.165 C 
ENDROOT
BRANCH   1   2
ATOM      2  C   UNL     1       8.467  -8.052   6.651  1.00  0.00     0.190 C 
BRANCH   2   3
ATOM      3  O   UNL     1       8.320  -6.760   7.173  1.00  0.00    -0.394 OA
ATOM      4  H   UNL     1       7.596  -6.817   7.849  1.00  0.00     0.210 HD
ENDBRANCH   2   3
ENDBRANCH   1   2
BRANCH   1   5
ATOM      5  C   UNL     1       6.144  -8.256   5.695  1.00  0.00     0.190 C 
BRANCH   5   6
ATOM      6  O   UNL     1       5.664  -6.993   6.074  1.00  0.00    -0.394 OA
ATOM      7  H   UNL     1       6.340  -6.330   5.777  1.00  0.00     0.210 HD
ENDBRANCH   5   6
ENDBRANCH   1   5
BRANCH   1   8
ATOM      8  O   UNL     1       7.902  -7.083   4.538  1.00  0.00    -0.388 OA
ATOM      9  H   UNL     1       8.238  -6.354   5.123  1.00  0.00     0.211 HD
ENDBRANCH   1   8
TORSDOF 5
ENDMDL
MODEL 9
REMARK VINA RESULT:    -2.654     16.312     17.382
REMARK INTER + INTRA:          -3.416
REMARK INTER:                  -3.412
REMARK INTRA:                  -0.003
REMARK UNBOUND:                -0.219
REMARK SMILES OCC(O)CO
REMARK SMILES IDX 3 1 5 2 6 3 2 5 1 6 4 8
REMARK H PARENT 6 4 1 7 4 9
REMARK Flexibility Score: inf
ROOT
ATOM      1  C   UNL     1      -3.365  -5.648  -7.944  1.00  0.00     0.165 C 
ENDROOT
BRANCH   1   2
ATOM      2  C   UNL     1      -2.766  -4.477  -7.160  1.00  0.00     0.190 C 
BRANCH   2   3
ATOM      3  O   UNL     1      -1.506  -4.836  -6.665  1.00  0.00    -0.394 OA
ATOM      4  H   UNL     1      -1.662  -5.205  -5.756  1.00  0.00     0.210 HD
ENDBRANCH   2   3
ENDBRANCH   1   2
BRANCH   1   5
ATOM      5  C   UNL     1      -4.816  -5.901  -7.510  1.00  0.00     0.190 C 
BRANCH   5   6
ATOM      6  O   UNL     1      -5.627  -4.805  -7.842  1.00  0.00    -0.394 OA
ATOM      7  H   UNL     1      -5.434  -4.095  -7.176  1.00  0.00     0.210 HD
ENDBRANCH   5   6
ENDBRANCH   1   5
BRANCH   1   8
ATOM      8  O   UNL     1      -3.319  -5.352  -9.316  1.00  0.00    -0.388 OA
ATOM      9  H   UNL     1      -2.367  -5.415  -9.595  1.00  0.00     0.211 HD
ENDBRANCH   1   8
TORSDOF 5
ENDMDL
