MODEL 1
REMARK VINA RESULT:    -4.838      0.000      0.000
REMARK INTER + INTRA:          -5.590
REMARK INTER:                  -5.545
REMARK INTRA:                  -0.045
REMARK UNBOUND:                -0.045
REMARK SMILES O=C([O-])c1cc(O)c(O)c(O)c1
REMARK SMILES IDX 4 1 5 2 12 3 6 4 10 5 8 6 2 7 1 8 3 9 7 10 11 12 9 14
REMARK H PARENT 7 11 11 13 9 15
REMARK Flexibility Score: inf
ROOT
ATOM      1  C   UNL     1       8.420  -7.573  -9.446  1.00  0.00     0.005 A 
ATOM      2  C   UNL     1       7.858  -6.382  -8.958  1.00  0.00     0.060 A 
ATOM      3  C   UNL     1       9.679  -7.979  -8.970  1.00  0.00     0.060 A 
ATOM      4  C   UNL     1       8.538  -5.607  -8.012  1.00  0.00     0.162 A 
ATOM      5  C   UNL     1      10.366  -7.208  -8.022  1.00  0.00     0.162 A 
ATOM      6  C   UNL     1       9.796  -6.017  -7.540  1.00  0.00     0.200 A 
ENDROOT
BRANCH   1   7
ATOM      7  C   UNL     1       7.693  -8.386 -10.446  1.00  0.00     0.072 C 
ATOM      8  O   UNL     1       7.040  -9.404 -10.092  1.00  0.00    -0.545 OA
ATOM      9  O   UNL     1       7.720  -8.038 -11.792  1.00  0.00    -0.545 OA
ENDBRANCH   1   7
BRANCH   4  10
ATOM     10  O   UNL     1       7.946  -4.430  -7.552  1.00  0.00    -0.504 OA
ATOM     11  H   UNL     1       8.401  -3.825  -6.880  1.00  0.00     0.293 HD
ENDBRANCH   4  10
BRANCH   5  12
ATOM     12  O   UNL     1      11.614  -7.621  -7.559  1.00  0.00    -0.504 OA
ATOM     13  H   UNL     1      12.421  -7.663  -8.171  1.00  0.00     0.293 HD
ENDBRANCH   5  12
BRANCH   6  14
ATOM     14  O   UNL     1      10.467  -5.238  -6.598  1.00  0.00    -0.502 OA
ATOM     15  H   UNL     1      11.153  -4.540  -6.863  1.00  0.00     0.293 HD
ENDBRANCH   6  14
TORSDOF 4
ENDMDL
MODEL 2
REMARK VINA RESULT:    -4.834     17.413     17.976
REMARK INTER + INTRA:          -5.586
REMARK INTER:                  -5.540
REMARK INTRA:                  -0.046
REMARK UNBOUND:                -0.045
REMARK SMILES O=C([O-])c1cc(O)c(O)c(O)c1
REMARK SMILES IDX 4 1 5 2 12 3 6 4 10 5 8 6 2 7 1 8 3 9 7 10 11 12 9 14
REMARK H PARENT 7 11 11 13 9 15
REMARK Flexibility Score: inf
ROOT
ATOM      1  C   UNL     1      21.098   0.902 -20.546  1.00  0.00     0.005 A 
ATOM      2  C   UNL     1      19.934   0.118 -20.610  1.00  0.00     0.060 A 
ATOM      3  C   UNL     1      21.646   1.208 -19.288  1.00  0.00     0.060 A 
ATOM      4  C   UNL     1      19.325  -0.354 -19.442  1.00  0.00     0.162 A 
ATOM      5  C   UNL     1      21.042   0.738 -18.113  1.00  0.00     0.162 A 
ATOM      6  C   UNL     1      19.877  -0.045 -18.188  1.00  0.00     0.200 A 
ENDROOT
BRANCH   1   7
ATOM      7  C   UNL     1      21.734   1.396 -21.787  1.00  0.00     0.072 C 
ATOM      8  O   UNL     1      21.767   2.629 -22.043  1.00  0.00    -0.545 OA
ATOM      9  O   UNL     1      22.306   0.505 -22.689  1.00  0.00    -0.545 OA
ENDBRANCH   1   7
BRANCH   4  10
ATOM     10  O   UNL     1      18.171  -1.129 -19.549  1.00  0.00    -0.504 OA
ATOM     11  H   UNL     1      17.689  -1.494 -18.736  1.00  0.00     0.293 HD
ENDBRANCH   4  10
BRANCH   5  12
ATOM     12  O   UNL     1      21.595   1.049 -16.872  1.00  0.00    -0.504 OA
ATOM     13  H   UNL     1      21.921   0.328 -16.239  1.00  0.00     0.293 HD
ENDBRANCH   5  12
BRANCH   6  14
ATOM     14  O   UNL     1      19.263  -0.519 -17.029  1.00  0.00    -0.502 OA
ATOM     15  H   UNL     1      18.651   0.061 -16.465  1.00  0.00     0.293 HD
ENDBRANCH   6  14
TORSDOF 4
ENDMDL
MODEL 3
REMARK VINA RESULT:    -4.830     17.675     18.310
REMARK INTER + INTRA:          -5.581
REMARK INTER:                  -5.528
REMARK INTRA:                  -0.053
REMARK UNBOUND:                -0.045
REMARK SMILES O=C([O-])c1cc(O)c(O)c(O)c1
REMARK SMILES IDX 4 1 5 2 12 3 6 4 10 5 8 6 2 7 1 8 3 9 7 10 11 12 9 14
REMARK H PARENT 7 11 11 13 9 15
REMARK Flexibility Score: inf
ROOT
ATOM      1  C   UNL     1      20.222  -0.512 -19.593  1.00  0.00     0.005 A 
ATOM      2  C   UNL     1      20.390  -1.090 -20.862  1.00  0.00     0.060 A 
ATOM      3  C   UNL     1      20.737   0.775 -19.356  1.00  0.00     0.060 A 
ATOM      4  C   UNL     1      21.059  -0.400 -21.879  1.00  0.00     0.162 A 
ATOM      5  C   UNL     1      21.408   1.473 -20.370  1.00  0.00     0.162 A 
ATOM      6  C   UNL     1      21.571   0.886 -21.636  1.00  0.00     0.200 A 
ENDROOT
BRANCH   1   7
ATOM      7  C   UNL     1      19.513  -1.249 -18.524  1.00  0.00     0.072 C 
ATOM      8  O   UNL     1      19.328  -0.721 -17.395  1.00  0.00    -0.545 OA
ATOM      9  O   UNL     1      19.041  -2.538 -18.751  1.00  0.00    -0.545 OA
ENDBRANCH   1   7
BRANCH   4  10
ATOM     10  O   UNL     1      21.205  -1.010 -23.125  1.00  0.00    -0.504 OA
ATOM     11  H   UNL     1      21.626  -1.924 -23.232  1.00  0.00     0.293 HD
ENDBRANCH   4  10
BRANCH   5  12
ATOM     12  O   UNL     1      21.914   2.748 -20.123  1.00  0.00    -0.504 OA
ATOM     13  H   UNL     1      22.910   2.920 -20.048  1.00  0.00     0.293 HD
ENDBRANCH   5  12
BRANCH   6  14
ATOM     14  O   UNL     1      22.237   1.566 -22.656  1.00  0.00    -0.502 OA
ATOM     15  H   UNL     1      23.193   1.890 -22.555  1.00  0.00     0.293 HD
ENDBRANCH   6  14
TORSDOF 4
ENDMDL
MODEL 4
REMARK VINA RESULT:    -4.825      0.035      2.430
REMARK INTER + INTRA:          -5.575
REMARK INTER:                  -5.530
REMARK INTRA:                  -0.045
REMARK UNBOUND:                -0.045
REMARK SMILES O=C([O-])c1cc(O)c(O)c(O)c1
REMARK SMILES IDX 4 1 5 2 12 3 6 4 10 5 8 6 2 7 1 8 3 9 7 10 11 12 9 14
REMARK H PARENT 7 11 11 13 9 15
REMARK Flexibility Score: inf
ROOT
ATOM      1  C   UNL     1       8.425  -7.578  -9.426  1.00  0.00     0.005 A 
ATOM      2  C   UNL     1       9.677  -7.992  -8.942  1.00  0.00     0.060 A 
ATOM      3  C   UNL     1       7.869  -6.379  -8.945  1.00  0.00     0.060 A 
ATOM      4  C   UNL     1      10.365  -7.226  -7.995  1.00  0.00     0.162 A 
ATOM      5  C   UNL     1       8.553  -5.607  -7.995  1.00  0.00     0.162 A 
ATOM      6  C   UNL     1       9.805  -6.030  -7.517  1.00  0.00     0.200 A 
ENDROOT
BRANCH   1   7
ATOM      7  C   UNL     1       7.705  -8.394 -10.429  1.00  0.00     0.072 C 
ATOM      8  O   UNL     1       7.052  -9.413 -10.076  1.00  0.00    -0.545 OA
ATOM      9  O   UNL     1       7.739  -8.048 -11.775  1.00  0.00    -0.545 OA
ENDBRANCH   1   7
BRANCH   4  10
ATOM     10  O   UNL     1      11.606  -7.672  -7.539  1.00  0.00    -0.504 OA
ATOM     11  H   UNL     1      12.317  -7.035  -7.202  1.00  0.00     0.293 HD
ENDBRANCH   4  10
BRANCH   5  12
ATOM     12  O   UNL     1       7.991  -4.421  -7.525  1.00  0.00    -0.504 OA
ATOM     13  H   UNL     1       7.298  -4.418  -6.785  1.00  0.00     0.293 HD
ENDBRANCH   5  12
BRANCH   6  14
ATOM     14  O   UNL     1      10.498  -5.274  -6.572  1.00  0.00    -0.502 OA
ATOM     15  H   UNL     1      10.903  -5.688  -5.739  1.00  0.00     0.293 HD
ENDBRANCH   6  14
TORSDOF 4
ENDMDL
MODEL 5
REMARK VINA RESULT:    -4.821     17.460     18.060
REMARK INTER + INTRA:          -5.571
REMARK INTER:                  -5.525
REMARK INTRA:                  -0.046
REMARK UNBOUND:                -0.045
REMARK SMILES O=C([O-])c1cc(O)c(O)c(O)c1
REMARK SMILES IDX 4 1 5 2 12 3 6 4 10 5 8 6 2 7 1 8 3 9 7 10 11 12 9 14
REMARK H PARENT 7 11 11 13 9 15
REMARK Flexibility Score: inf
ROOT
ATOM      1  C   UNL     1      21.107   0.941 -20.576  1.00  0.00     0.005 A 
ATOM      2  C   UNL     1      21.666   1.242 -19.323  1.00  0.00     0.060 A 
ATOM      3  C   UNL     1      19.945   0.152 -20.634  1.00  0.00     0.060 A 
ATOM      4  C   UNL     1      21.078   0.765 -18.146  1.00  0.00     0.162 A 
ATOM      5  C   UNL     1      19.350  -0.329 -19.460  1.00  0.00     0.162 A 
ATOM      6  C   UNL     1      19.917  -0.024 -18.210  1.00  0.00     0.200 A 
ENDROOT
BRANCH   1   7
ATOM      7  C   UNL     1      21.736   1.451 -21.815  1.00  0.00     0.072 C 
ATOM      8  O   UNL     1      21.771   2.687 -22.054  1.00  0.00    -0.545 OA
ATOM      9  O   UNL     1      22.298   0.571 -22.734  1.00  0.00    -0.545 OA
ENDBRANCH   1   7
BRANCH   4  10
ATOM     10  O   UNL     1      21.663   1.085 -16.921  1.00  0.00    -0.504 OA
ATOM     11  H   UNL     1      22.431   1.741 -16.845  1.00  0.00     0.293 HD
ENDBRANCH   4  10
BRANCH   5  12
ATOM     12  O   UNL     1      18.198  -1.112 -19.530  1.00  0.00    -0.504 OA
ATOM     13  H   UNL     1      17.382  -0.909 -18.965  1.00  0.00     0.293 HD
ENDBRANCH   5  12
BRANCH   6  14
ATOM     14  O   UNL     1      19.338  -0.495 -17.032  1.00  0.00    -0.502 OA
ATOM     15  H   UNL     1      19.708  -0.263 -16.117  1.00  0.00     0.293 HD
ENDBRANCH   6  14
TORSDOF 4
ENDMDL
MODEL 6
REMARK VINA RESULT:    -4.696      1.793      2.948
REMARK INTER + INTRA:          -5.427
REMARK INTER:                  -5.379
REMARK INTRA:                  -0.048
REMARK UNBOUND:                -0.045
REMARK SMILES O=C([O-])c1cc(O)c(O)c(O)c1
REMARK SMILES IDX 4 1 5 2 12 3 6 4 10 5 8 6 2 7 1 8 3 9 7 10 11 12 9 14
REMARK H PARENT 7 11 11 13 9 15
REMARK Flexibility Score: inf
ROOT
ATOM      1  C   UNL     1       8.974  -6.155 -10.604  1.00  0.00     0.005 A 
ATOM      2  C   UNL     1      10.335  -6.318 -10.297  1.00  0.00     0.060 A 
ATOM      3  C   UNL     1       8.090  -5.746  -9.590  1.00  0.00     0.060 A 
ATOM      4  C   UNL     1      10.809  -6.077  -9.003  1.00  0.00     0.162 A 
ATOM      5  C   UNL     1       8.557  -5.503  -8.291  1.00  0.00     0.162 A 
ATOM      6  C   UNL     1       9.921  -5.669  -7.994  1.00  0.00     0.200 A 
ENDROOT
BRANCH   1   7
ATOM      7  C   UNL     1       8.483  -6.411 -11.976  1.00  0.00     0.072 C 
ATOM      8  O   UNL     1       8.838  -7.446 -12.601  1.00  0.00    -0.545 OA
ATOM      9  O   UNL     1       7.621  -5.513 -12.596  1.00  0.00    -0.545 OA
ENDBRANCH   1   7
BRANCH   4  10
ATOM     10  O   UNL     1      12.168  -6.251  -8.738  1.00  0.00    -0.504 OA
ATOM     11  H   UNL     1      12.869  -6.205  -9.467  1.00  0.00     0.293 HD
ENDBRANCH   4  10
BRANCH   5  12
ATOM     12  O   UNL     1       7.670  -5.098  -7.295  1.00  0.00    -0.504 OA
ATOM     13  H   UNL     1       7.444  -4.121  -7.149  1.00  0.00     0.293 HD
ENDBRANCH   5  12
BRANCH   6  14
ATOM     14  O   UNL     1      10.402  -5.433  -6.706  1.00  0.00    -0.502 OA
ATOM     15  H   UNL     1      10.245  -4.555  -6.223  1.00  0.00     0.293 HD
ENDBRANCH   6  14
TORSDOF 4
ENDMDL
MODEL 7
REMARK VINA RESULT:    -4.655      1.885      2.140
REMARK INTER + INTRA:          -5.380
REMARK INTER:                  -5.327
REMARK INTRA:                  -0.053
REMARK UNBOUND:                -0.045
REMARK SMILES O=C([O-])c1cc(O)c(O)c(O)c1
REMARK SMILES IDX 4 1 5 2 12 3 6 4 10 5 8 6 2 7 1 8 3 9 7 10 11 12 9 14
REMARK H PARENT 7 11 11 13 9 15
REMARK Flexibility Score: inf
ROOT
ATOM      1  C   UNL     1       8.746  -6.092 -10.193  1.00  0.00     0.005 A 
ATOM      2  C   UNL     1       7.525  -5.560  -9.745  1.00  0.00     0.060 A 
ATOM      3  C   UNL     1       9.819  -6.190  -9.290  1.00  0.00     0.060 A 
ATOM      4  C   UNL     1       7.375  -5.132  -8.421  1.00  0.00     0.162 A 
ATOM      5  C   UNL     1       9.677  -5.763  -7.963  1.00  0.00     0.162 A 
ATOM      6  C   UNL     1       8.452  -5.232  -7.524  1.00  0.00     0.200 A 
ENDROOT
BRANCH   1   7
ATOM      7  C   UNL     1       8.894  -6.542 -11.595  1.00  0.00     0.072 C 
ATOM      8  O   UNL     1       7.966  -6.359 -12.427  1.00  0.00    -0.545 OA
ATOM      9  O   UNL     1      10.060  -7.174 -12.012  1.00  0.00    -0.545 OA
ENDBRANCH   1   7
BRANCH   4  10
ATOM     10  O   UNL     1       6.148  -4.609  -8.015  1.00  0.00    -0.504 OA
ATOM     11  H   UNL     1       5.512  -4.160  -8.663  1.00  0.00     0.293 HD
ENDBRANCH   4  10
BRANCH   5  12
ATOM     12  O   UNL     1      10.750  -5.865  -7.078  1.00  0.00    -0.504 OA
ATOM     13  H   UNL     1      10.668  -6.358  -6.197  1.00  0.00     0.293 HD
ENDBRANCH   5  12
BRANCH   6  14
ATOM     14  O   UNL     1       8.294  -4.802  -6.207  1.00  0.00    -0.502 OA
ATOM     15  H   UNL     1       7.879  -5.390  -5.492  1.00  0.00     0.293 HD
ENDBRANCH   6  14
TORSDOF 4
ENDMDL
MODEL 8
REMARK VINA RESULT:    -4.590      2.496      3.929
REMARK INTER + INTRA:          -5.306
REMARK INTER:                  -5.257
REMARK INTRA:                  -0.048
REMARK UNBOUND:                -0.045
REMARK SMILES O=C([O-])c1cc(O)c(O)c(O)c1
REMARK SMILES IDX 4 1 5 2 12 3 6 4 10 5 8 6 2 7 1 8 3 9 7 10 11 12 9 14
REMARK H PARENT 7 11 11 13 9 15
REMARK Flexibility Score: inf
ROOT
ATOM      1  C   UNL     1       9.902  -6.136  -8.542  1.00  0.00     0.005 A 
ATOM      2  C   UNL     1       9.214  -5.957  -7.330  1.00  0.00     0.060 A 
ATOM      3  C   UNL     1       9.325  -5.656  -9.731  1.00  0.00     0.060 A 
ATOM      4  C   UNL     1       7.973  -5.311  -7.302  1.00  0.00     0.162 A 
ATOM      5  C   UNL     1       8.082  -5.008  -9.711  1.00  0.00     0.162 A 
ATOM      6  C   UNL     1       7.402  -4.834  -8.493  1.00  0.00     0.200 A 
ENDROOT
BRANCH   1   7
ATOM      7  C   UNL     1      11.214  -6.820  -8.562  1.00  0.00     0.072 C 
ATOM      8  O   UNL     1      12.170  -6.352  -9.236  1.00  0.00    -0.545 OA
ATOM      9  O   UNL     1      11.409  -7.990  -7.836  1.00  0.00    -0.545 OA
ENDBRANCH   1   7
BRANCH   4  10
ATOM     10  O   UNL     1       7.323  -5.153  -6.078  1.00  0.00    -0.504 OA
ATOM     11  H   UNL     1       7.828  -4.993  -5.216  1.00  0.00     0.293 HD
ENDBRANCH   4  10
BRANCH   5  12
ATOM     12  O   UNL     1       7.521  -4.538 -10.897  1.00  0.00    -0.504 OA
ATOM     13  H   UNL     1       6.882  -5.104 -11.444  1.00  0.00     0.293 HD
ENDBRANCH   5  12
BRANCH   6  14
ATOM     14  O   UNL     1       6.164  -4.192  -8.455  1.00  0.00    -0.502 OA
ATOM     15  H   UNL     1       5.438  -4.455  -7.798  1.00  0.00     0.293 HD
ENDBRANCH   6  14
TORSDOF 4
ENDMDL
MODEL 9
REMARK VINA RESULT:    -4.574      2.430      2.786
REMARK INTER + INTRA:          -5.288
REMARK INTER:                  -5.243
REMARK INTRA:                  -0.045
REMARK UNBOUND:                -0.045
REMARK SMILES O=C([O-])c1cc(O)c(O)c(O)c1
REMARK SMILES IDX 4 1 5 2 12 3 6 4 10 5 8 6 2 7 1 8 3 9 7 10 11 12 9 14
REMARK H PARENT 7 11 11 13 9 15
REMARK Flexibility Score: inf
ROOT
ATOM      1  C   UNL     1       8.044  -8.194  -7.801  1.00  0.00     0.005 A 
ATOM      2  C   UNL     1       8.084  -6.845  -8.191  1.00  0.00     0.060 A 
ATOM      3  C   UNL     1       7.846  -8.506  -6.444  1.00  0.00     0.060 A 
ATOM      4  C   UNL     1       7.930  -5.823  -7.248  1.00  0.00     0.162 A 
ATOM      5  C   UNL     1       7.691  -7.489  -5.493  1.00  0.00     0.162 A 
ATOM      6  C   UNL     1       7.733  -6.142  -5.893  1.00  0.00     0.200 A 
ENDROOT
BRANCH   1   7
ATOM      7  C   UNL     1       8.207  -9.267  -8.807  1.00  0.00     0.072 C 
ATOM      8  O   UNL     1       7.209  -9.718  -9.429  1.00  0.00    -0.545 OA
ATOM      9  O   UNL     1       9.466  -9.792  -9.079  1.00  0.00    -0.545 OA
ENDBRANCH   1   7
BRANCH   4  10
ATOM     10  O   UNL     1       7.976  -4.497  -7.675  1.00  0.00    -0.504 OA
ATOM     11  H   UNL     1       8.598  -3.816  -7.256  1.00  0.00     0.293 HD
ENDBRANCH   4  10
BRANCH   5  12
ATOM     12  O   UNL     1       7.496  -7.811  -4.151  1.00  0.00    -0.504 OA
ATOM     13  H   UNL     1       6.735  -8.410  -3.853  1.00  0.00     0.293 HD
ENDBRANCH   5  12
BRANCH   6  14
ATOM     14  O   UNL     1       7.581  -5.117  -4.959  1.00  0.00    -0.502 OA
ATOM     15  H   UNL     1       8.162  -5.050  -4.131  1.00  0.00     0.293 HD
ENDBRANCH   6  14
TORSDOF 4
ENDMDL
