MODEL 1
REMARK VINA RESULT:    -6.789      0.000      0.000
REMARK INTER + INTRA:          -8.177
REMARK INTER:                  -7.980
REMARK INTRA:                  -0.197
REMARK UNBOUND:                -0.197
REMARK SMILES O=c1c(O)c(-c2ccc(O)c(O)c2)oc2cc(O)ccc12
REMARK SMILES IDX 5 1 3 2 2 3 1 4 21 5 15 6 14 7 16 8 17 9 19 10 20 11 6 12
REMARK SMILES IDX 7 13 8 14 9 15 13 16 11 17 10 18 12 20 4 22 18 24
REMARK H PARENT 10 19 12 21 4 23 18 25
REMARK Flexibility Score: inf
ROOT
ATOM      1  C   UNL     1      57.360 -21.458  10.830  1.00  0.00     0.180 A 
ATOM      2  C   UNL     1      58.383 -22.234  10.244  1.00  0.00     0.208 A 
ATOM      3  C   UNL     1      58.824 -23.386  10.913  1.00  0.00     0.235 A 
ATOM      4  O   UNL     1      59.729 -24.102  10.405  1.00  0.00    -0.285 OA
ATOM      5  C   UNL     1      58.255 -23.727  12.150  1.00  0.00     0.069 A 
ATOM      6  C   UNL     1      57.253 -22.886  12.680  1.00  0.00     0.142 A 
ATOM      7  O   UNL     1      56.857 -21.809  12.012  1.00  0.00    -0.452 OA
ATOM      8  C   UNL     1      56.669 -23.187  13.915  1.00  0.00     0.094 A 
ATOM      9  C   UNL     1      57.071 -24.320  14.630  1.00  0.00     0.119 A 
ATOM     10  C   UNL     1      58.065 -25.158  14.105  1.00  0.00     0.047 A 
ATOM     11  C   UNL     1      58.656 -24.866  12.872  1.00  0.00     0.020 A 
ENDROOT
BRANCH   1  12
ATOM     12  C   UNL     1      56.828 -20.239  10.180  1.00  0.00     0.025 A 
ATOM     13  C   UNL     1      55.511 -20.187   9.688  1.00  0.00     0.016 A 
ATOM     14  C   UNL     1      55.022 -19.017   9.099  1.00  0.00     0.051 A 
ATOM     15  C   UNL     1      55.836 -17.881   9.005  1.00  0.00     0.157 A 
ATOM     16  C   UNL     1      57.631 -19.090  10.101  1.00  0.00     0.062 A 
ATOM     17  C   UNL     1      57.142 -17.916   9.511  1.00  0.00     0.158 A 
BRANCH  15  18
ATOM     18  O   UNL     1      55.353 -16.713   8.418  1.00  0.00    -0.504 OA
ATOM     19  H   UNL     1      54.493 -16.706   7.883  1.00  0.00     0.293 HD
ENDBRANCH  15  18
BRANCH  17  20
ATOM     20  O   UNL     1      57.946 -16.782   9.423  1.00  0.00    -0.504 OA
ATOM     21  H   UNL     1      57.645 -15.956   8.919  1.00  0.00     0.293 HD
ENDBRANCH  17  20
ENDBRANCH   1  12
BRANCH   2  22
ATOM     22  O   UNL     1      58.964 -21.842   9.036  1.00  0.00    -0.502 OA
ATOM     23  H   UNL     1      59.692 -21.140   8.988  1.00  0.00     0.293 HD
ENDBRANCH   2  22
BRANCH   9  24
ATOM     24  O   UNL     1      56.479 -24.604  15.858  1.00  0.00    -0.508 OA
ATOM     25  H   UNL     1      56.800 -24.169  16.714  1.00  0.00     0.293 HD
ENDBRANCH   9  24
TORSDOF 5
ENDMDL
MODEL 2
REMARK VINA RESULT:    -6.770     18.802     19.619
REMARK INTER + INTRA:          -8.154
REMARK INTER:                  -7.954
REMARK INTRA:                  -0.200
REMARK UNBOUND:                -0.197
REMARK SMILES O=c1c(O)c(-c2ccc(O)c(O)c2)oc2cc(O)ccc12
REMARK SMILES IDX 5 1 3 2 2 3 1 4 21 5 15 6 14 7 16 8 17 9 19 10 20 11 6 12
REMARK SMILES IDX 7 13 8 14 9 15 13 16 11 17 10 18 12 20 4 22 18 24
REMARK H PARENT 10 19 12 21 4 23 18 25
REMARK Flexibility Score: inf
ROOT
ATOM      1  C   UNL     1      42.279  -9.058  11.914  1.00  0.00     0.180 A 
ATOM      2  C   UNL     1      41.790 -10.373  12.062  1.00  0.00     0.208 A 
ATOM      3  C   UNL     1      41.915 -11.004  13.309  1.00  0.00     0.235 A 
ATOM      4  O   UNL     1      41.476 -12.176  13.470  1.00  0.00    -0.285 OA
ATOM      5  C   UNL     1      42.537 -10.325  14.368  1.00  0.00     0.069 A 
ATOM      6  C   UNL     1      43.021  -9.020  14.133  1.00  0.00     0.142 A 
ATOM      7  O   UNL     1      42.875  -8.454  12.940  1.00  0.00    -0.452 OA
ATOM      8  C   UNL     1      43.655  -8.313  15.160  1.00  0.00     0.094 A 
ATOM      9  C   UNL     1      43.812  -8.893  16.424  1.00  0.00     0.119 A 
ATOM     10  C   UNL     1      43.331 -10.188  16.661  1.00  0.00     0.047 A 
ATOM     11  C   UNL     1      42.697 -10.903  15.641  1.00  0.00     0.020 A 
ENDROOT
BRANCH   1  12
ATOM     12  C   UNL     1      42.169  -8.317  10.637  1.00  0.00     0.025 A 
ATOM     13  C   UNL     1      41.335  -7.192  10.512  1.00  0.00     0.016 A 
ATOM     14  C   UNL     1      41.266  -6.494   9.302  1.00  0.00     0.051 A 
ATOM     15  C   UNL     1      42.038  -6.902   8.207  1.00  0.00     0.157 A 
ATOM     16  C   UNL     1      42.956  -8.708   9.541  1.00  0.00     0.062 A 
ATOM     17  C   UNL     1      42.888  -8.009   8.327  1.00  0.00     0.158 A 
BRANCH  15  18
ATOM     18  O   UNL     1      41.971  -6.210   7.000  1.00  0.00    -0.504 OA
ATOM     19  H   UNL     1      42.159  -5.216   6.948  1.00  0.00     0.293 HD
ENDBRANCH  15  18
BRANCH  17  20
ATOM     20  O   UNL     1      43.660  -8.408   7.239  1.00  0.00    -0.504 OA
ATOM     21  H   UNL     1      43.424  -9.229   6.694  1.00  0.00     0.293 HD
ENDBRANCH  17  20
ENDBRANCH   1  12
BRANCH   2  22
ATOM     22  O   UNL     1      41.220 -11.042  10.976  1.00  0.00    -0.502 OA
ATOM     23  H   UNL     1      41.777 -11.406  10.212  1.00  0.00     0.293 HD
ENDBRANCH   2  22
BRANCH   9  24
ATOM     24  O   UNL     1      44.447  -8.175  17.435  1.00  0.00    -0.508 OA
ATOM     25  H   UNL     1      44.163  -8.261  18.403  1.00  0.00     0.293 HD
ENDBRANCH   9  24
TORSDOF 5
ENDMDL
MODEL 3
REMARK VINA RESULT:    -6.698     14.644     17.872
REMARK INTER + INTRA:          -8.070
REMARK INTER:                  -7.756
REMARK INTRA:                  -0.314
REMARK UNBOUND:                -0.197
REMARK SMILES O=c1c(O)c(-c2ccc(O)c(O)c2)oc2cc(O)ccc12
REMARK SMILES IDX 5 1 3 2 2 3 1 4 21 5 15 6 14 7 16 8 17 9 19 10 20 11 6 12
REMARK SMILES IDX 7 13 8 14 9 15 13 16 11 17 10 18 12 20 4 22 18 24
REMARK H PARENT 10 19 12 21 4 23 18 25
REMARK Flexibility Score: inf
ROOT
ATOM      1  C   UNL     1      44.947  -8.923  13.083  1.00  0.00     0.180 A 
ATOM      2  C   UNL     1      45.430  -8.493  11.828  1.00  0.00     0.208 A 
ATOM      3  C   UNL     1      46.597  -9.080  11.317  1.00  0.00     0.235 A 
ATOM      4  O   UNL     1      47.043  -8.720  10.192  1.00  0.00    -0.285 OA
ATOM      5  C   UNL     1      47.265 -10.059  12.068  1.00  0.00     0.069 A 
ATOM      6  C   UNL     1      46.731 -10.417  13.325  1.00  0.00     0.142 A 
ATOM      7  O   UNL     1      45.619  -9.844  13.770  1.00  0.00    -0.452 OA
ATOM      8  C   UNL     1      47.373 -11.382  14.108  1.00  0.00     0.094 A 
ATOM      9  C   UNL     1      48.544 -11.998  13.652  1.00  0.00     0.119 A 
ATOM     10  C   UNL     1      49.075 -11.646  12.404  1.00  0.00     0.047 A 
ATOM     11  C   UNL     1      48.442 -10.682  11.613  1.00  0.00     0.020 A 
ENDROOT
BRANCH   1  12
ATOM     12  C   UNL     1      43.714  -8.366  13.683  1.00  0.00     0.025 A 
ATOM     13  C   UNL     1      42.442  -8.841  13.315  1.00  0.00     0.016 A 
ATOM     14  C   UNL     1      41.292  -8.317  13.913  1.00  0.00     0.051 A 
ATOM     15  C   UNL     1      41.397  -7.324  14.894  1.00  0.00     0.157 A 
ATOM     16  C   UNL     1      43.813  -7.385  14.683  1.00  0.00     0.062 A 
ATOM     17  C   UNL     1      42.659  -6.858  15.283  1.00  0.00     0.158 A 
BRANCH  15  18
ATOM     18  O   UNL     1      40.253  -6.798  15.492  1.00  0.00    -0.504 OA
ATOM     19  H   UNL     1      39.427  -7.365  15.645  1.00  0.00     0.293 HD
ENDBRANCH  15  18
BRANCH  17  20
ATOM     20  O   UNL     1      42.761  -5.875  16.264  1.00  0.00    -0.504 OA
ATOM     21  H   UNL     1      43.562  -5.257  16.315  1.00  0.00     0.293 HD
ENDBRANCH  17  20
ENDBRANCH   1  12
BRANCH   2  22
ATOM     22  O   UNL     1      44.771  -7.481  11.126  1.00  0.00    -0.502 OA
ATOM     23  H   UNL     1      45.170  -6.557  11.007  1.00  0.00     0.293 HD
ENDBRANCH   2  22
BRANCH   9  24
ATOM     24  O   UNL     1      49.170 -12.957  14.445  1.00  0.00    -0.508 OA
ATOM     25  H   UNL     1      50.015 -13.424  14.142  1.00  0.00     0.293 HD
ENDBRANCH   9  24
TORSDOF 5
ENDMDL
MODEL 4
REMARK VINA RESULT:    -6.494     14.809     18.347
REMARK INTER + INTRA:          -7.829
REMARK INTER:                  -7.682
REMARK INTRA:                  -0.148
REMARK UNBOUND:                -0.197
REMARK SMILES O=c1c(O)c(-c2ccc(O)c(O)c2)oc2cc(O)ccc12
REMARK SMILES IDX 5 1 3 2 2 3 1 4 21 5 15 6 14 7 16 8 17 9 19 10 20 11 6 12
REMARK SMILES IDX 7 13 8 14 9 15 13 16 11 17 10 18 12 20 4 22 18 24
REMARK H PARENT 10 19 12 21 4 23 18 25
REMARK Flexibility Score: inf
ROOT
ATOM      1  C   UNL     1      43.469 -10.748  11.751  1.00  0.00     0.180 A 
ATOM      2  C   UNL     1      42.421  -9.882  11.373  1.00  0.00     0.208 A 
ATOM      3  C   UNL     1      41.959  -8.934  12.298  1.00  0.00     0.235 A 
ATOM      4  O   UNL     1      41.030  -8.142  11.980  1.00  0.00    -0.285 OA
ATOM      5  C   UNL     1      42.533  -8.883  13.578  1.00  0.00     0.069 A 
ATOM      6  C   UNL     1      43.561  -9.799  13.888  1.00  0.00     0.142 A 
ATOM      7  O   UNL     1      43.976 -10.675  12.980  1.00  0.00    -0.452 OA
ATOM      8  C   UNL     1      44.152  -9.785  15.156  1.00  0.00     0.094 A 
ATOM      9  C   UNL     1      43.729  -8.865  16.122  1.00  0.00     0.119 A 
ATOM     10  C   UNL     1      42.710  -7.953  15.817  1.00  0.00     0.047 A 
ATOM     11  C   UNL     1      42.113  -7.959  14.553  1.00  0.00     0.020 A 
ENDROOT
BRANCH   1  12
ATOM     12  C   UNL     1      44.024 -11.762  10.827  1.00  0.00     0.025 A 
ATOM     13  C   UNL     1      45.365 -11.715  10.407  1.00  0.00     0.016 A 
ATOM     14  C   UNL     1      45.873 -12.698   9.553  1.00  0.00     0.051 A 
ATOM     15  C   UNL     1      45.054 -13.747   9.117  1.00  0.00     0.157 A 
ATOM     16  C   UNL     1      43.213 -12.828  10.403  1.00  0.00     0.062 A 
ATOM     17  C   UNL     1      43.722 -13.815   9.545  1.00  0.00     0.158 A 
BRANCH  15  18
ATOM     18  O   UNL     1      45.556 -14.728   8.264  1.00  0.00    -0.504 OA
ATOM     19  H   UNL     1      45.177 -14.867   7.335  1.00  0.00     0.293 HD
ENDBRANCH  15  18
BRANCH  17  20
ATOM     20  O   UNL     1      42.911 -14.863   9.116  1.00  0.00    -0.504 OA
ATOM     21  H   UNL     1      41.977 -14.699   8.760  1.00  0.00     0.293 HD
ENDBRANCH  17  20
ENDBRANCH   1  12
BRANCH   2  22
ATOM     22  O   UNL     1      41.836  -9.991  10.109  1.00  0.00    -0.502 OA
ATOM     23  H   UNL     1      41.847 -10.854   9.579  1.00  0.00     0.293 HD
ENDBRANCH   2  22
BRANCH   9  24
ATOM     24  O   UNL     1      44.328  -8.866  17.379  1.00  0.00    -0.508 OA
ATOM     25  H   UNL     1      44.204  -8.096  18.026  1.00  0.00     0.293 HD
ENDBRANCH   9  24
TORSDOF 5
ENDMDL
MODEL 5
REMARK VINA RESULT:    -6.464     17.962     20.208
REMARK INTER + INTRA:          -7.795
REMARK INTER:                  -7.790
REMARK INTRA:                  -0.004
REMARK UNBOUND:                -0.197
REMARK SMILES O=c1c(O)c(-c2ccc(O)c(O)c2)oc2cc(O)ccc12
REMARK SMILES IDX 5 1 3 2 2 3 1 4 21 5 15 6 14 7 16 8 17 9 19 10 20 11 6 12
REMARK SMILES IDX 7 13 8 14 9 15 13 16 11 17 10 18 12 20 4 22 18 24
REMARK H PARENT 10 19 12 21 4 23 18 25
REMARK Flexibility Score: inf
ROOT
ATOM      1  C   UNL     1      42.757  -8.564  11.901  1.00  0.00     0.180 A 
ATOM      2  C   UNL     1      41.895  -7.552  11.428  1.00  0.00     0.208 A 
ATOM      3  C   UNL     1      41.549  -7.541  10.068  1.00  0.00     0.235 A 
ATOM      4  O   UNL     1      40.771  -6.653   9.623  1.00  0.00    -0.285 OA
ATOM      5  C   UNL     1      42.081  -8.517   9.212  1.00  0.00     0.069 A 
ATOM      6  C   UNL     1      42.956  -9.481   9.758  1.00  0.00     0.142 A 
ATOM      7  O   UNL     1      43.251  -9.463  11.052  1.00  0.00    -0.452 OA
ATOM      8  C   UNL     1      43.515 -10.464   8.935  1.00  0.00     0.094 A 
ATOM      9  C   UNL     1      43.210 -10.499   7.569  1.00  0.00     0.119 A 
ATOM     10  C   UNL     1      42.341  -9.545   7.024  1.00  0.00     0.047 A 
ATOM     11  C   UNL     1      41.778  -8.557   7.838  1.00  0.00     0.020 A 
ENDROOT
BRANCH   1  12
ATOM     12  C   UNL     1      43.155  -8.656  13.324  1.00  0.00     0.025 A 
ATOM     13  C   UNL     1      43.681  -7.547  14.010  1.00  0.00     0.016 A 
ATOM     14  C   UNL     1      44.027  -7.651  15.361  1.00  0.00     0.051 A 
ATOM     15  C   UNL     1      43.840  -8.858  16.047  1.00  0.00     0.157 A 
ATOM     16  C   UNL     1      42.950  -9.857  14.023  1.00  0.00     0.062 A 
ATOM     17  C   UNL     1      43.297  -9.962  15.378  1.00  0.00     0.158 A 
BRANCH  15  18
ATOM     18  O   UNL     1      44.184  -8.966  17.393  1.00  0.00    -0.504 OA
ATOM     19  H   UNL     1      45.113  -8.732  17.722  1.00  0.00     0.293 HD
ENDBRANCH  15  18
BRANCH  17  20
ATOM     20  O   UNL     1      43.106 -11.159  16.065  1.00  0.00    -0.504 OA
ATOM     21  H   UNL     1      42.204 -11.623  16.081  1.00  0.00     0.293 HD
ENDBRANCH  17  20
ENDBRANCH   1  12
BRANCH   2  22
ATOM     22  O   UNL     1      41.420  -6.565  12.295  1.00  0.00    -0.502 OA
ATOM     23  H   UNL     1      41.417  -6.684  13.300  1.00  0.00     0.293 HD
ENDBRANCH   2  22
BRANCH   9  24
ATOM     24  O   UNL     1      43.776 -11.486   6.764  1.00  0.00    -0.508 OA
ATOM     25  H   UNL     1      43.468 -12.449   6.812  1.00  0.00     0.293 HD
ENDBRANCH   9  24
TORSDOF 5
ENDMDL
MODEL 6
REMARK VINA RESULT:    -6.438      1.821      7.107
REMARK INTER + INTRA:          -7.764
REMARK INTER:                  -7.447
REMARK INTRA:                  -0.317
REMARK UNBOUND:                -0.197
REMARK SMILES O=c1c(O)c(-c2ccc(O)c(O)c2)oc2cc(O)ccc12
REMARK SMILES IDX 5 1 3 2 2 3 1 4 21 5 15 6 14 7 16 8 17 9 19 10 20 11 6 12
REMARK SMILES IDX 7 13 8 14 9 15 13 16 11 17 10 18 12 20 4 22 18 24
REMARK H PARENT 10 19 12 21 4 23 18 25
REMARK Flexibility Score: inf
ROOT
ATOM      1  C   UNL     1      55.695 -21.562  11.270  1.00  0.00     0.180 A 
ATOM      2  C   UNL     1      54.327 -21.417  10.951  1.00  0.00     0.208 A 
ATOM      3  C   UNL     1      53.912 -20.267  10.264  1.00  0.00     0.235 A 
ATOM      4  O   UNL     1      52.697 -20.120   9.957  1.00  0.00    -0.285 OA
ATOM      5  C   UNL     1      54.855 -19.284   9.929  1.00  0.00     0.069 A 
ATOM      6  C   UNL     1      56.200 -19.492  10.305  1.00  0.00     0.142 A 
ATOM      7  O   UNL     1      56.555 -20.599  10.947  1.00  0.00    -0.452 OA
ATOM      8  C   UNL     1      57.169 -18.530   9.998  1.00  0.00     0.094 A 
ATOM      9  C   UNL     1      56.813 -17.360   9.318  1.00  0.00     0.119 A 
ATOM     10  C   UNL     1      55.479 -17.152   8.942  1.00  0.00     0.047 A 
ATOM     11  C   UNL     1      54.503 -18.106   9.244  1.00  0.00     0.020 A 
ENDROOT
BRANCH   1  12
ATOM     12  C   UNL     1      56.215 -22.754  11.977  1.00  0.00     0.025 A 
ATOM     13  C   UNL     1      56.743 -23.851  11.273  1.00  0.00     0.016 A 
ATOM     14  C   UNL     1      57.251 -24.955  11.963  1.00  0.00     0.051 A 
ATOM     15  C   UNL     1      57.251 -24.973  13.364  1.00  0.00     0.157 A 
ATOM     16  C   UNL     1      56.237 -22.770  13.381  1.00  0.00     0.062 A 
ATOM     17  C   UNL     1      56.746 -23.877  14.075  1.00  0.00     0.158 A 
BRANCH  15  18
ATOM     18  O   UNL     1      57.755 -26.073  14.055  1.00  0.00    -0.504 OA
ATOM     19  H   UNL     1      58.185 -26.852  13.571  1.00  0.00     0.293 HD
ENDBRANCH  15  18
BRANCH  17  20
ATOM     20  O   UNL     1      56.754 -23.896  15.468  1.00  0.00    -0.504 OA
ATOM     21  H   UNL     1      57.562 -24.216  15.989  1.00  0.00     0.293 HD
ENDBRANCH  17  20
ENDBRANCH   1  12
BRANCH   2  22
ATOM     22  O   UNL     1      53.403 -22.390  11.340  1.00  0.00    -0.502 OA
ATOM     23  H   UNL     1      52.933 -22.362  12.237  1.00  0.00     0.293 HD
ENDBRANCH   2  22
BRANCH   9  24
ATOM     24  O   UNL     1      57.790 -16.414   9.020  1.00  0.00    -0.508 OA
ATOM     25  H   UNL     1      58.655 -16.363   9.545  1.00  0.00     0.293 HD
ENDBRANCH   9  24
TORSDOF 5
ENDMDL
MODEL 7
REMARK VINA RESULT:    -6.437      4.146      5.063
REMARK INTER + INTRA:          -7.762
REMARK INTER:                  -7.915
REMARK INTRA:                   0.152
REMARK UNBOUND:                -0.197
REMARK SMILES O=c1c(O)c(-c2ccc(O)c(O)c2)oc2cc(O)ccc12
REMARK SMILES IDX 5 1 3 2 2 3 1 4 21 5 15 6 14 7 16 8 17 9 19 10 20 11 6 12
REMARK SMILES IDX 7 13 8 14 9 15 13 16 11 17 10 18 12 20 4 22 18 24
REMARK H PARENT 10 19 12 21 4 23 18 25
REMARK Flexibility Score: inf
ROOT
ATOM      1  C   UNL     1      58.789 -22.470   7.126  1.00  0.00     0.180 A 
ATOM      2  C   UNL     1      58.977 -23.862   7.264  1.00  0.00     0.208 A 
ATOM      3  C   UNL     1      59.116 -24.401   8.551  1.00  0.00     0.235 A 
ATOM      4  O   UNL     1      59.273 -25.644   8.701  1.00  0.00    -0.285 OA
ATOM      5  C   UNL     1      59.086 -23.547   9.664  1.00  0.00     0.069 A 
ATOM      6  C   UNL     1      58.919 -22.163   9.442  1.00  0.00     0.142 A 
ATOM      7  O   UNL     1      58.782 -21.694   8.207  1.00  0.00    -0.452 OA
ATOM      8  C   UNL     1      58.894 -21.278  10.525  1.00  0.00     0.094 A 
ATOM      9  C   UNL     1      59.033 -21.758  11.832  1.00  0.00     0.119 A 
ATOM     10  C   UNL     1      59.197 -23.131  12.057  1.00  0.00     0.047 A 
ATOM     11  C   UNL     1      59.225 -24.024  10.981  1.00  0.00     0.020 A 
ENDROOT
BRANCH   1  12
ATOM     12  C   UNL     1      58.617 -21.827   5.804  1.00  0.00     0.025 A 
ATOM     13  C   UNL     1      57.681 -20.795   5.608  1.00  0.00     0.016 A 
ATOM     14  C   UNL     1      57.553 -20.186   4.356  1.00  0.00     0.051 A 
ATOM     15  C   UNL     1      58.364 -20.589   3.288  1.00  0.00     0.157 A 
ATOM     16  C   UNL     1      59.442 -22.212   4.734  1.00  0.00     0.062 A 
ATOM     17  C   UNL     1      59.313 -21.602   3.478  1.00  0.00     0.158 A 
BRANCH  15  18
ATOM     18  O   UNL     1      58.238 -19.986   2.039  1.00  0.00    -0.504 OA
ATOM     19  H   UNL     1      57.929 -20.507   1.228  1.00  0.00     0.293 HD
ENDBRANCH  15  18
BRANCH  17  20
ATOM     20  O   UNL     1      60.124 -21.996   2.416  1.00  0.00    -0.504 OA
ATOM     21  H   UNL     1      60.701 -22.827   2.470  1.00  0.00     0.293 HD
ENDBRANCH  17  20
ENDBRANCH   1  12
BRANCH   2  22
ATOM     22  O   UNL     1      59.051 -24.681   6.134  1.00  0.00    -0.502 OA
ATOM     23  H   UNL     1      58.228 -24.969   5.619  1.00  0.00     0.293 HD
ENDBRANCH   2  22
BRANCH   9  24
ATOM     24  O   UNL     1      59.005 -20.862  12.899  1.00  0.00    -0.508 OA
ATOM     25  H   UNL     1      58.739 -21.157  13.831  1.00  0.00     0.293 HD
ENDBRANCH   9  24
TORSDOF 5
ENDMDL
MODEL 8
REMARK VINA RESULT:    -5.413     14.719     18.209
REMARK INTER + INTRA:          -6.559
REMARK INTER:                  -6.250
REMARK INTRA:                  -0.308
REMARK UNBOUND:                -0.197
REMARK SMILES O=c1c(O)c(-c2ccc(O)c(O)c2)oc2cc(O)ccc12
REMARK SMILES IDX 5 1 3 2 2 3 1 4 21 5 15 6 14 7 16 8 17 9 19 10 20 11 6 12
REMARK SMILES IDX 7 13 8 14 9 15 13 16 11 17 10 18 12 20 4 22 18 24
REMARK H PARENT 10 19 12 21 4 23 18 25
REMARK Flexibility Score: inf
ROOT
ATOM      1  C   UNL     1      44.945  -9.179  13.464  1.00  0.00     0.180 A 
ATOM      2  C   UNL     1      45.566 -10.239  14.158  1.00  0.00     0.208 A 
ATOM      3  C   UNL     1      46.743 -10.792  13.632  1.00  0.00     0.235 A 
ATOM      4  O   UNL     1      47.324 -11.733  14.239  1.00  0.00    -0.285 OA
ATOM      5  C   UNL     1      47.261 -10.296  12.425  1.00  0.00     0.069 A 
ATOM      6  C   UNL     1      46.567  -9.250  11.780  1.00  0.00     0.142 A 
ATOM      7  O   UNL     1      45.461  -8.747  12.315  1.00  0.00    -0.452 OA
ATOM      8  C   UNL     1      47.046  -8.735  10.570  1.00  0.00     0.094 A 
ATOM      9  C   UNL     1      48.213  -9.251   9.995  1.00  0.00     0.119 A 
ATOM     10  C   UNL     1      48.905 -10.288  10.635  1.00  0.00     0.047 A 
ATOM     11  C   UNL     1      48.434 -10.811  11.843  1.00  0.00     0.020 A 
ENDROOT
BRANCH   1  12
ATOM     12  C   UNL     1      43.711  -8.529  13.962  1.00  0.00     0.025 A 
ATOM     13  C   UNL     1      42.439  -8.951  13.536  1.00  0.00     0.016 A 
ATOM     14  C   UNL     1      41.287  -8.338  14.039  1.00  0.00     0.051 A 
ATOM     15  C   UNL     1      41.389  -7.308  14.982  1.00  0.00     0.157 A 
ATOM     16  C   UNL     1      43.806  -7.510  14.923  1.00  0.00     0.062 A 
ATOM     17  C   UNL     1      42.651  -6.895  15.428  1.00  0.00     0.158 A 
BRANCH  15  18
ATOM     18  O   UNL     1      40.243  -6.695  15.485  1.00  0.00    -0.504 OA
ATOM     19  H   UNL     1      39.932  -5.793  15.143  1.00  0.00     0.293 HD
ENDBRANCH  15  18
BRANCH  17  20
ATOM     20  O   UNL     1      42.749  -5.875  16.372  1.00  0.00    -0.504 OA
ATOM     21  H   UNL     1      43.630  -5.409  16.559  1.00  0.00     0.293 HD
ENDBRANCH  17  20
ENDBRANCH   1  12
BRANCH   2  22
ATOM     22  O   UNL     1      45.001 -10.744  15.331  1.00  0.00    -0.502 OA
ATOM     23  H   UNL     1      45.421 -10.600  16.241  1.00  0.00     0.293 HD
ENDBRANCH   2  22
BRANCH   9  24
ATOM     24  O   UNL     1      48.675  -8.727   8.791  1.00  0.00    -0.508 OA
ATOM     25  H   UNL     1      48.945  -9.327   8.021  1.00  0.00     0.293 HD
ENDBRANCH   9  24
TORSDOF 5
ENDMDL
