MODEL 1
REMARK VINA RESULT:    -3.772      0.000      0.000
REMARK INTER + INTRA:          -4.376
REMARK INTER:                  -4.324
REMARK INTRA:                  -0.052
REMARK UNBOUND:                -0.052
REMARK SMILES COc1cc(C=O)ccc1O
REMARK SMILES IDX 3 1 10 2 9 3 8 4 5 5 4 6 2 7 1 8 11 9 6 11 7 12
REMARK H PARENT 11 10
REMARK Flexibility Score: inf
ROOT
ATOM      1  C   UNL     1      -5.955   1.537 -16.344  1.00  0.00     0.161 A 
ATOM      2  C   UNL     1      -5.263   1.722 -17.549  1.00  0.00     0.157 A 
ATOM      3  C   UNL     1      -3.903   2.057 -17.536  1.00  0.00     0.051 A 
ATOM      4  C   UNL     1      -3.228   2.208 -16.323  1.00  0.00     0.015 A 
ATOM      5  C   UNL     1      -3.903   2.027 -15.109  1.00  0.00     0.018 A 
ATOM      6  C   UNL     1      -5.269   1.691 -15.122  1.00  0.00     0.062 A 
ENDROOT
BRANCH   1   7
ATOM      7  O   UNL     1      -7.318   1.203 -16.401  1.00  0.00    -0.493 OA
ATOM      8  C   UNL     1      -8.115   0.875 -15.267  1.00  0.00     0.278 C 
ENDBRANCH   1   7
BRANCH   2   9
ATOM      9  O   UNL     1      -5.937   1.572 -18.761  1.00  0.00    -0.504 OA
ATOM     10  H   UNL     1      -5.712   2.142 -19.568  1.00  0.00     0.293 HD
ENDBRANCH   2   9
BRANCH   5  11
ATOM     11  C   UNL     1      -3.170   2.191 -13.839  1.00  0.00     0.260 C 
ATOM     12  O   UNL     1      -3.210   3.276 -13.200  1.00  0.00    -0.298 OA
ENDBRANCH   5  11
TORSDOF 3
ENDMDL
MODEL 2
REMARK VINA RESULT:    -3.591      1.328      3.688
REMARK INTER + INTRA:          -4.168
REMARK INTER:                  -4.111
REMARK INTRA:                  -0.057
REMARK UNBOUND:                -0.052
REMARK SMILES COc1cc(C=O)ccc1O
REMARK SMILES IDX 3 1 10 2 9 3 8 4 5 5 4 6 2 7 1 8 11 9 6 11 7 12
REMARK H PARENT 11 10
REMARK Flexibility Score: inf
ROOT
ATOM      1  C   UNL     1      -5.055   1.888 -14.610  1.00  0.00     0.161 A 
ATOM      2  C   UNL     1      -3.747   2.330 -14.367  1.00  0.00     0.157 A 
ATOM      3  C   UNL     1      -2.820   2.396 -15.416  1.00  0.00     0.051 A 
ATOM      4  C   UNL     1      -3.194   2.024 -16.709  1.00  0.00     0.015 A 
ATOM      5  C   UNL     1      -4.497   1.580 -16.970  1.00  0.00     0.018 A 
ATOM      6  C   UNL     1      -5.427   1.513 -15.917  1.00  0.00     0.062 A 
ENDROOT
BRANCH   1   7
ATOM      7  O   UNL     1      -5.953   1.836 -13.532  1.00  0.00    -0.493 OA
ATOM      8  C   UNL     1      -7.355   2.063 -13.638  1.00  0.00     0.278 C 
ENDBRANCH   1   7
BRANCH   2   9
ATOM      9  O   UNL     1      -3.373   2.702 -13.077  1.00  0.00    -0.504 OA
ATOM     10  H   UNL     1      -2.641   3.382 -12.911  1.00  0.00     0.293 HD
ENDBRANCH   2   9
BRANCH   5  11
ATOM     11  C   UNL     1      -4.870   1.192 -18.343  1.00  0.00     0.260 C 
ATOM     12  O   UNL     1      -6.050   1.330 -18.761  1.00  0.00    -0.298 OA
ENDBRANCH   5  11
TORSDOF 3
ENDMDL
MODEL 3
REMARK VINA RESULT:    -3.536      1.436      2.809
REMARK INTER + INTRA:          -4.105
REMARK INTER:                  -4.053
REMARK INTRA:                  -0.052
REMARK UNBOUND:                -0.052
REMARK SMILES COc1cc(C=O)ccc1O
REMARK SMILES IDX 3 1 10 2 9 3 8 4 5 5 4 6 2 7 1 8 11 9 6 11 7 12
REMARK H PARENT 11 10
REMARK Flexibility Score: inf
ROOT
ATOM      1  C   UNL     1      -4.453   2.988 -17.316  1.00  0.00     0.161 A 
ATOM      2  C   UNL     1      -5.217   1.828 -17.502  1.00  0.00     0.157 A 
ATOM      3  C   UNL     1      -5.311   0.875 -16.480  1.00  0.00     0.051 A 
ATOM      4  C   UNL     1      -4.643   1.075 -15.269  1.00  0.00     0.015 A 
ATOM      5  C   UNL     1      -3.874   2.228 -15.066  1.00  0.00     0.018 A 
ATOM      6  C   UNL     1      -3.780   3.184 -16.093  1.00  0.00     0.062 A 
ENDROOT
BRANCH   1   7
ATOM      7  O   UNL     1      -4.384   3.918 -18.366  1.00  0.00    -0.493 OA
ATOM      8  C   UNL     1      -3.680   5.154 -18.303  1.00  0.00     0.278 C 
ENDBRANCH   1   7
BRANCH   2   9
ATOM      9  O   UNL     1      -5.884   1.628 -18.710  1.00  0.00    -0.504 OA
ATOM     10  H   UNL     1      -5.755   2.253 -19.497  1.00  0.00     0.293 HD
ENDBRANCH   2   9
BRANCH   5  11
ATOM     11  C   UNL     1      -3.178   2.418 -13.780  1.00  0.00     0.260 C 
ATOM     12  O   UNL     1      -3.288   3.494 -13.133  1.00  0.00    -0.298 OA
ENDBRANCH   5  11
TORSDOF 3
ENDMDL
MODEL 4
REMARK VINA RESULT:    -3.473     13.610     15.711
REMARK INTER + INTRA:          -4.033
REMARK INTER:                  -3.974
REMARK INTRA:                  -0.059
REMARK UNBOUND:                -0.052
REMARK SMILES COc1cc(C=O)ccc1O
REMARK SMILES IDX 3 1 10 2 9 3 8 4 5 5 4 6 2 7 1 8 11 9 6 11 7 12
REMARK H PARENT 11 10
REMARK Flexibility Score: inf
ROOT
ATOM      1  C   UNL     1       0.907  13.690  -6.800  1.00  0.00     0.161 A 
ATOM      2  C   UNL     1       2.181  13.956  -7.321  1.00  0.00     0.157 A 
ATOM      3  C   UNL     1       3.030  12.901  -7.680  1.00  0.00     0.051 A 
ATOM      4  C   UNL     1       2.613  11.578  -7.521  1.00  0.00     0.015 A 
ATOM      5  C   UNL     1       1.343  11.293  -7.002  1.00  0.00     0.018 A 
ATOM      6  C   UNL     1       0.491  12.353  -6.642  1.00  0.00     0.062 A 
ENDROOT
BRANCH   1   7
ATOM      7  O   UNL     1       0.087  14.776  -6.453  1.00  0.00    -0.493 OA
ATOM      8  C   UNL     1      -1.325  14.810  -6.633  1.00  0.00     0.278 C 
ENDBRANCH   1   7
BRANCH   2   9
ATOM      9  O   UNL     1       2.599  15.277  -7.480  1.00  0.00    -0.504 OA
ATOM     10  H   UNL     1       3.148  15.568  -8.280  1.00  0.00     0.293 HD
ENDBRANCH   2   9
BRANCH   5  11
ATOM     11  C   UNL     1       0.922   9.888  -6.844  1.00  0.00     0.260 C 
ATOM     12  O   UNL     1      -0.252   9.596  -6.494  1.00  0.00    -0.298 OA
ENDBRANCH   5  11
TORSDOF 3
ENDMDL
MODEL 5
REMARK VINA RESULT:    -3.452      1.369      4.722
REMARK INTER + INTRA:          -4.008
REMARK INTER:                  -3.945
REMARK INTRA:                  -0.063
REMARK UNBOUND:                -0.052
REMARK SMILES COc1cc(C=O)ccc1O
REMARK SMILES IDX 3 1 10 2 9 3 8 4 5 5 4 6 2 7 1 8 11 9 6 11 7 12
REMARK H PARENT 11 10
REMARK Flexibility Score: inf
ROOT
ATOM      1  C   UNL     1      -3.392   2.795 -15.470  1.00  0.00     0.161 A 
ATOM      2  C   UNL     1      -3.702   2.257 -14.213  1.00  0.00     0.157 A 
ATOM      3  C   UNL     1      -4.718   1.299 -14.089  1.00  0.00     0.051 A 
ATOM      4  C   UNL     1      -5.426   0.875 -15.215  1.00  0.00     0.015 A 
ATOM      5  C   UNL     1      -5.129   1.403 -16.479  1.00  0.00     0.018 A 
ATOM      6  C   UNL     1      -4.110   2.364 -16.604  1.00  0.00     0.062 A 
ENDROOT
BRANCH   1   7
ATOM      7  O   UNL     1      -2.368   3.753 -15.552  1.00  0.00    -0.493 OA
ATOM      8  C   UNL     1      -1.310   3.722 -16.504  1.00  0.00     0.278 C 
ENDBRANCH   1   7
BRANCH   2   9
ATOM      9  O   UNL     1      -2.996   2.680 -13.088  1.00  0.00    -0.504 OA
ATOM     10  H   UNL     1      -2.861   2.074 -12.287  1.00  0.00     0.293 HD
ENDBRANCH   2   9
BRANCH   5  11
ATOM     11  C   UNL     1      -5.890   0.940 -17.655  1.00  0.00     0.260 C 
ATOM     12  O   UNL     1      -5.964   1.642 -18.699  1.00  0.00    -0.298 OA
ENDBRANCH   5  11
TORSDOF 3
ENDMDL
MODEL 6
REMARK VINA RESULT:    -3.423     14.221     15.042
REMARK INTER + INTRA:          -3.975
REMARK INTER:                  -3.922
REMARK INTRA:                  -0.053
REMARK UNBOUND:                -0.052
REMARK SMILES COc1cc(C=O)ccc1O
REMARK SMILES IDX 3 1 10 2 9 3 8 4 5 5 4 6 2 7 1 8 11 9 6 11 7 12
REMARK H PARENT 11 10
REMARK Flexibility Score: inf
ROOT
ATOM      1  C   UNL     1      -9.520  13.373 -21.846  1.00  0.00     0.161 A 
ATOM      2  C   UNL     1      -8.390  13.559 -22.656  1.00  0.00     0.157 A 
ATOM      3  C   UNL     1      -8.250  14.731 -23.411  1.00  0.00     0.051 A 
ATOM      4  C   UNL     1      -9.233  15.721 -23.361  1.00  0.00     0.015 A 
ATOM      5  C   UNL     1     -10.368  15.553 -22.558  1.00  0.00     0.018 A 
ATOM      6  C   UNL     1     -10.510  14.376 -21.800  1.00  0.00     0.062 A 
ENDROOT
BRANCH   1   7
ATOM      7  O   UNL     1      -9.623  12.184 -21.106  1.00  0.00    -0.493 OA
ATOM      8  C   UNL     1     -10.804  11.750 -20.440  1.00  0.00     0.278 C 
ENDBRANCH   1   7
BRANCH   2   9
ATOM      9  O   UNL     1      -7.409  12.570 -22.706  1.00  0.00    -0.504 OA
ATOM     10  H   UNL     1      -7.291  11.900 -21.956  1.00  0.00     0.293 HD
ENDBRANCH   2   9
BRANCH   5  11
ATOM     11  C   UNL     1     -11.394  16.612 -22.520  1.00  0.00     0.260 C 
ATOM     12  O   UNL     1     -12.619  16.330 -22.442  1.00  0.00    -0.298 OA
ENDBRANCH   5  11
TORSDOF 3
ENDMDL
MODEL 7
REMARK VINA RESULT:    -3.369     12.006     14.198
REMARK INTER + INTRA:          -3.914
REMARK INTER:                  -3.840
REMARK INTRA:                  -0.074
REMARK UNBOUND:                -0.052
REMARK SMILES COc1cc(C=O)ccc1O
REMARK SMILES IDX 3 1 10 2 9 3 8 4 5 5 4 6 2 7 1 8 11 9 6 11 7 12
REMARK H PARENT 11 10
REMARK Flexibility Score: inf
ROOT
ATOM      1  C   UNL     1      -0.606  11.454  -7.842  1.00  0.00     0.161 A 
ATOM      2  C   UNL     1       0.011  10.423  -7.119  1.00  0.00     0.157 A 
ATOM      3  C   UNL     1       1.358  10.529  -6.752  1.00  0.00     0.051 A 
ATOM      4  C   UNL     1       2.096  11.661  -7.103  1.00  0.00     0.015 A 
ATOM      5  C   UNL     1       1.497  12.701  -7.825  1.00  0.00     0.018 A 
ATOM      6  C   UNL     1       0.143  12.594  -8.194  1.00  0.00     0.062 A 
ENDROOT
BRANCH   1   7
ATOM      7  O   UNL     1      -1.958  11.309  -8.191  1.00  0.00    -0.493 OA
ATOM      8  C   UNL     1      -2.422  10.972  -9.494  1.00  0.00     0.278 C 
ENDBRANCH   1   7
BRANCH   2   9
ATOM      9  O   UNL     1      -0.725   9.292  -6.768  1.00  0.00    -0.504 OA
ATOM     10  H   UNL     1      -1.729   9.251  -6.895  1.00  0.00     0.293 HD
ENDBRANCH   2   9
BRANCH   5  11
ATOM     11  C   UNL     1       2.295  13.888  -8.186  1.00  0.00     0.260 C 
ATOM     12  O   UNL     1       2.523  14.799  -7.345  1.00  0.00    -0.298 OA
ENDBRANCH   5  11
TORSDOF 3
ENDMDL
MODEL 8
REMARK VINA RESULT:    -3.357      2.212      4.428
REMARK INTER + INTRA:          -3.899
REMARK INTER:                  -3.830
REMARK INTRA:                  -0.070
REMARK UNBOUND:                -0.052
REMARK SMILES COc1cc(C=O)ccc1O
REMARK SMILES IDX 3 1 10 2 9 3 8 4 5 5 4 6 2 7 1 8 11 9 6 11 7 12
REMARK H PARENT 11 10
REMARK Flexibility Score: inf
ROOT
ATOM      1  C   UNL     1      -6.213   3.304 -14.903  1.00  0.00     0.161 A 
ATOM      2  C   UNL     1      -7.160   2.443 -14.331  1.00  0.00     0.157 A 
ATOM      3  C   UNL     1      -7.481   1.232 -14.959  1.00  0.00     0.051 A 
ATOM      4  C   UNL     1      -6.859   0.875 -16.157  1.00  0.00     0.015 A 
ATOM      5  C   UNL     1      -5.911   1.724 -16.743  1.00  0.00     0.018 A 
ATOM      6  C   UNL     1      -5.590   2.940 -16.113  1.00  0.00     0.062 A 
ENDROOT
BRANCH   1   7
ATOM      7  O   UNL     1      -5.921   4.509 -14.243  1.00  0.00    -0.493 OA
ATOM      8  C   UNL     1      -6.123   5.803 -14.801  1.00  0.00     0.278 C 
ENDBRANCH   1   7
BRANCH   2   9
ATOM      9  O   UNL     1      -7.782   2.799 -13.135  1.00  0.00    -0.504 OA
ATOM     10  H   UNL     1      -7.263   2.869 -12.267  1.00  0.00     0.293 HD
ENDBRANCH   2   9
BRANCH   5  11
ATOM     11  C   UNL     1      -5.267   1.327 -18.010  1.00  0.00     0.260 C 
ATOM     12  O   UNL     1      -5.939   1.182 -19.065  1.00  0.00    -0.298 OA
ENDBRANCH   5  11
TORSDOF 3
ENDMDL
