MODEL 1
REMARK VINA RESULT:    -4.074      0.000      0.000
REMARK INTER + INTRA:          -7.400
REMARK INTER:                  -6.455
REMARK INTRA:                  -0.945
REMARK UNBOUND:                -0.945
REMARK SMILES CCCCCCCCCCCC(=O)[O-]
REMARK SMILES IDX 7 1 8 2 9 3 10 4 11 5 12 6 13 7 14 8 6 9 5 10 4 11 3 12 2 13
REMARK SMILES IDX 1 14
REMARK H PARENT
REMARK Flexibility Score: inf
ROOT
ATOM      1  C   UNL     1       9.248  15.678  23.229  1.00  0.00     0.000 C 
ENDROOT
BRANCH   1   2
ATOM      2  C   UNL     1      10.769  15.477  23.310  1.00  0.00     0.000 C 
BRANCH   2   3
ATOM      3  C   UNL     1      11.306  14.570  22.192  1.00  0.00     0.000 C 
BRANCH   3   4
ATOM      4  C   UNL     1      10.248  13.579  21.676  1.00  0.00     0.006 C 
BRANCH   4   5
ATOM      5  C   UNL     1      10.222  13.508  20.143  1.00  0.00     0.053 C 
BRANCH   5   6
ATOM      6  C   UNL     1      10.116  14.869  19.525  1.00  0.00     0.041 C 
ATOM      7  O   UNL     1       9.102  15.584  19.740  1.00  0.00    -0.550 OA
ATOM      8  O   UNL     1      11.119  15.333  18.684  1.00  0.00    -0.550 OA
ENDBRANCH   5   6
ENDBRANCH   4   5
ENDBRANCH   3   4
ENDBRANCH   2   3
ENDBRANCH   1   2
BRANCH   1   9
ATOM      9  C   UNL     1       8.792  16.806  24.163  1.00  0.00     0.000 C 
BRANCH   9  10
ATOM     10  C   UNL     1       9.997  17.532  24.777  1.00  0.00    -0.000 C 
BRANCH  10  11
ATOM     11  C   UNL     1       9.851  19.062  24.749  1.00  0.00    -0.000 C 
BRANCH  11  12
ATOM     12  C   UNL     1      10.520  19.754  23.546  1.00  0.00    -0.000 C 
BRANCH  12  13
ATOM     13  C   UNL     1       9.544  20.578  22.679  1.00  0.00    -0.003 C 
ATOM     14  C   UNL     1       8.702  19.701  21.752  1.00  0.00     0.004 C 
ENDBRANCH  12  13
ENDBRANCH  11  12
ENDBRANCH  10  11
ENDBRANCH   9  10
ENDBRANCH   1   9
TORSDOF 10
ENDMDL
MODEL 2
REMARK VINA RESULT:    -3.947      2.506      4.769
REMARK INTER + INTRA:          -7.200
REMARK INTER:                  -6.033
REMARK INTRA:                  -1.167
REMARK UNBOUND:                -0.945
REMARK SMILES CCCCCCCCCCCC(=O)[O-]
REMARK SMILES IDX 7 1 8 2 9 3 10 4 11 5 12 6 13 7 14 8 6 9 5 10 4 11 3 12 2 13
REMARK SMILES IDX 1 14
REMARK H PARENT
REMARK Flexibility Score: inf
ROOT
ATOM      1  C   UNL     1      10.519  16.312  24.186  1.00  0.00     0.000 C 
ENDROOT
BRANCH   1   2
ATOM      2  C   UNL     1       9.524  16.900  23.173  1.00  0.00     0.000 C 
BRANCH   2   3
ATOM      3  C   UNL     1      10.179  17.227  21.822  1.00  0.00     0.000 C 
BRANCH   3   4
ATOM      4  C   UNL     1      10.816  15.993  21.160  1.00  0.00     0.006 C 
BRANCH   4   5
ATOM      5  C   UNL     1       9.782  14.898  20.862  1.00  0.00     0.053 C 
BRANCH   5   6
ATOM      6  C   UNL     1      10.335  13.847  19.948  1.00  0.00     0.041 C 
ATOM      7  O   UNL     1      10.993  14.179  18.927  1.00  0.00    -0.550 OA
ATOM      8  O   UNL     1      10.092  12.503  20.202  1.00  0.00    -0.550 OA
ENDBRANCH   5   6
ENDBRANCH   4   5
ENDBRANCH   3   4
ENDBRANCH   2   3
ENDBRANCH   1   2
BRANCH   1   9
ATOM      9  C   UNL     1       9.859  15.215  25.030  1.00  0.00     0.000 C 
BRANCH   9  10
ATOM     10  C   UNL     1       8.502  14.806  24.438  1.00  0.00    -0.000 C 
BRANCH  10  11
ATOM     11  C   UNL     1       8.474  13.342  23.969  1.00  0.00    -0.000 C 
BRANCH  11  12
ATOM     12  C   UNL     1       9.823  12.605  24.064  1.00  0.00    -0.000 C 
BRANCH  12  13
ATOM     13  C   UNL     1       9.846  11.482  25.123  1.00  0.00    -0.003 C 
ATOM     14  C   UNL     1       8.614  11.505  26.027  1.00  0.00     0.004 C 
ENDBRANCH  12  13
ENDBRANCH  11  12
ENDBRANCH  10  11
ENDBRANCH   9  10
ENDBRANCH   1   9
TORSDOF 10
ENDMDL
MODEL 3
REMARK VINA RESULT:    -3.821      4.686      7.358
REMARK INTER + INTRA:          -6.999
REMARK INTER:                  -6.567
REMARK INTRA:                  -0.432
REMARK UNBOUND:                -0.945
REMARK SMILES CCCCCCCCCCCC(=O)[O-]
REMARK SMILES IDX 7 1 8 2 9 3 10 4 11 5 12 6 13 7 14 8 6 9 5 10 4 11 3 12 2 13
REMARK SMILES IDX 1 14
REMARK H PARENT
REMARK Flexibility Score: inf
ROOT
ATOM      1  C   UNL     1       9.652  11.942  23.828  1.00  0.00     0.000 C 
ENDROOT
BRANCH   1   2
ATOM      2  C   UNL     1       9.840  13.343  24.429  1.00  0.00     0.000 C 
BRANCH   2   3
ATOM      3  C   UNL     1       9.970  14.434  23.356  1.00  0.00     0.000 C 
BRANCH   3   4
ATOM      4  C   UNL     1      10.023  13.858  21.930  1.00  0.00     0.006 C 
BRANCH   4   5
ATOM      5  C   UNL     1      11.017  14.613  21.037  1.00  0.00     0.053 C 
BRANCH   5   6
ATOM      6  C   UNL     1      10.367  15.120  19.786  1.00  0.00     0.041 C 
ATOM      7  O   UNL     1      11.026  15.195  18.716  1.00  0.00    -0.550 OA
ATOM      8  O   UNL     1       9.044  15.543  19.810  1.00  0.00    -0.550 OA
ENDBRANCH   5   6
ENDBRANCH   4   5
ENDBRANCH   3   4
ENDBRANCH   2   3
ENDBRANCH   1   2
BRANCH   1   9
ATOM      9  C   UNL     1       9.371  10.906  24.924  1.00  0.00     0.000 C 
BRANCH   9  10
ATOM     10  C   UNL     1       9.669   9.485  24.426  1.00  0.00    -0.000 C 
BRANCH  10  11
ATOM     11  C   UNL     1       9.039   8.398  25.313  1.00  0.00    -0.000 C 
BRANCH  11  12
ATOM     12  C   UNL     1       8.207   8.929  26.496  1.00  0.00    -0.000 C 
BRANCH  12  13
ATOM     13  C   UNL     1       8.764   8.531  27.879  1.00  0.00    -0.003 C 
ATOM     14  C   UNL     1       8.228   7.183  28.360  1.00  0.00     0.004 C 
ENDBRANCH  12  13
ENDBRANCH  11  12
ENDBRANCH  10  11
ENDBRANCH   9  10
ENDBRANCH   1   9
TORSDOF 10
ENDMDL
MODEL 4
REMARK VINA RESULT:    -3.719      3.551      6.380
REMARK INTER + INTRA:          -6.839
REMARK INTER:                  -6.187
REMARK INTRA:                  -0.652
REMARK UNBOUND:                -0.945
REMARK SMILES CCCCCCCCCCCC(=O)[O-]
REMARK SMILES IDX 7 1 8 2 9 3 10 4 11 5 12 6 13 7 14 8 6 9 5 10 4 11 3 12 2 13
REMARK SMILES IDX 1 14
REMARK H PARENT
REMARK Flexibility Score: inf
ROOT
ATOM      1  C   UNL     1       9.033  13.443  23.158  1.00  0.00     0.000 C 
ENDROOT
BRANCH   1   2
ATOM      2  C   UNL     1       9.280  14.745  23.936  1.00  0.00     0.000 C 
BRANCH   2   3
ATOM      3  C   UNL     1      10.629  15.394  23.588  1.00  0.00     0.000 C 
BRANCH   3   4
ATOM      4  C   UNL     1      10.614  16.086  22.214  1.00  0.00     0.006 C 
BRANCH   4   5
ATOM      5  C   UNL     1      11.269  15.226  21.125  1.00  0.00     0.053 C 
BRANCH   5   6
ATOM      6  C   UNL     1      10.364  15.037  19.947  1.00  0.00     0.041 C 
ATOM      7  O   UNL     1       9.136  15.303  20.043  1.00  0.00    -0.550 OA
ATOM      8  O   UNL     1      10.867  14.533  18.754  1.00  0.00    -0.550 OA
ENDBRANCH   5   6
ENDBRANCH   4   5
ENDBRANCH   3   4
ENDBRANCH   2   3
ENDBRANCH   1   2
BRANCH   1   9
ATOM      9  C   UNL     1       9.895  12.301  23.711  1.00  0.00     0.000 C 
BRANCH   9  10
ATOM     10  C   UNL     1       9.641  12.097  25.211  1.00  0.00    -0.000 C 
BRANCH  10  11
ATOM     11  C   UNL     1       9.192  10.667  25.551  1.00  0.00    -0.000 C 
BRANCH  11  12
ATOM     12  C   UNL     1       9.713   9.579  24.592  1.00  0.00    -0.000 C 
BRANCH  12  13
ATOM     13  C   UNL     1       9.348   8.142  25.023  1.00  0.00    -0.003 C 
ATOM     14  C   UNL     1       8.806   8.079  26.450  1.00  0.00     0.004 C 
ENDBRANCH  12  13
ENDBRANCH  11  12
ENDBRANCH  10  11
ENDBRANCH   9  10
ENDBRANCH   1   9
TORSDOF 10
ENDMDL
MODEL 5
REMARK VINA RESULT:    -3.642      3.616      5.108
REMARK INTER + INTRA:          -6.716
REMARK INTER:                  -5.780
REMARK INTRA:                  -0.936
REMARK UNBOUND:                -0.945
REMARK SMILES CCCCCCCCCCCC(=O)[O-]
REMARK SMILES IDX 7 1 8 2 9 3 10 4 11 5 12 6 13 7 14 8 6 9 5 10 4 11 3 12 2 13
REMARK SMILES IDX 1 14
REMARK H PARENT
REMARK Flexibility Score: inf
ROOT
ATOM      1  C   UNL     1      10.536  15.872  24.992  1.00  0.00     0.000 C 
ENDROOT
BRANCH   1   2
ATOM      2  C   UNL     1       9.257  15.070  25.277  1.00  0.00     0.000 C 
BRANCH   2   3
ATOM      3  C   UNL     1       8.867  14.146  24.113  1.00  0.00     0.000 C 
BRANCH   3   4
ATOM      4  C   UNL     1       9.802  12.931  23.983  1.00  0.00     0.006 C 
BRANCH   4   5
ATOM      5  C   UNL     1       9.029  11.628  23.742  1.00  0.00     0.053 C 
BRANCH   5   6
ATOM      6  C   UNL     1       9.598  10.490  24.534  1.00  0.00     0.041 C 
ATOM      7  O   UNL     1       9.890  10.648  25.749  1.00  0.00    -0.550 OA
ATOM      8  O   UNL     1       9.838   9.266  23.922  1.00  0.00    -0.550 OA
ENDBRANCH   5   6
ENDBRANCH   4   5
ENDBRANCH   3   4
ENDBRANCH   2   3
ENDBRANCH   1   2
BRANCH   1   9
ATOM      9  C   UNL     1      10.326  16.847  23.826  1.00  0.00     0.000 C 
BRANCH   9  10
ATOM     10  C   UNL     1      11.284  16.534  22.668  1.00  0.00    -0.000 C 
BRANCH  10  11
ATOM     11  C   UNL     1      10.640  16.745  21.288  1.00  0.00    -0.000 C 
BRANCH  11  12
ATOM     12  C   UNL     1      10.867  15.599  20.284  1.00  0.00    -0.000 C 
BRANCH  12  13
ATOM     13  C   UNL     1      10.106  14.303  20.635  1.00  0.00    -0.003 C 
ATOM     14  C   UNL     1      10.329  13.196  19.606  1.00  0.00     0.004 C 
ENDBRANCH  12  13
ENDBRANCH  11  12
ENDBRANCH  10  11
ENDBRANCH   9  10
ENDBRANCH   1   9
TORSDOF 10
ENDMDL
MODEL 6
REMARK VINA RESULT:    -3.619     11.403     12.661
REMARK INTER + INTRA:          -6.679
REMARK INTER:                  -6.211
REMARK INTRA:                  -0.468
REMARK UNBOUND:                -0.945
REMARK SMILES CCCCCCCCCCCC(=O)[O-]
REMARK SMILES IDX 7 1 8 2 9 3 10 4 11 5 12 6 13 7 14 8 6 9 5 10 4 11 3 12 2 13
REMARK SMILES IDX 1 14
REMARK H PARENT
REMARK Flexibility Score: inf
ROOT
ATOM      1  C   UNL     1      20.800  18.256  27.046  1.00  0.00     0.000 C 
ENDROOT
BRANCH   1   2
ATOM      2  C   UNL     1      20.029  19.575  26.884  1.00  0.00     0.000 C 
BRANCH   2   3
ATOM      3  C   UNL     1      18.510  19.393  27.035  1.00  0.00     0.000 C 
BRANCH   3   4
ATOM      4  C   UNL     1      18.117  17.939  27.351  1.00  0.00     0.006 C 
BRANCH   4   5
ATOM      5  C   UNL     1      17.024  17.855  28.425  1.00  0.00     0.053 C 
BRANCH   5   6
ATOM      6  C   UNL     1      15.925  16.918  28.026  1.00  0.00     0.041 C 
ATOM      7  O   UNL     1      15.710  16.676  26.809  1.00  0.00    -0.550 OA
ATOM      8  O   UNL     1      15.114  16.341  28.995  1.00  0.00    -0.550 OA
ENDBRANCH   5   6
ENDBRANCH   4   5
ENDBRANCH   3   4
ENDBRANCH   2   3
ENDBRANCH   1   2
BRANCH   1   9
ATOM      9  C   UNL     1      21.776  18.045  25.881  1.00  0.00     0.000 C 
BRANCH   9  10
ATOM     10  C   UNL     1      22.185  19.387  25.256  1.00  0.00    -0.000 C 
BRANCH  10  11
ATOM     11  C   UNL     1      23.275  19.237  24.182  1.00  0.00    -0.000 C 
BRANCH  11  12
ATOM     12  C   UNL     1      24.720  19.336  24.707  1.00  0.00    -0.000 C 
BRANCH  12  13
ATOM     13  C   UNL     1      25.779  18.799  23.721  1.00  0.00    -0.003 C 
ATOM     14  C   UNL     1      26.636  19.913  23.119  1.00  0.00     0.004 C 
ENDBRANCH  12  13
ENDBRANCH  11  12
ENDBRANCH  10  11
ENDBRANCH   9  10
ENDBRANCH   1   9
TORSDOF 10
ENDMDL
MODEL 7
REMARK VINA RESULT:    -3.579     17.551     19.317
REMARK INTER + INTRA:          -6.617
REMARK INTER:                  -5.435
REMARK INTRA:                  -1.182
REMARK UNBOUND:                -0.945
REMARK SMILES CCCCCCCCCCCC(=O)[O-]
REMARK SMILES IDX 7 1 8 2 9 3 10 4 11 5 12 6 13 7 14 8 6 9 5 10 4 11 3 12 2 13
REMARK SMILES IDX 1 14
REMARK H PARENT
REMARK Flexibility Score: inf
ROOT
ATOM      1  C   UNL     1      23.648   1.852  29.235  1.00  0.00     0.000 C 
ENDROOT
BRANCH   1   2
ATOM      2  C   UNL     1      24.039   2.964  28.249  1.00  0.00     0.000 C 
BRANCH   2   3
ATOM      3  C   UNL     1      24.951   4.024  28.885  1.00  0.00     0.000 C 
BRANCH   3   4
ATOM      4  C   UNL     1      24.629   5.448  28.401  1.00  0.00     0.006 C 
BRANCH   4   5
ATOM      5  C   UNL     1      23.458   5.472  27.410  1.00  0.00     0.053 C 
BRANCH   5   6
ATOM      6  C   UNL     1      23.585   6.596  26.427  1.00  0.00     0.041 C 
ATOM      7  O   UNL     1      23.314   7.776  26.776  1.00  0.00    -0.550 OA
ATOM      8  O   UNL     1      23.966   6.338  25.117  1.00  0.00    -0.550 OA
ENDBRANCH   5   6
ENDBRANCH   4   5
ENDBRANCH   3   4
ENDBRANCH   2   3
ENDBRANCH   1   2
BRANCH   1   9
ATOM      9  C   UNL     1      22.340   2.195  29.960  1.00  0.00     0.000 C 
BRANCH   9  10
ATOM     10  C   UNL     1      22.603   2.548  31.431  1.00  0.00    -0.000 C 
BRANCH  10  11
ATOM     11  C   UNL     1      22.437   4.048  31.723  1.00  0.00    -0.000 C 
BRANCH  11  12
ATOM     12  C   UNL     1      21.578   4.816  30.701  1.00  0.00    -0.000 C 
BRANCH  12  13
ATOM     13  C   UNL     1      20.092   4.937  31.101  1.00  0.00    -0.003 C 
ATOM     14  C   UNL     1      19.863   4.676  32.589  1.00  0.00     0.004 C 
ENDBRANCH  12  13
ENDBRANCH  11  12
ENDBRANCH  10  11
ENDBRANCH   9  10
ENDBRANCH   1   9
TORSDOF 10
ENDMDL
MODEL 8
REMARK VINA RESULT:    -3.564     13.638     14.792
REMARK INTER + INTRA:          -6.592
REMARK INTER:                  -5.337
REMARK INTRA:                  -1.255
REMARK UNBOUND:                -0.945
REMARK SMILES CCCCCCCCCCCC(=O)[O-]
REMARK SMILES IDX 7 1 8 2 9 3 10 4 11 5 12 6 13 7 14 8 6 9 5 10 4 11 3 12 2 13
REMARK SMILES IDX 1 14
REMARK H PARENT
REMARK Flexibility Score: inf
ROOT
ATOM      1  C   UNL     1      25.141  20.855  26.800  1.00  0.00     0.000 C 
ENDROOT
BRANCH   1   2
ATOM      2  C   UNL     1      26.255  19.997  26.181  1.00  0.00     0.000 C 
BRANCH   2   3
ATOM      3  C   UNL     1      25.707  18.849  25.319  1.00  0.00     0.000 C 
BRANCH   3   4
ATOM      4  C   UNL     1      26.152  18.949  23.849  1.00  0.00     0.006 C 
BRANCH   4   5
ATOM      5  C   UNL     1      25.526  20.155  23.135  1.00  0.00     0.053 C 
BRANCH   5   6
ATOM      6  C   UNL     1      24.060  19.959  22.897  1.00  0.00     0.041 C 
ATOM      7  O   UNL     1      23.627  18.848  22.490  1.00  0.00    -0.550 OA
ATOM      8  O   UNL     1      23.175  21.012  23.090  1.00  0.00    -0.550 OA
ENDBRANCH   5   6
ENDBRANCH   4   5
ENDBRANCH   3   4
ENDBRANCH   2   3
ENDBRANCH   1   2
BRANCH   1   9
ATOM      9  C   UNL     1      23.889  20.013  27.077  1.00  0.00     0.000 C 
BRANCH   9  10
ATOM     10  C   UNL     1      22.619  20.758  26.641  1.00  0.00    -0.000 C 
BRANCH  10  11
ATOM     11  C   UNL     1      21.614  19.849  25.914  1.00  0.00    -0.000 C 
BRANCH  11  12
ATOM     12  C   UNL     1      22.085  18.397  25.709  1.00  0.00    -0.000 C 
BRANCH  12  13
ATOM     13  C   UNL     1      21.418  17.385  26.665  1.00  0.00    -0.003 C 
ATOM     14  C   UNL     1      20.224  17.981  27.409  1.00  0.00     0.004 C 
ENDBRANCH  12  13
ENDBRANCH  11  12
ENDBRANCH  10  11
ENDBRANCH   9  10
ENDBRANCH   1   9
TORSDOF 10
ENDMDL
MODEL 9
REMARK VINA RESULT:    -3.561      2.722      5.122
REMARK INTER + INTRA:          -6.587
REMARK INTER:                  -5.248
REMARK INTRA:                  -1.339
REMARK UNBOUND:                -0.945
REMARK SMILES CCCCCCCCCCCC(=O)[O-]
REMARK SMILES IDX 7 1 8 2 9 3 10 4 11 5 12 6 13 7 14 8 6 9 5 10 4 11 3 12 2 13
REMARK SMILES IDX 1 14
REMARK H PARENT
REMARK Flexibility Score: inf
ROOT
ATOM      1  C   UNL     1       8.846  14.962  24.924  1.00  0.00     0.000 C 
ENDROOT
BRANCH   1   2
ATOM      2  C   UNL     1       8.107  15.910  23.967  1.00  0.00     0.000 C 
BRANCH   2   3
ATOM      3  C   UNL     1       8.689  17.332  23.978  1.00  0.00     0.000 C 
BRANCH   3   4
ATOM      4  C   UNL     1       9.426  17.679  22.673  1.00  0.00     0.006 C 
BRANCH   4   5
ATOM      5  C   UNL     1      10.765  18.383  22.933  1.00  0.00     0.053 C 
BRANCH   5   6
ATOM      6  C   UNL     1      10.568  19.775  23.453  1.00  0.00     0.041 C 
ATOM      7  O   UNL     1      10.896  20.062  24.635  1.00  0.00    -0.550 OA
ATOM      8  O   UNL     1       9.991  20.746  22.644  1.00  0.00    -0.550 OA
ENDBRANCH   5   6
ENDBRANCH   4   5
ENDBRANCH   3   4
ENDBRANCH   2   3
ENDBRANCH   1   2
BRANCH   1   9
ATOM      9  C   UNL     1      10.216  14.567  24.358  1.00  0.00     0.000 C 
BRANCH   9  10
ATOM     10  C   UNL     1      10.122  13.264  23.550  1.00  0.00    -0.000 C 
BRANCH  10  11
ATOM     11  C   UNL     1      10.338  13.480  22.043  1.00  0.00    -0.000 C 
BRANCH  11  12
ATOM     12  C   UNL     1      11.269  14.654  21.684  1.00  0.00    -0.000 C 
BRANCH  12  13
ATOM     13  C   UNL     1      10.901  15.359  20.361  1.00  0.00    -0.003 C 
ATOM     14  C   UNL     1       9.450  15.113  19.951  1.00  0.00     0.004 C 
ENDBRANCH  12  13
ENDBRANCH  11  12
ENDBRANCH  10  11
ENDBRANCH   9  10
ENDBRANCH   1   9
TORSDOF 10
ENDMDL
