MODEL 1
REMARK VINA RESULT:     2.059      0.000      0.000
REMARK INTER + INTRA:           2.341
REMARK INTER:                   2.480
REMARK INTRA:                  -0.140
REMARK UNBOUND:                -0.140
REMARK SMILES O=c1c(O)c(-c2ccc(O)cc2O)oc2cc(O)cc(O)c12
REMARK SMILES IDX 5 1 3 2 2 3 1 4 22 5 20 6 19 7 17 8 16 9 15 10 14 11 6 12
REMARK SMILES IDX 8 13 7 14 9 15 11 16 12 17 10 18 13 20 4 22 21 24 18 26
REMARK H PARENT 10 19 13 21 4 23 21 25 18 27
REMARK Flexibility Score: inf
ROOT
ATOM      1  C   UNL     1       8.497  17.032  38.108  1.00  0.00     0.184 A 
ATOM      2  C   UNL     1       8.751  15.892  38.885  1.00  0.00     0.208 A 
ATOM      3  C   UNL     1       8.466  15.927  40.259  1.00  0.00     0.238 A 
ATOM      4  O   UNL     1       8.753  14.923  40.960  1.00  0.00    -0.285 OA
ATOM      5  C   UNL     1       7.905  17.093  40.832  1.00  0.00     0.111 A 
ATOM      6  C   UNL     1       7.540  17.228  42.205  1.00  0.00     0.134 A 
ATOM      7  C   UNL     1       7.106  18.469  42.686  1.00  0.00     0.093 A 
ATOM      8  C   UNL     1       6.963  19.563  41.833  1.00  0.00     0.123 A 
ATOM      9  C   UNL     1       7.262  19.428  40.477  1.00  0.00     0.094 A 
ATOM     10  C   UNL     1       7.731  18.212  39.974  1.00  0.00     0.146 A 
ATOM     11  O   UNL     1       8.018  18.130  38.681  1.00  0.00    -0.451 OA
ENDROOT
BRANCH   1  12
ATOM     12  C   UNL     1       8.755  17.046  36.652  1.00  0.00     0.063 A 
ATOM     13  C   UNL     1       9.953  17.988  34.755  1.00  0.00     0.047 A 
ATOM     14  C   UNL     1       9.650  17.989  36.118  1.00  0.00     0.020 A 
ATOM     15  C   UNL     1       9.373  17.043  33.907  1.00  0.00     0.119 A 
ATOM     16  C   UNL     1       8.481  16.097  34.427  1.00  0.00     0.093 A 
ATOM     17  C   UNL     1       8.161  16.093  35.790  1.00  0.00     0.130 A 
BRANCH  15  18
ATOM     18  O   UNL     1       9.689  17.051  32.550  1.00  0.00    -0.508 OA
ATOM     19  H   UNL     1      10.494  17.555  32.197  1.00  0.00     0.293 HD
ENDBRANCH  15  18
BRANCH  17  20
ATOM     20  O   UNL     1       7.237  15.151  36.248  1.00  0.00    -0.507 OA
ATOM     21  H   UNL     1       6.236  15.300  36.219  1.00  0.00     0.293 HD
ENDBRANCH  17  20
ENDBRANCH   1  12
BRANCH   2  22
ATOM     22  O   UNL     1       9.302  14.753  38.291  1.00  0.00    -0.502 OA
ATOM     23  H   UNL     1       8.730  14.006  37.917  1.00  0.00     0.293 HD
ENDBRANCH   2  22
BRANCH   6  24
ATOM     24  O   UNL     1       7.558  16.175  43.125  1.00  0.00    -0.507 OA
ATOM     25  H   UNL     1       8.386  15.827  43.586  1.00  0.00     0.293 HD
ENDBRANCH   6  24
BRANCH   8  26
ATOM     26  O   UNL     1       6.515  20.779  42.344  1.00  0.00    -0.508 OA
ATOM     27  H   UNL     1       7.157  21.464  42.723  1.00  0.00     0.293 HD
ENDBRANCH   8  26
TORSDOF 6
ENDMDL
MODEL 2
REMARK VINA RESULT:     4.461      1.222      2.949
REMARK INTER + INTRA:           5.234
REMARK INTER:                   5.178
REMARK INTRA:                   0.056
REMARK UNBOUND:                -0.140
REMARK SMILES O=c1c(O)c(-c2ccc(O)cc2O)oc2cc(O)cc(O)c12
REMARK SMILES IDX 5 1 3 2 2 3 1 4 22 5 20 6 19 7 17 8 16 9 15 10 14 11 6 12
REMARK SMILES IDX 8 13 7 14 9 15 11 16 12 17 10 18 13 20 4 22 21 24 18 26
REMARK H PARENT 10 19 13 21 4 23 21 25 18 27
REMARK Flexibility Score: inf
ROOT
ATOM      1  C   UNL     1       8.399  17.128  38.131  1.00  0.00     0.184 A 
ATOM      2  C   UNL     1       7.924  18.294  38.750  1.00  0.00     0.208 A 
ATOM      3  C   UNL     1       7.661  18.276  40.129  1.00  0.00     0.238 A 
ATOM      4  O   UNL     1       7.177  19.306  40.665  1.00  0.00    -0.285 OA
ATOM      5  C   UNL     1       7.904  17.098  40.875  1.00  0.00     0.111 A 
ATOM      6  C   UNL     1       7.711  16.976  42.285  1.00  0.00     0.134 A 
ATOM      7  C   UNL     1       7.868  15.727  42.898  1.00  0.00     0.093 A 
ATOM      8  C   UNL     1       8.272  14.611  42.166  1.00  0.00     0.123 A 
ATOM      9  C   UNL     1       8.520  14.730  40.798  1.00  0.00     0.094 A 
ATOM     10  C   UNL     1       8.337  15.955  40.151  1.00  0.00     0.146 A 
ATOM     11  O   UNL     1       8.570  16.023  38.846  1.00  0.00    -0.451 OA
ENDROOT
BRANCH   1  12
ATOM     12  C   UNL     1       8.716  17.096  36.687  1.00  0.00     0.063 A 
ATOM     13  C   UNL     1       9.622  18.217  34.727  1.00  0.00     0.047 A 
ATOM     14  C   UNL     1       9.262  18.238  36.076  1.00  0.00     0.020 A 
ATOM     15  C   UNL     1       9.449  17.056  33.971  1.00  0.00     0.119 A 
ATOM     16  C   UNL     1       8.908  15.912  34.570  1.00  0.00     0.093 A 
ATOM     17  C   UNL     1       8.533  15.922  35.919  1.00  0.00     0.130 A 
BRANCH  15  18
ATOM     18  O   UNL     1       9.817  17.049  32.628  1.00  0.00    -0.508 OA
ATOM     19  H   UNL     1      10.655  16.575  32.311  1.00  0.00     0.293 HD
ENDBRANCH  15  18
BRANCH  17  20
ATOM     20  O   UNL     1       7.965  14.764  36.455  1.00  0.00    -0.507 OA
ATOM     21  H   UNL     1       8.453  13.879  36.498  1.00  0.00     0.293 HD
ENDBRANCH  17  20
ENDBRANCH   1  12
BRANCH   2  22
ATOM     22  O   UNL     1       7.697  19.444  37.988  1.00  0.00    -0.502 OA
ATOM     23  H   UNL     1       8.094  20.343  38.231  1.00  0.00     0.293 HD
ENDBRANCH   2  22
BRANCH   6  24
ATOM     24  O   UNL     1       7.395  18.047  43.125  1.00  0.00    -0.507 OA
ATOM     25  H   UNL     1       7.986  18.850  43.282  1.00  0.00     0.293 HD
ENDBRANCH   6  24
BRANCH   8  26
ATOM     26  O   UNL     1       8.433  13.387  42.813  1.00  0.00    -0.508 OA
ATOM     27  H   UNL     1       8.424  12.512  42.302  1.00  0.00     0.293 HD
ENDBRANCH   8  26
TORSDOF 6
ENDMDL
