MODEL 1
REMARK VINA RESULT:    -3.397      0.000      0.000
REMARK INTER + INTRA:         -12.130
REMARK INTER:                  -8.958
REMARK INTRA:                  -3.172
REMARK UNBOUND:                -3.172
REMARK SMILES CCCCCCCCCCCCCCCCCCCCCCCCCCCCCC(=O)[O-]
REMARK SMILES IDX 16 1 17 2 18 3 19 4 20 5 21 6 22 7 23 8 24 9 25 10 26 11
REMARK SMILES IDX 27 12 28 13 29 14 30 15 31 16 32 17 15 18 14 19 13 20 12 21
REMARK SMILES IDX 11 22 10 23 9 24 8 25 7 26 6 27 5 28 4 29 3 30 2 31 1 32
REMARK H PARENT
REMARK Flexibility Score: inf
ROOT
ATOM      1  C   UNL     1       0.905   7.913  -6.513  1.00  0.00     0.000 C 
ENDROOT
BRANCH   1   2
ATOM      2  C   UNL     1       0.367   8.828  -5.393  1.00  0.00     0.000 C 
BRANCH   2   3
ATOM      3  C   UNL     1      -1.162   8.776  -5.226  1.00  0.00     0.000 C 
BRANCH   3   4
ATOM      4  C   UNL     1      -1.678   9.706  -4.114  1.00  0.00     0.000 C 
BRANCH   4   5
ATOM      5  C   UNL     1      -2.865   9.108  -3.344  1.00  0.00     0.000 C 
BRANCH   5   6
ATOM      6  C   UNL     1      -4.023  10.105  -3.166  1.00  0.00     0.000 C 
BRANCH   6   7
ATOM      7  C   UNL     1      -5.343   9.576  -3.769  1.00  0.00     0.000 C 
BRANCH   7   8
ATOM      8  C   UNL     1      -5.450   9.766  -5.292  1.00  0.00     0.000 C 
BRANCH   8   9
ATOM      9  C   UNL     1      -6.424   8.783  -5.954  1.00  0.00     0.000 C 
BRANCH   9  10
ATOM     10  C   UNL     1      -7.252   9.472  -7.045  1.00  0.00     0.000 C 
BRANCH  10  11
ATOM     11  C   UNL     1      -8.718   9.014  -6.992  1.00  0.00     0.000 C 
BRANCH  11  12
ATOM     12  C   UNL     1      -9.112   8.417  -5.629  1.00  0.00     0.000 C 
BRANCH  12  13
ATOM     13  C   UNL     1      -9.761   7.019  -5.692  1.00  0.00     0.006 C 
BRANCH  13  14
ATOM     14  C   UNL     1      -8.781   5.873  -5.987  1.00  0.00     0.053 C 
BRANCH  14  15
ATOM     15  C   UNL     1      -8.946   5.334  -7.374  1.00  0.00     0.041 C 
ATOM     16  O   UNL     1      -9.434   6.058  -8.280  1.00  0.00    -0.550 OA
ATOM     17  O   UNL     1      -8.589   4.022  -7.659  1.00  0.00    -0.550 OA
ENDBRANCH  14  15
ENDBRANCH  13  14
ENDBRANCH  12  13
ENDBRANCH  11  12
ENDBRANCH  10  11
ENDBRANCH   9  10
ENDBRANCH   8   9
ENDBRANCH   7   8
ENDBRANCH   6   7
ENDBRANCH   5   6
ENDBRANCH   4   5
ENDBRANCH   3   4
ENDBRANCH   2   3
ENDBRANCH   1   2
BRANCH   1  18
ATOM     18  C   UNL     1       2.011   6.963  -6.016  1.00  0.00     0.000 C 
BRANCH  18  19
ATOM     19  C   UNL     1       2.817   6.336  -7.165  1.00  0.00     0.000 C 
BRANCH  19  20
ATOM     20  C   UNL     1       3.616   7.378  -7.967  1.00  0.00     0.000 C 
BRANCH  20  21
ATOM     21  C   UNL     1       3.199   7.422  -9.447  1.00  0.00     0.000 C 
BRANCH  21  22
ATOM     22  C   UNL     1       3.575   8.752 -10.125  1.00  0.00     0.000 C 
BRANCH  22  23
ATOM     23  C   UNL     1       2.793   9.946  -9.553  1.00  0.00     0.000 C 
BRANCH  23  24
ATOM     24  C   UNL     1       1.367  10.045 -10.124  1.00  0.00    -0.000 C 
BRANCH  24  25
ATOM     25  C   UNL     1       0.393   9.064  -9.435  1.00  0.00    -0.000 C 
BRANCH  25  26
ATOM     26  C   UNL     1      -1.089   9.416  -9.651  1.00  0.00    -0.000 C 
BRANCH  26  27
ATOM     27  C   UNL     1      -2.009   8.815  -8.576  1.00  0.00    -0.000 C 
BRANCH  27  28
ATOM     28  C   UNL     1      -3.457   9.343  -8.682  1.00  0.00    -0.000 C 
BRANCH  28  29
ATOM     29  C   UNL     1      -4.488   8.254  -9.026  1.00  0.00    -0.000 C 
BRANCH  29  30
ATOM     30  C   UNL     1      -3.857   6.859  -9.167  1.00  0.00    -0.000 C 
BRANCH  30  31
ATOM     31  C   UNL     1      -4.465   5.835  -8.196  1.00  0.00    -0.003 C 
ATOM     32  C   UNL     1      -3.935   5.981  -6.769  1.00  0.00     0.004 C 
ENDBRANCH  30  31
ENDBRANCH  29  30
ENDBRANCH  28  29
ENDBRANCH  27  28
ENDBRANCH  26  27
ENDBRANCH  25  26
ENDBRANCH  24  25
ENDBRANCH  23  24
ENDBRANCH  22  23
ENDBRANCH  21  22
ENDBRANCH  20  21
ENDBRANCH  19  20
ENDBRANCH  18  19
ENDBRANCH   1  18
TORSDOF 28
ENDMDL
MODEL 2
REMARK VINA RESULT:    -3.161      3.182      6.702
REMARK INTER + INTRA:         -11.506
REMARK INTER:                  -8.961
REMARK INTRA:                  -2.545
REMARK UNBOUND:                -3.172
REMARK SMILES CCCCCCCCCCCCCCCCCCCCCCCCCCCCCC(=O)[O-]
REMARK SMILES IDX 16 1 17 2 18 3 19 4 20 5 21 6 22 7 23 8 24 9 25 10 26 11
REMARK SMILES IDX 27 12 28 13 29 14 30 15 31 16 32 17 15 18 14 19 13 20 12 21
REMARK SMILES IDX 11 22 10 23 9 24 8 25 7 26 6 27 5 28 4 29 3 30 2 31 1 32
REMARK H PARENT
REMARK Flexibility Score: inf
ROOT
ATOM      1  C   UNL     1      -0.817   8.233  -5.875  1.00  0.00     0.000 C 
ENDROOT
BRANCH   1   2
ATOM      2  C   UNL     1      -1.473   8.736  -4.572  1.00  0.00     0.000 C 
BRANCH   2   3
ATOM      3  C   UNL     1      -2.403   9.946  -4.768  1.00  0.00     0.000 C 
BRANCH   3   4
ATOM      4  C   UNL     1      -3.542   9.674  -5.765  1.00  0.00     0.000 C 
BRANCH   4   5
ATOM      5  C   UNL     1      -3.174  10.061  -7.205  1.00  0.00     0.000 C 
BRANCH   5   6
ATOM      6  C   UNL     1      -3.358   8.902  -8.200  1.00  0.00     0.000 C 
BRANCH   6   7
ATOM      7  C   UNL     1      -3.840   7.610  -7.505  1.00  0.00     0.000 C 
BRANCH   7   8
ATOM      8  C   UNL     1      -4.856   6.802  -8.331  1.00  0.00     0.000 C 
BRANCH   8   9
ATOM      9  C   UNL     1      -5.433   7.590  -9.514  1.00  0.00     0.000 C 
BRANCH   9  10
ATOM     10  C   UNL     1      -6.860   8.066  -9.221  1.00  0.00     0.000 C 
BRANCH  10  11
ATOM     11  C   UNL     1      -6.911   8.873  -7.914  1.00  0.00     0.000 C 
BRANCH  11  12
ATOM     12  C   UNL     1      -8.294   8.839  -7.240  1.00  0.00     0.000 C 
BRANCH  12  13
ATOM     13  C   UNL     1      -8.268   8.806  -5.698  1.00  0.00     0.006 C 
BRANCH  13  14
ATOM     14  C   UNL     1      -6.984   8.218  -5.093  1.00  0.00     0.053 C 
BRANCH  14  15
ATOM     15  C   UNL     1      -6.981   6.721  -5.129  1.00  0.00     0.041 C 
ATOM     16  O   UNL     1      -5.978   6.080  -4.719  1.00  0.00    -0.550 OA
ATOM     17  O   UNL     1      -8.075   6.033  -5.640  1.00  0.00    -0.550 OA
ENDBRANCH  14  15
ENDBRANCH  13  14
ENDBRANCH  12  13
ENDBRANCH  11  12
ENDBRANCH  10  11
ENDBRANCH   9  10
ENDBRANCH   8   9
ENDBRANCH   7   8
ENDBRANCH   6   7
ENDBRANCH   5   6
ENDBRANCH   4   5
ENDBRANCH   3   4
ENDBRANCH   2   3
ENDBRANCH   1   2
BRANCH   1  18
ATOM     18  C   UNL     1       0.560   8.876  -6.126  1.00  0.00     0.000 C 
BRANCH  18  19
ATOM     19  C   UNL     1       0.711   9.420  -7.556  1.00  0.00     0.000 C 
BRANCH  19  20
ATOM     20  C   UNL     1       1.497   8.466  -8.473  1.00  0.00     0.000 C 
BRANCH  20  21
ATOM     21  C   UNL     1       2.453   7.554  -7.684  1.00  0.00     0.000 C 
BRANCH  21  22
ATOM     22  C   UNL     1       3.849   7.471  -8.327  1.00  0.00     0.000 C 
BRANCH  22  23
ATOM     23  C   UNL     1       3.998   8.408  -9.536  1.00  0.00     0.000 C 
BRANCH  23  24
ATOM     24  C   UNL     1       5.420   8.392 -10.124  1.00  0.00    -0.000 C 
BRANCH  24  25
ATOM     25  C   UNL     1       6.299   7.288  -9.498  1.00  0.00    -0.000 C 
BRANCH  25  26
ATOM     26  C   UNL     1       7.805   7.489  -9.740  1.00  0.00    -0.000 C 
BRANCH  26  27
ATOM     27  C   UNL     1       8.180   8.961  -9.982  1.00  0.00    -0.000 C 
BRANCH  27  28
ATOM     28  C   UNL     1       9.507   9.347  -9.293  1.00  0.00    -0.000 C 
BRANCH  28  29
ATOM     29  C   UNL     1       9.984   8.320  -8.252  1.00  0.00    -0.000 C 
BRANCH  29  30
ATOM     30  C   UNL     1      10.121   8.918  -6.842  1.00  0.00    -0.000 C 
BRANCH  30  31
ATOM     31  C   UNL     1       9.912   7.873  -5.734  1.00  0.00    -0.003 C 
ATOM     32  C   UNL     1       8.639   8.115  -4.922  1.00  0.00     0.004 C 
ENDBRANCH  30  31
ENDBRANCH  29  30
ENDBRANCH  28  29
ENDBRANCH  27  28
ENDBRANCH  26  27
ENDBRANCH  25  26
ENDBRANCH  24  25
ENDBRANCH  23  24
ENDBRANCH  22  23
ENDBRANCH  21  22
ENDBRANCH  20  21
ENDBRANCH  19  20
ENDBRANCH  18  19
ENDBRANCH   1  18
TORSDOF 28
ENDMDL
MODEL 3
REMARK VINA RESULT:    -3.005      5.243     11.300
REMARK INTER + INTRA:         -11.096
REMARK INTER:                  -9.679
REMARK INTRA:                  -1.417
REMARK UNBOUND:                -3.172
REMARK SMILES CCCCCCCCCCCCCCCCCCCCCCCCCCCCCC(=O)[O-]
REMARK SMILES IDX 16 1 17 2 18 3 19 4 20 5 21 6 22 7 23 8 24 9 25 10 26 11
REMARK SMILES IDX 27 12 28 13 29 14 30 15 31 16 32 17 15 18 14 19 13 20 12 21
REMARK SMILES IDX 11 22 10 23 9 24 8 25 7 26 6 27 5 28 4 29 3 30 2 31 1 32
REMARK H PARENT
REMARK Flexibility Score: inf
ROOT
ATOM      1  C   UNL     1      -3.615   8.574  -5.494  1.00  0.00     0.000 C 
ENDROOT
BRANCH   1   2
ATOM      2  C   UNL     1      -3.170   9.803  -6.313  1.00  0.00     0.000 C 
BRANCH   2   3
ATOM      3  C   UNL     1      -1.664  10.106  -6.215  1.00  0.00     0.000 C 
BRANCH   3   4
ATOM      4  C   UNL     1      -0.784   8.876  -6.493  1.00  0.00     0.000 C 
BRANCH   4   5
ATOM      5  C   UNL     1       0.661   9.250  -6.858  1.00  0.00     0.000 C 
BRANCH   5   6
ATOM      6  C   UNL     1       1.537   8.023  -7.164  1.00  0.00     0.000 C 
BRANCH   6   7
ATOM      7  C   UNL     1       2.523   8.286  -8.323  1.00  0.00     0.000 C 
BRANCH   7   8
ATOM      8  C   UNL     1       3.145   7.007  -8.911  1.00  0.00     0.000 C 
BRANCH   8   9
ATOM      9  C   UNL     1       4.124   7.287 -10.059  1.00  0.00     0.000 C 
BRANCH   9  10
ATOM     10  C   UNL     1       5.405   7.954  -9.545  1.00  0.00     0.000 C 
BRANCH  10  11
ATOM     11  C   UNL     1       6.651   7.237 -10.086  1.00  0.00     0.000 C 
BRANCH  11  12
ATOM     12  C   UNL     1       7.905   8.130 -10.091  1.00  0.00     0.000 C 
BRANCH  12  13
ATOM     13  C   UNL     1       9.237   7.386  -9.865  1.00  0.00     0.006 C 
BRANCH  13  14
ATOM     14  C   UNL     1       9.816   7.528  -8.449  1.00  0.00     0.053 C 
BRANCH  14  15
ATOM     15  C   UNL     1       9.285   8.737  -7.744  1.00  0.00     0.041 C 
ATOM     16  O   UNL     1       9.016   8.686  -6.515  1.00  0.00    -0.550 OA
ATOM     17  O   UNL     1       9.059   9.913  -8.448  1.00  0.00    -0.550 OA
ENDBRANCH  14  15
ENDBRANCH  13  14
ENDBRANCH  12  13
ENDBRANCH  11  12
ENDBRANCH  10  11
ENDBRANCH   9  10
ENDBRANCH   8   9
ENDBRANCH   7   8
ENDBRANCH   6   7
ENDBRANCH   5   6
ENDBRANCH   4   5
ENDBRANCH   3   4
ENDBRANCH   2   3
ENDBRANCH   1   2
BRANCH   1  18
ATOM     18  C   UNL     1      -4.537   8.953  -4.319  1.00  0.00     0.000 C 
BRANCH  18  19
ATOM     19  C   UNL     1      -5.846   9.616  -4.780  1.00  0.00     0.000 C 
BRANCH  19  20
ATOM     20  C   UNL     1      -6.982   8.599  -4.994  1.00  0.00     0.000 C 
BRANCH  20  21
ATOM     21  C   UNL     1      -8.051   9.117  -5.972  1.00  0.00     0.000 C 
BRANCH  21  22
ATOM     22  C   UNL     1      -9.404   8.405  -5.792  1.00  0.00     0.000 C 
BRANCH  22  23
ATOM     23  C   UNL     1      -9.246   6.930  -5.391  1.00  0.00     0.000 C 
BRANCH  23  24
ATOM     24  C   UNL     1      -8.609   6.081  -6.505  1.00  0.00    -0.000 C 
BRANCH  24  25
ATOM     25  C   UNL     1      -9.585   5.822  -7.673  1.00  0.00    -0.000 C 
BRANCH  25  26
ATOM     26  C   UNL     1      -9.240   6.610  -8.949  1.00  0.00    -0.000 C 
BRANCH  26  27
ATOM     27  C   UNL     1      -7.833   7.229  -8.907  1.00  0.00    -0.000 C 
BRANCH  27  28
ATOM     28  C   UNL     1      -6.952   6.758 -10.085  1.00  0.00    -0.000 C 
BRANCH  28  29
ATOM     29  C   UNL     1      -6.108   5.513  -9.766  1.00  0.00    -0.000 C 
BRANCH  29  30
ATOM     30  C   UNL     1      -4.602   5.742  -9.979  1.00  0.00    -0.000 C 
BRANCH  30  31
ATOM     31  C   UNL     1      -3.921   6.368  -8.751  1.00  0.00    -0.003 C 
ATOM     32  C   UNL     1      -4.165   5.574  -7.467  1.00  0.00     0.004 C 
ENDBRANCH  30  31
ENDBRANCH  29  30
ENDBRANCH  28  29
ENDBRANCH  27  28
ENDBRANCH  26  27
ENDBRANCH  25  26
ENDBRANCH  24  25
ENDBRANCH  23  24
ENDBRANCH  22  23
ENDBRANCH  21  22
ENDBRANCH  20  21
ENDBRANCH  19  20
ENDBRANCH  18  19
ENDBRANCH   1  18
TORSDOF 28
ENDMDL
MODEL 4
REMARK VINA RESULT:    -2.947      5.060     10.808
REMARK INTER + INTRA:         -10.942
REMARK INTER:                  -8.586
REMARK INTRA:                  -2.355
REMARK UNBOUND:                -3.172
REMARK SMILES CCCCCCCCCCCCCCCCCCCCCCCCCCCCCC(=O)[O-]
REMARK SMILES IDX 16 1 17 2 18 3 19 4 20 5 21 6 22 7 23 8 24 9 25 10 26 11
REMARK SMILES IDX 27 12 28 13 29 14 30 15 31 16 32 17 15 18 14 19 13 20 12 21
REMARK SMILES IDX 11 22 10 23 9 24 8 25 7 26 6 27 5 28 4 29 3 30 2 31 1 32
REMARK H PARENT
REMARK Flexibility Score: inf
ROOT
ATOM      1  C   UNL     1      -3.975   6.827  -7.074  1.00  0.00     0.000 C 
ENDROOT
BRANCH   1   2
ATOM      2  C   UNL     1      -3.103   7.966  -6.505  1.00  0.00     0.000 C 
BRANCH   2   3
ATOM      3  C   UNL     1      -2.130   8.578  -7.528  1.00  0.00     0.000 C 
BRANCH   3   4
ATOM      4  C   UNL     1      -1.117   9.544  -6.891  1.00  0.00     0.000 C 
BRANCH   4   5
ATOM      5  C   UNL     1       0.030   9.914  -7.844  1.00  0.00     0.000 C 
BRANCH   5   6
ATOM      6  C   UNL     1       0.025   9.078  -9.136  1.00  0.00     0.000 C 
BRANCH   6   7
ATOM      7  C   UNL     1       1.382   9.135  -9.870  1.00  0.00     0.000 C 
BRANCH   7   8
ATOM      8  C   UNL     1       2.598   9.145  -8.928  1.00  0.00     0.000 C 
BRANCH   8   9
ATOM      9  C   UNL     1       2.753   7.843  -8.130  1.00  0.00     0.000 C 
BRANCH   9  10
ATOM     10  C   UNL     1       4.050   7.116  -8.502  1.00  0.00     0.000 C 
BRANCH  10  11
ATOM     11  C   UNL     1       4.662   7.706  -9.782  1.00  0.00     0.000 C 
BRANCH  11  12
ATOM     12  C   UNL     1       6.042   7.112 -10.118  1.00  0.00     0.000 C 
BRANCH  12  13
ATOM     13  C   UNL     1       7.231   8.076  -9.932  1.00  0.00     0.006 C 
BRANCH  13  14
ATOM     14  C   UNL     1       8.386   7.511  -9.092  1.00  0.00     0.053 C 
BRANCH  14  15
ATOM     15  C   UNL     1       9.022   8.560  -8.233  1.00  0.00     0.041 C 
ATOM     16  O   UNL     1      10.000   9.225  -8.666  1.00  0.00    -0.550 OA
ATOM     17  O   UNL     1       8.555   8.784  -6.944  1.00  0.00    -0.550 OA
ENDBRANCH  14  15
ENDBRANCH  13  14
ENDBRANCH  12  13
ENDBRANCH  11  12
ENDBRANCH  10  11
ENDBRANCH   9  10
ENDBRANCH   8   9
ENDBRANCH   7   8
ENDBRANCH   6   7
ENDBRANCH   5   6
ENDBRANCH   4   5
ENDBRANCH   3   4
ENDBRANCH   2   3
ENDBRANCH   1   2
BRANCH   1  18
ATOM     18  C   UNL     1      -3.487   6.346  -8.454  1.00  0.00     0.000 C 
BRANCH  18  19
ATOM     19  C   UNL     1      -4.451   5.344  -9.110  1.00  0.00     0.000 C 
BRANCH  19  20
ATOM     20  C   UNL     1      -5.925   5.626  -8.764  1.00  0.00     0.000 C 
BRANCH  20  21
ATOM     21  C   UNL     1      -6.444   6.912  -9.430  1.00  0.00     0.000 C 
BRANCH  21  22
ATOM     22  C   UNL     1      -7.940   6.828  -9.783  1.00  0.00     0.000 C 
BRANCH  22  23
ATOM     23  C   UNL     1      -8.495   5.400  -9.657  1.00  0.00     0.000 C 
BRANCH  23  24
ATOM     24  C   UNL     1      -9.397   5.224  -8.423  1.00  0.00    -0.000 C 
BRANCH  24  25
ATOM     25  C   UNL     1      -8.598   4.808  -7.170  1.00  0.00    -0.000 C 
BRANCH  25  26
ATOM     26  C   UNL     1      -8.951   5.625  -5.915  1.00  0.00    -0.000 C 
BRANCH  26  27
ATOM     27  C   UNL     1      -9.554   7.000  -6.248  1.00  0.00    -0.000 C 
BRANCH  27  28
ATOM     28  C   UNL     1      -9.530   7.958  -5.036  1.00  0.00    -0.000 C 
BRANCH  28  29
ATOM     29  C   UNL     1      -8.175   8.656  -4.829  1.00  0.00    -0.000 C 
BRANCH  29  30
ATOM     30  C   UNL     1      -7.390   8.838  -6.139  1.00  0.00    -0.000 C 
BRANCH  30  31
ATOM     31  C   UNL     1      -6.173   9.762  -5.974  1.00  0.00    -0.003 C 
ATOM     32  C   UNL     1      -5.553   9.685  -4.579  1.00  0.00     0.004 C 
ENDBRANCH  30  31
ENDBRANCH  29  30
ENDBRANCH  28  29
ENDBRANCH  27  28
ENDBRANCH  26  27
ENDBRANCH  25  26
ENDBRANCH  24  25
ENDBRANCH  23  24
ENDBRANCH  22  23
ENDBRANCH  21  22
ENDBRANCH  20  21
ENDBRANCH  19  20
ENDBRANCH  18  19
ENDBRANCH   1  18
TORSDOF 28
ENDMDL
MODEL 5
REMARK VINA RESULT:    -2.852      1.268      5.453
REMARK INTER + INTRA:         -10.693
REMARK INTER:                  -7.544
REMARK INTRA:                  -3.149
REMARK UNBOUND:                -3.172
REMARK SMILES CCCCCCCCCCCCCCCCCCCCCCCCCCCCCC(=O)[O-]
REMARK SMILES IDX 16 1 17 2 18 3 19 4 20 5 21 6 22 7 23 8 24 9 25 10 26 11
REMARK SMILES IDX 27 12 28 13 29 14 30 15 31 16 32 17 15 18 14 19 13 20 12 21
REMARK SMILES IDX 11 22 10 23 9 24 8 25 7 26 6 27 5 28 4 29 3 30 2 31 1 32
REMARK H PARENT
REMARK Flexibility Score: inf
ROOT
ATOM      1  C   UNL     1       2.901   6.609  -7.821  1.00  0.00     0.000 C 
ENDROOT
BRANCH   1   2
ATOM      2  C   UNL     1       3.528   7.894  -8.402  1.00  0.00     0.000 C 
BRANCH   2   3
ATOM      3  C   UNL     1       3.116   8.188  -9.855  1.00  0.00     0.000 C 
BRANCH   3   4
ATOM      4  C   UNL     1       1.626   7.916 -10.125  1.00  0.00     0.000 C 
BRANCH   4   5
ATOM      5  C   UNL     1       0.740   9.140  -9.849  1.00  0.00     0.000 C 
BRANCH   5   6
ATOM      6  C   UNL     1      -0.400   8.840  -8.859  1.00  0.00     0.000 C 
BRANCH   6   7
ATOM      7  C   UNL     1      -1.314  10.065  -8.637  1.00  0.00     0.000 C 
BRANCH   7   8
ATOM      8  C   UNL     1      -2.589  10.052  -9.498  1.00  0.00     0.000 C 
BRANCH   8   9
ATOM      9  C   UNL     1      -3.190   8.650  -9.662  1.00  0.00     0.000 C 
BRANCH   9  10
ATOM     10  C   UNL     1      -4.438   8.476  -8.789  1.00  0.00     0.000 C 
BRANCH  10  11
ATOM     11  C   UNL     1      -4.348   7.189  -7.955  1.00  0.00     0.000 C 
BRANCH  11  12
ATOM     12  C   UNL     1      -5.070   5.997  -8.608  1.00  0.00     0.000 C 
BRANCH  12  13
ATOM     13  C   UNL     1      -6.568   5.870  -8.260  1.00  0.00     0.006 C 
BRANCH  13  14
ATOM     14  C   UNL     1      -6.867   5.765  -6.757  1.00  0.00     0.053 C 
BRANCH  14  15
ATOM     15  C   UNL     1      -8.163   5.062  -6.490  1.00  0.00     0.041 C 
ATOM     16  O   UNL     1      -8.655   5.061  -5.332  1.00  0.00    -0.550 OA
ATOM     17  O   UNL     1      -8.812   4.384  -7.514  1.00  0.00    -0.550 OA
ENDBRANCH  14  15
ENDBRANCH  13  14
ENDBRANCH  12  13
ENDBRANCH  11  12
ENDBRANCH  10  11
ENDBRANCH   9  10
ENDBRANCH   8   9
ENDBRANCH   7   8
ENDBRANCH   6   7
ENDBRANCH   5   6
ENDBRANCH   4   5
ENDBRANCH   3   4
ENDBRANCH   2   3
ENDBRANCH   1   2
BRANCH   1  18
ATOM     18  C   UNL     1       2.319   6.825  -6.411  1.00  0.00     0.000 C 
BRANCH  18  19
ATOM     19  C   UNL     1       1.190   7.868  -6.387  1.00  0.00     0.000 C 
BRANCH  19  20
ATOM     20  C   UNL     1       0.393   7.848  -5.070  1.00  0.00     0.000 C 
BRANCH  20  21
ATOM     21  C   UNL     1      -0.805   8.814  -5.098  1.00  0.00     0.000 C 
BRANCH  21  22
ATOM     22  C   UNL     1      -1.603   8.798  -3.781  1.00  0.00     0.000 C 
BRANCH  22  23
ATOM     23  C   UNL     1      -2.835   9.716  -3.828  1.00  0.00     0.000 C 
BRANCH  23  24
ATOM     24  C   UNL     1      -3.453   9.802  -5.235  1.00  0.00    -0.000 C 
BRANCH  24  25
ATOM     25  C   UNL     1      -4.859   9.167  -5.294  1.00  0.00    -0.000 C 
BRANCH  25  26
ATOM     26  C   UNL     1      -5.945  10.124  -5.815  1.00  0.00    -0.000 C 
BRANCH  26  27
ATOM     27  C   UNL     1      -7.154   9.387  -6.416  1.00  0.00    -0.000 C 
BRANCH  27  28
ATOM     28  C   UNL     1      -8.148   8.914  -5.332  1.00  0.00    -0.000 C 
BRANCH  28  29
ATOM     29  C   UNL     1      -9.541   8.565  -5.882  1.00  0.00    -0.000 C 
BRANCH  29  30
ATOM     30  C   UNL     1      -9.854   9.279  -7.208  1.00  0.00    -0.000 C 
BRANCH  30  31
ATOM     31  C   UNL     1      -9.122   8.649  -8.404  1.00  0.00    -0.003 C 
ATOM     32  C   UNL     1      -9.790   7.368  -8.904  1.00  0.00     0.004 C 
ENDBRANCH  30  31
ENDBRANCH  29  30
ENDBRANCH  28  29
ENDBRANCH  27  28
ENDBRANCH  26  27
ENDBRANCH  25  26
ENDBRANCH  24  25
ENDBRANCH  23  24
ENDBRANCH  22  23
ENDBRANCH  21  22
ENDBRANCH  20  21
ENDBRANCH  19  20
ENDBRANCH  18  19
ENDBRANCH   1  18
TORSDOF 28
ENDMDL
MODEL 6
REMARK VINA RESULT:    -2.843      3.028      7.195
REMARK INTER + INTRA:         -10.669
REMARK INTER:                  -8.099
REMARK INTRA:                  -2.571
REMARK UNBOUND:                -3.172
REMARK SMILES CCCCCCCCCCCCCCCCCCCCCCCCCCCCCC(=O)[O-]
REMARK SMILES IDX 16 1 17 2 18 3 19 4 20 5 21 6 22 7 23 8 24 9 25 10 26 11
REMARK SMILES IDX 27 12 28 13 29 14 30 15 31 16 32 17 15 18 14 19 13 20 12 21
REMARK SMILES IDX 11 22 10 23 9 24 8 25 7 26 6 27 5 28 4 29 3 30 2 31 1 32
REMARK H PARENT
REMARK Flexibility Score: inf
ROOT
ATOM      1  C   UNL     1      -4.614   5.602  -7.756  1.00  0.00     0.000 C 
ENDROOT
BRANCH   1   2
ATOM      2  C   UNL     1      -5.964   6.282  -8.064  1.00  0.00     0.000 C 
BRANCH   2   3
ATOM      3  C   UNL     1      -6.721   5.659  -9.250  1.00  0.00     0.000 C 
BRANCH   3   4
ATOM      4  C   UNL     1      -7.631   6.663  -9.977  1.00  0.00     0.000 C 
BRANCH   4   5
ATOM      5  C   UNL     1      -8.345   7.622  -9.013  1.00  0.00     0.000 C 
BRANCH   5   6
ATOM      6  C   UNL     1      -9.797   7.204  -8.722  1.00  0.00     0.000 C 
BRANCH   6   7
ATOM      7  C   UNL     1     -10.043   6.967  -7.215  1.00  0.00     0.000 C 
BRANCH   7   8
ATOM      8  C   UNL     1      -8.831   6.377  -6.474  1.00  0.00     0.000 C 
BRANCH   8   9
ATOM      9  C   UNL     1      -8.431   7.188  -5.234  1.00  0.00     0.000 C 
BRANCH   9  10
ATOM     10  C   UNL     1      -9.084   8.575  -5.244  1.00  0.00     0.000 C 
BRANCH  10  11
ATOM     11  C   UNL     1      -8.204   9.590  -5.990  1.00  0.00     0.000 C 
BRANCH  11  12
ATOM     12  C   UNL     1      -6.731   9.152  -6.086  1.00  0.00     0.000 C 
BRANCH  12  13
ATOM     13  C   UNL     1      -6.002   9.008  -4.734  1.00  0.00     0.006 C 
BRANCH  13  14
ATOM     14  C   UNL     1      -4.703   8.190  -4.793  1.00  0.00     0.053 C 
BRANCH  14  15
ATOM     15  C   UNL     1      -3.518   8.984  -4.335  1.00  0.00     0.041 C 
ATOM     16  O   UNL     1      -2.371   8.723  -4.782  1.00  0.00    -0.550 OA
ATOM     17  O   UNL     1      -3.676   9.993  -3.393  1.00  0.00    -0.550 OA
ENDBRANCH  14  15
ENDBRANCH  13  14
ENDBRANCH  12  13
ENDBRANCH  11  12
ENDBRANCH  10  11
ENDBRANCH   9  10
ENDBRANCH   8   9
ENDBRANCH   7   8
ENDBRANCH   6   7
ENDBRANCH   5   6
ENDBRANCH   4   5
ENDBRANCH   3   4
ENDBRANCH   2   3
ENDBRANCH   1   2
BRANCH   1  18
ATOM     18  C   UNL     1      -3.431   6.587  -7.820  1.00  0.00     0.000 C 
BRANCH  18  19
ATOM     19  C   UNL     1      -3.855   7.999  -8.256  1.00  0.00     0.000 C 
BRANCH  19  20
ATOM     20  C   UNL     1      -3.524   8.288  -9.731  1.00  0.00     0.000 C 
BRANCH  20  21
ATOM     21  C   UNL     1      -2.009   8.358  -9.986  1.00  0.00     0.000 C 
BRANCH  21  22
ATOM     22  C   UNL     1      -1.272   9.190  -8.920  1.00  0.00     0.000 C 
BRANCH  22  23
ATOM     23  C   UNL     1       0.039   9.795  -9.447  1.00  0.00     0.000 C 
BRANCH  23  24
ATOM     24  C   UNL     1       1.182   9.713  -8.420  1.00  0.00    -0.000 C 
BRANCH  24  25
ATOM     25  C   UNL     1       1.711   8.273  -8.249  1.00  0.00    -0.000 C 
BRANCH  25  26
ATOM     26  C   UNL     1       2.666   7.831  -9.372  1.00  0.00    -0.000 C 
BRANCH  26  27
ATOM     27  C   UNL     1       4.118   7.671  -8.893  1.00  0.00    -0.000 C 
BRANCH  27  28
ATOM     28  C   UNL     1       5.138   7.913 -10.027  1.00  0.00    -0.000 C 
BRANCH  28  29
ATOM     29  C   UNL     1       6.565   7.453  -9.683  1.00  0.00    -0.000 C 
BRANCH  29  30
ATOM     30  C   UNL     1       7.640   8.460 -10.124  1.00  0.00    -0.000 C 
BRANCH  30  31
ATOM     31  C   UNL     1       8.730   8.664  -9.059  1.00  0.00    -0.003 C 
ATOM     32  C   UNL     1       9.421   7.360  -8.659  1.00  0.00     0.004 C 
ENDBRANCH  30  31
ENDBRANCH  29  30
ENDBRANCH  28  29
ENDBRANCH  27  28
ENDBRANCH  26  27
ENDBRANCH  25  26
ENDBRANCH  24  25
ENDBRANCH  23  24
ENDBRANCH  22  23
ENDBRANCH  21  22
ENDBRANCH  20  21
ENDBRANCH  19  20
ENDBRANCH  18  19
ENDBRANCH   1  18
TORSDOF 28
ENDMDL
MODEL 7
REMARK VINA RESULT:    -2.766      3.270      6.739
REMARK INTER + INTRA:         -10.465
REMARK INTER:                  -8.582
REMARK INTRA:                  -1.883
REMARK UNBOUND:                -3.172
REMARK SMILES CCCCCCCCCCCCCCCCCCCCCCCCCCCCCC(=O)[O-]
REMARK SMILES IDX 16 1 17 2 18 3 19 4 20 5 21 6 22 7 23 8 24 9 25 10 26 11
REMARK SMILES IDX 27 12 28 13 29 14 30 15 31 16 32 17 15 18 14 19 13 20 12 21
REMARK SMILES IDX 11 22 10 23 9 24 8 25 7 26 6 27 5 28 4 29 3 30 2 31 1 32
REMARK H PARENT
REMARK Flexibility Score: inf
ROOT
ATOM      1  C   UNL     1      -0.759   8.268  -5.838  1.00  0.00     0.000 C 
ENDROOT
BRANCH   1   2
ATOM      2  C   UNL     1      -1.507   8.587  -4.526  1.00  0.00     0.000 C 
BRANCH   2   3
ATOM      3  C   UNL     1      -2.694   9.550  -4.702  1.00  0.00     0.000 C 
BRANCH   3   4
ATOM      4  C   UNL     1      -3.690   9.087  -5.779  1.00  0.00     0.000 C 
BRANCH   4   5
ATOM      5  C   UNL     1      -3.994   7.584  -5.698  1.00  0.00     0.000 C 
BRANCH   5   6
ATOM      6  C   UNL     1      -5.433   7.290  -5.237  1.00  0.00     0.000 C 
BRANCH   6   7
ATOM      7  C   UNL     1      -6.430   8.365  -5.723  1.00  0.00     0.000 C 
BRANCH   7   8
ATOM      8  C   UNL     1      -7.905   7.940  -5.609  1.00  0.00     0.000 C 
BRANCH   8   9
ATOM      9  C   UNL     1      -8.093   6.418  -5.587  1.00  0.00     0.000 C 
BRANCH   9  10
ATOM     10  C   UNL     1      -8.701   5.916  -6.902  1.00  0.00     0.000 C 
BRANCH  10  11
ATOM     11  C   UNL     1      -8.032   6.592  -8.109  1.00  0.00     0.000 C 
BRANCH  11  12
ATOM     12  C   UNL     1      -7.979   5.687  -9.353  1.00  0.00     0.000 C 
BRANCH  12  13
ATOM     13  C   UNL     1      -6.560   5.327  -9.839  1.00  0.00     0.006 C 
BRANCH  13  14
ATOM     14  C   UNL     1      -5.564   6.497  -9.824  1.00  0.00     0.053 C 
BRANCH  14  15
ATOM     15  C   UNL     1      -4.180   6.053  -9.466  1.00  0.00     0.041 C 
ATOM     16  O   UNL     1      -3.182   6.705  -9.868  1.00  0.00    -0.550 OA
ATOM     17  O   UNL     1      -3.991   4.902  -8.712  1.00  0.00    -0.550 OA
ENDBRANCH  14  15
ENDBRANCH  13  14
ENDBRANCH  12  13
ENDBRANCH  11  12
ENDBRANCH  10  11
ENDBRANCH   9  10
ENDBRANCH   8   9
ENDBRANCH   7   8
ENDBRANCH   6   7
ENDBRANCH   5   6
ENDBRANCH   4   5
ENDBRANCH   3   4
ENDBRANCH   2   3
ENDBRANCH   1   2
BRANCH   1  18
ATOM     18  C   UNL     1       0.549   9.069  -5.978  1.00  0.00     0.000 C 
BRANCH  18  19
ATOM     19  C   UNL     1       0.669   9.779  -7.337  1.00  0.00     0.000 C 
BRANCH  19  20
ATOM     20  C   UNL     1       1.344   8.901  -8.406  1.00  0.00     0.000 C 
BRANCH  20  21
ATOM     21  C   UNL     1       2.192   7.777  -7.788  1.00  0.00     0.000 C 
BRANCH  21  22
ATOM     22  C   UNL     1       3.578   7.656  -8.450  1.00  0.00     0.000 C 
BRANCH  22  23
ATOM     23  C   UNL     1       3.783   8.678  -9.579  1.00  0.00     0.000 C 
BRANCH  23  24
ATOM     24  C   UNL     1       5.222   8.674 -10.125  1.00  0.00    -0.000 C 
BRANCH  24  25
ATOM     25  C   UNL     1       6.043   7.478  -9.597  1.00  0.00    -0.000 C 
BRANCH  25  26
ATOM     26  C   UNL     1       7.557   7.746  -9.547  1.00  0.00    -0.000 C 
BRANCH  26  27
ATOM     27  C   UNL     1       7.935   9.139 -10.074  1.00  0.00    -0.000 C 
BRANCH  27  28
ATOM     28  C   UNL     1       9.374   9.544  -9.681  1.00  0.00    -0.000 C 
BRANCH  28  29
ATOM     29  C   UNL     1       9.988   8.653  -8.587  1.00  0.00    -0.000 C 
BRANCH  29  30
ATOM     30  C   UNL     1       9.562   9.070  -7.170  1.00  0.00    -0.000 C 
BRANCH  30  31
ATOM     31  C   UNL     1       9.165   7.870  -6.295  1.00  0.00    -0.003 C 
ATOM     32  C   UNL     1       8.555   8.287  -4.956  1.00  0.00     0.004 C 
ENDBRANCH  30  31
ENDBRANCH  29  30
ENDBRANCH  28  29
ENDBRANCH  27  28
ENDBRANCH  26  27
ENDBRANCH  25  26
ENDBRANCH  24  25
ENDBRANCH  23  24
ENDBRANCH  22  23
ENDBRANCH  21  22
ENDBRANCH  20  21
ENDBRANCH  19  20
ENDBRANCH  18  19
ENDBRANCH   1  18
TORSDOF 28
ENDMDL
MODEL 8
REMARK VINA RESULT:    -2.666      1.943      7.348
REMARK INTER + INTRA:         -10.201
REMARK INTER:                  -6.905
REMARK INTRA:                  -3.296
REMARK UNBOUND:                -3.172
REMARK SMILES CCCCCCCCCCCCCCCCCCCCCCCCCCCCCC(=O)[O-]
REMARK SMILES IDX 16 1 17 2 18 3 19 4 20 5 21 6 22 7 23 8 24 9 25 10 26 11
REMARK SMILES IDX 27 12 28 13 29 14 30 15 31 16 32 17 15 18 14 19 13 20 12 21
REMARK SMILES IDX 11 22 10 23 9 24 8 25 7 26 6 27 5 28 4 29 3 30 2 31 1 32
REMARK H PARENT
REMARK Flexibility Score: inf
ROOT
ATOM      1  C   UNL     1      -0.603   9.178  -8.802  1.00  0.00     0.000 C 
ENDROOT
BRANCH   1   2
ATOM      2  C   UNL     1       0.640  10.085  -8.922  1.00  0.00     0.000 C 
BRANCH   2   3
ATOM      3  C   UNL     1       1.574   9.711 -10.087  1.00  0.00     0.000 C 
BRANCH   3   4
ATOM      4  C   UNL     1       1.919   8.213 -10.124  1.00  0.00     0.000 C 
BRANCH   4   5
ATOM      5  C   UNL     1       3.412   7.942  -9.885  1.00  0.00     0.000 C 
BRANCH   5   6
ATOM      6  C   UNL     1       3.715   7.510  -8.439  1.00  0.00     0.000 C 
BRANCH   6   7
ATOM      7  C   UNL     1       2.433   7.386  -7.588  1.00  0.00     0.000 C 
BRANCH   7   8
ATOM      8  C   UNL     1       2.684   6.878  -6.157  1.00  0.00     0.000 C 
BRANCH   8   9
ATOM      9  C   UNL     1       1.483   7.087  -5.225  1.00  0.00     0.000 C 
BRANCH   9  10
ATOM     10  C   UNL     1       0.353   7.839  -5.936  1.00  0.00     0.000 C 
BRANCH  10  11
ATOM     11  C   UNL     1      -0.143   9.017  -5.084  1.00  0.00     0.000 C 
BRANCH  11  12
ATOM     12  C   UNL     1      -1.664   9.233  -5.183  1.00  0.00     0.000 C 
BRANCH  12  13
ATOM     13  C   UNL     1      -2.423   8.170  -6.004  1.00  0.00     0.006 C 
BRANCH  13  14
ATOM     14  C   UNL     1      -3.882   8.530  -6.320  1.00  0.00     0.053 C 
BRANCH  14  15
ATOM     15  C   UNL     1      -4.781   8.322  -5.141  1.00  0.00     0.041 C 
ATOM     16  O   UNL     1      -4.953   9.247  -4.304  1.00  0.00    -0.550 OA
ATOM     17  O   UNL     1      -5.407   7.096  -4.949  1.00  0.00    -0.550 OA
ENDBRANCH  14  15
ENDBRANCH  13  14
ENDBRANCH  12  13
ENDBRANCH  11  12
ENDBRANCH  10  11
ENDBRANCH   9  10
ENDBRANCH   8   9
ENDBRANCH   7   8
ENDBRANCH   6   7
ENDBRANCH   5   6
ENDBRANCH   4   5
ENDBRANCH   3   4
ENDBRANCH   2   3
ENDBRANCH   1   2
BRANCH   1  18
ATOM     18  C   UNL     1      -1.385   9.073 -10.125  1.00  0.00     0.000 C 
BRANCH  18  19
ATOM     19  C   UNL     1      -2.470   7.984 -10.090  1.00  0.00     0.000 C 
BRANCH  19  20
ATOM     20  C   UNL     1      -3.865   8.548  -9.762  1.00  0.00     0.000 C 
BRANCH  20  21
ATOM     21  C   UNL     1      -4.969   7.484  -9.892  1.00  0.00     0.000 C 
BRANCH  21  22
ATOM     22  C   UNL     1      -6.343   8.006  -9.432  1.00  0.00     0.000 C 
BRANCH  22  23
ATOM     23  C   UNL     1      -6.487   9.525  -9.612  1.00  0.00     0.000 C 
BRANCH  23  24
ATOM     24  C   UNL     1      -7.594  10.123  -8.725  1.00  0.00    -0.000 C 
BRANCH  24  25
ATOM     25  C   UNL     1      -7.423   9.741  -7.240  1.00  0.00    -0.000 C 
BRANCH  25  26
ATOM     26  C   UNL     1      -8.630  10.119  -6.364  1.00  0.00    -0.000 C 
BRANCH  26  27
ATOM     27  C   UNL     1      -9.613   8.953  -6.165  1.00  0.00    -0.000 C 
BRANCH  27  28
ATOM     28  C   UNL     1      -9.219   8.053  -4.974  1.00  0.00    -0.000 C 
BRANCH  28  29
ATOM     29  C   UNL     1      -8.840   6.619  -5.382  1.00  0.00    -0.000 C 
BRANCH  29  30
ATOM     30  C   UNL     1      -8.639   6.464  -6.898  1.00  0.00    -0.000 C 
BRANCH  30  31
ATOM     31  C   UNL     1      -9.389   5.251  -7.473  1.00  0.00    -0.003 C 
ATOM     32  C   UNL     1      -9.416   4.061  -6.514  1.00  0.00     0.004 C 
ENDBRANCH  30  31
ENDBRANCH  29  30
ENDBRANCH  28  29
ENDBRANCH  27  28
ENDBRANCH  26  27
ENDBRANCH  25  26
ENDBRANCH  24  25
ENDBRANCH  23  24
ENDBRANCH  22  23
ENDBRANCH  21  22
ENDBRANCH  20  21
ENDBRANCH  19  20
ENDBRANCH  18  19
ENDBRANCH   1  18
TORSDOF 28
ENDMDL
MODEL 9
REMARK VINA RESULT:    -2.643      3.001      6.457
REMARK INTER + INTRA:         -10.142
REMARK INTER:                  -8.476
REMARK INTRA:                  -1.666
REMARK UNBOUND:                -3.172
REMARK SMILES CCCCCCCCCCCCCCCCCCCCCCCCCCCCCC(=O)[O-]
REMARK SMILES IDX 16 1 17 2 18 3 19 4 20 5 21 6 22 7 23 8 24 9 25 10 26 11
REMARK SMILES IDX 27 12 28 13 29 14 30 15 31 16 32 17 15 18 14 19 13 20 12 21
REMARK SMILES IDX 11 22 10 23 9 24 8 25 7 26 6 27 5 28 4 29 3 30 2 31 1 32
REMARK H PARENT
REMARK Flexibility Score: inf
ROOT
ATOM      1  C   UNL     1      -0.247   8.074  -6.034  1.00  0.00     0.000 C 
ENDROOT
BRANCH   1   2
ATOM      2  C   UNL     1      -0.742   8.633  -4.684  1.00  0.00     0.000 C 
BRANCH   2   3
ATOM      3  C   UNL     1      -1.754   9.784  -4.819  1.00  0.00     0.000 C 
BRANCH   3   4
ATOM      4  C   UNL     1      -2.235   9.997  -6.264  1.00  0.00     0.000 C 
BRANCH   4   5
ATOM      5  C   UNL     1      -3.758   9.861  -6.408  1.00  0.00     0.000 C 
BRANCH   5   6
ATOM      6  C   UNL     1      -4.347   8.759  -5.510  1.00  0.00     0.000 C 
BRANCH   6   7
ATOM      7  C   UNL     1      -5.703   8.241  -6.039  1.00  0.00     0.000 C 
BRANCH   7   8
ATOM      8  C   UNL     1      -6.740   7.977  -4.934  1.00  0.00     0.000 C 
BRANCH   8   9
ATOM      9  C   UNL     1      -8.107   8.611  -5.227  1.00  0.00     0.000 C 
BRANCH   9  10
ATOM     10  C   UNL     1      -8.231   9.000  -6.705  1.00  0.00     0.000 C 
BRANCH  10  11
ATOM     11  C   UNL     1      -9.312   8.161  -7.403  1.00  0.00     0.000 C 
BRANCH  11  12
ATOM     12  C   UNL     1      -9.130   8.095  -8.931  1.00  0.00     0.000 C 
BRANCH  12  13
ATOM     13  C   UNL     1      -9.139   6.674  -9.529  1.00  0.00     0.006 C 
BRANCH  13  14
ATOM     14  C   UNL     1      -9.714   5.594  -8.601  1.00  0.00     0.053 C 
BRANCH  14  15
ATOM     15  C   UNL     1      -8.640   4.748  -7.990  1.00  0.00     0.041 C 
ATOM     16  O   UNL     1      -7.465   5.189  -7.892  1.00  0.00    -0.550 OA
ATOM     17  O   UNL     1      -8.929   3.460  -7.555  1.00  0.00    -0.550 OA
ENDBRANCH  14  15
ENDBRANCH  13  14
ENDBRANCH  12  13
ENDBRANCH  11  12
ENDBRANCH  10  11
ENDBRANCH   9  10
ENDBRANCH   8   9
ENDBRANCH   7   8
ENDBRANCH   6   7
ENDBRANCH   5   6
ENDBRANCH   4   5
ENDBRANCH   3   4
ENDBRANCH   2   3
ENDBRANCH   1   2
BRANCH   1  18
ATOM     18  C   UNL     1       0.958   8.857  -6.589  1.00  0.00     0.000 C 
BRANCH  18  19
ATOM     19  C   UNL     1       0.553   9.908  -7.636  1.00  0.00     0.000 C 
BRANCH  19  20
ATOM     20  C   UNL     1       0.688   9.391  -9.079  1.00  0.00     0.000 C 
BRANCH  20  21
ATOM     21  C   UNL     1       2.140   9.028  -9.434  1.00  0.00     0.000 C 
BRANCH  21  22
ATOM     22  C   UNL     1       2.271   7.592  -9.976  1.00  0.00     0.000 C 
BRANCH  22  23
ATOM     23  C   UNL     1       3.416   6.813  -9.310  1.00  0.00     0.000 C 
BRANCH  23  24
ATOM     24  C   UNL     1       4.694   7.658  -9.157  1.00  0.00    -0.000 C 
BRANCH  24  25
ATOM     25  C   UNL     1       5.837   7.157 -10.066  1.00  0.00    -0.000 C 
BRANCH  25  26
ATOM     26  C   UNL     1       7.160   7.917  -9.866  1.00  0.00    -0.000 C 
BRANCH  26  27
ATOM     27  C   UNL     1       8.397   7.040 -10.115  1.00  0.00    -0.000 C 
BRANCH  27  28
ATOM     28  C   UNL     1       9.698   7.706  -9.613  1.00  0.00    -0.000 C 
BRANCH  28  29
ATOM     29  C   UNL     1       9.487   9.118  -9.041  1.00  0.00    -0.000 C 
BRANCH  29  30
ATOM     30  C   UNL     1      10.076   9.285  -7.630  1.00  0.00    -0.000 C 
BRANCH  30  31
ATOM     31  C   UNL     1       9.954   8.006  -6.785  1.00  0.00    -0.003 C 
ATOM     32  C   UNL     1       8.844   8.091  -5.737  1.00  0.00     0.004 C 
ENDBRANCH  30  31
ENDBRANCH  29  30
ENDBRANCH  28  29
ENDBRANCH  27  28
ENDBRANCH  26  27
ENDBRANCH  25  26
ENDBRANCH  24  25
ENDBRANCH  23  24
ENDBRANCH  22  23
ENDBRANCH  21  22
ENDBRANCH  20  21
ENDBRANCH  19  20
ENDBRANCH  18  19
ENDBRANCH   1  18
TORSDOF 28
ENDMDL
