MODEL 1
REMARK VINA RESULT:    -2.001      0.000      0.000
REMARK INTER + INTRA:          -3.140
REMARK INTER:                  -3.171
REMARK INTRA:                   0.031
REMARK UNBOUND:                 0.031
REMARK SMILES CCCCCCCCCCCC(=O)[O-]
REMARK SMILES IDX 7 1 8 2 9 3 10 4 11 5 12 6 13 7 14 8 6 9 5 10 4 11 3 12 2 13
REMARK SMILES IDX 1 14
REMARK H PARENT
REMARK Flexibility Score: inf
ROOT
ATOM      1  C   UNL     1     -28.339   7.723  -1.541  1.00  0.00     0.000 C 
ENDROOT
BRANCH   1   2
ATOM      2  C   UNL     1     -29.617   7.084  -2.112  1.00  0.00     0.000 C 
BRANCH   2   3
ATOM      3  C   UNL     1     -30.541   6.531  -1.016  1.00  0.00     0.000 C 
BRANCH   3   4
ATOM      4  C   UNL     1     -30.211   7.094   0.378  1.00  0.00     0.006 C 
BRANCH   4   5
ATOM      5  C   UNL     1     -31.444   7.138   1.291  1.00  0.00     0.053 C 
BRANCH   5   6
ATOM      6  C   UNL     1     -32.461   8.127   0.807  1.00  0.00     0.041 C 
ATOM      7  O   UNL     1     -32.731   8.208  -0.421  1.00  0.00    -0.550 OA
ATOM      8  O   UNL     1     -33.132   8.938   1.714  1.00  0.00    -0.550 OA
ENDBRANCH   5   6
ENDBRANCH   4   5
ENDBRANCH   3   4
ENDBRANCH   2   3
ENDBRANCH   1   2
BRANCH   1   9
ATOM      9  C   UNL     1     -27.435   8.316  -2.635  1.00  0.00     0.000 C 
BRANCH   9  10
ATOM     10  C   UNL     1     -28.076   8.248  -4.033  1.00  0.00    -0.000 C 
BRANCH  10  11
ATOM     11  C   UNL     1     -27.037   8.066  -5.152  1.00  0.00    -0.000 C 
BRANCH  11  12
ATOM     12  C   UNL     1     -27.309   8.972  -6.365  1.00  0.00    -0.000 C 
BRANCH  12  13
ATOM     13  C   UNL     1     -26.025   9.340  -7.125  1.00  0.00    -0.003 C 
ATOM     14  C   UNL     1     -24.925   8.288  -6.973  1.00  0.00     0.004 C 
ENDBRANCH  12  13
ENDBRANCH  11  12
ENDBRANCH  10  11
ENDBRANCH   9  10
ENDBRANCH   1   9
TORSDOF 10
ENDMDL
MODEL 2
REMARK VINA RESULT:    -1.691      3.910      7.661
REMARK INTER + INTRA:          -2.648
REMARK INTER:                  -2.110
REMARK INTRA:                  -0.538
REMARK UNBOUND:                 0.031
REMARK SMILES CCCCCCCCCCCC(=O)[O-]
REMARK SMILES IDX 7 1 8 2 9 3 10 4 11 5 12 6 13 7 14 8 6 9 5 10 4 11 3 12 2 13
REMARK SMILES IDX 1 14
REMARK H PARENT
REMARK Flexibility Score: inf
ROOT
ATOM      1  C   UNL     1     -27.573   8.172  -1.117  1.00  0.00     0.000 C 
ENDROOT
BRANCH   1   2
ATOM      2  C   UNL     1     -27.242   8.000  -2.610  1.00  0.00     0.000 C 
BRANCH   2   3
ATOM      3  C   UNL     1     -28.368   8.503  -3.527  1.00  0.00     0.000 C 
BRANCH   3   4
ATOM      4  C   UNL     1     -28.051   8.306  -5.020  1.00  0.00     0.006 C 
BRANCH   4   5
ATOM      5  C   UNL     1     -26.560   8.034  -5.264  1.00  0.00     0.053 C 
BRANCH   5   6
ATOM      6  C   UNL     1     -26.089   8.630  -6.555  1.00  0.00     0.041 C 
ATOM      7  O   UNL     1     -26.759   9.538  -7.116  1.00  0.00    -0.550 OA
ATOM      8  O   UNL     1     -24.895   8.205  -7.125  1.00  0.00    -0.550 OA
ENDBRANCH   5   6
ENDBRANCH   4   5
ENDBRANCH   3   4
ENDBRANCH   2   3
ENDBRANCH   1   2
BRANCH   1   9
ATOM      9  C   UNL     1     -28.869   7.448  -0.713  1.00  0.00     0.000 C 
BRANCH   9  10
ATOM     10  C   UNL     1     -29.098   7.451   0.809  1.00  0.00    -0.000 C 
BRANCH  10  11
ATOM     11  C   UNL     1     -30.549   7.110   1.188  1.00  0.00    -0.000 C 
BRANCH  11  12
ATOM     12  C   UNL     1     -31.469   6.987  -0.039  1.00  0.00    -0.000 C 
BRANCH  12  13
ATOM     13  C   UNL     1     -32.607   8.019  -0.028  1.00  0.00    -0.003 C 
ATOM     14  C   UNL     1     -32.765   8.713   1.325  1.00  0.00     0.004 C 
ENDBRANCH  12  13
ENDBRANCH  11  12
ENDBRANCH  10  11
ENDBRANCH   9  10
ENDBRANCH   1   9
TORSDOF 10
ENDMDL
