MODEL 1
REMARK VINA RESULT:    -6.272      0.000      0.000
REMARK INTER + INTRA:          -6.852
REMARK INTER:                  -6.639
REMARK INTRA:                  -0.214
REMARK UNBOUND:                -0.214
REMARK SMILES CC1=CC[C@@]23[C@@H]([C@@H]12)[C@H](C(C)C)CC[C@H]3C
REMARK SMILES IDX 15 1 14 2 13 3 12 4 8 5 6 6 5 7 7 8 2 9 3 10 4 11 1 12 9 13
REMARK SMILES IDX 10 14 11 15
REMARK H PARENT
REMARK Flexibility Score: inf
ROOT
ATOM      1  C   UNL     1     105.504 105.202 129.058  1.00  0.00     0.008 C 
ATOM      2  C   UNL     1     105.600 106.523 128.279  1.00  0.00    -0.007 C 
ATOM      3  C   UNL     1     106.433 107.544 129.076  1.00  0.00     0.004 C 
ATOM      4  C   UNL     1     106.334 108.937 128.463  1.00  0.00     0.004 C 
ATOM      5  C   UNL     1     104.905 109.488 128.625  1.00  0.00    -0.004 C 
ATOM      6  C   UNL     1     103.859 108.542 127.977  1.00  0.00     0.007 C 
ATOM      7  C   UNL     1     104.197 107.047 127.860  1.00  0.00    -0.013 C 
ATOM      8  C   UNL     1     103.259 107.528 128.963  1.00  0.00     0.025 C 
ATOM      9  C   UNL     1     101.940 106.944 128.583  1.00  0.00    -0.073 C 
ATOM     10  C   UNL     1     101.989 106.238 127.459  1.00  0.00    -0.027 C 
ATOM     11  C   UNL     1     103.350 106.247 126.857  1.00  0.00     0.035 C 
ATOM     12  C   UNL     1     100.688 107.140 129.380  1.00  0.00     0.039 C 
ENDROOT
BRANCH   5  13
ATOM     13  C   UNL     1     104.793 110.954 128.109  1.00  0.00    -0.014 C 
ATOM     14  C   UNL     1     104.884 112.015 129.221  1.00  0.00     0.007 C 
ATOM     15  C   UNL     1     105.832 111.243 127.013  1.00  0.00     0.007 C 
ENDBRANCH   5  13
TORSDOF 1
ENDMDL
MODEL 2
REMARK VINA RESULT:    -6.239      2.870      5.352
REMARK INTER + INTRA:          -6.817
REMARK INTER:                  -6.599
REMARK INTRA:                  -0.218
REMARK UNBOUND:                -0.214
REMARK SMILES CC1=CC[C@@]23[C@@H]([C@@H]12)[C@H](C(C)C)CC[C@H]3C
REMARK SMILES IDX 15 1 14 2 13 3 12 4 8 5 6 6 5 7 7 8 2 9 3 10 4 11 1 12 9 13
REMARK SMILES IDX 10 14 11 15
REMARK H PARENT
REMARK Flexibility Score: inf
ROOT
ATOM      1  C   UNL     1     105.189 107.136 129.104  1.00  0.00     0.008 C 
ATOM      2  C   UNL     1     106.515 106.999 128.338  1.00  0.00    -0.007 C 
ATOM      3  C   UNL     1     107.511 106.158 129.159  1.00  0.00     0.004 C 
ATOM      4  C   UNL     1     108.911 106.218 128.555  1.00  0.00     0.004 C 
ATOM      5  C   UNL     1     109.490 107.638 128.696  1.00  0.00    -0.004 C 
ATOM      6  C   UNL     1     108.572 108.691 128.021  1.00  0.00     0.007 C 
ATOM      7  C   UNL     1     107.071 108.382 127.898  1.00  0.00    -0.013 C 
ATOM      8  C   UNL     1     107.563 109.330 128.987  1.00  0.00     0.025 C 
ATOM      9  C   UNL     1     107.009 110.654 128.579  1.00  0.00    -0.073 C 
ATOM     10  C   UNL     1     106.312 110.599 127.450  1.00  0.00    -0.027 C 
ATOM     11  C   UNL     1     106.296 109.226 126.873  1.00  0.00     0.035 C 
ATOM     12  C   UNL     1     107.225 111.916 129.354  1.00  0.00     0.039 C 
ENDROOT
BRANCH   5  13
ATOM     13  C   UNL     1     110.962 107.709 128.190  1.00  0.00    -0.014 C 
ATOM     14  C   UNL     1     112.009 107.357 129.263  1.00  0.00     0.007 C 
ATOM     15  C   UNL     1     111.168 106.838 126.940  1.00  0.00     0.007 C 
ENDBRANCH   5  13
TORSDOF 1
ENDMDL
MODEL 3
REMARK VINA RESULT:    -6.233      2.875      5.279
REMARK INTER + INTRA:          -6.810
REMARK INTER:                  -6.597
REMARK INTRA:                  -0.213
REMARK UNBOUND:                -0.214
REMARK SMILES CC1=CC[C@@]23[C@@H]([C@@H]12)[C@H](C(C)C)CC[C@H]3C
REMARK SMILES IDX 15 1 14 2 13 3 12 4 8 5 6 6 5 7 7 8 2 9 3 10 4 11 1 12 9 13
REMARK SMILES IDX 10 14 11 15
REMARK H PARENT
REMARK Flexibility Score: inf
ROOT
ATOM      1  C   UNL     1     107.176 105.561 129.316  1.00  0.00     0.008 C 
ATOM      2  C   UNL     1     105.901 105.665 128.464  1.00  0.00    -0.007 C 
ATOM      3  C   UNL     1     104.830 106.476 129.218  1.00  0.00     0.004 C 
ATOM      4  C   UNL     1     103.475 106.380 128.523  1.00  0.00     0.004 C 
ATOM      5  C   UNL     1     102.927 104.945 128.623  1.00  0.00    -0.004 C 
ATOM      6  C   UNL     1     103.917 103.919 128.010  1.00  0.00     0.007 C 
ATOM      7  C   UNL     1     105.413 104.268 127.987  1.00  0.00    -0.013 C 
ATOM      8  C   UNL     1     104.876 103.305 129.040  1.00  0.00     0.025 C 
ATOM      9  C   UNL     1     105.492 101.998 128.668  1.00  0.00    -0.073 C 
ATOM     10  C   UNL     1     106.260 102.075 127.587  1.00  0.00    -0.027 C 
ATOM     11  C   UNL     1     106.277 103.448 127.014  1.00  0.00     0.035 C 
ATOM     12  C   UNL     1     105.259 100.728 129.425  1.00  0.00     0.039 C 
ENDROOT
BRANCH   5  13
ATOM     13  C   UNL     1     101.494 104.834 128.021  1.00  0.00    -0.014 C 
ATOM     14  C   UNL     1     100.370 104.888 129.072  1.00  0.00     0.007 C 
ATOM     15  C   UNL     1     101.259 105.898 126.936  1.00  0.00     0.007 C 
ENDBRANCH   5  13
TORSDOF 1
ENDMDL
MODEL 4
REMARK VINA RESULT:    -6.204      3.844      7.614
REMARK INTER + INTRA:          -6.780
REMARK INTER:                  -6.562
REMARK INTRA:                  -0.218
REMARK UNBOUND:                -0.214
REMARK SMILES CC1=CC[C@@]23[C@@H]([C@@H]12)[C@H](C(C)C)CC[C@H]3C
REMARK SMILES IDX 15 1 14 2 13 3 12 4 8 5 6 6 5 7 7 8 2 9 3 10 4 11 1 12 9 13
REMARK SMILES IDX 10 14 11 15
REMARK H PARENT
REMARK Flexibility Score: inf
ROOT
ATOM      1  C   UNL     1     107.141 107.213 128.947  1.00  0.00     0.008 C 
ATOM      2  C   UNL     1     107.022 105.873 128.204  1.00  0.00    -0.007 C 
ATOM      3  C   UNL     1     106.162 104.892 129.023  1.00  0.00     0.004 C 
ATOM      4  C   UNL     1     106.236 103.481 128.447  1.00  0.00     0.004 C 
ATOM      5  C   UNL     1     107.652 102.905 128.634  1.00  0.00    -0.004 C 
ATOM      6  C   UNL     1     108.721 103.811 127.968  1.00  0.00     0.007 C 
ATOM      7  C   UNL     1     108.416 105.309 127.809  1.00  0.00    -0.013 C 
ATOM      8  C   UNL     1     109.337 104.838 128.930  1.00  0.00     0.025 C 
ATOM      9  C   UNL     1     110.670 105.385 128.543  1.00  0.00    -0.073 C 
ATOM     10  C   UNL     1     110.643 106.060 127.400  1.00  0.00    -0.027 C 
ATOM     11  C   UNL     1     109.285 106.064 126.790  1.00  0.00     0.035 C 
ATOM     12  C   UNL     1     111.913 105.184 129.353  1.00  0.00     0.039 C 
ENDROOT
BRANCH   5  13
ATOM     13  C   UNL     1     107.736 101.424 128.158  1.00  0.00    -0.014 C 
ATOM     14  C   UNL     1     107.382 100.397 129.249  1.00  0.00     0.007 C 
ATOM     15  C   UNL     1     106.875 101.188 126.906  1.00  0.00     0.007 C 
ENDBRANCH   5  13
TORSDOF 1
ENDMDL
MODEL 5
REMARK VINA RESULT:    -6.185      3.568      5.649
REMARK INTER + INTRA:          -6.760
REMARK INTER:                  -6.447
REMARK INTRA:                  -0.312
REMARK UNBOUND:                -0.214
REMARK SMILES CC1=CC[C@@]23[C@@H]([C@@H]12)[C@H](C(C)C)CC[C@H]3C
REMARK SMILES IDX 15 1 14 2 13 3 12 4 8 5 6 6 5 7 7 8 2 9 3 10 4 11 1 12 9 13
REMARK SMILES IDX 10 14 11 15
REMARK H PARENT
REMARK Flexibility Score: inf
ROOT
ATOM      1  C   UNL     1     102.042 106.150 129.189  1.00  0.00     0.008 C 
ATOM      2  C   UNL     1     102.438 104.896 128.394  1.00  0.00    -0.007 C 
ATOM      3  C   UNL     1     103.850 104.437 128.804  1.00  0.00     0.004 C 
ATOM      4  C   UNL     1     104.376 103.360 127.860  1.00  0.00     0.004 C 
ATOM      5  C   UNL     1     104.621 103.954 126.461  1.00  0.00    -0.004 C 
ATOM      6  C   UNL     1     103.328 104.587 125.883  1.00  0.00     0.007 C 
ATOM      7  C   UNL     1     102.265 105.107 126.864  1.00  0.00    -0.013 C 
ATOM      8  C   UNL     1     103.202 106.091 126.171  1.00  0.00     0.025 C 
ATOM      9  C   UNL     1     102.299 106.861 125.267  1.00  0.00    -0.073 C 
ATOM     10  C   UNL     1     101.034 106.461 125.333  1.00  0.00    -0.027 C 
ATOM     11  C   UNL     1     100.860 105.322 126.276  1.00  0.00     0.035 C 
ATOM     12  C   UNL     1     102.769 107.962 124.368  1.00  0.00     0.039 C 
ENDROOT
BRANCH   5  13
ATOM     13  C   UNL     1     105.263 102.910 125.499  1.00  0.00    -0.014 C 
ATOM     14  C   UNL     1     105.503 101.533 126.143  1.00  0.00     0.007 C 
ATOM     15  C   UNL     1     104.442 102.758 124.209  1.00  0.00     0.007 C 
ENDBRANCH   5  13
TORSDOF 1
ENDMDL
MODEL 6
REMARK VINA RESULT:    -6.181      1.970      5.263
REMARK INTER + INTRA:          -6.756
REMARK INTER:                  -6.442
REMARK INTRA:                  -0.314
REMARK UNBOUND:                -0.214
REMARK SMILES CC1=CC[C@@]23[C@@H]([C@@H]12)[C@H](C(C)C)CC[C@H]3C
REMARK SMILES IDX 15 1 14 2 13 3 12 4 8 5 6 6 5 7 7 8 2 9 3 10 4 11 1 12 9 13
REMARK SMILES IDX 10 14 11 15
REMARK H PARENT
REMARK Flexibility Score: inf
ROOT
ATOM      1  C   UNL     1     106.108 110.491 129.160  1.00  0.00     0.008 C 
ATOM      2  C   UNL     1     104.868 110.061 128.360  1.00  0.00    -0.007 C 
ATOM      3  C   UNL     1     104.433 108.646 128.785  1.00  0.00     0.004 C 
ATOM      4  C   UNL     1     103.373 108.087 127.840  1.00  0.00     0.004 C 
ATOM      5  C   UNL     1     103.984 107.835 126.449  1.00  0.00    -0.004 C 
ATOM      6  C   UNL     1     104.597 109.132 125.858  1.00  0.00     0.007 C 
ATOM      7  C   UNL     1     105.088 110.218 126.829  1.00  0.00    -0.013 C 
ATOM      8  C   UNL     1     106.095 109.291 126.157  1.00  0.00     0.025 C 
ATOM      9  C   UNL     1     106.855 110.196 125.247  1.00  0.00    -0.073 C 
ATOM     10  C   UNL     1     106.431 111.454 125.293  1.00  0.00    -0.027 C 
ATOM     11  C   UNL     1     105.281 111.618 126.224  1.00  0.00     0.035 C 
ATOM     12  C   UNL     1     107.972 109.735 124.363  1.00  0.00     0.039 C 
ENDROOT
BRANCH   5  13
ATOM     13  C   UNL     1     102.960 107.160 125.487  1.00  0.00    -0.014 C 
ATOM     14  C   UNL     1     101.558 106.979 126.096  1.00  0.00     0.007 C 
ATOM     15  C   UNL     1     102.867 107.913 124.150  1.00  0.00     0.007 C 
ENDBRANCH   5  13
TORSDOF 1
ENDMDL
MODEL 7
REMARK VINA RESULT:    -6.060      1.677      4.954
REMARK INTER + INTRA:          -6.628
REMARK INTER:                  -6.385
REMARK INTRA:                  -0.243
REMARK UNBOUND:                -0.214
REMARK SMILES CC1=CC[C@@]23[C@@H]([C@@H]12)[C@H](C(C)C)CC[C@H]3C
REMARK SMILES IDX 15 1 14 2 13 3 12 4 8 5 6 6 5 7 7 8 2 9 3 10 4 11 1 12 9 13
REMARK SMILES IDX 10 14 11 15
REMARK H PARENT
REMARK Flexibility Score: inf
ROOT
ATOM      1  C   UNL     1     106.755 110.905 124.966  1.00  0.00     0.008 C 
ATOM      2  C   UNL     1     106.293 109.577 125.584  1.00  0.00    -0.007 C 
ATOM      3  C   UNL     1     105.060 109.046 124.828  1.00  0.00     0.004 C 
ATOM      4  C   UNL     1     104.422 107.874 125.568  1.00  0.00     0.004 C 
ATOM      5  C   UNL     1     103.807 108.356 126.895  1.00  0.00    -0.004 C 
ATOM      6  C   UNL     1     104.870 109.041 127.794  1.00  0.00     0.007 C 
ATOM      7  C   UNL     1     106.085 109.698 127.120  1.00  0.00    -0.013 C 
ATOM      8  C   UNL     1     104.931 110.565 127.615  1.00  0.00     0.025 C 
ATOM      9  C   UNL     1     105.529 111.336 128.743  1.00  0.00    -0.073 C 
ATOM     10  C   UNL     1     106.803 111.033 128.962  1.00  0.00    -0.027 C 
ATOM     11  C   UNL     1     107.289 109.974 128.035  1.00  0.00     0.035 C 
ATOM     12  C   UNL     1     104.769 112.339 129.554  1.00  0.00     0.039 C 
ENDROOT
BRANCH   5  13
ATOM     13  C   UNL     1     103.048 107.208 127.625  1.00  0.00    -0.014 C 
ATOM     14  C   UNL     1     102.925 107.410 129.147  1.00  0.00     0.007 C 
ATOM     15  C   UNL     1     101.661 106.970 127.006  1.00  0.00     0.007 C 
ENDBRANCH   5  13
TORSDOF 1
ENDMDL
MODEL 8
REMARK VINA RESULT:    -6.029      3.071      5.411
REMARK INTER + INTRA:          -6.595
REMARK INTER:                  -6.356
REMARK INTRA:                  -0.240
REMARK UNBOUND:                -0.214
REMARK SMILES CC1=CC[C@@]23[C@@H]([C@@H]12)[C@H](C(C)C)CC[C@H]3C
REMARK SMILES IDX 15 1 14 2 13 3 12 4 8 5 6 6 5 7 7 8 2 9 3 10 4 11 1 12 9 13
REMARK SMILES IDX 10 14 11 15
REMARK H PARENT
REMARK Flexibility Score: inf
ROOT
ATOM      1  C   UNL     1     101.566 106.758 124.783  1.00  0.00     0.008 C 
ATOM      2  C   UNL     1     102.904 106.278 125.366  1.00  0.00    -0.007 C 
ATOM      3  C   UNL     1     103.386 105.023 124.613  1.00  0.00     0.004 C 
ATOM      4  C   UNL     1     104.568 104.372 125.325  1.00  0.00     0.004 C 
ATOM      5  C   UNL     1     104.117 103.787 126.675  1.00  0.00    -0.004 C 
ATOM      6  C   UNL     1     103.482 104.877 127.579  1.00  0.00     0.007 C 
ATOM      7  C   UNL     1     102.827 106.094 126.908  1.00  0.00    -0.013 C 
ATOM      8  C   UNL     1     101.954 104.966 127.447  1.00  0.00     0.025 C 
ATOM      9  C   UNL     1     101.232 105.595 128.591  1.00  0.00    -0.073 C 
ATOM     10  C   UNL     1     101.566 106.867 128.780  1.00  0.00    -0.027 C 
ATOM     11  C   UNL     1     102.604 107.317 127.813  1.00  0.00     0.035 C 
ATOM     12  C   UNL     1     100.240 104.868 129.445  1.00  0.00     0.039 C 
ENDROOT
BRANCH   5  13
ATOM     13  C   UNL     1     105.272 103.016 127.381  1.00  0.00    -0.014 C 
ATOM     14  C   UNL     1     105.065 102.829 128.895  1.00  0.00     0.007 C 
ATOM     15  C   UNL     1     105.533 101.658 126.708  1.00  0.00     0.007 C 
ENDBRANCH   5  13
TORSDOF 1
ENDMDL
MODEL 9
REMARK VINA RESULT:    -6.015      4.150      6.426
REMARK INTER + INTRA:          -6.580
REMARK INTER:                  -6.327
REMARK INTRA:                  -0.253
REMARK UNBOUND:                -0.214
REMARK SMILES CC1=CC[C@@]23[C@@H]([C@@H]12)[C@H](C(C)C)CC[C@H]3C
REMARK SMILES IDX 15 1 14 2 13 3 12 4 8 5 6 6 5 7 7 8 2 9 3 10 4 11 1 12 9 13
REMARK SMILES IDX 10 14 11 15
REMARK H PARENT
REMARK Flexibility Score: inf
ROOT
ATOM      1  C   UNL     1     111.033 105.751 125.050  1.00  0.00     0.008 C 
ATOM      2  C   UNL     1     109.679 106.175 125.642  1.00  0.00    -0.007 C 
ATOM      3  C   UNL     1     109.120 107.380 124.863  1.00  0.00     0.004 C 
ATOM      4  C   UNL     1     107.915 107.987 125.576  1.00  0.00     0.004 C 
ATOM      5  C   UNL     1     108.354 108.632 126.903  1.00  0.00    -0.004 C 
ATOM      6  C   UNL     1     109.059 107.603 127.826  1.00  0.00     0.007 C 
ATOM      7  C   UNL     1     109.769 106.404 127.177  1.00  0.00    -0.013 C 
ATOM      8  C   UNL     1     110.588 107.592 127.672  1.00  0.00     0.025 C 
ATOM      9  C   UNL     1     111.360 107.033 128.820  1.00  0.00    -0.073 C 
ATOM     10  C   UNL     1     111.097 105.752 129.048  1.00  0.00    -0.027 C 
ATOM     11  C   UNL     1     110.070 105.220 128.110  1.00  0.00     0.035 C 
ATOM     12  C   UNL     1     112.323 107.836 129.638  1.00  0.00     0.039 C 
ENDROOT
BRANCH   5  13
ATOM     13  C   UNL     1     107.169 109.360 127.607  1.00  0.00    -0.014 C 
ATOM     14  C   UNL     1     107.221 109.295 129.144  1.00  0.00     0.007 C 
ATOM     15  C   UNL     1     107.051 110.820 127.140  1.00  0.00     0.007 C 
ENDBRANCH   5  13
TORSDOF 1
ENDMDL
