MODEL 1
REMARK VINA RESULT:    -4.710      0.000      0.000
REMARK INTER + INTRA:          -6.624
REMARK INTER:                  -6.362
REMARK INTRA:                  -0.263
REMARK UNBOUND:                -0.263
REMARK SMILES CCCCCCCC(=O)[O-]
REMARK SMILES IDX 5 1 6 2 7 3 8 4 9 5 10 6 4 7 3 8 2 9 1 10
REMARK H PARENT
REMARK Flexibility Score: inf
ROOT
ATOM      1  C   UNL     1       8.997  54.186  20.834  1.00  0.00     0.000 C 
ENDROOT
BRANCH   1   2
ATOM      2  C   UNL     1      10.313  54.035  21.618  1.00  0.00     0.006 C 
BRANCH   2   3
ATOM      3  C   UNL     1      10.093  53.606  23.074  1.00  0.00     0.053 C 
BRANCH   3   4
ATOM      4  C   UNL     1      10.426  54.729  24.005  1.00  0.00     0.041 C 
ATOM      5  O   UNL     1       9.842  55.840  23.891  1.00  0.00    -0.550 OA
ATOM      6  O   UNL     1      11.416  54.566  24.965  1.00  0.00    -0.550 OA
ENDBRANCH   3   4
ENDBRANCH   2   3
ENDBRANCH   1   2
BRANCH   1   7
ATOM      7  C   UNL     1       8.500  55.636  20.663  1.00  0.00     0.000 C 
BRANCH   7   8
ATOM      8  C   UNL     1       7.629  55.884  19.418  1.00  0.00    -0.000 C 
BRANCH   8   9
ATOM      9  C   UNL     1       7.678  54.721  18.416  1.00  0.00    -0.003 C 
ATOM     10  C   UNL     1       7.175  55.158  17.043  1.00  0.00     0.004 C 
ENDBRANCH   8   9
ENDBRANCH   7   8
ENDBRANCH   1   7
TORSDOF 6
ENDMDL
MODEL 2
REMARK VINA RESULT:    -4.690      1.584      1.909
REMARK INTER + INTRA:          -6.597
REMARK INTER:                  -6.292
REMARK INTRA:                  -0.305
REMARK UNBOUND:                -0.263
REMARK SMILES CCCCCCCC(=O)[O-]
REMARK SMILES IDX 5 1 6 2 7 3 8 4 9 5 10 6 4 7 3 8 2 9 1 10
REMARK H PARENT
REMARK Flexibility Score: inf
ROOT
ATOM      1  C   UNL     1       7.456  55.249  21.559  1.00  0.00     0.000 C 
ENDROOT
BRANCH   1   2
ATOM      2  C   UNL     1       8.834  55.098  22.226  1.00  0.00     0.006 C 
BRANCH   2   3
ATOM      3  C   UNL     1       9.699  54.017  21.567  1.00  0.00     0.053 C 
BRANCH   3   4
ATOM      4  C   UNL     1      10.491  53.281  22.601  1.00  0.00     0.041 C 
ATOM      5  O   UNL     1      11.020  53.906  23.558  1.00  0.00    -0.550 OA
ATOM      6  O   UNL     1      10.688  51.911  22.482  1.00  0.00    -0.550 OA
ENDBRANCH   3   4
ENDBRANCH   2   3
ENDBRANCH   1   2
BRANCH   1   7
ATOM      7  C   UNL     1       7.254  56.557  20.765  1.00  0.00     0.000 C 
BRANCH   7   8
ATOM      8  C   UNL     1       7.638  56.482  19.276  1.00  0.00    -0.000 C 
BRANCH   8   9
ATOM      9  C   UNL     1       7.622  55.047  18.729  1.00  0.00    -0.003 C 
ATOM     10  C   UNL     1       7.248  55.028  17.249  1.00  0.00     0.004 C 
ENDBRANCH   8   9
ENDBRANCH   7   8
ENDBRANCH   1   7
TORSDOF 6
ENDMDL
MODEL 3
REMARK VINA RESULT:    -4.556      1.352      1.895
REMARK INTER + INTRA:          -6.417
REMARK INTER:                  -6.169
REMARK INTRA:                  -0.248
REMARK UNBOUND:                -0.263
REMARK SMILES CCCCCCCC(=O)[O-]
REMARK SMILES IDX 5 1 6 2 7 3 8 4 9 5 10 6 4 7 3 8 2 9 1 10
REMARK H PARENT
REMARK Flexibility Score: inf
ROOT
ATOM      1  C   UNL     1       9.388  54.023  20.950  1.00  0.00     0.000 C 
ENDROOT
BRANCH   1   2
ATOM      2  C   UNL     1       9.337  53.445  22.375  1.00  0.00     0.006 C 
BRANCH   2   3
ATOM      3  C   UNL     1      10.674  53.565  23.115  1.00  0.00     0.053 C 
BRANCH   3   4
ATOM      4  C   UNL     1      10.616  54.672  24.120  1.00  0.00     0.041 C 
ATOM      5  O   UNL     1       9.892  55.681  23.910  1.00  0.00    -0.550 OA
ATOM      6  O   UNL     1      11.399  54.613  25.266  1.00  0.00    -0.550 OA
ENDBRANCH   3   4
ENDBRANCH   2   3
ENDBRANCH   1   2
BRANCH   1   7
ATOM      7  C   UNL     1       8.049  54.578  20.421  1.00  0.00     0.000 C 
BRANCH   7   8
ATOM      8  C   UNL     1       8.060  56.074  20.059  1.00  0.00    -0.000 C 
BRANCH   8   9
ATOM      9  C   UNL     1       6.786  56.804  20.509  1.00  0.00    -0.003 C 
ATOM     10  C   UNL     1       5.979  55.952  21.484  1.00  0.00     0.004 C 
ENDBRANCH   8   9
ENDBRANCH   7   8
ENDBRANCH   1   7
TORSDOF 6
ENDMDL
MODEL 4
REMARK VINA RESULT:    -4.555      3.281      5.874
REMARK INTER + INTRA:          -6.415
REMARK INTER:                  -6.138
REMARK INTRA:                  -0.277
REMARK UNBOUND:                -0.263
REMARK SMILES CCCCCCCC(=O)[O-]
REMARK SMILES IDX 5 1 6 2 7 3 8 4 9 5 10 6 4 7 3 8 2 9 1 10
REMARK H PARENT
REMARK Flexibility Score: inf
ROOT
ATOM      1  C   UNL     1       8.433  55.380  21.633  1.00  0.00     0.000 C 
ENDROOT
BRANCH   1   2
ATOM      2  C   UNL     1       7.254  55.470  20.648  1.00  0.00     0.006 C 
BRANCH   2   3
ATOM      3  C   UNL     1       7.640  56.118  19.313  1.00  0.00     0.053 C 
BRANCH   3   4
ATOM      4  C   UNL     1       7.310  55.204  18.175  1.00  0.00     0.041 C 
ATOM      5  O   UNL     1       7.174  53.968  18.375  1.00  0.00    -0.550 OA
ATOM      6  O   UNL     1       7.202  55.710  16.886  1.00  0.00    -0.550 OA
ENDBRANCH   3   4
ENDBRANCH   2   3
ENDBRANCH   1   2
BRANCH   1   7
ATOM      7  C   UNL     1       9.475  54.291  21.306  1.00  0.00     0.000 C 
BRANCH   7   8
ATOM      8  C   UNL     1      10.437  53.942  22.457  1.00  0.00    -0.000 C 
BRANCH   8   9
ATOM      9  C   UNL     1      10.052  54.620  23.780  1.00  0.00    -0.003 C 
ATOM     10  C   UNL     1      11.237  54.663  24.741  1.00  0.00     0.004 C 
ENDBRANCH   8   9
ENDBRANCH   7   8
ENDBRANCH   1   7
TORSDOF 6
ENDMDL
MODEL 5
REMARK VINA RESULT:    -4.546      2.779      5.009
REMARK INTER + INTRA:          -6.403
REMARK INTER:                  -5.977
REMARK INTRA:                  -0.426
REMARK UNBOUND:                -0.263
REMARK SMILES CCCCCCCC(=O)[O-]
REMARK SMILES IDX 5 1 6 2 7 3 8 4 9 5 10 6 4 7 3 8 2 9 1 10
REMARK H PARENT
REMARK Flexibility Score: inf
ROOT
ATOM      1  C   UNL     1       7.996  54.451  22.983  1.00  0.00     0.000 C 
ENDROOT
BRANCH   1   2
ATOM      2  C   UNL     1       7.200  55.002  21.787  1.00  0.00     0.006 C 
BRANCH   2   3
ATOM      3  C   UNL     1       7.619  54.375  20.452  1.00  0.00     0.053 C 
BRANCH   3   4
ATOM      4  C   UNL     1       7.831  55.438  19.420  1.00  0.00     0.041 C 
ATOM      5  O   UNL     1       8.298  56.560  19.754  1.00  0.00    -0.550 OA
ATOM      6  O   UNL     1       7.467  55.209  18.100  1.00  0.00    -0.550 OA
ENDBRANCH   3   4
ENDBRANCH   2   3
ENDBRANCH   1   2
BRANCH   1   7
ATOM      7  C   UNL     1       9.328  55.173  23.270  1.00  0.00     0.000 C 
BRANCH   7   8
ATOM      8  C   UNL     1      10.548  54.249  23.440  1.00  0.00    -0.000 C 
BRANCH   8   9
ATOM      9  C   UNL     1      10.899  53.485  22.155  1.00  0.00    -0.003 C 
ATOM     10  C   UNL     1      10.530  52.008  22.276  1.00  0.00     0.004 C 
ENDBRANCH   8   9
ENDBRANCH   7   8
ENDBRANCH   1   7
TORSDOF 6
ENDMDL
MODEL 6
REMARK VINA RESULT:    -4.545      3.160      5.177
REMARK INTER + INTRA:          -6.402
REMARK INTER:                  -5.979
REMARK INTRA:                  -0.423
REMARK UNBOUND:                -0.263
REMARK SMILES CCCCCCCC(=O)[O-]
REMARK SMILES IDX 5 1 6 2 7 3 8 4 9 5 10 6 4 7 3 8 2 9 1 10
REMARK H PARENT
REMARK Flexibility Score: inf
ROOT
ATOM      1  C   UNL     1       9.434  54.585  21.061  1.00  0.00     0.000 C 
ENDROOT
BRANCH   1   2
ATOM      2  C   UNL     1       7.948  54.470  20.678  1.00  0.00     0.006 C 
BRANCH   2   3
ATOM      3  C   UNL     1       7.021  55.204  21.655  1.00  0.00     0.053 C 
BRANCH   3   4
ATOM      4  C   UNL     1       6.472  56.444  21.022  1.00  0.00     0.041 C 
ATOM      5  O   UNL     1       7.037  56.942  20.012  1.00  0.00    -0.550 OA
ATOM      6  O   UNL     1       5.367  57.077  21.575  1.00  0.00    -0.550 OA
ENDBRANCH   3   4
ENDBRANCH   2   3
ENDBRANCH   1   2
BRANCH   1   7
ATOM      7  C   UNL     1      10.029  53.342  21.753  1.00  0.00     0.000 C 
BRANCH   7   8
ATOM      8  C   UNL     1      10.677  53.605  23.124  1.00  0.00    -0.000 C 
BRANCH   8   9
ATOM      9  C   UNL     1      10.257  54.951  23.732  1.00  0.00    -0.003 C 
ATOM     10  C   UNL     1       9.460  54.748  25.018  1.00  0.00     0.004 C 
ENDBRANCH   8   9
ENDBRANCH   7   8
ENDBRANCH   1   7
TORSDOF 6
ENDMDL
MODEL 7
REMARK VINA RESULT:    -4.522      3.044      5.271
REMARK INTER + INTRA:          -6.371
REMARK INTER:                  -6.000
REMARK INTRA:                  -0.371
REMARK UNBOUND:                -0.263
REMARK SMILES CCCCCCCC(=O)[O-]
REMARK SMILES IDX 5 1 6 2 7 3 8 4 9 5 10 6 4 7 3 8 2 9 1 10
REMARK H PARENT
REMARK Flexibility Score: inf
ROOT
ATOM      1  C   UNL     1      10.410  53.785  21.501  1.00  0.00     0.000 C 
ENDROOT
BRANCH   1   2
ATOM      2  C   UNL     1       8.938  53.983  21.100  1.00  0.00     0.006 C 
BRANCH   2   3
ATOM      3  C   UNL     1       8.611  55.434  20.727  1.00  0.00     0.053 C 
BRANCH   3   4
ATOM      4  C   UNL     1       7.922  55.489  19.400  1.00  0.00     0.041 C 
ATOM      5  O   UNL     1       7.575  56.598  18.913  1.00  0.00    -0.550 OA
ATOM      6  O   UNL     1       7.619  54.314  18.724  1.00  0.00    -0.550 OA
ENDBRANCH   3   4
ENDBRANCH   2   3
ENDBRANCH   1   2
BRANCH   1   7
ATOM      7  C   UNL     1      10.657  53.598  23.012  1.00  0.00     0.000 C 
BRANCH   7   8
ATOM      8  C   UNL     1      10.504  54.874  23.860  1.00  0.00    -0.000 C 
BRANCH   8   9
ATOM      9  C   UNL     1       9.514  54.702  25.021  1.00  0.00    -0.003 C 
ATOM     10  C   UNL     1       8.291  53.900  24.586  1.00  0.00     0.004 C 
ENDBRANCH   8   9
ENDBRANCH   7   8
ENDBRANCH   1   7
TORSDOF 6
ENDMDL
MODEL 8
REMARK VINA RESULT:    -4.126      2.866      5.051
REMARK INTER + INTRA:          -5.836
REMARK INTER:                  -5.585
REMARK INTRA:                  -0.252
REMARK UNBOUND:                -0.263
REMARK SMILES CCCCCCCC(=O)[O-]
REMARK SMILES IDX 5 1 6 2 7 3 8 4 9 5 10 6 4 7 3 8 2 9 1 10
REMARK H PARENT
REMARK Flexibility Score: inf
ROOT
ATOM      1  C   UNL     1       8.513  54.512  19.989  1.00  0.00     0.000 C 
ENDROOT
BRANCH   1   2
ATOM      2  C   UNL     1       7.307  55.390  19.611  1.00  0.00     0.006 C 
BRANCH   2   3
ATOM      3  C   UNL     1       7.170  56.631  20.501  1.00  0.00     0.053 C 
BRANCH   3   4
ATOM      4  C   UNL     1       5.921  56.550  21.320  1.00  0.00     0.041 C 
ATOM      5  O   UNL     1       5.718  55.557  22.069  1.00  0.00    -0.550 OA
ATOM      6  O   UNL     1       4.958  57.546  21.221  1.00  0.00    -0.550 OA
ENDBRANCH   3   4
ENDBRANCH   2   3
ENDBRANCH   1   2
BRANCH   1   7
ATOM      7  C   UNL     1       9.111  54.789  21.384  1.00  0.00     0.000 C 
BRANCH   7   8
ATOM      8  C   UNL     1       9.322  53.542  22.261  1.00  0.00    -0.000 C 
BRANCH   8   9
ATOM      9  C   UNL     1      10.601  52.772  21.903  1.00  0.00    -0.003 C 
ATOM     10  C   UNL     1      10.617  51.395  22.563  1.00  0.00     0.004 C 
ENDBRANCH   8   9
ENDBRANCH   7   8
ENDBRANCH   1   7
TORSDOF 6
ENDMDL
MODEL 9
REMARK VINA RESULT:    -3.982      3.081      3.840
REMARK INTER + INTRA:          -5.642
REMARK INTER:                  -5.341
REMARK INTRA:                  -0.300
REMARK UNBOUND:                -0.263
REMARK SMILES CCCCCCCC(=O)[O-]
REMARK SMILES IDX 5 1 6 2 7 3 8 4 9 5 10 6 4 7 3 8 2 9 1 10
REMARK H PARENT
REMARK Flexibility Score: inf
ROOT
ATOM      1  C   UNL     1       8.716  54.524  20.866  1.00  0.00     0.000 C 
ENDROOT
BRANCH   1   2
ATOM      2  C   UNL     1       8.250  55.752  21.667  1.00  0.00     0.006 C 
BRANCH   2   3
ATOM      3  C   UNL     1       7.400  56.720  20.835  1.00  0.00     0.053 C 
BRANCH   3   4
ATOM      4  C   UNL     1       5.970  56.665  21.272  1.00  0.00     0.041 C 
ATOM      5  O   UNL     1       5.202  57.638  21.049  1.00  0.00    -0.550 OA
ATOM      6  O   UNL     1       5.497  55.560  21.969  1.00  0.00    -0.550 OA
ENDBRANCH   3   4
ENDBRANCH   2   3
ENDBRANCH   1   2
BRANCH   1   7
ATOM      7  C   UNL     1       8.473  54.605  19.345  1.00  0.00     0.000 C 
BRANCH   7   8
ATOM      8  C   UNL     1       7.143  53.996  18.864  1.00  0.00    -0.000 C 
BRANCH   8   9
ATOM      9  C   UNL     1       6.824  54.343  17.402  1.00  0.00    -0.003 C 
ATOM     10  C   UNL     1       7.223  55.781  17.079  1.00  0.00     0.004 C 
ENDBRANCH   8   9
ENDBRANCH   7   8
ENDBRANCH   1   7
TORSDOF 6
ENDMDL
