MODEL 1
REMARK VINA RESULT:    -5.722      0.000      0.000
REMARK INTER + INTRA:          -6.145
REMARK INTER:                  -6.057
REMARK INTRA:                  -0.089
REMARK UNBOUND:                -0.089
REMARK SMILES C=C(C)[C@H]1CC=C(C)C(=O)C1
REMARK SMILES IDX 8 1 7 2 6 3 5 4 4 5 11 6 9 7 10 8 2 9 1 10 3 11
REMARK H PARENT
REMARK Flexibility Score: inf
ROOT
ATOM      1  C   UNL     1     -12.496 -20.377  31.688  1.00  0.00     0.048 C 
ATOM      2  C   UNL     1     -12.469 -19.646  30.375  1.00  0.00    -0.012 C 
ATOM      3  C   UNL     1     -13.516 -19.736  29.536  1.00  0.00    -0.019 C 
ATOM      4  C   UNL     1     -13.533 -19.040  28.201  1.00  0.00     0.036 C 
ATOM      5  C   UNL     1     -12.751 -17.714  28.258  1.00  0.00     0.025 C 
ATOM      6  C   UNL     1     -11.319 -17.959  28.770  1.00  0.00     0.089 C 
ATOM      7  C   UNL     1     -11.344 -18.729  30.062  1.00  0.00     0.158 C 
ATOM      8  O   UNL     1     -10.378 -18.615  30.863  1.00  0.00    -0.295 OA
ENDROOT
BRANCH   5   9
ATOM      9  C   UNL     1     -12.746 -17.012  26.907  1.00  0.00    -0.077 C 
ATOM     10  C   UNL     1     -13.784 -16.242  26.544  1.00  0.00     0.008 C 
ATOM     11  C   UNL     1     -11.588 -17.157  25.950  1.00  0.00     0.039 C 
ENDBRANCH   5   9
TORSDOF 1
ENDMDL
MODEL 2
REMARK VINA RESULT:    -5.699      2.697      4.415
REMARK INTER + INTRA:          -6.120
REMARK INTER:                  -6.022
REMARK INTRA:                  -0.098
REMARK UNBOUND:                -0.089
REMARK SMILES C=C(C)[C@H]1CC=C(C)C(=O)C1
REMARK SMILES IDX 8 1 7 2 6 3 5 4 4 5 11 6 9 7 10 8 2 9 1 10 3 11
REMARK H PARENT
REMARK Flexibility Score: inf
ROOT
ATOM      1  C   UNL     1     -11.389 -17.302  26.228  1.00  0.00     0.048 C 
ATOM      2  C   UNL     1     -11.847 -16.720  27.536  1.00  0.00    -0.012 C 
ATOM      3  C   UNL     1     -13.002 -16.035  27.596  1.00  0.00    -0.019 C 
ATOM      4  C   UNL     1     -13.498 -15.416  28.876  1.00  0.00     0.036 C 
ATOM      5  C   UNL     1     -13.079 -16.256  30.096  1.00  0.00     0.025 C 
ATOM      6  C   UNL     1     -11.553 -16.466  30.103  1.00  0.00     0.089 C 
ATOM      7  C   UNL     1     -11.088 -17.008  28.779  1.00  0.00     0.158 C 
ATOM      8  O   UNL     1     -10.024 -17.680  28.731  1.00  0.00    -0.295 OA
ENDROOT
BRANCH   5   9
ATOM      9  C   UNL     1     -13.559 -15.627  31.397  1.00  0.00    -0.077 C 
ATOM     10  C   UNL     1     -12.932 -15.904  32.552  1.00  0.00     0.008 C 
ATOM     11  C   UNL     1     -14.739 -14.685  31.427  1.00  0.00     0.039 C 
ENDBRANCH   5   9
TORSDOF 1
ENDMDL
MODEL 3
REMARK VINA RESULT:    -5.606      2.342      3.061
REMARK INTER + INTRA:          -6.023
REMARK INTER:                  -5.925
REMARK INTRA:                  -0.098
REMARK UNBOUND:                -0.089
REMARK SMILES C=C(C)[C@H]1CC=C(C)C(=O)C1
REMARK SMILES IDX 8 1 7 2 6 3 5 4 4 5 11 6 9 7 10 8 2 9 1 10 3 11
REMARK H PARENT
REMARK Flexibility Score: inf
ROOT
ATOM      1  C   UNL     1     -11.022 -16.230  32.741  1.00  0.00     0.048 C 
ATOM      2  C   UNL     1     -11.428 -16.233  31.294  1.00  0.00    -0.012 C 
ATOM      3  C   UNL     1     -10.545 -15.866  30.349  1.00  0.00    -0.019 C 
ATOM      4  C   UNL     1     -10.904 -15.833  28.888  1.00  0.00     0.036 C 
ATOM      5  C   UNL     1     -11.930 -16.929  28.545  1.00  0.00     0.025 C 
ATOM      6  C   UNL     1     -13.168 -16.806  29.454  1.00  0.00     0.089 C 
ATOM      7  C   UNL     1     -12.760 -16.759  30.901  1.00  0.00     0.158 C 
ATOM      8  O   UNL     1     -13.577 -17.138  31.781  1.00  0.00    -0.295 OA
ENDROOT
BRANCH   5   9
ATOM      9  C   UNL     1     -12.316 -16.892  27.073  1.00  0.00    -0.077 C 
ATOM     10  C   UNL     1     -13.532 -16.457  26.705  1.00  0.00     0.008 C 
ATOM     11  C   UNL     1     -11.355 -17.336  25.997  1.00  0.00     0.039 C 
ENDBRANCH   5   9
TORSDOF 1
ENDMDL
MODEL 4
REMARK VINA RESULT:    -5.536      1.770      2.277
REMARK INTER + INTRA:          -5.948
REMARK INTER:                  -5.851
REMARK INTRA:                  -0.097
REMARK UNBOUND:                -0.089
REMARK SMILES C=C(C)[C@H]1CC=C(C)C(=O)C1
REMARK SMILES IDX 8 1 7 2 6 3 5 4 4 5 11 6 9 7 10 8 2 9 1 10 3 11
REMARK H PARENT
REMARK Flexibility Score: inf
ROOT
ATOM      1  C   UNL     1     -12.509 -20.385  31.615  1.00  0.00     0.048 C 
ATOM      2  C   UNL     1     -12.901 -19.268  30.689  1.00  0.00    -0.012 C 
ATOM      3  C   UNL     1     -12.833 -17.993  31.111  1.00  0.00    -0.019 C 
ATOM      4  C   UNL     1     -13.230 -16.838  30.232  1.00  0.00     0.036 C 
ATOM      5  C   UNL     1     -12.925 -17.137  28.753  1.00  0.00     0.025 C 
ATOM      6  C   UNL     1     -13.598 -18.455  28.324  1.00  0.00     0.089 C 
ATOM      7  C   UNL     1     -13.242 -19.565  29.275  1.00  0.00     0.158 C 
ATOM      8  O   UNL     1     -13.271 -20.756  28.866  1.00  0.00    -0.295 OA
ENDROOT
BRANCH   5   9
ATOM      9  C   UNL     1     -13.342 -15.982  27.853  1.00  0.00    -0.077 C 
ATOM     10  C   UNL     1     -13.412 -14.735  28.345  1.00  0.00     0.008 C 
ATOM     11  C   UNL     1     -13.683 -16.202  26.399  1.00  0.00     0.039 C 
ENDBRANCH   5   9
TORSDOF 1
ENDMDL
MODEL 5
REMARK VINA RESULT:    -5.440      2.836      4.680
REMARK INTER + INTRA:          -5.846
REMARK INTER:                  -5.748
REMARK INTRA:                  -0.098
REMARK UNBOUND:                -0.089
REMARK SMILES C=C(C)[C@H]1CC=C(C)C(=O)C1
REMARK SMILES IDX 8 1 7 2 6 3 5 4 4 5 11 6 9 7 10 8 2 9 1 10 3 11
REMARK H PARENT
REMARK Flexibility Score: inf
ROOT
ATOM      1  C   UNL     1     -11.438 -17.395  26.312  1.00  0.00     0.048 C 
ATOM      2  C   UNL     1     -11.674 -17.146  27.775  1.00  0.00    -0.012 C 
ATOM      3  C   UNL     1     -11.045 -16.131  28.392  1.00  0.00    -0.019 C 
ATOM      4  C   UNL     1     -11.232 -15.849  29.859  1.00  0.00     0.036 C 
ATOM      5  C   UNL     1     -12.655 -16.217  30.317  1.00  0.00     0.025 C 
ATOM      6  C   UNL     1     -12.971 -17.681  29.959  1.00  0.00     0.089 C 
ATOM      7  C   UNL     1     -12.693 -17.942  28.505  1.00  0.00     0.158 C 
ATOM      8  O   UNL     1     -13.311 -18.871  27.919  1.00  0.00    -0.295 OA
ENDROOT
BRANCH   5   9
ATOM      9  C   UNL     1     -12.848 -15.954  31.804  1.00  0.00    -0.077 C 
ATOM     10  C   UNL     1     -11.825 -16.124  32.657  1.00  0.00     0.008 C 
ATOM     11  C   UNL     1     -14.177 -15.498  32.357  1.00  0.00     0.039 C 
ENDBRANCH   5   9
TORSDOF 1
ENDMDL
MODEL 6
REMARK VINA RESULT:    -5.421      2.833      4.161
REMARK INTER + INTRA:          -5.827
REMARK INTER:                  -5.730
REMARK INTRA:                  -0.097
REMARK UNBOUND:                -0.089
REMARK SMILES C=C(C)[C@H]1CC=C(C)C(=O)C1
REMARK SMILES IDX 8 1 7 2 6 3 5 4 4 5 11 6 9 7 10 8 2 9 1 10 3 11
REMARK H PARENT
REMARK Flexibility Score: inf
ROOT
ATOM      1  C   UNL     1     -13.413 -20.399  28.491  1.00  0.00     0.048 C 
ATOM      2  C   UNL     1     -13.129 -19.272  29.444  1.00  0.00    -0.012 C 
ATOM      3  C   UNL     1     -13.286 -17.999  29.041  1.00  0.00    -0.019 C 
ATOM      4  C   UNL     1     -12.999 -16.832  29.948  1.00  0.00     0.036 C 
ATOM      5  C   UNL     1     -13.313 -17.181  31.415  1.00  0.00     0.025 C 
ATOM      6  C   UNL     1     -12.550 -18.450  31.838  1.00  0.00     0.089 C 
ATOM      7  C   UNL     1     -12.798 -19.567  30.861  1.00  0.00     0.158 C 
ATOM      8  O   UNL     1     -12.685 -20.759  31.250  1.00  0.00    -0.295 OA
ENDROOT
BRANCH   5   9
ATOM      9  C   UNL     1     -13.007 -16.013  32.343  1.00  0.00    -0.077 C 
ATOM     10  C   UNL     1     -11.761 -15.833  32.812  1.00  0.00     0.008 C 
ATOM     11  C   UNL     1     -14.080 -15.036  32.758  1.00  0.00     0.039 C 
ENDBRANCH   5   9
TORSDOF 1
ENDMDL
MODEL 7
REMARK VINA RESULT:    -5.367      2.816      4.130
REMARK INTER + INTRA:          -5.770
REMARK INTER:                  -5.673
REMARK INTRA:                  -0.097
REMARK UNBOUND:                -0.089
REMARK SMILES C=C(C)[C@H]1CC=C(C)C(=O)C1
REMARK SMILES IDX 8 1 7 2 6 3 5 4 4 5 11 6 9 7 10 8 2 9 1 10 3 11
REMARK H PARENT
REMARK Flexibility Score: inf
ROOT
ATOM      1  C   UNL     1     -13.447 -20.539  28.548  1.00  0.00     0.048 C 
ATOM      2  C   UNL     1     -13.371 -19.401  29.526  1.00  0.00    -0.012 C 
ATOM      3  C   UNL     1     -13.265 -19.655  30.842  1.00  0.00    -0.019 C 
ATOM      4  C   UNL     1     -13.204 -18.553  31.866  1.00  0.00     0.036 C 
ATOM      5  C   UNL     1     -12.493 -17.310  31.301  1.00  0.00     0.025 C 
ATOM      6  C   UNL     1     -13.170 -16.855  29.994  1.00  0.00     0.089 C 
ATOM      7  C   UNL     1     -13.287 -18.004  29.031  1.00  0.00     0.158 C 
ATOM      8  O   UNL     1     -13.349 -17.765  27.795  1.00  0.00    -0.295 OA
ENDROOT
BRANCH   5   9
ATOM      9  C   UNL     1     -12.443 -16.183  32.323  1.00  0.00    -0.077 C 
ATOM     10  C   UNL     1     -13.549 -15.474  32.599  1.00  0.00     0.008 C 
ATOM     11  C   UNL     1     -11.165 -15.834  33.047  1.00  0.00     0.039 C 
ENDBRANCH   5   9
TORSDOF 1
ENDMDL
MODEL 8
REMARK VINA RESULT:    -5.211      3.436      4.149
REMARK INTER + INTRA:          -5.605
REMARK INTER:                  -5.510
REMARK INTRA:                  -0.095
REMARK UNBOUND:                -0.089
REMARK SMILES C=C(C)[C@H]1CC=C(C)C(=O)C1
REMARK SMILES IDX 8 1 7 2 6 3 5 4 4 5 11 6 9 7 10 8 2 9 1 10 3 11
REMARK H PARENT
REMARK Flexibility Score: inf
ROOT
ATOM      1  C   UNL     1     -10.852 -19.200  30.463  1.00  0.00     0.048 C 
ATOM      2  C   UNL     1     -11.942 -18.190  30.689  1.00  0.00    -0.012 C 
ATOM      3  C   UNL     1     -12.673 -18.234  31.817  1.00  0.00    -0.019 C 
ATOM      4  C   UNL     1     -13.787 -17.258  32.085  1.00  0.00     0.036 C 
ATOM      5  C   UNL     1     -13.482 -15.883  31.463  1.00  0.00     0.025 C 
ATOM      6  C   UNL     1     -13.185 -16.031  29.959  1.00  0.00     0.089 C 
ATOM      7  C   UNL     1     -12.126 -17.074  29.728  1.00  0.00     0.158 C 
ATOM      8  O   UNL     1     -11.418 -17.009  28.688  1.00  0.00    -0.295 OA
ENDROOT
BRANCH   5   9
ATOM      9  C   UNL     1     -14.612 -14.895  31.712  1.00  0.00    -0.077 C 
ATOM     10  C   UNL     1     -15.147 -14.778  32.938  1.00  0.00     0.008 C 
ATOM     11  C   UNL     1     -15.157 -14.027  30.604  1.00  0.00     0.039 C 
ENDBRANCH   5   9
TORSDOF 1
ENDMDL
MODEL 9
REMARK VINA RESULT:    -5.135      2.133      2.780
REMARK INTER + INTRA:          -5.524
REMARK INTER:                  -5.434
REMARK INTRA:                  -0.090
REMARK UNBOUND:                -0.089
REMARK SMILES C=C(C)[C@H]1CC=C(C)C(=O)C1
REMARK SMILES IDX 8 1 7 2 6 3 5 4 4 5 11 6 9 7 10 8 2 9 1 10 3 11
REMARK H PARENT
REMARK Flexibility Score: inf
ROOT
ATOM      1  C   UNL     1     -13.188 -16.297  32.454  1.00  0.00     0.048 C 
ATOM      2  C   UNL     1     -13.169 -16.493  30.964  1.00  0.00    -0.012 C 
ATOM      3  C   UNL     1     -13.258 -15.428  30.148  1.00  0.00    -0.019 C 
ATOM      4  C   UNL     1     -13.263 -15.568  28.650  1.00  0.00     0.036 C 
ATOM      5  C   UNL     1     -12.403 -16.764  28.202  1.00  0.00     0.025 C 
ATOM      6  C   UNL     1     -12.868 -18.051  28.910  1.00  0.00     0.089 C 
ATOM      7  C   UNL     1     -12.929 -17.844  30.399  1.00  0.00     0.158 C 
ATOM      8  O   UNL     1     -12.809 -18.839  31.162  1.00  0.00    -0.295 OA
ENDROOT
BRANCH   5   9
ATOM      9  C   UNL     1     -12.417 -16.927  26.688  1.00  0.00    -0.077 C 
ATOM     10  C   UNL     1     -11.326 -17.376  26.049  1.00  0.00     0.008 C 
ATOM     11  C   UNL     1     -13.643 -16.593  25.873  1.00  0.00     0.039 C 
ENDBRANCH   5   9
TORSDOF 1
ENDMDL
