MODEL 1
REMARK VINA RESULT:    -3.284      0.000      0.000
REMARK INTER + INTRA:          -6.547
REMARK INTER:                  -5.972
REMARK INTRA:                  -0.575
REMARK UNBOUND:                -0.575
REMARK SMILES CCCCCCCCCCCCCCCC(=O)[O-]
REMARK SMILES IDX 9 1 10 2 11 3 12 4 13 5 14 6 15 7 16 8 17 9 18 10 8 11 7 12
REMARK SMILES IDX 6 13 5 14 4 15 3 16 2 17 1 18
REMARK H PARENT
REMARK Flexibility Score: inf
ROOT
ATOM      1  C   UNL     1      -1.988  20.501  16.481  1.00  0.00     0.000 C 
ENDROOT
BRANCH   1   2
ATOM      2  C   UNL     1      -0.593  20.078  16.969  1.00  0.00     0.000 C 
BRANCH   2   3
ATOM      3  C   UNL     1       0.512  20.392  15.946  1.00  0.00     0.000 C 
BRANCH   3   4
ATOM      4  C   UNL     1       1.850  20.746  16.614  1.00  0.00     0.000 C 
BRANCH   4   5
ATOM      5  C   UNL     1       3.016  19.886  16.104  1.00  0.00     0.000 C 
BRANCH   5   6
ATOM      6  C   UNL     1       4.353  20.614  16.282  1.00  0.00     0.006 C 
BRANCH   6   7
ATOM      7  C   UNL     1       5.422  20.037  15.349  1.00  0.00     0.053 C 
BRANCH   7   8
ATOM      8  C   UNL     1       6.779  20.541  15.732  1.00  0.00     0.041 C 
ATOM      9  O   UNL     1       6.952  21.115  16.839  1.00  0.00    -0.550 OA
ATOM     10  O   UNL     1       7.840  20.420  14.845  1.00  0.00    -0.550 OA
ENDBRANCH   7   8
ENDBRANCH   6   7
ENDBRANCH   5   6
ENDBRANCH   4   5
ENDBRANCH   3   4
ENDBRANCH   2   3
ENDBRANCH   1   2
BRANCH   1  11
ATOM     11  C   UNL     1      -3.116  20.009  17.401  1.00  0.00     0.000 C 
BRANCH  11  12
ATOM     12  C   UNL     1      -4.436  19.875  16.627  1.00  0.00    -0.000 C 
BRANCH  12  13
ATOM     13  C   UNL     1      -4.446  20.684  15.317  1.00  0.00    -0.000 C 
BRANCH  13  14
ATOM     14  C   UNL     1      -5.840  20.894  14.690  1.00  0.00    -0.000 C 
BRANCH  14  15
ATOM     15  C   UNL     1      -6.817  21.737  15.529  1.00  0.00    -0.000 C 
BRANCH  15  16
ATOM     16  C   UNL     1      -8.077  20.957  15.942  1.00  0.00    -0.000 C 
BRANCH  16  17
ATOM     17  C   UNL     1      -8.495  21.241  17.393  1.00  0.00    -0.003 C 
ATOM     18  C   UNL     1      -8.407  22.723  17.757  1.00  0.00     0.004 C 
ENDBRANCH  16  17
ENDBRANCH  15  16
ENDBRANCH  14  15
ENDBRANCH  13  14
ENDBRANCH  12  13
ENDBRANCH  11  12
ENDBRANCH   1  11
TORSDOF 14
ENDMDL
MODEL 2
REMARK VINA RESULT:    -2.903      1.524      3.350
REMARK INTER + INTRA:          -5.853
REMARK INTER:                  -5.505
REMARK INTRA:                  -0.348
REMARK UNBOUND:                -0.575
REMARK SMILES CCCCCCCCCCCCCCCC(=O)[O-]
REMARK SMILES IDX 9 1 10 2 11 3 12 4 13 5 14 6 15 7 16 8 17 9 18 10 8 11 7 12
REMARK SMILES IDX 6 13 5 14 4 15 3 16 2 17 1 18
REMARK H PARENT
REMARK Flexibility Score: inf
ROOT
ATOM      1  C   UNL     1       1.678  19.877  16.453  1.00  0.00     0.000 C 
ENDROOT
BRANCH   1   2
ATOM      2  C   UNL     1       2.938  20.747  16.316  1.00  0.00     0.000 C 
BRANCH   2   3
ATOM      3  C   UNL     1       3.994  20.118  15.390  1.00  0.00     0.000 C 
BRANCH   3   4
ATOM      4  C   UNL     1       5.375  20.015  16.056  1.00  0.00     0.000 C 
BRANCH   4   5
ATOM      5  C   UNL     1       6.387  21.020  15.485  1.00  0.00     0.000 C 
BRANCH   5   6
ATOM      6  C   UNL     1       7.766  20.834  16.128  1.00  0.00     0.006 C 
BRANCH   6   7
ATOM      7  C   UNL     1       8.797  20.371  15.094  1.00  0.00     0.053 C 
BRANCH   7   8
ATOM      8  C   UNL     1       9.576  21.538  14.571  1.00  0.00     0.041 C 
ATOM      9  O   UNL     1       9.300  22.031  13.446  1.00  0.00    -0.550 OA
ATOM     10  O   UNL     1      10.635  22.050  15.307  1.00  0.00    -0.550 OA
ENDBRANCH   7   8
ENDBRANCH   6   7
ENDBRANCH   5   6
ENDBRANCH   4   5
ENDBRANCH   3   4
ENDBRANCH   2   3
ENDBRANCH   1   2
BRANCH   1  11
ATOM     11  C   UNL     1       0.380  20.698  16.409  1.00  0.00     0.000 C 
BRANCH  11  12
ATOM     12  C   UNL     1      -0.807  19.875  16.932  1.00  0.00    -0.000 C 
BRANCH  12  13
ATOM     13  C   UNL     1      -2.146  20.627  16.832  1.00  0.00    -0.000 C 
BRANCH  13  14
ATOM     14  C   UNL     1      -3.202  19.965  15.924  1.00  0.00    -0.000 C 
BRANCH  14  15
ATOM     15  C   UNL     1      -4.644  20.469  16.118  1.00  0.00    -0.000 C 
BRANCH  15  16
ATOM     16  C   UNL     1      -5.383  20.692  14.787  1.00  0.00    -0.000 C 
BRANCH  16  17
ATOM     17  C   UNL     1      -6.590  21.629  14.934  1.00  0.00    -0.003 C 
ATOM     18  C   UNL     1      -7.323  21.450  16.264  1.00  0.00     0.004 C 
ENDBRANCH  16  17
ENDBRANCH  15  16
ENDBRANCH  14  15
ENDBRANCH  13  14
ENDBRANCH  12  13
ENDBRANCH  11  12
ENDBRANCH   1  11
TORSDOF 14
ENDMDL
MODEL 3
REMARK VINA RESULT:    -2.891      5.591     10.851
REMARK INTER + INTRA:          -5.833
REMARK INTER:                  -5.239
REMARK INTRA:                  -0.594
REMARK UNBOUND:                -0.575
REMARK SMILES CCCCCCCCCCCCCCCC(=O)[O-]
REMARK SMILES IDX 9 1 10 2 11 3 12 4 13 5 14 6 15 7 16 8 17 9 18 10 8 11 7 12
REMARK SMILES IDX 6 13 5 14 4 15 3 16 2 17 1 18
REMARK H PARENT
REMARK Flexibility Score: inf
ROOT
ATOM      1  C   UNL     1      -2.742  20.369  16.269  1.00  0.00     0.000 C 
ENDROOT
BRANCH   1   2
ATOM      2  C   UNL     1      -4.238  20.014  16.251  1.00  0.00     0.000 C 
BRANCH   2   3
ATOM      3  C   UNL     1      -5.008  20.752  15.143  1.00  0.00     0.000 C 
BRANCH   3   4
ATOM      4  C   UNL     1      -6.433  21.137  15.572  1.00  0.00     0.000 C 
BRANCH   4   5
ATOM      5  C   UNL     1      -6.752  20.721  17.016  1.00  0.00     0.000 C 
BRANCH   5   6
ATOM      6  C   UNL     1      -8.266  20.643  17.241  1.00  0.00     0.006 C 
BRANCH   6   7
ATOM      7  C   UNL     1      -8.632  21.056  18.671  1.00  0.00     0.053 C 
BRANCH   7   8
ATOM      8  C   UNL     1      -8.713  22.546  18.781  1.00  0.00     0.041 C 
ATOM      9  O   UNL     1      -8.883  23.250  17.751  1.00  0.00    -0.550 OA
ATOM     10  O   UNL     1      -8.554  23.161  20.016  1.00  0.00    -0.550 OA
ENDBRANCH   7   8
ENDBRANCH   6   7
ENDBRANCH   5   6
ENDBRANCH   4   5
ENDBRANCH   3   4
ENDBRANCH   2   3
ENDBRANCH   1   2
BRANCH   1  11
ATOM     11  C   UNL     1      -2.056  19.993  17.591  1.00  0.00     0.000 C 
BRANCH  11  12
ATOM     12  C   UNL     1      -0.536  19.875  17.406  1.00  0.00    -0.000 C 
BRANCH  12  13
ATOM     13  C   UNL     1      -0.036  20.554  16.118  1.00  0.00    -0.000 C 
BRANCH  13  14
ATOM     14  C   UNL     1       1.440  21.002  16.145  1.00  0.00    -0.000 C 
BRANCH  14  15
ATOM     15  C   UNL     1       2.444  19.925  16.596  1.00  0.00    -0.000 C 
BRANCH  15  16
ATOM     16  C   UNL     1       3.771  19.983  15.819  1.00  0.00    -0.000 C 
BRANCH  16  17
ATOM     17  C   UNL     1       4.835  20.829  16.535  1.00  0.00    -0.003 C 
ATOM     18  C   UNL     1       6.242  20.245  16.408  1.00  0.00     0.004 C 
ENDBRANCH  16  17
ENDBRANCH  15  16
ENDBRANCH  14  15
ENDBRANCH  13  14
ENDBRANCH  12  13
ENDBRANCH  11  12
ENDBRANCH   1  11
TORSDOF 14
ENDMDL
MODEL 4
REMARK VINA RESULT:    -2.872      5.053     11.228
REMARK INTER + INTRA:          -5.797
REMARK INTER:                  -5.448
REMARK INTRA:                  -0.349
REMARK UNBOUND:                -0.575
REMARK SMILES CCCCCCCCCCCCCCCC(=O)[O-]
REMARK SMILES IDX 9 1 10 2 11 3 12 4 13 5 14 6 15 7 16 8 17 9 18 10 8 11 7 12
REMARK SMILES IDX 6 13 5 14 4 15 3 16 2 17 1 18
REMARK H PARENT
REMARK Flexibility Score: inf
ROOT
ATOM      1  C   UNL     1      -0.982  20.468  16.107  1.00  0.00     0.000 C 
ENDROOT
BRANCH   1   2
ATOM      2  C   UNL     1      -2.173  20.463  17.078  1.00  0.00     0.000 C 
BRANCH   2   3
ATOM      3  C   UNL     1      -3.464  19.937  16.428  1.00  0.00     0.000 C 
BRANCH   3   4
ATOM      4  C   UNL     1      -4.113  20.968  15.490  1.00  0.00     0.000 C 
BRANCH   4   5
ATOM      5  C   UNL     1      -5.505  20.536  15.003  1.00  0.00     0.000 C 
BRANCH   5   6
ATOM      6  C   UNL     1      -6.491  21.709  15.054  1.00  0.00     0.006 C 
BRANCH   6   7
ATOM      7  C   UNL     1      -7.804  21.294  15.726  1.00  0.00     0.053 C 
BRANCH   7   8
ATOM      8  C   UNL     1      -7.807  21.702  17.166  1.00  0.00     0.041 C 
ATOM      9  O   UNL     1      -6.944  21.239  17.958  1.00  0.00    -0.550 OA
ATOM     10  O   UNL     1      -8.792  22.556  17.644  1.00  0.00    -0.550 OA
ENDBRANCH   7   8
ENDBRANCH   6   7
ENDBRANCH   5   6
ENDBRANCH   4   5
ENDBRANCH   3   4
ENDBRANCH   2   3
ENDBRANCH   1   2
BRANCH   1  11
ATOM     11  C   UNL     1       0.294  19.877  16.726  1.00  0.00     0.000 C 
BRANCH  11  12
ATOM     12  C   UNL     1       1.523  20.723  16.362  1.00  0.00    -0.000 C 
BRANCH  12  13
ATOM     13  C   UNL     1       2.829  19.908  16.351  1.00  0.00    -0.000 C 
BRANCH  13  14
ATOM     14  C   UNL     1       4.123  20.747  16.336  1.00  0.00    -0.000 C 
BRANCH  14  15
ATOM     15  C   UNL     1       5.384  20.000  15.866  1.00  0.00    -0.000 C 
BRANCH  15  16
ATOM     16  C   UNL     1       6.286  20.859  14.963  1.00  0.00    -0.000 C 
BRANCH  16  17
ATOM     17  C   UNL     1       7.780  20.593  15.199  1.00  0.00    -0.003 C 
ATOM     18  C   UNL     1       8.672  21.212  14.122  1.00  0.00     0.004 C 
ENDBRANCH  16  17
ENDBRANCH  15  16
ENDBRANCH  14  15
ENDBRANCH  13  14
ENDBRANCH  12  13
ENDBRANCH  11  12
ENDBRANCH   1  11
TORSDOF 14
ENDMDL
MODEL 5
REMARK VINA RESULT:    -2.841      1.272      1.987
REMARK INTER + INTRA:          -5.741
REMARK INTER:                  -5.170
REMARK INTRA:                  -0.571
REMARK UNBOUND:                -0.575
REMARK SMILES CCCCCCCCCCCCCCCC(=O)[O-]
REMARK SMILES IDX 9 1 10 2 11 3 12 4 13 5 14 6 15 7 16 8 17 9 18 10 8 11 7 12
REMARK SMILES IDX 6 13 5 14 4 15 3 16 2 17 1 18
REMARK H PARENT
REMARK Flexibility Score: inf
ROOT
ATOM      1  C   UNL     1      -1.662  20.686  16.276  1.00  0.00     0.000 C 
ENDROOT
BRANCH   1   2
ATOM      2  C   UNL     1      -0.273  20.178  16.693  1.00  0.00     0.000 C 
BRANCH   2   3
ATOM      3  C   UNL     1       0.859  20.794  15.853  1.00  0.00     0.000 C 
BRANCH   3   4
ATOM      4  C   UNL     1       2.170  20.934  16.643  1.00  0.00     0.000 C 
BRANCH   4   5
ATOM      5  C   UNL     1       3.301  20.060  16.078  1.00  0.00     0.000 C 
BRANCH   5   6
ATOM      6  C   UNL     1       4.659  20.753  16.237  1.00  0.00     0.006 C 
BRANCH   6   7
ATOM      7  C   UNL     1       5.569  20.458  15.041  1.00  0.00     0.053 C 
BRANCH   7   8
ATOM      8  C   UNL     1       6.993  20.779  15.374  1.00  0.00     0.041 C 
ATOM      9  O   UNL     1       7.871  20.774  14.472  1.00  0.00    -0.550 OA
ATOM     10  O   UNL     1       7.357  21.038  16.688  1.00  0.00    -0.550 OA
ENDBRANCH   7   8
ENDBRANCH   6   7
ENDBRANCH   5   6
ENDBRANCH   4   5
ENDBRANCH   3   4
ENDBRANCH   2   3
ENDBRANCH   1   2
BRANCH   1  11
ATOM     11  C   UNL     1      -2.806  19.932  16.970  1.00  0.00     0.000 C 
BRANCH  11  12
ATOM     12  C   UNL     1      -4.106  20.039  16.159  1.00  0.00    -0.000 C 
BRANCH  12  13
ATOM     13  C   UNL     1      -5.362  20.106  17.047  1.00  0.00    -0.000 C 
BRANCH  13  14
ATOM     14  C   UNL     1      -5.108  19.898  18.554  1.00  0.00    -0.000 C 
BRANCH  14  15
ATOM     15  C   UNL     1      -6.353  20.013  19.452  1.00  0.00    -0.000 C 
BRANCH  15  16
ATOM     16  C   UNL     1      -6.816  21.468  19.648  1.00  0.00    -0.000 C 
BRANCH  16  17
ATOM     17  C   UNL     1      -8.254  21.698  19.162  1.00  0.00    -0.003 C 
ATOM     18  C   UNL     1      -8.318  22.369  17.790  1.00  0.00     0.004 C 
ENDBRANCH  16  17
ENDBRANCH  15  16
ENDBRANCH  14  15
ENDBRANCH  13  14
ENDBRANCH  12  13
ENDBRANCH  11  12
ENDBRANCH   1  11
TORSDOF 14
ENDMDL
MODEL 6
REMARK VINA RESULT:    -2.679      1.388      2.767
REMARK INTER + INTRA:          -5.447
REMARK INTER:                  -5.070
REMARK INTRA:                  -0.377
REMARK UNBOUND:                -0.575
REMARK SMILES CCCCCCCCCCCCCCCC(=O)[O-]
REMARK SMILES IDX 9 1 10 2 11 3 12 4 13 5 14 6 15 7 16 8 17 9 18 10 8 11 7 12
REMARK SMILES IDX 6 13 5 14 4 15 3 16 2 17 1 18
REMARK H PARENT
REMARK Flexibility Score: inf
ROOT
ATOM      1  C   UNL     1       0.845  20.811  16.263  1.00  0.00     0.000 C 
ENDROOT
BRANCH   1   2
ATOM      2  C   UNL     1       2.238  20.165  16.194  1.00  0.00     0.000 C 
BRANCH   2   3
ATOM      3  C   UNL     1       3.353  21.112  16.669  1.00  0.00     0.000 C 
BRANCH   3   4
ATOM      4  C   UNL     1       4.751  20.482  16.550  1.00  0.00     0.000 C 
BRANCH   4   5
ATOM      5  C   UNL     1       5.143  20.177  15.096  1.00  0.00     0.000 C 
BRANCH   5   6
ATOM      6  C   UNL     1       6.570  20.653  14.803  1.00  0.00     0.006 C 
BRANCH   6   7
ATOM      7  C   UNL     1       7.093  20.050  13.495  1.00  0.00     0.053 C 
BRANCH   7   8
ATOM      8  C   UNL     1       8.531  20.412  13.289  1.00  0.00     0.041 C 
ATOM      9  O   UNL     1       9.288  20.588  14.279  1.00  0.00    -0.550 OA
ATOM     10  O   UNL     1       9.022  20.601  12.004  1.00  0.00    -0.550 OA
ENDBRANCH   7   8
ENDBRANCH   6   7
ENDBRANCH   5   6
ENDBRANCH   4   5
ENDBRANCH   3   4
ENDBRANCH   2   3
ENDBRANCH   1   2
BRANCH   1  11
ATOM     11  C   UNL     1      -0.205  19.895  16.910  1.00  0.00     0.000 C 
BRANCH  11  12
ATOM     12  C   UNL     1      -1.533  20.640  17.112  1.00  0.00    -0.000 C 
BRANCH  12  13
ATOM     13  C   UNL     1      -2.741  19.875  16.542  1.00  0.00    -0.000 C 
BRANCH  13  14
ATOM     14  C   UNL     1      -3.571  20.648  15.497  1.00  0.00    -0.000 C 
BRANCH  14  15
ATOM     15  C   UNL     1      -5.093  20.635  15.726  1.00  0.00    -0.000 C 
BRANCH  15  16
ATOM     16  C   UNL     1      -5.891  21.022  14.469  1.00  0.00    -0.000 C 
BRANCH  16  17
ATOM     17  C   UNL     1      -7.381  21.247  14.763  1.00  0.00    -0.003 C 
ATOM     18  C   UNL     1      -7.720  21.113  16.248  1.00  0.00     0.004 C 
ENDBRANCH  16  17
ENDBRANCH  15  16
ENDBRANCH  14  15
ENDBRANCH  13  14
ENDBRANCH  12  13
ENDBRANCH  11  12
ENDBRANCH   1  11
TORSDOF 14
ENDMDL
MODEL 7
REMARK VINA RESULT:    -2.404      4.825     12.349
REMARK INTER + INTRA:          -4.946
REMARK INTER:                  -4.486
REMARK INTRA:                  -0.460
REMARK UNBOUND:                -0.575
REMARK SMILES CCCCCCCCCCCCCCCC(=O)[O-]
REMARK SMILES IDX 9 1 10 2 11 3 12 4 13 5 14 6 15 7 16 8 17 9 18 10 8 11 7 12
REMARK SMILES IDX 6 13 5 14 4 15 3 16 2 17 1 18
REMARK H PARENT
REMARK Flexibility Score: inf
ROOT
ATOM      1  C   UNL     1       6.934  20.692  15.792  1.00  0.00     0.000 C 
ENDROOT
BRANCH   1   2
ATOM      2  C   UNL     1       5.651  19.876  16.014  1.00  0.00     0.000 C 
BRANCH   2   3
ATOM      3  C   UNL     1       4.389  20.755  16.045  1.00  0.00     0.000 C 
BRANCH   3   4
ATOM      4  C   UNL     1       3.112  19.944  16.321  1.00  0.00     0.000 C 
BRANCH   4   5
ATOM      5  C   UNL     1       1.861  20.827  16.444  1.00  0.00     0.000 C 
BRANCH   5   6
ATOM      6  C   UNL     1       0.596  19.970  16.568  1.00  0.00     0.006 C 
BRANCH   6   7
ATOM      7  C   UNL     1      -0.631  20.723  16.044  1.00  0.00     0.053 C 
BRANCH   7   8
ATOM      8  C   UNL     1      -1.856  20.319  16.803  1.00  0.00     0.041 C 
ATOM      9  O   UNL     1      -2.993  20.416  16.270  1.00  0.00    -0.550 OA
ATOM     10  O   UNL     1      -1.747  19.879  18.116  1.00  0.00    -0.550 OA
ENDBRANCH   7   8
ENDBRANCH   6   7
ENDBRANCH   5   6
ENDBRANCH   4   5
ENDBRANCH   3   4
ENDBRANCH   2   3
ENDBRANCH   1   2
BRANCH   1  11
ATOM     11  C   UNL     1       7.523  20.506  14.385  1.00  0.00     0.000 C 
BRANCH  11  12
ATOM     12  C   UNL     1       8.999  20.086  14.459  1.00  0.00    -0.000 C 
BRANCH  12  13
ATOM     13  C   UNL     1       9.936  21.068  13.733  1.00  0.00    -0.000 C 
BRANCH  13  14
ATOM     14  C   UNL     1       9.516  21.429  12.293  1.00  0.00    -0.000 C 
BRANCH  14  15
ATOM     15  C   UNL     1       9.896  20.394  11.219  1.00  0.00    -0.000 C 
BRANCH  15  16
ATOM     16  C   UNL     1      10.964  20.912  10.241  1.00  0.00    -0.000 C 
BRANCH  16  17
ATOM     17  C   UNL     1      10.367  21.345   8.893  1.00  0.00    -0.003 C 
ATOM     18  C   UNL     1       9.032  20.665   8.589  1.00  0.00     0.004 C 
ENDBRANCH  16  17
ENDBRANCH  15  16
ENDBRANCH  14  15
ENDBRANCH  13  14
ENDBRANCH  12  13
ENDBRANCH  11  12
ENDBRANCH   1  11
TORSDOF 14
ENDMDL
MODEL 8
REMARK VINA RESULT:    -2.211      3.262      7.308
REMARK INTER + INTRA:          -4.594
REMARK INTER:                  -4.059
REMARK INTRA:                  -0.536
REMARK UNBOUND:                -0.575
REMARK SMILES CCCCCCCCCCCCCCCC(=O)[O-]
REMARK SMILES IDX 9 1 10 2 11 3 12 4 13 5 14 6 15 7 16 8 17 9 18 10 8 11 7 12
REMARK SMILES IDX 6 13 5 14 4 15 3 16 2 17 1 18
REMARK H PARENT
REMARK Flexibility Score: inf
ROOT
ATOM      1  C   UNL     1       6.582  21.249  16.428  1.00  0.00     0.000 C 
ENDROOT
BRANCH   1   2
ATOM      2  C   UNL     1       7.379  19.950  16.231  1.00  0.00     0.000 C 
BRANCH   2   3
ATOM      3  C   UNL     1       8.345  20.024  15.036  1.00  0.00     0.000 C 
BRANCH   3   4
ATOM      4  C   UNL     1       9.184  21.312  15.035  1.00  0.00     0.000 C 
BRANCH   4   5
ATOM      5  C   UNL     1      10.664  21.058  14.709  1.00  0.00     0.000 C 
BRANCH   5   6
ATOM      6  C   UNL     1      11.110  21.897  13.506  1.00  0.00     0.006 C 
BRANCH   6   7
ATOM      7  C   UNL     1       9.946  22.722  12.948  1.00  0.00     0.053 C 
BRANCH   7   8
ATOM      8  C   UNL     1      10.415  24.085  12.545  1.00  0.00     0.041 C 
ATOM      9  O   UNL     1      11.118  24.771  13.333  1.00  0.00    -0.550 OA
ATOM     10  O   UNL     1      10.036  24.616  11.320  1.00  0.00    -0.550 OA
ENDBRANCH   7   8
ENDBRANCH   6   7
ENDBRANCH   5   6
ENDBRANCH   4   5
ENDBRANCH   3   4
ENDBRANCH   2   3
ENDBRANCH   1   2
BRANCH   1  11
ATOM     11  C   UNL     1       5.225  21.231  15.708  1.00  0.00     0.000 C 
BRANCH  11  12
ATOM     12  C   UNL     1       4.069  21.182  16.718  1.00  0.00    -0.000 C 
BRANCH  12  13
ATOM     13  C   UNL     1       2.918  20.266  16.264  1.00  0.00    -0.000 C 
BRANCH  13  14
ATOM     14  C   UNL     1       1.527  20.933  16.228  1.00  0.00    -0.000 C 
BRANCH  14  15
ATOM     15  C   UNL     1       0.340  19.992  16.501  1.00  0.00    -0.000 C 
BRANCH  15  16
ATOM     16  C   UNL     1      -0.994  20.742  16.654  1.00  0.00    -0.000 C 
BRANCH  16  17
ATOM     17  C   UNL     1      -2.085  19.876  17.302  1.00  0.00    -0.003 C 
ATOM     18  C   UNL     1      -3.488  20.208  16.792  1.00  0.00     0.004 C 
ENDBRANCH  16  17
ENDBRANCH  15  16
ENDBRANCH  14  15
ENDBRANCH  13  14
ENDBRANCH  12  13
ENDBRANCH  11  12
ENDBRANCH   1  11
TORSDOF 14
ENDMDL
MODEL 9
REMARK VINA RESULT:    -2.155      3.286      7.324
REMARK INTER + INTRA:          -4.493
REMARK INTER:                  -4.063
REMARK INTRA:                  -0.431
REMARK UNBOUND:                -0.575
REMARK SMILES CCCCCCCCCCCCCCCC(=O)[O-]
REMARK SMILES IDX 9 1 10 2 11 3 12 4 13 5 14 6 15 7 16 8 17 9 18 10 8 11 7 12
REMARK SMILES IDX 6 13 5 14 4 15 3 16 2 17 1 18
REMARK H PARENT
REMARK Flexibility Score: inf
ROOT
ATOM      1  C   UNL     1       6.488  21.279  16.417  1.00  0.00     0.000 C 
ENDROOT
BRANCH   1   2
ATOM      2  C   UNL     1       7.435  20.068  16.418  1.00  0.00     0.000 C 
BRANCH   2   3
ATOM      3  C   UNL     1       8.149  19.875  15.069  1.00  0.00     0.000 C 
BRANCH   3   4
ATOM      4  C   UNL     1       8.548  21.209  14.418  1.00  0.00     0.000 C 
BRANCH   4   5
ATOM      5  C   UNL     1       9.887  21.127  13.668  1.00  0.00     0.000 C 
BRANCH   5   6
ATOM      6  C   UNL     1       9.714  21.517  12.195  1.00  0.00     0.006 C 
BRANCH   6   7
ATOM      7  C   UNL     1      10.618  20.670  11.293  1.00  0.00     0.053 C 
BRANCH   7   8
ATOM      8  C   UNL     1       9.900  20.298  10.034  1.00  0.00     0.041 C 
ATOM      9  O   UNL     1      10.533  20.196   8.950  1.00  0.00    -0.550 OA
ATOM     10  O   UNL     1       8.524  20.111  10.047  1.00  0.00    -0.550 OA
ENDBRANCH   7   8
ENDBRANCH   6   7
ENDBRANCH   5   6
ENDBRANCH   4   5
ENDBRANCH   3   4
ENDBRANCH   2   3
ENDBRANCH   1   2
BRANCH   1  11
ATOM     11  C   UNL     1       5.128  20.973  15.772  1.00  0.00     0.000 C 
BRANCH  11  12
ATOM     12  C   UNL     1       3.994  21.091  16.801  1.00  0.00    -0.000 C 
BRANCH  12  13
ATOM     13  C   UNL     1       2.843  20.102  16.540  1.00  0.00    -0.000 C 
BRANCH  13  14
ATOM     14  C   UNL     1       1.464  20.752  16.306  1.00  0.00    -0.000 C 
BRANCH  14  15
ATOM     15  C   UNL     1       0.255  19.888  16.710  1.00  0.00    -0.000 C 
BRANCH  15  16
ATOM     16  C   UNL     1      -1.092  20.572  16.418  1.00  0.00    -0.000 C 
BRANCH  16  17
ATOM     17  C   UNL     1      -2.269  19.877  17.119  1.00  0.00    -0.003 C 
ATOM     18  C   UNL     1      -3.576  19.986  16.334  1.00  0.00     0.004 C 
ENDBRANCH  16  17
ENDBRANCH  15  16
ENDBRANCH  14  15
ENDBRANCH  13  14
ENDBRANCH  12  13
ENDBRANCH  11  12
ENDBRANCH   1  11
TORSDOF 14
ENDMDL
