MODEL 1
REMARK VINA RESULT:    -4.702      0.000      0.000
REMARK INTER + INTRA:          -4.840
REMARK INTER:                  -4.840
REMARK INTRA:                   0.000
REMARK UNBOUND:                 0.000
REMARK SMILES Nc1ncnc2nc[nH]c12
REMARK SMILES IDX 8 1 7 2 6 3 5 4 4 5 3 6 2 7 10 8 9 9 1 11
REMARK H PARENT 9 10 1 12 1 13
REMARK Flexibility Score: inf
ROOT
ATOM      1  C   UNL     1      -2.198  14.294  -1.580  1.00  0.00     0.199 A 
ATOM      2  N   UNL     1      -1.789  15.124  -0.580  1.00  0.00    -0.217 NA
ATOM      3  C   UNL     1      -1.819  14.315   0.491  1.00  0.00     0.182 A 
ATOM      4  N   UNL     1      -1.496  14.649   1.764  1.00  0.00    -0.215 NA
ATOM      5  C   UNL     1      -1.589  13.683   2.728  1.00  0.00     0.226 A 
ATOM      6  N   UNL     1      -1.997  12.414   2.405  1.00  0.00    -0.217 NA
ATOM      7  C   UNL     1      -2.323  12.075   1.121  1.00  0.00     0.152 A 
ATOM      8  C   UNL     1      -2.223  13.070   0.151  1.00  0.00     0.127 A 
ATOM      9  N   UNL     1      -2.472  13.032  -1.163  1.00  0.00    -0.340 N 
ATOM     10  H   UNL     1      -2.798  12.228  -1.743  1.00  0.00     0.168 HD
ENDROOT
BRANCH   7  11
ATOM     11  N   UNL     1      -2.746  10.748   0.808  1.00  0.00    -0.382 N 
ATOM     12  H   UNL     1      -3.372  10.211   1.448  1.00  0.00     0.158 HD
ATOM     13  H   UNL     1      -2.428  10.293  -0.077  1.00  0.00     0.158 HD
ENDBRANCH   7  11
TORSDOF 1
ENDMDL
MODEL 2
REMARK VINA RESULT:    -4.683      1.801      2.583
REMARK INTER + INTRA:          -4.820
REMARK INTER:                  -4.820
REMARK INTRA:                   0.000
REMARK UNBOUND:                 0.000
REMARK SMILES Nc1ncnc2nc[nH]c12
REMARK SMILES IDX 8 1 7 2 6 3 5 4 4 5 3 6 2 7 10 8 9 9 1 11
REMARK H PARENT 9 10 1 12 1 13
REMARK Flexibility Score: inf
ROOT
ATOM      1  C   UNL     1      -2.471  12.514  -0.311  1.00  0.00     0.199 A 
ATOM      2  N   UNL     1      -1.255  12.129   0.167  1.00  0.00    -0.217 NA
ATOM      3  C   UNL     1      -1.224  12.720   1.373  1.00  0.00     0.182 A 
ATOM      4  N   UNL     1      -0.217  12.656   2.278  1.00  0.00    -0.215 NA
ATOM      5  C   UNL     1      -0.368  13.328   3.459  1.00  0.00     0.226 A 
ATOM      6  N   UNL     1      -1.511  14.043   3.713  1.00  0.00    -0.217 NA
ATOM      7  C   UNL     1      -2.528  14.108   2.801  1.00  0.00     0.152 A 
ATOM      8  C   UNL     1      -2.359  13.418   1.603  1.00  0.00     0.127 A 
ATOM      9  N   UNL     1      -3.169  13.303   0.544  1.00  0.00    -0.340 N 
ATOM     10  H   UNL     1      -4.116  13.716   0.398  1.00  0.00     0.168 HD
ENDROOT
BRANCH   7  11
ATOM     11  N   UNL     1      -3.709  14.858   3.087  1.00  0.00    -0.382 N 
ATOM     12  H   UNL     1      -3.712  15.614   3.807  1.00  0.00     0.158 HD
ATOM     13  H   UNL     1      -4.595  14.656   2.572  1.00  0.00     0.158 HD
ENDBRANCH   7  11
TORSDOF 1
ENDMDL
MODEL 3
REMARK VINA RESULT:    -4.652      1.055      3.471
REMARK INTER + INTRA:          -4.788
REMARK INTER:                  -4.788
REMARK INTRA:                   0.000
REMARK UNBOUND:                 0.000
REMARK SMILES Nc1ncnc2nc[nH]c12
REMARK SMILES IDX 8 1 7 2 6 3 5 4 4 5 3 6 2 7 10 8 9 9 1 11
REMARK H PARENT 9 10 1 12 1 13
REMARK Flexibility Score: inf
ROOT
ATOM      1  C   UNL     1      -2.413  14.196   3.220  1.00  0.00     0.199 A 
ATOM      2  N   UNL     1      -2.215  12.849   3.248  1.00  0.00    -0.217 NA
ATOM      3  C   UNL     1      -2.181  12.539   1.942  1.00  0.00     0.182 A 
ATOM      4  N   UNL     1      -2.004  11.306   1.409  1.00  0.00    -0.215 NA
ATOM      5  C   UNL     1      -1.998  11.186   0.046  1.00  0.00     0.226 A 
ATOM      6  N   UNL     1      -2.166  12.291  -0.750  1.00  0.00    -0.217 NA
ATOM      7  C   UNL     1      -2.345  13.536  -0.214  1.00  0.00     0.152 A 
ATOM      8  C   UNL     1      -2.348  13.640   1.174  1.00  0.00     0.127 A 
ATOM      9  N   UNL     1      -2.499  14.709   1.966  1.00  0.00    -0.340 N 
ATOM     10  H   UNL     1      -2.647  15.706   1.696  1.00  0.00     0.168 HD
ENDROOT
BRANCH   7  11
ATOM     11  N   UNL     1      -2.517  14.671  -1.063  1.00  0.00    -0.382 N 
ATOM     12  H   UNL     1      -2.269  15.633  -0.742  1.00  0.00     0.158 HD
ATOM     13  H   UNL     1      -2.900  14.549  -2.027  1.00  0.00     0.158 HD
ENDBRANCH   7  11
TORSDOF 1
ENDMDL
MODEL 4
REMARK VINA RESULT:    -4.370      1.127      2.954
REMARK INTER + INTRA:          -4.498
REMARK INTER:                  -4.498
REMARK INTRA:                   0.000
REMARK UNBOUND:                 0.000
REMARK SMILES Nc1ncnc2nc[nH]c12
REMARK SMILES IDX 8 1 7 2 6 3 5 4 4 5 3 6 2 7 10 8 9 9 1 11
REMARK H PARENT 9 10 1 12 1 13
REMARK Flexibility Score: inf
ROOT
ATOM      1  C   UNL     1      -2.168  11.331   0.480  1.00  0.00     0.199 A 
ATOM      2  N   UNL     1      -1.762  11.892   1.652  1.00  0.00    -0.217 NA
ATOM      3  C   UNL     1      -1.600  13.180   1.311  1.00  0.00     0.182 A 
ATOM      4  N   UNL     1      -1.200  14.187   2.124  1.00  0.00    -0.215 NA
ATOM      5  C   UNL     1      -1.093  15.443   1.592  1.00  0.00     0.226 A 
ATOM      6  N   UNL     1      -1.386  15.666   0.271  1.00  0.00    -0.217 NA
ATOM      7  C   UNL     1      -1.790  14.651  -0.551  1.00  0.00     0.152 A 
ATOM      8  C   UNL     1      -1.894  13.379   0.006  1.00  0.00     0.127 A 
ATOM      9  N   UNL     1      -2.258  12.215  -0.546  1.00  0.00    -0.340 N 
ATOM     10  H   UNL     1      -2.546  12.021  -1.530  1.00  0.00     0.168 HD
ENDROOT
BRANCH   7  11
ATOM     11  N   UNL     1      -2.090  14.908  -1.923  1.00  0.00    -0.382 N 
ATOM     12  H   UNL     1      -2.848  15.571  -2.199  1.00  0.00     0.158 HD
ATOM     13  H   UNL     1      -1.548  14.428  -2.676  1.00  0.00     0.158 HD
ENDBRANCH   7  11
TORSDOF 1
ENDMDL
MODEL 5
REMARK VINA RESULT:    -4.196      0.796      2.853
REMARK INTER + INTRA:          -4.319
REMARK INTER:                  -4.319
REMARK INTRA:                   0.000
REMARK UNBOUND:                 0.000
REMARK SMILES Nc1ncnc2nc[nH]c12
REMARK SMILES IDX 8 1 7 2 6 3 5 4 4 5 3 6 2 7 10 8 9 9 1 11
REMARK H PARENT 9 10 1 12 1 13
REMARK Flexibility Score: inf
ROOT
ATOM      1  C   UNL     1      -2.066  13.999   3.446  1.00  0.00     0.199 A 
ATOM      2  N   UNL     1      -1.844  14.940   2.486  1.00  0.00    -0.217 NA
ATOM      3  C   UNL     1      -1.973  14.229   1.355  1.00  0.00     0.182 A 
ATOM      4  N   UNL     1      -1.847  14.695   0.089  1.00  0.00    -0.215 NA
ATOM      5  C   UNL     1      -2.015  13.814  -0.944  1.00  0.00     0.226 A 
ATOM      6  N   UNL     1      -2.304  12.497  -0.694  1.00  0.00    -0.217 NA
ATOM      7  C   UNL     1      -2.432  12.024   0.582  1.00  0.00     0.152 A 
ATOM      8  C   UNL     1      -2.258  12.934   1.622  1.00  0.00     0.127 A 
ATOM      9  N   UNL     1      -2.321  12.762   2.948  1.00  0.00    -0.340 N 
ATOM     10  H   UNL     1      -2.521  11.890   3.485  1.00  0.00     0.168 HD
ENDROOT
BRANCH   7  11
ATOM     11  N   UNL     1      -2.733  10.648   0.817  1.00  0.00    -0.382 N 
ATOM     12  H   UNL     1      -2.316  10.130   1.623  1.00  0.00     0.158 HD
ATOM     13  H   UNL     1      -3.382  10.139   0.177  1.00  0.00     0.158 HD
ENDBRANCH   7  11
TORSDOF 1
ENDMDL
MODEL 6
REMARK VINA RESULT:    -4.000      1.214      3.731
REMARK INTER + INTRA:          -4.116
REMARK INTER:                  -4.116
REMARK INTRA:                   0.000
REMARK UNBOUND:                 0.000
REMARK SMILES Nc1ncnc2nc[nH]c12
REMARK SMILES IDX 8 1 7 2 6 3 5 4 4 5 3 6 2 7 10 8 9 9 1 11
REMARK H PARENT 9 10 1 12 1 13
REMARK Flexibility Score: inf
ROOT
ATOM      1  C   UNL     1      -1.785  11.612   0.956  1.00  0.00     0.199 A 
ATOM      2  N   UNL     1      -2.022  11.576  -0.385  1.00  0.00    -0.217 NA
ATOM      3  C   UNL     1      -1.959  12.874  -0.721  1.00  0.00     0.182 A 
ATOM      4  N   UNL     1      -2.126  13.397  -1.960  1.00  0.00    -0.215 NA
ATOM      5  C   UNL     1      -2.025  14.753  -2.107  1.00  0.00     0.226 A 
ATOM      6  N   UNL     1      -1.760  15.553  -1.024  1.00  0.00    -0.217 NA
ATOM      7  C   UNL     1      -1.592  15.027   0.226  1.00  0.00     0.152 A 
ATOM      8  C   UNL     1      -1.698  13.645   0.359  1.00  0.00     0.127 A 
ATOM      9  N   UNL     1      -1.583  12.864   1.440  1.00  0.00    -0.340 N 
ATOM     10  H   UNL     1      -1.385  13.139   2.427  1.00  0.00     0.168 HD
ENDROOT
BRANCH   7  11
ATOM     11  N   UNL     1      -1.318  15.880   1.339  1.00  0.00    -0.382 N 
ATOM     12  H   UNL     1      -2.035  16.544   1.705  1.00  0.00     0.158 HD
ATOM     13  H   UNL     1      -0.383  15.848   1.804  1.00  0.00     0.158 HD
ENDBRANCH   7  11
TORSDOF 1
ENDMDL
MODEL 7
REMARK VINA RESULT:    -3.970      9.376     10.798
REMARK INTER + INTRA:          -4.086
REMARK INTER:                  -4.086
REMARK INTRA:                   0.000
REMARK UNBOUND:                 0.000
REMARK SMILES Nc1ncnc2nc[nH]c12
REMARK SMILES IDX 8 1 7 2 6 3 5 4 4 5 3 6 2 7 10 8 9 9 1 11
REMARK H PARENT 9 10 1 12 1 13
REMARK Flexibility Score: inf
ROOT
ATOM      1  C   UNL     1      -8.017   9.501   5.685  1.00  0.00     0.199 A 
ATOM      2  N   UNL     1      -7.495   9.016   6.845  1.00  0.00    -0.217 NA
ATOM      3  C   UNL     1      -8.067   7.803   6.929  1.00  0.00     0.182 A 
ATOM      4  N   UNL     1      -7.883   6.890   7.913  1.00  0.00    -0.215 NA
ATOM      5  C   UNL     1      -8.556   5.703   7.826  1.00  0.00     0.226 A 
ATOM      6  N   UNL     1      -9.391   5.452   6.766  1.00  0.00    -0.217 NA
ATOM      7  C   UNL     1      -9.577   6.373   5.773  1.00  0.00     0.152 A 
ATOM      8  C   UNL     1      -8.885   7.576   5.876  1.00  0.00     0.127 A 
ATOM      9  N   UNL     1      -8.871   8.644   5.070  1.00  0.00    -0.340 N 
ATOM     10  H   UNL     1      -9.389   8.794   4.176  1.00  0.00     0.168 HD
ENDROOT
BRANCH   7  11
ATOM     11  N   UNL     1     -10.451   6.089   4.680  1.00  0.00    -0.382 N 
ATOM     12  H   UNL     1     -11.093   6.817   4.294  1.00  0.00     0.158 HD
ATOM     13  H   UNL     1     -10.458   5.138   4.249  1.00  0.00     0.158 HD
ENDBRANCH   7  11
TORSDOF 1
ENDMDL
MODEL 8
REMARK VINA RESULT:    -3.927      1.267      2.690
REMARK INTER + INTRA:          -4.042
REMARK INTER:                  -4.042
REMARK INTRA:                   0.000
REMARK UNBOUND:                 0.000
REMARK SMILES Nc1ncnc2nc[nH]c12
REMARK SMILES IDX 8 1 7 2 6 3 5 4 4 5 3 6 2 7 10 8 9 9 1 11
REMARK H PARENT 9 10 1 12 1 13
REMARK Flexibility Score: inf
ROOT
ATOM      1  C   UNL     1      -0.976  16.416   1.175  1.00  0.00     0.199 A 
ATOM      2  N   UNL     1      -1.082  15.994  -0.115  1.00  0.00    -0.217 NA
ATOM      3  C   UNL     1      -1.582  14.756   0.030  1.00  0.00     0.182 A 
ATOM      4  N   UNL     1      -1.882  13.884  -0.963  1.00  0.00    -0.215 NA
ATOM      5  C   UNL     1      -2.385  12.660  -0.617  1.00  0.00     0.226 A 
ATOM      6  N   UNL     1      -2.578  12.334   0.701  1.00  0.00    -0.217 NA
ATOM      7  C   UNL     1      -2.276  13.212   1.704  1.00  0.00     0.152 A 
ATOM      8  C   UNL     1      -1.765  14.454   1.336  1.00  0.00     0.127 A 
ATOM      9  N   UNL     1      -1.385  15.496   2.086  1.00  0.00    -0.340 N 
ATOM     10  H   UNL     1      -1.397  15.591   3.125  1.00  0.00     0.168 HD
ENDROOT
BRANCH   7  11
ATOM     11  N   UNL     1      -2.486  12.851   3.070  1.00  0.00    -0.382 N 
ATOM     12  H   UNL     1      -1.700  12.513   3.670  1.00  0.00     0.158 HD
ATOM     13  H   UNL     1      -3.440  12.920   3.488  1.00  0.00     0.158 HD
ENDBRANCH   7  11
TORSDOF 1
ENDMDL
MODEL 9
REMARK VINA RESULT:    -3.828      1.106      2.873
REMARK INTER + INTRA:          -3.940
REMARK INTER:                  -3.940
REMARK INTRA:                   0.000
REMARK UNBOUND:                 0.000
REMARK SMILES Nc1ncnc2nc[nH]c12
REMARK SMILES IDX 8 1 7 2 6 3 5 4 4 5 3 6 2 7 10 8 9 9 1 11
REMARK H PARENT 9 10 1 12 1 13
REMARK Flexibility Score: inf
ROOT
ATOM      1  C   UNL     1      -1.011  15.832   1.943  1.00  0.00     0.199 A 
ATOM      2  N   UNL     1      -1.032  16.274   0.655  1.00  0.00    -0.217 NA
ATOM      3  C   UNL     1      -1.494  15.201  -0.007  1.00  0.00     0.182 A 
ATOM      4  N   UNL     1      -1.709  15.106  -1.341  1.00  0.00    -0.215 NA
ATOM      5  C   UNL     1      -2.186  13.923  -1.835  1.00  0.00     0.226 A 
ATOM      6  N   UNL     1      -2.438  12.869  -0.995  1.00  0.00    -0.217 NA
ATOM      7  C   UNL     1      -2.222  12.964   0.352  1.00  0.00     0.152 A 
ATOM      8  C   UNL     1      -1.737  14.174   0.839  1.00  0.00     0.127 A 
ATOM      9  N   UNL     1      -1.435  14.552   2.087  1.00  0.00    -0.340 N 
ATOM     10  H   UNL     1      -1.507  14.001   2.971  1.00  0.00     0.168 HD
ENDROOT
BRANCH   7  11
ATOM     11  N   UNL     1      -2.492  11.853   1.207  1.00  0.00    -0.382 N 
ATOM     12  H   UNL     1      -1.721  11.322   1.670  1.00  0.00     0.158 HD
ATOM     13  H   UNL     1      -3.478  11.554   1.381  1.00  0.00     0.158 HD
ENDBRANCH   7  11
TORSDOF 1
ENDMDL
