MODEL 1
REMARK VINA RESULT:    -5.163      0.000      0.000
REMARK INTER + INTRA:          -7.594
REMARK INTER:                  -7.276
REMARK INTRA:                  -0.318
REMARK UNBOUND:                -0.318
REMARK SMILES CCCCCCCCC(=O)[O-]
REMARK SMILES IDX 6 1 7 2 8 3 9 4 10 5 11 6 5 7 4 8 3 9 2 10 1 11
REMARK H PARENT
REMARK Flexibility Score: inf
ROOT
ATOM      1  C   UNL     1      23.433 -13.335  18.856  1.00  0.00     0.000 C 
ENDROOT
BRANCH   1   2
ATOM      2  C   UNL     1      22.609 -12.160  19.414  1.00  0.00     0.006 C 
BRANCH   2   3
ATOM      3  C   UNL     1      22.658 -12.072  20.945  1.00  0.00     0.053 C 
BRANCH   3   4
ATOM      4  C   UNL     1      23.215 -10.752  21.374  1.00  0.00     0.041 C 
ATOM      5  O   UNL     1      23.086 -10.367  22.565  1.00  0.00    -0.550 OA
ATOM      6  O   UNL     1      23.919  -9.968  20.469  1.00  0.00    -0.550 OA
ENDBRANCH   3   4
ENDBRANCH   2   3
ENDBRANCH   1   2
BRANCH   1   7
ATOM      7  C   UNL     1      24.349 -12.981  17.668  1.00  0.00     0.000 C 
BRANCH   7   8
ATOM      8  C   UNL     1      23.624 -12.427  16.426  1.00  0.00    -0.000 C 
BRANCH   8   9
ATOM      9  C   UNL     1      24.504 -11.590  15.476  1.00  0.00    -0.000 C 
BRANCH   9  10
ATOM     10  C   UNL     1      25.808 -11.063  16.100  1.00  0.00    -0.003 C 
ATOM     11  C   UNL     1      26.926 -10.872  15.076  1.00  0.00     0.004 C 
ENDBRANCH   9  10
ENDBRANCH   8   9
ENDBRANCH   7   8
ENDBRANCH   1   7
TORSDOF 7
ENDMDL
MODEL 2
REMARK VINA RESULT:    -5.132      2.933      5.469
REMARK INTER + INTRA:          -7.550
REMARK INTER:                  -7.264
REMARK INTRA:                  -0.286
REMARK UNBOUND:                -0.318
REMARK SMILES CCCCCCCCC(=O)[O-]
REMARK SMILES IDX 6 1 7 2 8 3 9 4 10 5 11 6 5 7 4 8 3 9 2 10 1 11
REMARK H PARENT
REMARK Flexibility Score: inf
ROOT
ATOM      1  C   UNL     1      23.675 -12.591  16.461  1.00  0.00     0.000 C 
ENDROOT
BRANCH   1   2
ATOM      2  C   UNL     1      24.623 -11.611  15.747  1.00  0.00     0.006 C 
BRANCH   2   3
ATOM      3  C   UNL     1      25.507 -10.822  16.721  1.00  0.00     0.053 C 
BRANCH   3   4
ATOM      4  C   UNL     1      26.915 -10.764  16.218  1.00  0.00     0.041 C 
ATOM      5  O   UNL     1      27.230  -9.950  15.310  1.00  0.00    -0.550 OA
ATOM      6  O   UNL     1      27.889 -11.577  16.784  1.00  0.00    -0.550 OA
ENDBRANCH   3   4
ENDBRANCH   2   3
ENDBRANCH   1   2
BRANCH   1   7
ATOM      7  C   UNL     1      23.914 -12.742  17.976  1.00  0.00     0.000 C 
BRANCH   7   8
ATOM      8  C   UNL     1      22.636 -12.767  18.840  1.00  0.00    -0.000 C 
BRANCH   8   9
ATOM      9  C   UNL     1      22.515 -11.614  19.857  1.00  0.00    -0.000 C 
BRANCH   9  10
ATOM     10  C   UNL     1      22.691 -12.029  21.328  1.00  0.00    -0.003 C 
ATOM     11  C   UNL     1      23.012 -10.851  22.246  1.00  0.00     0.004 C 
ENDBRANCH   9  10
ENDBRANCH   8   9
ENDBRANCH   7   8
ENDBRANCH   1   7
TORSDOF 7
ENDMDL
MODEL 3
REMARK VINA RESULT:    -4.851      2.290      5.166
REMARK INTER + INTRA:          -7.155
REMARK INTER:                  -6.780
REMARK INTRA:                  -0.374
REMARK UNBOUND:                -0.318
REMARK SMILES CCCCCCCCC(=O)[O-]
REMARK SMILES IDX 6 1 7 2 8 3 9 4 10 5 11 6 5 7 4 8 3 9 2 10 1 11
REMARK H PARENT
REMARK Flexibility Score: inf
ROOT
ATOM      1  C   UNL     1      24.735 -11.046  15.645  1.00  0.00     0.000 C 
ENDROOT
BRANCH   1   2
ATOM      2  C   UNL     1      26.175 -11.183  15.117  1.00  0.00     0.006 C 
BRANCH   2   3
ATOM      3  C   UNL     1      27.171 -10.291  15.867  1.00  0.00     0.053 C 
BRANCH   3   4
ATOM      4  C   UNL     1      27.413 -10.823  17.244  1.00  0.00     0.041 C 
ATOM      5  O   UNL     1      27.171 -10.107  18.251  1.00  0.00    -0.550 OA
ATOM      6  O   UNL     1      27.862 -12.126  17.416  1.00  0.00    -0.550 OA
ENDBRANCH   3   4
ENDBRANCH   2   3
ENDBRANCH   1   2
BRANCH   1   7
ATOM      7  C   UNL     1      24.085 -12.363  16.112  1.00  0.00     0.000 C 
BRANCH   7   8
ATOM      8  C   UNL     1      24.114 -12.601  17.636  1.00  0.00    -0.000 C 
BRANCH   8   9
ATOM      9  C   UNL     1      22.740 -12.526  18.334  1.00  0.00    -0.000 C 
BRANCH   9  10
ATOM     10  C   UNL     1      22.735 -12.993  19.800  1.00  0.00    -0.003 C 
ATOM     11  C   UNL     1      22.676 -11.835  20.795  1.00  0.00     0.004 C 
ENDBRANCH   9  10
ENDBRANCH   8   9
ENDBRANCH   7   8
ENDBRANCH   1   7
TORSDOF 7
ENDMDL
MODEL 4
REMARK VINA RESULT:    -4.703      1.384      2.281
REMARK INTER + INTRA:          -6.945
REMARK INTER:                  -6.508
REMARK INTRA:                  -0.437
REMARK UNBOUND:                -0.318
REMARK SMILES CCCCCCCCC(=O)[O-]
REMARK SMILES IDX 6 1 7 2 8 3 9 4 10 5 11 6 5 7 4 8 3 9 2 10 1 11
REMARK H PARENT
REMARK Flexibility Score: inf
ROOT
ATOM      1  C   UNL     1      23.933 -12.569  16.477  1.00  0.00     0.000 C 
ENDROOT
BRANCH   1   2
ATOM      2  C   UNL     1      23.926 -12.919  17.976  1.00  0.00     0.006 C 
BRANCH   2   3
ATOM      3  C   UNL     1      22.614 -12.534  18.671  1.00  0.00     0.053 C 
BRANCH   3   4
ATOM      4  C   UNL     1      22.893 -11.865  19.979  1.00  0.00     0.041 C 
ATOM      5  O   UNL     1      22.515 -12.396  21.056  1.00  0.00    -0.550 OA
ATOM      6  O   UNL     1      23.613 -10.677  20.011  1.00  0.00    -0.550 OA
ENDBRANCH   3   4
ENDBRANCH   2   3
ENDBRANCH   1   2
BRANCH   1   7
ATOM      7  C   UNL     1      24.614 -11.232  16.123  1.00  0.00     0.000 C 
BRANCH   7   8
ATOM      8  C   UNL     1      25.573 -11.286  14.917  1.00  0.00    -0.000 C 
BRANCH   8   9
ATOM      9  C   UNL     1      27.032 -10.891  15.225  1.00  0.00    -0.000 C 
BRANCH   9  10
ATOM     10  C   UNL     1      27.340 -10.672  16.717  1.00  0.00    -0.003 C 
ATOM     11  C   UNL     1      27.966 -11.895  17.383  1.00  0.00     0.004 C 
ENDBRANCH   9  10
ENDBRANCH   8   9
ENDBRANCH   7   8
ENDBRANCH   1   7
TORSDOF 7
ENDMDL
MODEL 5
REMARK VINA RESULT:    -4.602      1.848      2.765
REMARK INTER + INTRA:          -6.803
REMARK INTER:                  -6.498
REMARK INTRA:                  -0.305
REMARK UNBOUND:                -0.318
REMARK SMILES CCCCCCCCC(=O)[O-]
REMARK SMILES IDX 6 1 7 2 8 3 9 4 10 5 11 6 5 7 4 8 3 9 2 10 1 11
REMARK H PARENT
REMARK Flexibility Score: inf
ROOT
ATOM      1  C   UNL     1      23.694 -12.496  16.199  1.00  0.00     0.000 C 
ENDROOT
BRANCH   1   2
ATOM      2  C   UNL     1      23.826 -12.868  17.687  1.00  0.00     0.006 C 
BRANCH   2   3
ATOM      3  C   UNL     1      22.621 -12.417  18.522  1.00  0.00     0.053 C 
BRANCH   3   4
ATOM      4  C   UNL     1      22.715 -12.966  19.911  1.00  0.00     0.041 C 
ATOM      5  O   UNL     1      22.888 -12.191  20.888  1.00  0.00    -0.550 OA
ATOM      6  O   UNL     1      22.564 -14.329  20.130  1.00  0.00    -0.550 OA
ENDBRANCH   3   4
ENDBRANCH   2   3
ENDBRANCH   1   2
BRANCH   1   7
ATOM      7  C   UNL     1      24.709 -11.450  15.696  1.00  0.00     0.000 C 
BRANCH   7   8
ATOM      8  C   UNL     1      25.673 -10.907  16.770  1.00  0.00    -0.000 C 
BRANCH   8   9
ATOM      9  C   UNL     1      27.163 -11.218  16.525  1.00  0.00    -0.000 C 
BRANCH   9  10
ATOM     10  C   UNL     1      27.659 -10.920  15.099  1.00  0.00    -0.003 C 
ATOM     11  C   UNL     1      29.183 -10.908  14.987  1.00  0.00     0.004 C 
ENDBRANCH   9  10
ENDBRANCH   8   9
ENDBRANCH   7   8
ENDBRANCH   1   7
TORSDOF 7
ENDMDL
MODEL 6
REMARK VINA RESULT:    -4.503      2.652      4.682
REMARK INTER + INTRA:          -6.664
REMARK INTER:                  -6.052
REMARK INTRA:                  -0.612
REMARK UNBOUND:                -0.318
REMARK SMILES CCCCCCCCC(=O)[O-]
REMARK SMILES IDX 6 1 7 2 8 3 9 4 10 5 11 6 5 7 4 8 3 9 2 10 1 11
REMARK H PARENT
REMARK Flexibility Score: inf
ROOT
ATOM      1  C   UNL     1      22.627 -13.450  20.423  1.00  0.00     0.000 C 
ENDROOT
BRANCH   1   2
ATOM      2  C   UNL     1      23.423 -13.547  19.108  1.00  0.00     0.006 C 
BRANCH   2   3
ATOM      3  C   UNL     1      22.954 -12.538  18.053  1.00  0.00     0.053 C 
BRANCH   3   4
ATOM      4  C   UNL     1      24.011 -12.343  17.013  1.00  0.00     0.041 C 
ATOM      5  O   UNL     1      23.737 -12.498  15.794  1.00  0.00    -0.550 OA
ATOM      6  O   UNL     1      25.288 -11.944  17.386  1.00  0.00    -0.550 OA
ENDBRANCH   3   4
ENDBRANCH   2   3
ENDBRANCH   1   2
BRANCH   1   7
ATOM      7  C   UNL     1      22.152 -12.032  20.794  1.00  0.00     0.000 C 
BRANCH   7   8
ATOM      8  C   UNL     1      22.877 -11.394  21.996  1.00  0.00    -0.000 C 
BRANCH   8   9
ATOM      9  C   UNL     1      23.667 -10.109  21.674  1.00  0.00    -0.000 C 
BRANCH   9  10
ATOM     10  C   UNL     1      24.056  -9.943  20.194  1.00  0.00    -0.003 C 
ATOM     11  C   UNL     1      25.530  -9.592  20.001  1.00  0.00     0.004 C 
ENDBRANCH   9  10
ENDBRANCH   8   9
ENDBRANCH   7   8
ENDBRANCH   1   7
TORSDOF 7
ENDMDL
MODEL 7
REMARK VINA RESULT:    -4.444      3.112      5.628
REMARK INTER + INTRA:          -6.581
REMARK INTER:                  -6.271
REMARK INTRA:                  -0.310
REMARK UNBOUND:                -0.318
REMARK SMILES CCCCCCCCC(=O)[O-]
REMARK SMILES IDX 6 1 7 2 8 3 9 4 10 5 11 6 5 7 4 8 3 9 2 10 1 11
REMARK H PARENT
REMARK Flexibility Score: inf
ROOT
ATOM      1  C   UNL     1      25.474 -10.803  16.681  1.00  0.00     0.000 C 
ENDROOT
BRANCH   1   2
ATOM      2  C   UNL     1      26.965 -11.103  16.444  1.00  0.00     0.006 C 
BRANCH   2   3
ATOM      3  C   UNL     1      27.613 -10.144  15.437  1.00  0.00     0.053 C 
BRANCH   3   4
ATOM      4  C   UNL     1      28.198  -8.963  16.145  1.00  0.00     0.041 C 
ATOM      5  O   UNL     1      28.566  -9.062  17.345  1.00  0.00    -0.550 OA
ATOM      6  O   UNL     1      28.380  -7.766  15.464  1.00  0.00    -0.550 OA
ENDBRANCH   3   4
ENDBRANCH   2   3
ENDBRANCH   1   2
BRANCH   1   7
ATOM      7  C   UNL     1      24.506 -11.495  15.701  1.00  0.00     0.000 C 
BRANCH   7   8
ATOM      8  C   UNL     1      23.621 -12.593  16.323  1.00  0.00    -0.000 C 
BRANCH   8   9
ATOM      9  C   UNL     1      23.872 -12.863  17.821  1.00  0.00    -0.000 C 
BRANCH   9  10
ATOM     10  C   UNL     1      22.673 -12.570  18.740  1.00  0.00    -0.003 C 
ATOM     11  C   UNL     1      22.698 -13.386  20.032  1.00  0.00     0.004 C 
ENDBRANCH   9  10
ENDBRANCH   8   9
ENDBRANCH   7   8
ENDBRANCH   1   7
TORSDOF 7
ENDMDL
MODEL 8
REMARK VINA RESULT:    -4.436      2.285      3.769
REMARK INTER + INTRA:          -6.570
REMARK INTER:                  -5.876
REMARK INTRA:                  -0.695
REMARK UNBOUND:                -0.318
REMARK SMILES CCCCCCCCC(=O)[O-]
REMARK SMILES IDX 6 1 7 2 8 3 9 4 10 5 11 6 5 7 4 8 3 9 2 10 1 11
REMARK H PARENT
REMARK Flexibility Score: inf
ROOT
ATOM      1  C   UNL     1      24.526 -11.134  15.506  1.00  0.00     0.000 C 
ENDROOT
BRANCH   1   2
ATOM      2  C   UNL     1      23.970 -12.415  16.155  1.00  0.00     0.006 C 
BRANCH   2   3
ATOM      3  C   UNL     1      24.499 -12.640  17.577  1.00  0.00     0.053 C 
BRANCH   3   4
ATOM      4  C   UNL     1      23.366 -12.882  18.522  1.00  0.00     0.041 C 
ATOM      5  O   UNL     1      22.306 -12.209  18.425  1.00  0.00    -0.550 OA
ATOM      6  O   UNL     1      23.462 -13.883  19.481  1.00  0.00    -0.550 OA
ENDBRANCH   3   4
ENDBRANCH   2   3
ENDBRANCH   1   2
BRANCH   1   7
ATOM      7  C   UNL     1      25.924 -11.279  14.873  1.00  0.00     0.000 C 
BRANCH   7   8
ATOM      8  C   UNL     1      27.015 -10.378  15.487  1.00  0.00    -0.000 C 
BRANCH   8   9
ATOM      9  C   UNL     1      27.925 -11.069  16.522  1.00  0.00    -0.000 C 
BRANCH   9  10
ATOM     10  C   UNL     1      27.643 -10.689  17.986  1.00  0.00    -0.003 C 
ATOM     11  C   UNL     1      26.628  -9.555  18.123  1.00  0.00     0.004 C 
ENDBRANCH   9  10
ENDBRANCH   8   9
ENDBRANCH   7   8
ENDBRANCH   1   7
TORSDOF 7
ENDMDL
MODEL 9
REMARK VINA RESULT:    -4.233      2.586      4.846
REMARK INTER + INTRA:          -6.284
REMARK INTER:                  -5.746
REMARK INTRA:                  -0.538
REMARK UNBOUND:                -0.318
REMARK SMILES CCCCCCCCC(=O)[O-]
REMARK SMILES IDX 6 1 7 2 8 3 9 4 10 5 11 6 5 7 4 8 3 9 2 10 1 11
REMARK H PARENT
REMARK Flexibility Score: inf
ROOT
ATOM      1  C   UNL     1      27.423 -10.628  15.169  1.00  0.00     0.000 C 
ENDROOT
BRANCH   1   2
ATOM      2  C   UNL     1      27.778 -11.090  16.594  1.00  0.00     0.006 C 
BRANCH   2   3
ATOM      3  C   UNL     1      28.618 -10.061  17.362  1.00  0.00     0.053 C 
BRANCH   3   4
ATOM      4  C   UNL     1      27.733  -9.158  18.160  1.00  0.00     0.041 C 
ATOM      5  O   UNL     1      27.041  -9.622  19.105  1.00  0.00    -0.550 OA
ATOM      6  O   UNL     1      27.707  -7.795  17.892  1.00  0.00    -0.550 OA
ENDBRANCH   3   4
ENDBRANCH   2   3
ENDBRANCH   1   2
BRANCH   1   7
ATOM      7  C   UNL     1      26.093 -11.178  14.618  1.00  0.00     0.000 C 
BRANCH   7   8
ATOM      8  C   UNL     1      24.888 -11.049  15.572  1.00  0.00    -0.000 C 
BRANCH   8   9
ATOM      9  C   UNL     1      24.050 -12.333  15.740  1.00  0.00    -0.000 C 
BRANCH   9  10
ATOM     10  C   UNL     1      23.759 -12.728  17.199  1.00  0.00    -0.003 C 
ATOM     11  C   UNL     1      24.337 -11.741  18.211  1.00  0.00     0.004 C 
ENDBRANCH   9  10
ENDBRANCH   8   9
ENDBRANCH   7   8
ENDBRANCH   1   7
TORSDOF 7
ENDMDL
