MODEL 1
REMARK VINA RESULT:    83.370      0.000      0.000
REMARK INTER + INTRA:         131.266
REMARK INTER:                 132.108
REMARK INTRA:                  -0.842
REMARK UNBOUND:                -0.842
REMARK SMILES C[C@@H]1O[C@@H](O[C@@H]2[C@@H](Oc3cc(O)c4c(c3)O[C@H](c3ccc(O)cc3)CC4=O)O[C@H](CO)[C@H](O)[C@@H]2O)[C@@H](O)[C@H](O)[C@H]1O
REMARK SMILES IDX 6 1 34 2 32 3 29 4 28 5 7 6 5 7 4 8 1 9 2 10 40 11 3 12
REMARK SMILES IDX 38 13 36 14 41 15 39 17 37 19 35 21 8 23 9 24 10 25 15 26
REMARK SMILES IDX 11 27 14 28 13 29 16 30 26 31 17 32 27 33 25 34 12 35 18 37
REMARK SMILES IDX 19 38 24 39 20 40 23 41 21 42 22 43 33 45 30 47 31 48
REMARK H PARENT 41 16 39 18 37 20 35 22 12 36 22 44 33 46 31 49
REMARK Flexibility Score: inf
ROOT
ATOM      1  C   UNL     1      -0.520   0.325  32.747  1.00  0.00     0.221 C 
ATOM      2  C   UNL     1      -1.105  -0.843  33.669  1.00  0.00     0.181 C 
ATOM      3  C   UNL     1       0.146  -1.402  34.512  1.00  0.00     0.177 C 
ATOM      4  C   UNL     1       1.088  -2.178  33.475  1.00  0.00     0.179 C 
ATOM      5  O   UNL     1       1.128  -1.638  32.143  1.00  0.00    -0.332 OA
ATOM      6  C   UNL     1       0.876  -0.169  32.141  1.00  0.00     0.339 C 
ENDROOT
BRANCH   1   7
ATOM      7  O   UNL     1      -1.193   1.419  32.059  1.00  0.00    -0.337 OA
BRANCH   7   8
ATOM      8  C   UNL     1      -2.292   1.292  31.106  1.00  0.00     0.282 C 
ATOM      9  C   UNL     1      -2.943   1.079  27.817  1.00  0.00     0.041 C 
ATOM     10  C   UNL     1      -2.627   2.231  28.877  1.00  0.00     0.150 C 
ATOM     11  C   UNL     1      -3.827   2.863  29.442  1.00  0.00     0.174 C 
ATOM     12  O   UNL     1      -1.700   1.837  29.875  1.00  0.00    -0.344 OA
ATOM     13  C   UNL     1      -3.589   3.427  30.900  1.00  0.00     0.179 C 
ATOM     14  C   UNL     1      -3.599   1.978  31.668  1.00  0.00     0.202 C 
BRANCH  11  15
ATOM     15  O   UNL     1      -4.588   3.625  28.563  1.00  0.00    -0.388 OA
ATOM     16  H   UNL     1      -5.569   3.667  28.878  1.00  0.00     0.211 HD
ENDBRANCH  11  15
BRANCH  13  17
ATOM     17  O   UNL     1      -4.557   4.407  31.245  1.00  0.00    -0.387 OA
ATOM     18  H   UNL     1      -4.695   5.180  30.527  1.00  0.00     0.211 HD
ENDBRANCH  13  17
BRANCH  14  19
ATOM     19  O   UNL     1      -3.982   1.523  32.988  1.00  0.00    -0.385 OA
ATOM     20  H   UNL     1      -4.994   1.371  32.991  1.00  0.00     0.211 HD
ENDBRANCH  14  19
ENDBRANCH   7   8
ENDBRANCH   1   7
BRANCH   2  21
ATOM     21  O   UNL     1      -1.756  -1.841  32.982  1.00  0.00    -0.387 OA
ATOM     22  H   UNL     1      -1.668  -1.645  31.959  1.00  0.00     0.211 HD
ENDBRANCH   2  21
BRANCH   6  23
ATOM     23  O   UNL     1       1.947   0.601  32.677  1.00  0.00    -0.462 OA
BRANCH  23  24
ATOM     24  C   UNL     1       3.200   0.061  32.784  1.00  0.00     0.130 A 
ATOM     25  C   UNL     1       3.923  -0.214  31.670  1.00  0.00     0.093 A 
ATOM     26  C   UNL     1       3.854  -0.182  34.047  1.00  0.00     0.094 A 
ATOM     27  C   UNL     1       5.332  -0.168  31.720  1.00  0.00     0.133 A 
ATOM     28  C   UNL     1       5.175  -0.518  34.086  1.00  0.00     0.138 A 
ATOM     29  C   UNL     1       6.003  -0.292  32.971  1.00  0.00     0.102 A 
ATOM     30  O   UNL     1       5.677  -1.328  35.114  1.00  0.00    -0.484 OA
ATOM     31  C   UNL     1       7.434  -0.053  33.236  1.00  0.00     0.174 C 
ATOM     32  C   UNL     1       6.974  -1.904  34.898  1.00  0.00     0.211 C 
ATOM     33  O   UNL     1       8.167   0.678  32.485  1.00  0.00    -0.294 OA
ATOM     34  C   UNL     1       7.975  -0.715  34.475  1.00  0.00     0.131 C 
BRANCH  27  35
ATOM     35  O   UNL     1       6.039  -0.138  30.494  1.00  0.00    -0.507 OA
ATOM     36  H   UNL     1       5.636   0.296  29.634  1.00  0.00     0.293 HD
ENDBRANCH  27  35
BRANCH  32  37
ATOM     37  C   UNL     1       7.432  -3.034  35.835  1.00  0.00    -0.007 A 
ATOM     38  C   UNL     1       8.089  -4.186  35.314  1.00  0.00     0.011 A 
ATOM     39  C   UNL     1       7.746  -2.739  37.207  1.00  0.00     0.011 A 
ATOM     40  C   UNL     1       8.798  -5.087  36.177  1.00  0.00     0.046 A 
ATOM     41  C   UNL     1       8.431  -3.559  37.993  1.00  0.00     0.046 A 
ATOM     42  C   UNL     1       8.786  -4.831  37.545  1.00  0.00     0.115 A 
BRANCH  42  43
ATOM     43  O   UNL     1       9.159  -5.816  38.456  1.00  0.00    -0.508 OA
ATOM     44  H   UNL     1      10.031  -6.382  38.405  1.00  0.00     0.293 HD
ENDBRANCH  42  43
ENDBRANCH  32  37
ENDBRANCH  23  24
ENDBRANCH   6  23
BRANCH   3  45
ATOM     45  O   UNL     1      -0.224  -2.242  35.617  1.00  0.00    -0.387 OA
ATOM     46  H   UNL     1      -1.083  -1.912  35.951  1.00  0.00     0.211 HD
ENDBRANCH   3  45
BRANCH   4  47
ATOM     47  C   UNL     1       1.045  -3.757  33.523  1.00  0.00     0.191 C 
BRANCH  47  48
ATOM     48  O   UNL     1       1.936  -4.424  32.636  1.00  0.00    -0.394 OA
ATOM     49  H   UNL     1       1.502  -5.319  32.472  1.00  0.00     0.210 HD
ENDBRANCH  47  48
ENDBRANCH   4  47
TORSDOF 14
ENDMDL
MODEL 2
REMARK VINA RESULT:    85.199      5.474      7.825
REMARK INTER + INTRA:         134.164
REMARK INTER:                 133.327
REMARK INTRA:                   0.837
REMARK UNBOUND:                -0.842
REMARK SMILES C[C@@H]1O[C@@H](O[C@@H]2[C@@H](Oc3cc(O)c4c(c3)O[C@H](c3ccc(O)cc3)CC4=O)O[C@H](CO)[C@H](O)[C@@H]2O)[C@@H](O)[C@H](O)[C@H]1O
REMARK SMILES IDX 6 1 34 2 32 3 29 4 28 5 7 6 5 7 4 8 1 9 2 10 40 11 3 12
REMARK SMILES IDX 38 13 36 14 41 15 39 17 37 19 35 21 8 23 9 24 10 25 15 26
REMARK SMILES IDX 11 27 14 28 13 29 16 30 26 31 17 32 27 33 25 34 12 35 18 37
REMARK SMILES IDX 19 38 24 39 20 40 23 41 21 42 22 43 33 45 30 47 31 48
REMARK H PARENT 41 16 39 18 37 20 35 22 12 36 22 44 33 46 31 49
REMARK Flexibility Score: inf
ROOT
ATOM      1  C   UNL     1       3.396  -5.466  36.112  1.00  0.00     0.221 C 
ATOM      2  C   UNL     1       1.812  -5.335  35.941  1.00  0.00     0.181 C 
ATOM      3  C   UNL     1       1.341  -4.260  37.041  1.00  0.00     0.177 C 
ATOM      4  C   UNL     1       1.509  -4.963  38.470  1.00  0.00     0.179 C 
ATOM      5  O   UNL     1       2.608  -5.882  38.589  1.00  0.00    -0.332 OA
ATOM      6  C   UNL     1       3.727  -5.517  37.676  1.00  0.00     0.339 C 
ENDROOT
BRANCH   1   7
ATOM      7  O   UNL     1       4.409  -5.982  35.201  1.00  0.00    -0.337 OA
BRANCH   7   8
ATOM      8  C   UNL     1       4.337  -5.982  33.742  1.00  0.00     0.282 C 
ATOM      9  C   UNL     1       6.170  -5.380  30.992  1.00  0.00     0.041 C 
ATOM     10  C   UNL     1       5.350  -4.527  32.064  1.00  0.00     0.150 C 
ATOM     11  C   UNL     1       3.972  -4.223  31.653  1.00  0.00     0.174 C 
ATOM     12  O   UNL     1       5.420  -5.057  33.377  1.00  0.00    -0.344 OA
ATOM     13  C   UNL     1       2.994  -4.048  32.883  1.00  0.00     0.179 C 
ATOM     14  C   UNL     1       2.874  -5.639  33.258  1.00  0.00     0.202 C 
BRANCH  11  15
ATOM     15  O   UNL     1       3.833  -3.353  30.578  1.00  0.00    -0.388 OA
ATOM     16  H   UNL     1       4.650  -2.726  30.513  1.00  0.00     0.211 HD
ENDBRANCH  11  15
BRANCH  13  17
ATOM     17  O   UNL     1       1.827  -3.325  32.522  1.00  0.00    -0.387 OA
ATOM     18  H   UNL     1       1.888  -2.795  31.600  1.00  0.00     0.211 HD
ENDBRANCH  13  17
BRANCH  14  19
ATOM     19  O   UNL     1       1.848  -6.477  33.843  1.00  0.00    -0.385 OA
ATOM     20  H   UNL     1       1.039  -6.476  33.216  1.00  0.00     0.211 HD
ENDBRANCH  14  19
ENDBRANCH   7   8
ENDBRANCH   1   7
BRANCH   2  21
ATOM     21  O   UNL     1       1.126  -6.522  36.049  1.00  0.00    -0.387 OA
ATOM     22  H   UNL     1       0.157  -6.375  35.686  1.00  0.00     0.211 HD
ENDBRANCH   2  21
BRANCH   6  23
ATOM     23  O   UNL     1       4.433  -4.344  38.069  1.00  0.00    -0.462 OA
BRANCH  23  24
ATOM     24  C   UNL     1       5.800  -4.310  38.015  1.00  0.00     0.130 A 
ATOM     25  C   UNL     1       6.533  -5.257  38.651  1.00  0.00     0.093 A 
ATOM     26  C   UNL     1       6.539  -3.340  37.245  1.00  0.00     0.094 A 
ATOM     27  C   UNL     1       7.799  -5.620  38.145  1.00  0.00     0.133 A 
ATOM     28  C   UNL     1       7.882  -3.487  37.057  1.00  0.00     0.138 A 
ATOM     29  C   UNL     1       8.505  -4.728  37.288  1.00  0.00     0.102 A 
ATOM     30  O   UNL     1       8.709  -2.367  36.895  1.00  0.00    -0.484 OA
ATOM     31  C   UNL     1       9.719  -5.025  36.505  1.00  0.00     0.174 C 
ATOM     32  C   UNL     1      10.119  -2.586  37.043  1.00  0.00     0.211 C 
ATOM     33  O   UNL     1      10.059  -6.213  36.175  1.00  0.00    -0.294 OA
ATOM     34  C   UNL     1      10.527  -3.823  36.095  1.00  0.00     0.131 C 
BRANCH  27  35
ATOM     35  O   UNL     1       8.388  -6.815  38.626  1.00  0.00    -0.507 OA
ATOM     36  H   UNL     1       7.874  -7.724  38.623  1.00  0.00     0.293 HD
ENDBRANCH  27  35
BRANCH  32  37
ATOM     37  C   UNL     1      11.034  -1.359  37.186  1.00  0.00    -0.007 A 
ATOM     38  C   UNL     1      12.436  -1.519  37.381  1.00  0.00     0.011 A 
ATOM     39  C   UNL     1      10.657  -0.113  36.573  1.00  0.00     0.011 A 
ATOM     40  C   UNL     1      13.340  -0.418  37.201  1.00  0.00     0.046 A 
ATOM     41  C   UNL     1      11.502   0.891  36.376  1.00  0.00     0.046 A 
ATOM     42  C   UNL     1      12.803   0.824  36.875  1.00  0.00     0.115 A 
BRANCH  42  43
ATOM     43  O   UNL     1      13.562   1.984  37.008  1.00  0.00    -0.508 OA
ATOM     44  H   UNL     1      14.565   2.078  36.747  1.00  0.00     0.293 HD
ENDBRANCH  42  43
ENDBRANCH  32  37
ENDBRANCH  23  24
ENDBRANCH   6  23
BRANCH   3  45
ATOM     45  O   UNL     1       0.004  -3.774  36.848  1.00  0.00    -0.387 OA
ATOM     46  H   UNL     1      -0.196  -3.858  35.893  1.00  0.00     0.211 HD
ENDBRANCH   3  45
BRANCH   4  47
ATOM     47  C   UNL     1       0.184  -5.457  39.177  1.00  0.00     0.191 C 
BRANCH  47  48
ATOM     48  O   UNL     1      -0.907  -5.744  38.309  1.00  0.00    -0.394 OA
ATOM     49  H   UNL     1      -1.279  -4.839  38.066  1.00  0.00     0.210 HD
ENDBRANCH  47  48
ENDBRANCH   4  47
TORSDOF 14
ENDMDL
MODEL 3
REMARK VINA RESULT:    85.504      1.360      2.219
REMARK INTER + INTRA:         134.648
REMARK INTER:                 135.900
REMARK INTRA:                  -1.252
REMARK UNBOUND:                -0.842
REMARK SMILES C[C@@H]1O[C@@H](O[C@@H]2[C@@H](Oc3cc(O)c4c(c3)O[C@H](c3ccc(O)cc3)CC4=O)O[C@H](CO)[C@H](O)[C@@H]2O)[C@@H](O)[C@H](O)[C@H]1O
REMARK SMILES IDX 6 1 34 2 32 3 29 4 28 5 7 6 5 7 4 8 1 9 2 10 40 11 3 12
REMARK SMILES IDX 38 13 36 14 41 15 39 17 37 19 35 21 8 23 9 24 10 25 15 26
REMARK SMILES IDX 11 27 14 28 13 29 16 30 26 31 17 32 27 33 25 34 12 35 18 37
REMARK SMILES IDX 19 38 24 39 20 40 23 41 21 42 22 43 33 45 30 47 31 48
REMARK H PARENT 41 16 39 18 37 20 35 22 12 36 22 44 33 46 31 49
REMARK Flexibility Score: inf
ROOT
ATOM      1  C   UNL     1      -1.521  -0.460  33.156  1.00  0.00     0.221 C 
ATOM      2  C   UNL     1      -2.039  -1.039  34.553  1.00  0.00     0.181 C 
ATOM      3  C   UNL     1      -0.766  -1.008  35.537  1.00  0.00     0.177 C 
ATOM      4  C   UNL     1       0.244  -2.135  35.015  1.00  0.00     0.179 C 
ATOM      5  O   UNL     1       0.269  -2.342  33.592  1.00  0.00    -0.332 OA
ATOM      6  C   UNL     1      -0.085  -1.096  32.854  1.00  0.00     0.339 C 
ENDROOT
BRANCH   1   7
ATOM      7  O   UNL     1      -2.257   0.087  32.024  1.00  0.00    -0.337 OA
BRANCH   7   8
ATOM      8  C   UNL     1      -2.356   1.498  31.662  1.00  0.00     0.282 C 
ATOM      9  C   UNL     1      -4.549   4.033  31.428  1.00  0.00     0.041 C 
ATOM     10  C   UNL     1      -4.118   2.771  30.549  1.00  0.00     0.150 C 
ATOM     11  C   UNL     1      -3.105   3.075  29.529  1.00  0.00     0.174 C 
ATOM     12  O   UNL     1      -3.782   1.633  31.325  1.00  0.00    -0.344 OA
ATOM     13  C   UNL     1      -2.197   1.829  29.182  1.00  0.00     0.179 C 
ATOM     14  C   UNL     1      -1.295   1.863  30.550  1.00  0.00     0.202 C 
BRANCH  11  15
ATOM     15  O   UNL     1      -3.516   3.896  28.485  1.00  0.00    -0.388 OA
ATOM     16  H   UNL     1      -2.720   4.440  28.119  1.00  0.00     0.211 HD
ENDBRANCH  11  15
BRANCH  13  17
ATOM     17  O   UNL     1      -1.561   1.982  27.922  1.00  0.00    -0.387 OA
ATOM     18  H   UNL     1      -1.934   2.775  27.318  1.00  0.00     0.211 HD
ENDBRANCH  13  17
BRANCH  14  19
ATOM     19  O   UNL     1       0.063   1.494  30.889  1.00  0.00    -0.385 OA
ATOM     20  H   UNL     1       0.029   0.655  31.475  1.00  0.00     0.211 HD
ENDBRANCH  14  19
ENDBRANCH   7   8
ENDBRANCH   1   7
BRANCH   2  21
ATOM     21  O   UNL     1      -2.607  -2.289  34.479  1.00  0.00    -0.387 OA
ATOM     22  H   UNL     1      -3.510  -2.208  33.958  1.00  0.00     0.211 HD
ENDBRANCH   2  21
BRANCH   6  23
ATOM     23  O   UNL     1       0.922  -0.089  32.905  1.00  0.00    -0.462 OA
BRANCH  23  24
ATOM     24  C   UNL     1       2.244  -0.428  32.798  1.00  0.00     0.130 A 
ATOM     25  C   UNL     1       2.764  -0.777  31.595  1.00  0.00     0.093 A 
ATOM     26  C   UNL     1       3.169  -0.372  33.903  1.00  0.00     0.094 A 
ATOM     27  C   UNL     1       4.126  -0.531  31.323  1.00  0.00     0.133 A 
ATOM     28  C   UNL     1       4.508  -0.512  33.688  1.00  0.00     0.138 A 
ATOM     29  C   UNL     1       5.046  -0.358  32.397  1.00  0.00     0.102 A 
ATOM     30  O   UNL     1       5.336  -1.069  34.673  1.00  0.00    -0.484 OA
ATOM     31  C   UNL     1       6.440   0.115  32.303  1.00  0.00     0.174 C 
ATOM     32  C   UNL     1       6.641  -1.488  34.249  1.00  0.00     0.211 C 
ATOM     33  O   UNL     1       6.872   0.809  31.319  1.00  0.00    -0.294 OA
ATOM     34  C   UNL     1       7.322  -0.257  33.464  1.00  0.00     0.131 C 
BRANCH  27  35
ATOM     35  O   UNL     1       4.557  -0.603  29.976  1.00  0.00    -0.507 OA
ATOM     36  H   UNL     1       5.296  -1.272  29.667  1.00  0.00     0.293 HD
ENDBRANCH  27  35
BRANCH  32  37
ATOM     37  C   UNL     1       7.462  -2.378  35.197  1.00  0.00    -0.007 A 
ATOM     38  C   UNL     1       7.551  -2.069  36.585  1.00  0.00     0.011 A 
ATOM     39  C   UNL     1       7.653  -3.769  34.884  1.00  0.00     0.011 A 
ATOM     40  C   UNL     1       8.033  -3.036  37.530  1.00  0.00     0.046 A 
ATOM     41  C   UNL     1       8.066  -4.668  35.767  1.00  0.00     0.046 A 
ATOM     42  C   UNL     1       8.457  -4.270  37.046  1.00  0.00     0.115 A 
BRANCH  42  43
ATOM     43  O   UNL     1       9.230  -5.117  37.837  1.00  0.00    -0.508 OA
ATOM     44  H   UNL     1       8.976  -6.091  38.099  1.00  0.00     0.293 HD
ENDBRANCH  42  43
ENDBRANCH  32  37
ENDBRANCH  23  24
ENDBRANCH   6  23
BRANCH   3  45
ATOM     45  O   UNL     1      -1.095  -1.198  36.923  1.00  0.00    -0.387 OA
ATOM     46  H   UNL     1      -1.091  -0.313  37.341  1.00  0.00     0.211 HD
ENDBRANCH   3  45
BRANCH   4  47
ATOM     47  C   UNL     1       0.310  -3.473  35.855  1.00  0.00     0.191 C 
BRANCH  47  48
ATOM     48  O   UNL     1       0.046  -3.340  37.247  1.00  0.00    -0.394 OA
ATOM     49  H   UNL     1       0.955  -3.208  37.663  1.00  0.00     0.210 HD
ENDBRANCH  47  48
ENDBRANCH   4  47
TORSDOF 14
ENDMDL
