MODEL 1
REMARK VINA RESULT:    -5.094      0.000      0.000
REMARK INTER + INTRA:         -15.601
REMARK INTER:                 -12.836
REMARK INTRA:                  -2.765
REMARK UNBOUND:                -2.765
REMARK SMILES CCCCCCCCCCCCCCCCCCCCCCCCCCCC(=O)[O-]
REMARK SMILES IDX 15 1 16 2 17 3 18 4 19 5 20 6 21 7 22 8 23 9 24 10 25 11
REMARK SMILES IDX 26 12 27 13 28 14 29 15 30 16 14 17 13 18 12 19 11 20 10 21
REMARK SMILES IDX 9 22 8 23 7 24 6 25 5 26 4 27 3 28 2 29 1 30
REMARK H PARENT
REMARK Flexibility Score: inf
ROOT
ATOM      1  C   UNL     1      -4.267   3.090  -7.205  1.00  0.00     0.000 C 
ENDROOT
BRANCH   1   2
ATOM      2  C   UNL     1      -3.133   3.771  -6.410  1.00  0.00     0.000 C 
BRANCH   2   3
ATOM      3  C   UNL     1      -1.724   3.597  -7.009  1.00  0.00     0.000 C 
BRANCH   3   4
ATOM      4  C   UNL     1      -1.174   2.158  -6.961  1.00  0.00     0.000 C 
BRANCH   4   5
ATOM      5  C   UNL     1      -1.242   1.393  -8.298  1.00  0.00     0.000 C 
BRANCH   5   6
ATOM      6  C   UNL     1      -0.294   1.912  -9.398  1.00  0.00     0.000 C 
BRANCH   6   7
ATOM      7  C   UNL     1      -0.989   2.425 -10.673  1.00  0.00     0.000 C 
BRANCH   7   8
ATOM      8  C   UNL     1      -1.684   3.782 -10.470  1.00  0.00     0.000 C 
BRANCH   8   9
ATOM      9  C   UNL     1      -3.111   3.807 -11.040  1.00  0.00     0.000 C 
BRANCH   9  10
ATOM     10  C   UNL     1      -3.190   3.264 -12.476  1.00  0.00     0.000 C 
BRANCH  10  11
ATOM     11  C   UNL     1      -4.230   4.044 -13.295  1.00  0.00     0.000 C 
BRANCH  11  12
ATOM     12  C   UNL     1      -3.594   4.924 -14.386  1.00  0.00     0.006 C 
BRANCH  12  13
ATOM     13  C   UNL     1      -2.220   5.501 -14.011  1.00  0.00     0.053 C 
BRANCH  13  14
ATOM     14  C   UNL     1      -2.323   6.889 -13.455  1.00  0.00     0.041 C 
ATOM     15  O   UNL     1      -1.632   7.820 -13.944  1.00  0.00    -0.550 OA
ATOM     16  O   UNL     1      -3.159   7.145 -12.375  1.00  0.00    -0.550 OA
ENDBRANCH  13  14
ENDBRANCH  12  13
ENDBRANCH  11  12
ENDBRANCH  10  11
ENDBRANCH   9  10
ENDBRANCH   8   9
ENDBRANCH   7   8
ENDBRANCH   6   7
ENDBRANCH   5   6
ENDBRANCH   4   5
ENDBRANCH   3   4
ENDBRANCH   2   3
ENDBRANCH   1   2
BRANCH   1  17
ATOM     17  C   UNL     1      -4.902   1.871  -6.512  1.00  0.00     0.000 C 
BRANCH  17  18
ATOM     18  C   UNL     1      -4.372   1.658  -5.084  1.00  0.00     0.000 C 
BRANCH  18  19
ATOM     19  C   UNL     1      -3.794   0.250  -4.875  1.00  0.00     0.000 C 
BRANCH  19  20
ATOM     20  C   UNL     1      -3.737  -0.560  -6.183  1.00  0.00     0.000 C 
BRANCH  20  21
ATOM     21  C   UNL     1      -4.827  -1.641  -6.252  1.00  0.00     0.000 C 
BRANCH  21  22
ATOM     22  C   UNL     1      -4.314  -3.024  -5.824  1.00  0.00    -0.000 C 
BRANCH  22  23
ATOM     23  C   UNL     1      -5.189  -3.607  -4.706  1.00  0.00    -0.000 C 
BRANCH  23  24
ATOM     24  C   UNL     1      -4.535  -3.503  -3.316  1.00  0.00    -0.000 C 
BRANCH  24  25
ATOM     25  C   UNL     1      -5.493  -3.709  -2.125  1.00  0.00    -0.000 C 
BRANCH  25  26
ATOM     26  C   UNL     1      -4.897  -3.374  -0.745  1.00  0.00    -0.000 C 
BRANCH  26  27
ATOM     27  C   UNL     1      -5.970  -3.236   0.349  1.00  0.00    -0.000 C 
BRANCH  27  28
ATOM     28  C   UNL     1      -7.371  -2.951  -0.222  1.00  0.00    -0.000 C 
BRANCH  28  29
ATOM     29  C   UNL     1      -8.420  -4.039   0.068  1.00  0.00    -0.003 C 
ATOM     30  C   UNL     1      -7.852  -5.228   0.841  1.00  0.00     0.004 C 
ENDBRANCH  28  29
ENDBRANCH  27  28
ENDBRANCH  26  27
ENDBRANCH  25  26
ENDBRANCH  24  25
ENDBRANCH  23  24
ENDBRANCH  22  23
ENDBRANCH  21  22
ENDBRANCH  20  21
ENDBRANCH  19  20
ENDBRANCH  18  19
ENDBRANCH  17  18
ENDBRANCH   1  17
TORSDOF 26
ENDMDL
MODEL 2
REMARK VINA RESULT:    -5.002      3.981     11.126
REMARK INTER + INTRA:         -15.369
REMARK INTER:                 -11.111
REMARK INTRA:                  -4.258
REMARK UNBOUND:                -2.765
REMARK SMILES CCCCCCCCCCCCCCCCCCCCCCCCCCCC(=O)[O-]
REMARK SMILES IDX 15 1 16 2 17 3 18 4 19 5 20 6 21 7 22 8 23 9 24 10 25 11
REMARK SMILES IDX 26 12 27 13 28 14 29 15 30 16 14 17 13 18 12 19 11 20 10 21
REMARK SMILES IDX 9 22 8 23 7 24 6 25 5 26 4 27 3 28 2 29 1 30
REMARK H PARENT
REMARK Flexibility Score: inf
ROOT
ATOM      1  C   UNL     1      -2.935   3.367  -7.879  1.00  0.00     0.000 C 
ENDROOT
BRANCH   1   2
ATOM      2  C   UNL     1      -4.323   3.366  -7.206  1.00  0.00     0.000 C 
BRANCH   2   3
ATOM      3  C   UNL     1      -4.440   2.473  -5.956  1.00  0.00     0.000 C 
BRANCH   3   4
ATOM      4  C   UNL     1      -5.275   1.192  -6.153  1.00  0.00     0.000 C 
BRANCH   4   5
ATOM      5  C   UNL     1      -4.541  -0.119  -5.806  1.00  0.00     0.000 C 
BRANCH   5   6
ATOM      6  C   UNL     1      -3.216  -0.347  -6.561  1.00  0.00     0.000 C 
BRANCH   6   7
ATOM      7  C   UNL     1      -1.982  -0.569  -5.666  1.00  0.00     0.000 C 
BRANCH   7   8
ATOM      8  C   UNL     1      -2.053   0.215  -4.345  1.00  0.00     0.000 C 
BRANCH   8   9
ATOM      9  C   UNL     1      -1.097  -0.338  -3.276  1.00  0.00     0.000 C 
BRANCH   9  10
ATOM     10  C   UNL     1      -1.685  -1.533  -2.509  1.00  0.00     0.000 C 
BRANCH  10  11
ATOM     11  C   UNL     1      -3.219  -1.454  -2.475  1.00  0.00     0.000 C 
BRANCH  11  12
ATOM     12  C   UNL     1      -3.888  -2.840  -2.464  1.00  0.00     0.006 C 
BRANCH  12  13
ATOM     13  C   UNL     1      -4.767  -3.128  -3.692  1.00  0.00     0.053 C 
BRANCH  13  14
ATOM     14  C   UNL     1      -4.028  -3.892  -4.748  1.00  0.00     0.041 C 
ATOM     15  O   UNL     1      -3.157  -4.740  -4.423  1.00  0.00    -0.550 OA
ATOM     16  O   UNL     1      -4.280  -3.642  -6.092  1.00  0.00    -0.550 OA
ENDBRANCH  13  14
ENDBRANCH  12  13
ENDBRANCH  11  12
ENDBRANCH  10  11
ENDBRANCH   9  10
ENDBRANCH   8   9
ENDBRANCH   7   8
ENDBRANCH   6   7
ENDBRANCH   5   6
ENDBRANCH   4   5
ENDBRANCH   3   4
ENDBRANCH   2   3
ENDBRANCH   1   2
BRANCH   1  17
ATOM     17  C   UNL     1      -1.748   3.200  -6.913  1.00  0.00     0.000 C 
BRANCH  17  18
ATOM     18  C   UNL     1      -0.616   2.344  -7.507  1.00  0.00     0.000 C 
BRANCH  18  19
ATOM     19  C   UNL     1      -1.001   1.712  -8.854  1.00  0.00     0.000 C 
BRANCH  19  20
ATOM     20  C   UNL     1      -0.081   2.170 -10.000  1.00  0.00     0.000 C 
BRANCH  20  21
ATOM     21  C   UNL     1      -0.718   3.274 -10.859  1.00  0.00     0.000 C 
BRANCH  21  22
ATOM     22  C   UNL     1      -1.842   2.744 -11.761  1.00  0.00    -0.000 C 
BRANCH  22  23
ATOM     23  C   UNL     1      -3.104   3.607 -11.623  1.00  0.00    -0.000 C 
BRANCH  23  24
ATOM     24  C   UNL     1      -4.058   3.473 -12.823  1.00  0.00    -0.000 C 
BRANCH  24  25
ATOM     25  C   UNL     1      -4.230   4.751 -13.670  1.00  0.00    -0.000 C 
BRANCH  25  26
ATOM     26  C   UNL     1      -3.006   5.137 -14.521  1.00  0.00    -0.000 C 
BRANCH  26  27
ATOM     27  C   UNL     1      -2.325   6.427 -14.032  1.00  0.00    -0.000 C 
BRANCH  27  28
ATOM     28  C   UNL     1      -3.092   7.109 -12.884  1.00  0.00    -0.000 C 
BRANCH  28  29
ATOM     29  C   UNL     1      -2.202   7.780 -11.823  1.00  0.00    -0.003 C 
ATOM     30  C   UNL     1      -0.959   6.962 -11.478  1.00  0.00     0.004 C 
ENDBRANCH  28  29
ENDBRANCH  27  28
ENDBRANCH  26  27
ENDBRANCH  25  26
ENDBRANCH  24  25
ENDBRANCH  23  24
ENDBRANCH  22  23
ENDBRANCH  21  22
ENDBRANCH  20  21
ENDBRANCH  19  20
ENDBRANCH  18  19
ENDBRANCH  17  18
ENDBRANCH   1  17
TORSDOF 26
ENDMDL
MODEL 3
REMARK VINA RESULT:    -4.983      4.851     11.438
REMARK INTER + INTRA:         -15.323
REMARK INTER:                 -11.485
REMARK INTRA:                  -3.838
REMARK UNBOUND:                -2.765
REMARK SMILES CCCCCCCCCCCCCCCCCCCCCCCCCCCC(=O)[O-]
REMARK SMILES IDX 15 1 16 2 17 3 18 4 19 5 20 6 21 7 22 8 23 9 24 10 25 11
REMARK SMILES IDX 26 12 27 13 28 14 29 15 30 16 14 17 13 18 12 19 11 20 10 21
REMARK SMILES IDX 9 22 8 23 7 24 6 25 5 26 4 27 3 28 2 29 1 30
REMARK H PARENT
REMARK Flexibility Score: inf
ROOT
ATOM      1  C   UNL     1      -4.701   1.834  -6.486  1.00  0.00     0.000 C 
ENDROOT
BRANCH   1   2
ATOM      2  C   UNL     1      -4.138   1.371  -5.126  1.00  0.00     0.000 C 
BRANCH   2   3
ATOM      3  C   UNL     1      -3.714  -0.110  -5.069  1.00  0.00     0.000 C 
BRANCH   3   4
ATOM      4  C   UNL     1      -3.690  -0.828  -6.433  1.00  0.00     0.000 C 
BRANCH   4   5
ATOM      5  C   UNL     1      -4.342  -2.225  -6.441  1.00  0.00     0.000 C 
BRANCH   5   6
ATOM      6  C   UNL     1      -5.394  -2.463  -5.339  1.00  0.00     0.000 C 
BRANCH   6   7
ATOM      7  C   UNL     1      -5.104  -3.649  -4.401  1.00  0.00     0.000 C 
BRANCH   7   8
ATOM      8  C   UNL     1      -3.612  -4.018  -4.349  1.00  0.00     0.000 C 
BRANCH   8   9
ATOM      9  C   UNL     1      -2.856  -3.275  -3.237  1.00  0.00     0.000 C 
BRANCH   9  10
ATOM     10  C   UNL     1      -3.794  -2.639  -2.199  1.00  0.00     0.000 C 
BRANCH  10  11
ATOM     11  C   UNL     1      -3.696  -3.375  -0.854  1.00  0.00     0.000 C 
BRANCH  11  12
ATOM     12  C   UNL     1      -4.936  -3.165   0.034  1.00  0.00     0.006 C 
BRANCH  12  13
ATOM     13  C   UNL     1      -6.276  -3.379  -0.690  1.00  0.00     0.053 C 
BRANCH  13  14
ATOM     14  C   UNL     1      -7.319  -3.960   0.215  1.00  0.00     0.041 C 
ATOM     15  O   UNL     1      -8.511  -3.560   0.147  1.00  0.00    -0.550 OA
ATOM     16  O   UNL     1      -6.968  -4.922   1.154  1.00  0.00    -0.550 OA
ENDBRANCH  13  14
ENDBRANCH  12  13
ENDBRANCH  11  12
ENDBRANCH  10  11
ENDBRANCH   9  10
ENDBRANCH   8   9
ENDBRANCH   7   8
ENDBRANCH   6   7
ENDBRANCH   5   6
ENDBRANCH   4   5
ENDBRANCH   3   4
ENDBRANCH   2   3
ENDBRANCH   1   2
BRANCH   1  17
ATOM     17  C   UNL     1      -3.936   2.999  -7.140  1.00  0.00     0.000 C 
BRANCH  17  18
ATOM     18  C   UNL     1      -3.166   3.852  -6.116  1.00  0.00     0.000 C 
BRANCH  18  19
ATOM     19  C   UNL     1      -1.730   4.158  -6.567  1.00  0.00     0.000 C 
BRANCH  19  20
ATOM     20  C   UNL     1      -0.686   3.320  -5.807  1.00  0.00     0.000 C 
BRANCH  20  21
ATOM     21  C   UNL     1       0.124   2.404  -6.739  1.00  0.00     0.000 C 
BRANCH  21  22
ATOM     22  C   UNL     1      -0.546   1.039  -6.951  1.00  0.00    -0.000 C 
BRANCH  22  23
ATOM     23  C   UNL     1      -1.105   0.923  -8.376  1.00  0.00    -0.000 C 
BRANCH  23  24
ATOM     24  C   UNL     1      -0.212   1.603  -9.429  1.00  0.00    -0.000 C 
BRANCH  24  25
ATOM     25  C   UNL     1      -0.969   2.342 -10.552  1.00  0.00    -0.000 C 
BRANCH  25  26
ATOM     26  C   UNL     1      -1.633   3.665 -10.129  1.00  0.00    -0.000 C 
BRANCH  26  27
ATOM     27  C   UNL     1      -3.054   3.827 -10.697  1.00  0.00    -0.000 C 
BRANCH  27  28
ATOM     28  C   UNL     1      -3.076   4.564 -12.049  1.00  0.00    -0.000 C 
BRANCH  28  29
ATOM     29  C   UNL     1      -3.979   3.925 -13.118  1.00  0.00    -0.003 C 
ATOM     30  C   UNL     1      -4.197   4.823 -14.334  1.00  0.00     0.004 C 
ENDBRANCH  28  29
ENDBRANCH  27  28
ENDBRANCH  26  27
ENDBRANCH  25  26
ENDBRANCH  24  25
ENDBRANCH  23  24
ENDBRANCH  22  23
ENDBRANCH  21  22
ENDBRANCH  20  21
ENDBRANCH  19  20
ENDBRANCH  18  19
ENDBRANCH  17  18
ENDBRANCH   1  17
TORSDOF 26
ENDMDL
MODEL 4
REMARK VINA RESULT:    -4.971      4.709     11.995
REMARK INTER + INTRA:         -15.291
REMARK INTER:                 -12.039
REMARK INTRA:                  -3.252
REMARK UNBOUND:                -2.765
REMARK SMILES CCCCCCCCCCCCCCCCCCCCCCCCCCCC(=O)[O-]
REMARK SMILES IDX 15 1 16 2 17 3 18 4 19 5 20 6 21 7 22 8 23 9 24 10 25 11
REMARK SMILES IDX 26 12 27 13 28 14 29 15 30 16 14 17 13 18 12 19 11 20 10 21
REMARK SMILES IDX 9 22 8 23 7 24 6 25 5 26 4 27 3 28 2 29 1 30
REMARK H PARENT
REMARK Flexibility Score: inf
ROOT
ATOM      1  C   UNL     1      -4.348   2.688  -6.876  1.00  0.00     0.000 C 
ENDROOT
BRANCH   1   2
ATOM      2  C   UNL     1      -3.813   2.182  -5.520  1.00  0.00     0.000 C 
BRANCH   2   3
ATOM      3  C   UNL     1      -4.268   0.762  -5.131  1.00  0.00     0.000 C 
BRANCH   3   4
ATOM      4  C   UNL     1      -3.612  -0.373  -5.943  1.00  0.00     0.000 C 
BRANCH   4   5
ATOM      5  C   UNL     1      -4.597  -1.404  -6.527  1.00  0.00     0.000 C 
BRANCH   5   6
ATOM      6  C   UNL     1      -4.384  -2.856  -6.053  1.00  0.00     0.000 C 
BRANCH   6   7
ATOM      7  C   UNL     1      -5.186  -3.262  -4.803  1.00  0.00     0.000 C 
BRANCH   7   8
ATOM      8  C   UNL     1      -4.385  -4.159  -3.844  1.00  0.00     0.000 C 
BRANCH   8   9
ATOM      9  C   UNL     1      -3.216  -3.416  -3.176  1.00  0.00     0.000 C 
BRANCH   9  10
ATOM     10  C   UNL     1      -3.639  -2.077  -2.552  1.00  0.00     0.000 C 
BRANCH  10  11
ATOM     11  C   UNL     1      -3.450  -2.105  -1.027  1.00  0.00     0.000 C 
BRANCH  11  12
ATOM     12  C   UNL     1      -4.312  -3.178  -0.338  1.00  0.00     0.006 C 
BRANCH  12  13
ATOM     13  C   UNL     1      -5.779  -2.770  -0.127  1.00  0.00     0.053 C 
BRANCH  13  14
ATOM     14  C   UNL     1      -6.731  -3.847  -0.549  1.00  0.00     0.041 C 
ATOM     15  O   UNL     1      -7.973  -3.664  -0.461  1.00  0.00    -0.550 OA
ATOM     16  O   UNL     1      -6.244  -5.065  -1.008  1.00  0.00    -0.550 OA
ENDBRANCH  13  14
ENDBRANCH  12  13
ENDBRANCH  11  12
ENDBRANCH  10  11
ENDBRANCH   9  10
ENDBRANCH   8   9
ENDBRANCH   7   8
ENDBRANCH   6   7
ENDBRANCH   5   6
ENDBRANCH   4   5
ENDBRANCH   3   4
ENDBRANCH   2   3
ENDBRANCH   1   2
BRANCH   1  17
ATOM     17  C   UNL     1      -3.289   3.329  -7.791  1.00  0.00     0.000 C 
BRANCH  17  18
ATOM     18  C   UNL     1      -1.861   2.856  -7.467  1.00  0.00     0.000 C 
BRANCH  18  19
ATOM     19  C   UNL     1      -1.500   1.544  -8.179  1.00  0.00     0.000 C 
BRANCH  19  20
ATOM     20  C   UNL     1      -0.690   1.780  -9.467  1.00  0.00     0.000 C 
BRANCH  20  21
ATOM     21  C   UNL     1      -0.208   3.234  -9.600  1.00  0.00     0.000 C 
BRANCH  21  22
ATOM     22  C   UNL     1      -0.642   3.881 -10.922  1.00  0.00    -0.000 C 
BRANCH  22  23
ATOM     23  C   UNL     1      -1.659   2.994 -11.655  1.00  0.00    -0.000 C 
BRANCH  23  24
ATOM     24  C   UNL     1      -3.095   3.541 -11.581  1.00  0.00    -0.000 C 
BRANCH  24  25
ATOM     25  C   UNL     1      -3.911   3.418 -12.885  1.00  0.00    -0.000 C 
BRANCH  25  26
ATOM     26  C   UNL     1      -4.191   4.749 -13.606  1.00  0.00    -0.000 C 
BRANCH  26  27
ATOM     27  C   UNL     1      -2.924   5.374 -14.215  1.00  0.00    -0.000 C 
BRANCH  27  28
ATOM     28  C   UNL     1      -2.757   6.861 -13.848  1.00  0.00    -0.000 C 
BRANCH  28  29
ATOM     29  C   UNL     1      -2.837   7.167 -12.342  1.00  0.00    -0.003 C 
ATOM     30  C   UNL     1      -1.468   7.388 -11.702  1.00  0.00     0.004 C 
ENDBRANCH  28  29
ENDBRANCH  27  28
ENDBRANCH  26  27
ENDBRANCH  25  26
ENDBRANCH  24  25
ENDBRANCH  23  24
ENDBRANCH  22  23
ENDBRANCH  21  22
ENDBRANCH  20  21
ENDBRANCH  19  20
ENDBRANCH  18  19
ENDBRANCH  17  18
ENDBRANCH   1  17
TORSDOF 26
ENDMDL
MODEL 5
REMARK VINA RESULT:    -4.954      1.967      3.789
REMARK INTER + INTRA:         -15.250
REMARK INTER:                 -11.462
REMARK INTRA:                  -3.788
REMARK UNBOUND:                -2.765
REMARK SMILES CCCCCCCCCCCCCCCCCCCCCCCCCCCC(=O)[O-]
REMARK SMILES IDX 15 1 16 2 17 3 18 4 19 5 20 6 21 7 22 8 23 9 24 10 25 11
REMARK SMILES IDX 26 12 27 13 28 14 29 15 30 16 14 17 13 18 12 19 11 20 10 21
REMARK SMILES IDX 9 22 8 23 7 24 6 25 5 26 4 27 3 28 2 29 1 30
REMARK H PARENT
REMARK Flexibility Score: inf
ROOT
ATOM      1  C   UNL     1      -4.443   1.867  -5.187  1.00  0.00     0.000 C 
ENDROOT
BRANCH   1   2
ATOM      2  C   UNL     1      -3.648   3.017  -5.839  1.00  0.00     0.000 C 
BRANCH   2   3
ATOM      3  C   UNL     1      -4.025   3.320  -7.303  1.00  0.00     0.000 C 
BRANCH   3   4
ATOM      4  C   UNL     1      -2.846   3.281  -8.295  1.00  0.00     0.000 C 
BRANCH   4   5
ATOM      5  C   UNL     1      -1.517   2.773  -7.702  1.00  0.00     0.000 C 
BRANCH   5   6
ATOM      6  C   UNL     1      -0.735   1.787  -8.595  1.00  0.00     0.000 C 
BRANCH   6   7
ATOM      7  C   UNL     1      -0.951   1.962 -10.110  1.00  0.00     0.000 C 
BRANCH   7   8
ATOM      8  C   UNL     1      -0.239   3.203 -10.674  1.00  0.00     0.000 C 
BRANCH   8   9
ATOM      9  C   UNL     1      -1.061   3.914 -11.762  1.00  0.00     0.000 C 
BRANCH   9  10
ATOM     10  C   UNL     1      -2.150   3.015 -12.370  1.00  0.00     0.000 C 
BRANCH  10  11
ATOM     11  C   UNL     1      -3.549   3.548 -12.024  1.00  0.00     0.000 C 
BRANCH  11  12
ATOM     12  C   UNL     1      -4.308   4.074 -13.255  1.00  0.00     0.006 C 
BRANCH  12  13
ATOM     13  C   UNL     1      -3.677   5.316 -13.904  1.00  0.00     0.053 C 
BRANCH  13  14
ATOM     14  C   UNL     1      -3.721   5.255 -15.401  1.00  0.00     0.041 C 
ATOM     15  O   UNL     1      -4.731   4.784 -15.986  1.00  0.00    -0.550 OA
ATOM     16  O   UNL     1      -2.632   5.689 -16.147  1.00  0.00    -0.550 OA
ENDBRANCH  13  14
ENDBRANCH  12  13
ENDBRANCH  11  12
ENDBRANCH  10  11
ENDBRANCH   9  10
ENDBRANCH   8   9
ENDBRANCH   7   8
ENDBRANCH   6   7
ENDBRANCH   5   6
ENDBRANCH   4   5
ENDBRANCH   3   4
ENDBRANCH   2   3
ENDBRANCH   1   2
BRANCH   1  17
ATOM     17  C   UNL     1      -5.120   0.904  -6.179  1.00  0.00     0.000 C 
BRANCH  17  18
ATOM     18  C   UNL     1      -4.257  -0.331  -6.490  1.00  0.00     0.000 C 
BRANCH  18  19
ATOM     19  C   UNL     1      -4.975  -1.648  -6.159  1.00  0.00     0.000 C 
BRANCH  19  20
ATOM     20  C   UNL     1      -4.023  -2.857  -6.187  1.00  0.00     0.000 C 
BRANCH  20  21
ATOM     21  C   UNL     1      -4.018  -3.633  -4.859  1.00  0.00     0.000 C 
BRANCH  21  22
ATOM     22  C   UNL     1      -5.176  -3.228  -3.937  1.00  0.00    -0.000 C 
BRANCH  22  23
ATOM     23  C   UNL     1      -4.890  -3.645  -2.487  1.00  0.00    -0.000 C 
BRANCH  23  24
ATOM     24  C   UNL     1      -3.400  -3.934  -2.229  1.00  0.00    -0.000 C 
BRANCH  24  25
ATOM     25  C   UNL     1      -2.556  -2.708  -1.822  1.00  0.00    -0.000 C 
BRANCH  25  26
ATOM     26  C   UNL     1      -3.335  -1.383  -1.730  1.00  0.00    -0.000 C 
BRANCH  26  27
ATOM     27  C   UNL     1      -2.911  -0.367  -2.805  1.00  0.00    -0.000 C 
BRANCH  27  28
ATOM     28  C   UNL     1      -1.745  -0.871  -3.676  1.00  0.00    -0.000 C 
BRANCH  28  29
ATOM     29  C   UNL     1      -1.209   0.152  -4.693  1.00  0.00    -0.003 C 
ATOM     30  C   UNL     1      -0.305  -0.474  -5.753  1.00  0.00     0.004 C 
ENDBRANCH  28  29
ENDBRANCH  27  28
ENDBRANCH  26  27
ENDBRANCH  25  26
ENDBRANCH  24  25
ENDBRANCH  23  24
ENDBRANCH  22  23
ENDBRANCH  21  22
ENDBRANCH  20  21
ENDBRANCH  19  20
ENDBRANCH  18  19
ENDBRANCH  17  18
ENDBRANCH   1  17
TORSDOF 26
ENDMDL
MODEL 6
REMARK VINA RESULT:    -4.945      4.703     11.716
REMARK INTER + INTRA:         -15.227
REMARK INTER:                 -11.690
REMARK INTRA:                  -3.537
REMARK UNBOUND:                -2.765
REMARK SMILES CCCCCCCCCCCCCCCCCCCCCCCCCCCC(=O)[O-]
REMARK SMILES IDX 15 1 16 2 17 3 18 4 19 5 20 6 21 7 22 8 23 9 24 10 25 11
REMARK SMILES IDX 26 12 27 13 28 14 29 15 30 16 14 17 13 18 12 19 11 20 10 21
REMARK SMILES IDX 9 22 8 23 7 24 6 25 5 26 4 27 3 28 2 29 1 30
REMARK H PARENT
REMARK Flexibility Score: inf
ROOT
ATOM      1  C   UNL     1      -4.560  -0.250  -5.413  1.00  0.00     0.000 C 
ENDROOT
BRANCH   1   2
ATOM      2  C   UNL     1      -4.715  -1.249  -6.579  1.00  0.00     0.000 C 
BRANCH   2   3
ATOM      3  C   UNL     1      -4.285  -2.693  -6.260  1.00  0.00     0.000 C 
BRANCH   3   4
ATOM      4  C   UNL     1      -4.387  -3.084  -4.771  1.00  0.00     0.000 C 
BRANCH   4   5
ATOM      5  C   UNL     1      -3.290  -4.048  -4.278  1.00  0.00     0.000 C 
BRANCH   5   6
ATOM      6  C   UNL     1      -2.243  -3.421  -3.335  1.00  0.00     0.000 C 
BRANCH   6   7
ATOM      7  C   UNL     1      -2.054  -1.900  -3.483  1.00  0.00     0.000 C 
BRANCH   7   8
ATOM      8  C   UNL     1      -2.770  -1.099  -2.382  1.00  0.00     0.000 C 
BRANCH   8   9
ATOM      9  C   UNL     1      -2.033  -1.156  -1.034  1.00  0.00     0.000 C 
BRANCH   9  10
ATOM     10  C   UNL     1      -2.804  -1.948   0.034  1.00  0.00     0.000 C 
BRANCH  10  11
ATOM     11  C   UNL     1      -4.246  -2.214  -0.422  1.00  0.00     0.000 C 
BRANCH  11  12
ATOM     12  C   UNL     1      -4.573  -3.715  -0.526  1.00  0.00     0.006 C 
BRANCH  12  13
ATOM     13  C   UNL     1      -5.828  -4.033  -1.354  1.00  0.00     0.053 C 
BRANCH  13  14
ATOM     14  C   UNL     1      -7.062  -4.096  -0.507  1.00  0.00     0.041 C 
ATOM     15  O   UNL     1      -7.467  -5.201  -0.058  1.00  0.00    -0.550 OA
ATOM     16  O   UNL     1      -7.782  -2.938  -0.239  1.00  0.00    -0.550 OA
ENDBRANCH  13  14
ENDBRANCH  12  13
ENDBRANCH  11  12
ENDBRANCH  10  11
ENDBRANCH   9  10
ENDBRANCH   8   9
ENDBRANCH   7   8
ENDBRANCH   6   7
ENDBRANCH   5   6
ENDBRANCH   4   5
ENDBRANCH   3   4
ENDBRANCH   2   3
ENDBRANCH   1   2
BRANCH   1  17
ATOM     17  C   UNL     1      -4.910   1.208  -5.759  1.00  0.00     0.000 C 
BRANCH  17  18
ATOM     18  C   UNL     1      -3.682   2.135  -5.735  1.00  0.00     0.000 C 
BRANCH  18  19
ATOM     19  C   UNL     1      -2.432   1.440  -5.174  1.00  0.00     0.000 C 
BRANCH  19  20
ATOM     20  C   UNL     1      -1.261   1.445  -6.173  1.00  0.00     0.000 C 
BRANCH  20  21
ATOM     21  C   UNL     1      -1.684   0.985  -7.577  1.00  0.00     0.000 C 
BRANCH  21  22
ATOM     22  C   UNL     1      -1.207   1.941  -8.679  1.00  0.00    -0.000 C 
BRANCH  22  23
ATOM     23  C   UNL     1      -1.982   3.265  -8.625  1.00  0.00    -0.000 C 
BRANCH  23  24
ATOM     24  C   UNL     1      -2.481   3.726 -10.006  1.00  0.00    -0.000 C 
BRANCH  24  25
ATOM     25  C   UNL     1      -1.628   3.254 -11.202  1.00  0.00    -0.000 C 
BRANCH  25  26
ATOM     26  C   UNL     1      -2.428   2.862 -12.458  1.00  0.00    -0.000 C 
BRANCH  26  27
ATOM     27  C   UNL     1      -3.836   3.483 -12.484  1.00  0.00    -0.000 C 
BRANCH  27  28
ATOM     28  C   UNL     1      -4.022   4.491 -13.634  1.00  0.00    -0.000 C 
BRANCH  28  29
ATOM     29  C   UNL     1      -3.115   5.731 -13.558  1.00  0.00    -0.003 C 
ATOM     30  C   UNL     1      -3.364   6.581 -12.313  1.00  0.00     0.004 C 
ENDBRANCH  28  29
ENDBRANCH  27  28
ENDBRANCH  26  27
ENDBRANCH  25  26
ENDBRANCH  24  25
ENDBRANCH  23  24
ENDBRANCH  22  23
ENDBRANCH  21  22
ENDBRANCH  20  21
ENDBRANCH  19  20
ENDBRANCH  18  19
ENDBRANCH  17  18
ENDBRANCH   1  17
TORSDOF 26
ENDMDL
MODEL 7
REMARK VINA RESULT:    -4.921      1.572      3.161
REMARK INTER + INTRA:         -15.165
REMARK INTER:                 -10.961
REMARK INTRA:                  -4.204
REMARK UNBOUND:                -2.765
REMARK SMILES CCCCCCCCCCCCCCCCCCCCCCCCCCCC(=O)[O-]
REMARK SMILES IDX 15 1 16 2 17 3 18 4 19 5 20 6 21 7 22 8 23 9 24 10 25 11
REMARK SMILES IDX 26 12 27 13 28 14 29 15 30 16 14 17 13 18 12 19 11 20 10 21
REMARK SMILES IDX 9 22 8 23 7 24 6 25 5 26 4 27 3 28 2 29 1 30
REMARK H PARENT
REMARK Flexibility Score: inf
ROOT
ATOM      1  C   UNL     1      -5.311   1.118  -6.129  1.00  0.00     0.000 C 
ENDROOT
BRANCH   1   2
ATOM      2  C   UNL     1      -4.380   2.270  -5.696  1.00  0.00     0.000 C 
BRANCH   2   3
ATOM      3  C   UNL     1      -4.042   3.285  -6.805  1.00  0.00     0.000 C 
BRANCH   3   4
ATOM      4  C   UNL     1      -2.534   3.521  -7.028  1.00  0.00     0.000 C 
BRANCH   4   5
ATOM      5  C   UNL     1      -1.607   2.635  -6.174  1.00  0.00     0.000 C 
BRANCH   5   6
ATOM      6  C   UNL     1      -0.462   1.949  -6.946  1.00  0.00     0.000 C 
BRANCH   6   7
ATOM      7  C   UNL     1      -0.866   1.312  -8.289  1.00  0.00     0.000 C 
BRANCH   7   8
ATOM      8  C   UNL     1      -0.106   1.908  -9.485  1.00  0.00     0.000 C 
BRANCH   8   9
ATOM      9  C   UNL     1      -1.037   2.301 -10.643  1.00  0.00     0.000 C 
BRANCH   9  10
ATOM     10  C   UNL     1      -1.602   3.723 -10.499  1.00  0.00     0.000 C 
BRANCH  10  11
ATOM     11  C   UNL     1      -3.052   3.786 -11.004  1.00  0.00     0.000 C 
BRANCH  11  12
ATOM     12  C   UNL     1      -3.193   3.344 -12.471  1.00  0.00     0.006 C 
BRANCH  12  13
ATOM     13  C   UNL     1      -4.167   4.198 -13.299  1.00  0.00     0.053 C 
BRANCH  13  14
ATOM     14  C   UNL     1      -3.475   5.332 -13.990  1.00  0.00     0.041 C 
ATOM     15  O   UNL     1      -3.107   6.343 -13.336  1.00  0.00    -0.550 OA
ATOM     16  O   UNL     1      -3.266   5.286 -15.363  1.00  0.00    -0.550 OA
ENDBRANCH  13  14
ENDBRANCH  12  13
ENDBRANCH  11  12
ENDBRANCH  10  11
ENDBRANCH   9  10
ENDBRANCH   8   9
ENDBRANCH   7   8
ENDBRANCH   6   7
ENDBRANCH   5   6
ENDBRANCH   4   5
ENDBRANCH   3   4
ENDBRANCH   2   3
ENDBRANCH   1   2
BRANCH   1  17
ATOM     17  C   UNL     1      -4.920  -0.268  -5.587  1.00  0.00     0.000 C 
BRANCH  17  18
ATOM     18  C   UNL     1      -3.959  -1.021  -6.523  1.00  0.00     0.000 C 
BRANCH  18  19
ATOM     19  C   UNL     1      -2.511  -1.014  -6.008  1.00  0.00     0.000 C 
BRANCH  19  20
ATOM     20  C   UNL     1      -2.418  -0.606  -4.527  1.00  0.00     0.000 C 
BRANCH  20  21
ATOM     21  C   UNL     1      -1.336  -1.391  -3.767  1.00  0.00     0.000 C 
BRANCH  21  22
ATOM     22  C   UNL     1      -1.513  -1.314  -2.244  1.00  0.00    -0.000 C 
BRANCH  22  23
ATOM     23  C   UNL     1      -2.763  -0.501  -1.881  1.00  0.00    -0.000 C 
BRANCH  23  24
ATOM     24  C   UNL     1      -3.628  -1.178  -0.802  1.00  0.00    -0.000 C 
BRANCH  24  25
ATOM     25  C   UNL     1      -3.073  -2.512  -0.261  1.00  0.00    -0.000 C 
BRANCH  25  26
ATOM     26  C   UNL     1      -4.090  -3.667  -0.209  1.00  0.00    -0.000 C 
BRANCH  26  27
ATOM     27  C   UNL     1      -5.342  -3.396  -1.061  1.00  0.00    -0.000 C 
BRANCH  27  28
ATOM     28  C   UNL     1      -5.313  -4.129  -2.415  1.00  0.00    -0.000 C 
BRANCH  28  29
ATOM     29  C   UNL     1      -4.578  -3.378  -3.540  1.00  0.00    -0.003 C 
ATOM     30  C   UNL     1      -3.737  -4.298  -4.424  1.00  0.00     0.004 C 
ENDBRANCH  28  29
ENDBRANCH  27  28
ENDBRANCH  26  27
ENDBRANCH  25  26
ENDBRANCH  24  25
ENDBRANCH  23  24
ENDBRANCH  22  23
ENDBRANCH  21  22
ENDBRANCH  20  21
ENDBRANCH  19  20
ENDBRANCH  18  19
ENDBRANCH  17  18
ENDBRANCH   1  17
TORSDOF 26
ENDMDL
MODEL 8
REMARK VINA RESULT:    -4.900      1.791      3.928
REMARK INTER + INTRA:         -15.113
REMARK INTER:                 -11.503
REMARK INTRA:                  -3.610
REMARK UNBOUND:                -2.765
REMARK SMILES CCCCCCCCCCCCCCCCCCCCCCCCCCCC(=O)[O-]
REMARK SMILES IDX 15 1 16 2 17 3 18 4 19 5 20 6 21 7 22 8 23 9 24 10 25 11
REMARK SMILES IDX 26 12 27 13 28 14 29 15 30 16 14 17 13 18 12 19 11 20 10 21
REMARK SMILES IDX 9 22 8 23 7 24 6 25 5 26 4 27 3 28 2 29 1 30
REMARK H PARENT
REMARK Flexibility Score: inf
ROOT
ATOM      1  C   UNL     1      -5.254  -2.055  -5.964  1.00  0.00     0.000 C 
ENDROOT
BRANCH   1   2
ATOM      2  C   UNL     1      -4.501  -0.786  -6.414  1.00  0.00     0.000 C 
BRANCH   2   3
ATOM      3  C   UNL     1      -5.224   0.541  -6.109  1.00  0.00     0.000 C 
BRANCH   3   4
ATOM      4  C   UNL     1      -4.325   1.647  -5.523  1.00  0.00     0.000 C 
BRANCH   4   5
ATOM      5  C   UNL     1      -3.019   1.145  -4.877  1.00  0.00     0.000 C 
BRANCH   5   6
ATOM      6  C   UNL     1      -1.723   1.599  -5.580  1.00  0.00     0.000 C 
BRANCH   6   7
ATOM      7  C   UNL     1      -0.915   0.474  -6.253  1.00  0.00     0.000 C 
BRANCH   7   8
ATOM      8  C   UNL     1      -1.056   0.472  -7.785  1.00  0.00     0.000 C 
BRANCH   8   9
ATOM      9  C   UNL     1      -1.290   1.878  -8.360  1.00  0.00     0.000 C 
BRANCH   9  10
ATOM     10  C   UNL     1      -0.889   1.992  -9.839  1.00  0.00     0.000 C 
BRANCH  10  11
ATOM     11  C   UNL     1      -1.709   3.085 -10.542  1.00  0.00     0.000 C 
BRANCH  11  12
ATOM     12  C   UNL     1      -2.095   2.708 -11.984  1.00  0.00     0.006 C 
BRANCH  12  13
ATOM     13  C   UNL     1      -3.453   3.263 -12.441  1.00  0.00     0.053 C 
BRANCH  13  14
ATOM     14  C   UNL     1      -3.304   4.369 -13.440  1.00  0.00     0.041 C 
ATOM     15  O   UNL     1      -2.161   4.701 -13.851  1.00  0.00    -0.550 OA
ATOM     16  O   UNL     1      -4.425   5.053 -13.894  1.00  0.00    -0.550 OA
ENDBRANCH  13  14
ENDBRANCH  12  13
ENDBRANCH  11  12
ENDBRANCH  10  11
ENDBRANCH   9  10
ENDBRANCH   8   9
ENDBRANCH   7   8
ENDBRANCH   6   7
ENDBRANCH   5   6
ENDBRANCH   4   5
ENDBRANCH   3   4
ENDBRANCH   2   3
ENDBRANCH   1   2
BRANCH   1  17
ATOM     17  C   UNL     1      -4.372  -3.308  -5.806  1.00  0.00     0.000 C 
BRANCH  17  18
ATOM     18  C   UNL     1      -4.339  -3.830  -4.359  1.00  0.00     0.000 C 
BRANCH  18  19
ATOM     19  C   UNL     1      -2.934  -3.762  -3.742  1.00  0.00     0.000 C 
BRANCH  19  20
ATOM     20  C   UNL     1      -2.302  -2.365  -3.877  1.00  0.00     0.000 C 
BRANCH  20  21
ATOM     21  C   UNL     1      -1.981  -1.730  -2.514  1.00  0.00     0.000 C 
BRANCH  21  22
ATOM     22  C   UNL     1      -3.182  -0.985  -1.915  1.00  0.00    -0.000 C 
BRANCH  22  23
ATOM     23  C   UNL     1      -3.534  -1.544  -0.529  1.00  0.00    -0.000 C 
BRANCH  23  24
ATOM     24  C   UNL     1      -2.642  -2.729  -0.115  1.00  0.00    -0.000 C 
BRANCH  24  25
ATOM     25  C   UNL     1      -3.147  -3.536   1.099  1.00  0.00    -0.000 C 
BRANCH  25  26
ATOM     26  C   UNL     1      -3.695  -4.936   0.768  1.00  0.00    -0.000 C 
BRANCH  26  27
ATOM     27  C   UNL     1      -5.228  -4.960   0.639  1.00  0.00    -0.000 C 
BRANCH  27  28
ATOM     28  C   UNL     1      -5.708  -4.794  -0.815  1.00  0.00    -0.000 C 
BRANCH  28  29
ATOM     29  C   UNL     1      -6.562  -3.541  -1.074  1.00  0.00    -0.003 C 
ATOM     30  C   UNL     1      -7.014  -2.848   0.210  1.00  0.00     0.004 C 
ENDBRANCH  28  29
ENDBRANCH  27  28
ENDBRANCH  26  27
ENDBRANCH  25  26
ENDBRANCH  24  25
ENDBRANCH  23  24
ENDBRANCH  22  23
ENDBRANCH  21  22
ENDBRANCH  20  21
ENDBRANCH  19  20
ENDBRANCH  18  19
ENDBRANCH  17  18
ENDBRANCH   1  17
TORSDOF 26
ENDMDL
MODEL 9
REMARK VINA RESULT:    -4.881      5.768     10.986
REMARK INTER + INTRA:         -15.066
REMARK INTER:                 -10.571
REMARK INTRA:                  -4.495
REMARK UNBOUND:                -2.765
REMARK SMILES CCCCCCCCCCCCCCCCCCCCCCCCCCCC(=O)[O-]
REMARK SMILES IDX 15 1 16 2 17 3 18 4 19 5 20 6 21 7 22 8 23 9 24 10 25 11
REMARK SMILES IDX 26 12 27 13 28 14 29 15 30 16 14 17 13 18 12 19 11 20 10 21
REMARK SMILES IDX 9 22 8 23 7 24 6 25 5 26 4 27 3 28 2 29 1 30
REMARK H PARENT
REMARK Flexibility Score: inf
ROOT
ATOM      1  C   UNL     1      -2.152  -1.950  -3.084  1.00  0.00     0.000 C 
ENDROOT
BRANCH   1   2
ATOM      2  C   UNL     1      -2.882  -0.638  -2.725  1.00  0.00     0.000 C 
BRANCH   2   3
ATOM      3  C   UNL     1      -2.887  -0.288  -1.224  1.00  0.00     0.000 C 
BRANCH   3   4
ATOM      4  C   UNL     1      -1.531   0.190  -0.667  1.00  0.00     0.000 C 
BRANCH   4   5
ATOM      5  C   UNL     1      -0.833  -0.806   0.280  1.00  0.00     0.000 C 
BRANCH   5   6
ATOM      6  C   UNL     1      -1.781  -1.659   1.148  1.00  0.00     0.000 C 
BRANCH   6   7
ATOM      7  C   UNL     1      -1.874  -3.144   0.752  1.00  0.00     0.000 C 
BRANCH   7   8
ATOM      8  C   UNL     1      -2.829  -3.944   1.654  1.00  0.00     0.000 C 
BRANCH   8   9
ATOM      9  C   UNL     1      -4.163  -4.268   0.964  1.00  0.00     0.000 C 
BRANCH   9  10
ATOM     10  C   UNL     1      -4.127  -4.018  -0.552  1.00  0.00     0.000 C 
BRANCH  10  11
ATOM     11  C   UNL     1      -5.295  -3.116  -0.981  1.00  0.00     0.000 C 
BRANCH  11  12
ATOM     12  C   UNL     1      -6.296  -2.852   0.158  1.00  0.00     0.006 C 
BRANCH  12  13
ATOM     13  C   UNL     1      -7.757  -3.170  -0.197  1.00  0.00     0.053 C 
BRANCH  13  14
ATOM     14  C   UNL     1      -8.174  -4.525   0.288  1.00  0.00     0.041 C 
ATOM     15  O   UNL     1      -9.188  -4.650   1.024  1.00  0.00    -0.550 OA
ATOM     16  O   UNL     1      -7.423  -5.645  -0.046  1.00  0.00    -0.550 OA
ENDBRANCH  13  14
ENDBRANCH  12  13
ENDBRANCH  11  12
ENDBRANCH  10  11
ENDBRANCH   9  10
ENDBRANCH   8   9
ENDBRANCH   7   8
ENDBRANCH   6   7
ENDBRANCH   5   6
ENDBRANCH   4   5
ENDBRANCH   3   4
ENDBRANCH   2   3
ENDBRANCH   1   2
BRANCH   1  17
ATOM     17  C   UNL     1      -0.845  -1.766  -3.876  1.00  0.00     0.000 C 
BRANCH  17  18
ATOM     18  C   UNL     1      -0.546  -0.291  -4.193  1.00  0.00     0.000 C 
BRANCH  18  19
ATOM     19  C   UNL     1      -0.329  -0.044  -5.694  1.00  0.00     0.000 C 
BRANCH  19  20
ATOM     20  C   UNL     1      -0.647   1.406  -6.101  1.00  0.00     0.000 C 
BRANCH  20  21
ATOM     21  C   UNL     1      -1.143   1.513  -7.553  1.00  0.00     0.000 C 
BRANCH  21  22
ATOM     22  C   UNL     1      -2.044   2.736  -7.778  1.00  0.00    -0.000 C 
BRANCH  22  23
ATOM     23  C   UNL     1      -2.439   3.375  -6.440  1.00  0.00    -0.000 C 
BRANCH  23  24
ATOM     24  C   UNL     1      -3.958   3.359  -6.192  1.00  0.00    -0.000 C 
BRANCH  24  25
ATOM     25  C   UNL     1      -4.686   2.085  -6.669  1.00  0.00    -0.000 C 
BRANCH  25  26
ATOM     26  C   UNL     1      -4.681   0.917  -5.665  1.00  0.00    -0.000 C 
BRANCH  26  27
ATOM     27  C   UNL     1      -3.911  -0.309  -6.184  1.00  0.00    -0.000 C 
BRANCH  27  28
ATOM     28  C   UNL     1      -4.832  -1.507  -6.487  1.00  0.00    -0.000 C 
BRANCH  28  29
ATOM     29  C   UNL     1      -4.326  -2.860  -5.957  1.00  0.00    -0.003 C 
ATOM     30  C   UNL     1      -5.138  -3.381  -4.773  1.00  0.00     0.004 C 
ENDBRANCH  28  29
ENDBRANCH  27  28
ENDBRANCH  26  27
ENDBRANCH  25  26
ENDBRANCH  24  25
ENDBRANCH  23  24
ENDBRANCH  22  23
ENDBRANCH  21  22
ENDBRANCH  20  21
ENDBRANCH  19  20
ENDBRANCH  18  19
ENDBRANCH  17  18
ENDBRANCH   1  17
TORSDOF 26
ENDMDL
