MODEL 1
REMARK VINA RESULT:    -3.781      0.000      0.000
REMARK INTER + INTRA:          -4.362
REMARK INTER:                  -4.113
REMARK INTRA:                  -0.249
REMARK UNBOUND:                -0.249
REMARK SMILES O=C([O-])c1ccccc1O
REMARK SMILES IDX 4 1 9 2 5 3 8 4 6 5 7 6 2 7 1 8 3 9 10 10
REMARK H PARENT 10 11
REMARK Flexibility Score: inf
ROOT
ATOM      1  C   UNL     1      16.666  -5.701   6.800  1.00  0.00     0.039 A 
ATOM      2  C   UNL     1      18.051  -5.835   7.052  1.00  0.00     0.124 A 
ATOM      3  C   UNL     1      16.211  -4.571   6.090  1.00  0.00     0.014 A 
ATOM      4  C   UNL     1      18.944  -4.852   6.595  1.00  0.00     0.047 A 
ATOM      5  C   UNL     1      17.110  -3.601   5.641  1.00  0.00     0.001 A 
ATOM      6  C   UNL     1      18.474  -3.741   5.893  1.00  0.00     0.004 A 
ENDROOT
BRANCH   1   7
ATOM      7  C   UNL     1      15.686  -6.716   7.265  1.00  0.00     0.075 C 
ATOM      8  O   UNL     1      14.874  -7.237   6.453  1.00  0.00    -0.545 OA
ATOM      9  O   UNL     1      15.640  -7.113   8.596  1.00  0.00    -0.545 OA
ENDBRANCH   1   7
BRANCH   2  10
ATOM     10  O   UNL     1      18.548  -6.935   7.750  1.00  0.00    -0.507 OA
ATOM     11  H   UNL     1      19.339  -6.854   8.379  1.00  0.00     0.293 HD
ENDBRANCH   2  10
TORSDOF 2
ENDMDL
MODEL 2
REMARK VINA RESULT:    -3.720     17.813     18.782
REMARK INTER + INTRA:          -4.295
REMARK INTER:                  -4.042
REMARK INTRA:                  -0.253
REMARK UNBOUND:                -0.249
REMARK SMILES O=C([O-])c1ccccc1O
REMARK SMILES IDX 4 1 9 2 5 3 8 4 6 5 7 6 2 7 1 8 3 9 10 10
REMARK H PARENT 10 11
REMARK Flexibility Score: inf
ROOT
ATOM      1  C   UNL     1      13.881 -17.987  19.922  1.00  0.00     0.039 A 
ATOM      2  C   UNL     1      13.050 -18.041  21.065  1.00  0.00     0.124 A 
ATOM      3  C   UNL     1      13.280 -17.931  18.648  1.00  0.00     0.014 A 
ATOM      4  C   UNL     1      11.654 -18.038  20.916  1.00  0.00     0.047 A 
ATOM      5  C   UNL     1      11.890 -17.928  18.514  1.00  0.00     0.001 A 
ATOM      6  C   UNL     1      11.078 -17.982  19.646  1.00  0.00     0.004 A 
ENDROOT
BRANCH   1   7
ATOM      7  C   UNL     1      15.363 -17.988  20.033  1.00  0.00     0.075 C 
ATOM      8  O   UNL     1      16.053 -18.789  19.347  1.00  0.00    -0.545 OA
ATOM      9  O   UNL     1      16.019 -17.112  20.890  1.00  0.00    -0.545 OA
ENDBRANCH   1   7
BRANCH   2  10
ATOM     10  O   UNL     1      13.599 -18.098  22.346  1.00  0.00    -0.507 OA
ATOM     11  H   UNL     1      13.300 -18.789  23.024  1.00  0.00     0.293 HD
ENDBRANCH   2  10
TORSDOF 2
ENDMDL
MODEL 3
REMARK VINA RESULT:    -3.574      1.887      3.309
REMARK INTER + INTRA:          -4.136
REMARK INTER:                  -3.883
REMARK INTRA:                  -0.253
REMARK UNBOUND:                -0.249
REMARK SMILES O=C([O-])c1ccccc1O
REMARK SMILES IDX 4 1 9 2 5 3 8 4 6 5 7 6 2 7 1 8 3 9 10 10
REMARK H PARENT 10 11
REMARK Flexibility Score: inf
ROOT
ATOM      1  C   UNL     1      17.057  -5.351   6.342  1.00  0.00     0.039 A 
ATOM      2  C   UNL     1      17.265  -6.245   7.418  1.00  0.00     0.124 A 
ATOM      3  C   UNL     1      15.750  -4.888   6.087  1.00  0.00     0.014 A 
ATOM      4  C   UNL     1      16.179  -6.654   8.209  1.00  0.00     0.047 A 
ATOM      5  C   UNL     1      14.679  -5.302   6.882  1.00  0.00     0.001 A 
ATOM      6  C   UNL     1      14.893  -6.184   7.940  1.00  0.00     0.004 A 
ENDROOT
BRANCH   1   7
ATOM      7  C   UNL     1      18.176  -4.892   5.479  1.00  0.00     0.075 C 
ATOM      8  O   UNL     1      18.028  -4.813   4.230  1.00  0.00    -0.545 OA
ATOM      9  O   UNL     1      19.406  -4.541   6.025  1.00  0.00    -0.545 OA
ENDBRANCH   1   7
BRANCH   2  10
ATOM     10  O   UNL     1      18.540  -6.730   7.708  1.00  0.00    -0.507 OA
ATOM     11  H   UNL     1      19.260  -6.134   8.101  1.00  0.00     0.293 HD
ENDBRANCH   2  10
TORSDOF 2
ENDMDL
MODEL 4
REMARK VINA RESULT:    -3.440     18.447     19.306
REMARK INTER + INTRA:          -3.991
REMARK INTER:                  -3.748
REMARK INTRA:                  -0.243
REMARK UNBOUND:                -0.249
REMARK SMILES O=C([O-])c1ccccc1O
REMARK SMILES IDX 4 1 9 2 5 3 8 4 6 5 7 6 2 7 1 8 3 9 10 10
REMARK H PARENT 10 11
REMARK Flexibility Score: inf
ROOT
ATOM      1  C   UNL     1      13.216 -18.008  20.891  1.00  0.00     0.039 A 
ATOM      2  C   UNL     1      14.163 -18.042  21.941  1.00  0.00     0.124 A 
ATOM      3  C   UNL     1      13.677 -18.053  19.559  1.00  0.00     0.014 A 
ATOM      4  C   UNL     1      15.534 -18.120  21.645  1.00  0.00     0.047 A 
ATOM      5  C   UNL     1      15.043 -18.131  19.279  1.00  0.00     0.001 A 
ATOM      6  C   UNL     1      15.970 -18.163  20.320  1.00  0.00     0.004 A 
ENDROOT
BRANCH   1   7
ATOM      7  C   UNL     1      11.757 -17.927  21.158  1.00  0.00     0.075 C 
ATOM      8  O   UNL     1      11.318 -17.184  22.077  1.00  0.00    -0.545 OA
ATOM      9  O   UNL     1      10.847 -18.663  20.407  1.00  0.00    -0.545 OA
ENDBRANCH   1   7
BRANCH   2  10
ATOM     10  O   UNL     1      13.755 -18.000  23.274  1.00  0.00    -0.507 OA
ATOM     11  H   UNL     1      12.830 -17.682  23.538  1.00  0.00     0.293 HD
ENDBRANCH   2  10
TORSDOF 2
ENDMDL
MODEL 5
REMARK VINA RESULT:    -3.394     17.248     18.514
REMARK INTER + INTRA:          -3.941
REMARK INTER:                  -3.724
REMARK INTRA:                  -0.217
REMARK UNBOUND:                -0.249
REMARK SMILES O=C([O-])c1ccccc1O
REMARK SMILES IDX 4 1 9 2 5 3 8 4 6 5 7 6 2 7 1 8 3 9 10 10
REMARK H PARENT 10 11
REMARK Flexibility Score: inf
ROOT
ATOM      1  C   UNL     1      13.767 -17.772  19.851  1.00  0.00     0.039 A 
ATOM      2  C   UNL     1      12.593 -17.825  19.063  1.00  0.00     0.124 A 
ATOM      3  C   UNL     1      13.643 -17.768  21.255  1.00  0.00     0.014 A 
ATOM      4  C   UNL     1      11.335 -17.873  19.684  1.00  0.00     0.047 A 
ATOM      5  C   UNL     1      12.385 -17.817  21.860  1.00  0.00     0.001 A 
ATOM      6  C   UNL     1      11.233 -17.868  21.076  1.00  0.00     0.004 A 
ENDROOT
BRANCH   1   7
ATOM      7  C   UNL     1      15.119 -17.721  19.236  1.00  0.00     0.075 C 
ATOM      8  O   UNL     1      15.477 -16.713  18.569  1.00  0.00    -0.545 OA
ATOM      9  O   UNL     1      16.014 -18.775  19.379  1.00  0.00    -0.545 OA
ENDBRANCH   1   7
BRANCH   2  10
ATOM     10  O   UNL     1      12.667 -17.830  17.670  1.00  0.00    -0.507 OA
ATOM     11  H   UNL     1      12.643 -16.972  17.132  1.00  0.00     0.293 HD
ENDBRANCH   2  10
TORSDOF 2
ENDMDL
MODEL 6
REMARK VINA RESULT:    -3.389      4.463      5.664
REMARK INTER + INTRA:          -3.935
REMARK INTER:                  -3.704
REMARK INTRA:                  -0.231
REMARK UNBOUND:                -0.249
REMARK SMILES O=C([O-])c1ccccc1O
REMARK SMILES IDX 4 1 9 2 5 3 8 4 6 5 7 6 2 7 1 8 3 9 10 10
REMARK H PARENT 10 11
REMARK Flexibility Score: inf
ROOT
ATOM      1  C   UNL     1      15.106  -6.455  11.106  1.00  0.00     0.039 A 
ATOM      2  C   UNL     1      15.658  -6.638  12.395  1.00  0.00     0.124 A 
ATOM      3  C   UNL     1      14.166  -5.423  10.910  1.00  0.00     0.014 A 
ATOM      4  C   UNL     1      15.267  -5.797  13.450  1.00  0.00     0.047 A 
ATOM      5  C   UNL     1      13.787  -4.593  11.967  1.00  0.00     0.001 A 
ATOM      6  C   UNL     1      14.336  -4.780  13.235  1.00  0.00     0.004 A 
ENDROOT
BRANCH   1   7
ATOM      7  C   UNL     1      15.490  -7.322   9.961  1.00  0.00     0.075 C 
ATOM      8  O   UNL     1      15.249  -8.558   9.989  1.00  0.00    -0.545 OA
ATOM      9  O   UNL     1      16.123  -6.794   8.842  1.00  0.00    -0.545 OA
ENDBRANCH   1   7
BRANCH   2  10
ATOM     10  O   UNL     1      16.591  -7.646  12.637  1.00  0.00    -0.507 OA
ATOM     11  H   UNL     1      16.361  -8.625  12.513  1.00  0.00     0.293 HD
ENDBRANCH   2  10
TORSDOF 2
ENDMDL
MODEL 7
REMARK VINA RESULT:    -3.328     17.705     18.938
REMARK INTER + INTRA:          -3.868
REMARK INTER:                  -3.641
REMARK INTRA:                  -0.228
REMARK UNBOUND:                -0.249
REMARK SMILES O=C([O-])c1ccccc1O
REMARK SMILES IDX 4 1 9 2 5 3 8 4 6 5 7 6 2 7 1 8 3 9 10 10
REMARK H PARENT 10 11
REMARK Flexibility Score: inf
ROOT
ATOM      1  C   UNL     1      13.566 -17.995  20.855  1.00  0.00     0.039 A 
ATOM      2  C   UNL     1      14.057 -18.005  19.528  1.00  0.00     0.124 A 
ATOM      3  C   UNL     1      14.489 -18.051  21.919  1.00  0.00     0.014 A 
ATOM      4  C   UNL     1      15.439 -18.068  19.293  1.00  0.00     0.047 A 
ATOM      5  C   UNL     1      15.862 -18.114  21.672  1.00  0.00     0.001 A 
ATOM      6  C   UNL     1      16.336 -18.123  20.361  1.00  0.00     0.004 A 
ENDROOT
BRANCH   1   7
ATOM      7  C   UNL     1      12.112 -17.929  21.150  1.00  0.00     0.075 C 
ATOM      8  O   UNL     1      11.280 -18.479  20.379  1.00  0.00    -0.545 OA
ATOM      9  O   UNL     1      11.636 -17.262  22.273  1.00  0.00    -0.545 OA
ENDBRANCH   1   7
BRANCH   2  10
ATOM     10  O   UNL     1      13.183 -17.952  18.443  1.00  0.00    -0.507 OA
ATOM     11  H   UNL     1      13.514 -18.029  17.488  1.00  0.00     0.293 HD
ENDBRANCH   2  10
TORSDOF 2
ENDMDL
MODEL 8
REMARK VINA RESULT:    -3.299     17.388     18.702
REMARK INTER + INTRA:          -3.837
REMARK INTER:                  -3.583
REMARK INTRA:                  -0.254
REMARK UNBOUND:                -0.249
REMARK SMILES O=C([O-])c1ccccc1O
REMARK SMILES IDX 4 1 9 2 5 3 8 4 6 5 7 6 2 7 1 8 3 9 10 10
REMARK H PARENT 10 11
REMARK Flexibility Score: inf
ROOT
ATOM      1  C   UNL     1      11.869 -18.034  19.967  1.00  0.00     0.039 A 
ATOM      2  C   UNL     1      12.632 -17.880  18.786  1.00  0.00     0.124 A 
ATOM      3  C   UNL     1      12.541 -18.129  21.202  1.00  0.00     0.014 A 
ATOM      4  C   UNL     1      14.033 -17.822  18.860  1.00  0.00     0.047 A 
ATOM      5  C   UNL     1      13.935 -18.069  21.262  1.00  0.00     0.001 A 
ATOM      6  C   UNL     1      14.680 -17.917  20.093  1.00  0.00     0.004 A 
ENDROOT
BRANCH   1   7
ATOM      7  C   UNL     1      10.384 -18.100  19.935  1.00  0.00     0.075 C 
ATOM      8  O   UNL     1       9.774 -19.017  20.546  1.00  0.00    -0.545 OA
ATOM      9  O   UNL     1       9.639 -17.158  19.235  1.00  0.00    -0.545 OA
ENDBRANCH   1   7
BRANCH   2  10
ATOM     10  O   UNL     1      12.011 -17.782  17.541  1.00  0.00    -0.507 OA
ATOM     11  H   UNL     1      11.074 -18.135  17.384  1.00  0.00     0.293 HD
ENDBRANCH   2  10
TORSDOF 2
ENDMDL
MODEL 9
REMARK VINA RESULT:    -3.253     16.518     18.012
REMARK INTER + INTRA:          -3.787
REMARK INTER:                  -3.557
REMARK INTRA:                  -0.230
REMARK UNBOUND:                -0.249
REMARK SMILES O=C([O-])c1ccccc1O
REMARK SMILES IDX 4 1 9 2 5 3 8 4 6 5 7 6 2 7 1 8 3 9 10 10
REMARK H PARENT 10 11
REMARK Flexibility Score: inf
ROOT
ATOM      1  C   UNL     1      15.529 -17.092  20.142  1.00  0.00     0.039 A 
ATOM      2  C   UNL     1      14.449 -17.978  20.367  1.00  0.00     0.124 A 
ATOM      3  C   UNL     1      15.465 -16.209  19.046  1.00  0.00     0.014 A 
ATOM      4  C   UNL     1      13.341 -17.964  19.505  1.00  0.00     0.047 A 
ATOM      5  C   UNL     1      14.357 -16.205  18.196  1.00  0.00     0.001 A 
ATOM      6  C   UNL     1      13.297 -17.081  18.425  1.00  0.00     0.004 A 
ENDROOT
BRANCH   1   7
ATOM      7  C   UNL     1      16.721 -17.073  21.030  1.00  0.00     0.075 C 
ATOM      8  O   UNL     1      17.145 -18.139  21.550  1.00  0.00    -0.545 OA
ATOM      9  O   UNL     1      17.391 -15.887  21.307  1.00  0.00    -0.545 OA
ENDBRANCH   1   7
BRANCH   2  10
ATOM     10  O   UNL     1      14.467 -18.870  21.439  1.00  0.00    -0.507 OA
ATOM     11  H   UNL     1      14.484 -18.548  22.400  1.00  0.00     0.293 HD
ENDBRANCH   2  10
TORSDOF 2
ENDMDL
