MODEL 1
REMARK VINA RESULT:     7.228      0.000      0.000
REMARK INTER + INTRA:          20.952
REMARK INTER:                  18.213
REMARK INTRA:                   2.739
REMARK UNBOUND:                 2.739
REMARK SMILES CCCCCCCCCCCCCCCCCCCCCCCCCCCC(=O)[O-]
REMARK SMILES IDX 15 1 16 2 17 3 18 4 19 5 20 6 21 7 22 8 23 9 24 10 25 11
REMARK SMILES IDX 26 12 27 13 28 14 29 15 30 16 14 17 13 18 12 19 11 20 10 21
REMARK SMILES IDX 9 22 8 23 7 24 6 25 5 26 4 27 3 28 2 29 1 30
REMARK H PARENT
REMARK Flexibility Score: inf
ROOT
ATOM      1  C   UNL     1       4.052 -36.725  20.789  1.00  0.00     0.000 C 
ENDROOT
BRANCH   1   2
ATOM      2  C   UNL     1       4.635 -36.188  19.475  1.00  0.00     0.000 C 
BRANCH   2   3
ATOM      3  C   UNL     1       4.733 -34.652  19.452  1.00  0.00     0.000 C 
BRANCH   3   4
ATOM      4  C   UNL     1       4.822 -34.025  18.044  1.00  0.00     0.000 C 
BRANCH   4   5
ATOM      5  C   UNL     1       4.162 -34.847  16.921  1.00  0.00     0.000 C 
BRANCH   5   6
ATOM      6  C   UNL     1       2.756 -34.370  16.505  1.00  0.00     0.000 C 
BRANCH   6   7
ATOM      7  C   UNL     1       1.918 -35.450  15.782  1.00  0.00     0.000 C 
BRANCH   7   8
ATOM      8  C   UNL     1       2.437 -35.810  14.380  1.00  0.00     0.000 C 
BRANCH   8   9
ATOM      9  C   UNL     1       3.784 -36.556  14.421  1.00  0.00     0.000 C 
BRANCH   9  10
ATOM     10  C   UNL     1       3.613 -38.074  14.601  1.00  0.00     0.000 C 
BRANCH  10  11
ATOM     11  C   UNL     1       3.936 -38.545  16.029  1.00  0.00     0.000 C 
BRANCH  11  12
ATOM     12  C   UNL     1       3.297 -37.657  17.113  1.00  0.00     0.006 C 
BRANCH  12  13
ATOM     13  C   UNL     1       1.760 -37.709  17.142  1.00  0.00     0.053 C 
BRANCH  13  14
ATOM     14  C   UNL     1       1.208 -37.809  18.531  1.00  0.00     0.041 C 
ATOM     15  O   UNL     1       1.849 -38.417  19.429  1.00  0.00    -0.550 OA
ATOM     16  O   UNL     1      -0.036 -37.264  18.827  1.00  0.00    -0.550 OA
ENDBRANCH  13  14
ENDBRANCH  12  13
ENDBRANCH  11  12
ENDBRANCH  10  11
ENDBRANCH   9  10
ENDBRANCH   8   9
ENDBRANCH   7   8
ENDBRANCH   6   7
ENDBRANCH   5   6
ENDBRANCH   4   5
ENDBRANCH   3   4
ENDBRANCH   2   3
ENDBRANCH   1   2
BRANCH   1  17
ATOM     17  C   UNL     1       4.564 -35.921  21.994  1.00  0.00     0.000 C 
BRANCH  17  18
ATOM     18  C   UNL     1       5.064 -36.831  23.130  1.00  0.00     0.000 C 
BRANCH  18  19
ATOM     19  C   UNL     1       5.074 -38.324  22.750  1.00  0.00     0.000 C 
BRANCH  19  20
ATOM     20  C   UNL     1       4.456 -39.207  23.850  1.00  0.00     0.000 C 
BRANCH  20  21
ATOM     21  C   UNL     1       4.897 -38.792  25.270  1.00  0.00     0.000 C 
BRANCH  21  22
ATOM     22  C   UNL     1       5.125 -37.278  25.448  1.00  0.00    -0.000 C 
BRANCH  22  23
ATOM     23  C   UNL     1       4.080 -36.552  26.311  1.00  0.00    -0.000 C 
BRANCH  23  24
ATOM     24  C   UNL     1       3.384 -37.480  27.318  1.00  0.00    -0.000 C 
BRANCH  24  25
ATOM     25  C   UNL     1       1.861 -37.436  27.143  1.00  0.00    -0.000 C 
BRANCH  25  26
ATOM     26  C   UNL     1       1.295 -36.085  27.597  1.00  0.00    -0.000 C 
BRANCH  26  27
ATOM     27  C   UNL     1       1.982 -35.605  28.884  1.00  0.00    -0.000 C 
BRANCH  27  28
ATOM     28  C   UNL     1       1.390 -34.289  29.416  1.00  0.00    -0.000 C 
BRANCH  28  29
ATOM     29  C   UNL     1       0.054 -33.930  28.750  1.00  0.00    -0.003 C 
ATOM     30  C   UNL     1      -0.906 -33.298  29.754  1.00  0.00     0.004 C 
ENDBRANCH  28  29
ENDBRANCH  27  28
ENDBRANCH  26  27
ENDBRANCH  25  26
ENDBRANCH  24  25
ENDBRANCH  23  24
ENDBRANCH  22  23
ENDBRANCH  21  22
ENDBRANCH  20  21
ENDBRANCH  19  20
ENDBRANCH  18  19
ENDBRANCH  17  18
ENDBRANCH   1  17
TORSDOF 26
ENDMDL
MODEL 2
REMARK VINA RESULT:     8.779      2.209      4.549
REMARK INTER + INTRA:          24.863
REMARK INTER:                  24.006
REMARK INTRA:                   0.857
REMARK UNBOUND:                 2.739
REMARK SMILES CCCCCCCCCCCCCCCCCCCCCCCCCCCC(=O)[O-]
REMARK SMILES IDX 15 1 16 2 17 3 18 4 19 5 20 6 21 7 22 8 23 9 24 10 25 11
REMARK SMILES IDX 26 12 27 13 28 14 29 15 30 16 14 17 13 18 12 19 11 20 10 21
REMARK SMILES IDX 9 22 8 23 7 24 6 25 5 26 4 27 3 28 2 29 1 30
REMARK H PARENT
REMARK Flexibility Score: inf
ROOT
ATOM      1  C   UNL     1       5.120 -35.452  24.609  1.00  0.00     0.000 C 
ENDROOT
BRANCH   1   2
ATOM      2  C   UNL     1       5.124 -36.214  23.277  1.00  0.00     0.000 C 
BRANCH   2   3
ATOM      3  C   UNL     1       4.156 -35.611  22.243  1.00  0.00     0.000 C 
BRANCH   3   4
ATOM      4  C   UNL     1       4.833 -34.958  21.019  1.00  0.00     0.000 C 
BRANCH   4   5
ATOM      5  C   UNL     1       5.123 -35.913  19.847  1.00  0.00     0.000 C 
BRANCH   5   6
ATOM      6  C   UNL     1       4.423 -37.284  19.936  1.00  0.00     0.000 C 
BRANCH   6   7
ATOM      7  C   UNL     1       3.627 -37.664  18.666  1.00  0.00     0.000 C 
BRANCH   7   8
ATOM      8  C   UNL     1       2.109 -37.777  18.890  1.00  0.00     0.000 C 
BRANCH   8   9
ATOM      9  C   UNL     1       1.312 -36.743  18.073  1.00  0.00     0.000 C 
BRANCH   9  10
ATOM     10  C   UNL     1       1.506 -36.911  16.557  1.00  0.00     0.000 C 
BRANCH  10  11
ATOM     11  C   UNL     1       2.468 -35.870  15.961  1.00  0.00     0.000 C 
BRANCH  11  12
ATOM     12  C   UNL     1       2.537 -35.926  14.424  1.00  0.00     0.006 C 
BRANCH  12  13
ATOM     13  C   UNL     1       3.784 -36.645  13.877  1.00  0.00     0.053 C 
BRANCH  13  14
ATOM     14  C   UNL     1       4.010 -37.982  14.513  1.00  0.00     0.041 C 
ATOM     15  O   UNL     1       4.735 -38.842  13.946  1.00  0.00    -0.550 OA
ATOM     16  O   UNL     1       3.386 -38.296  15.714  1.00  0.00    -0.550 OA
ENDBRANCH  13  14
ENDBRANCH  12  13
ENDBRANCH  11  12
ENDBRANCH  10  11
ENDBRANCH   9  10
ENDBRANCH   8   9
ENDBRANCH   7   8
ENDBRANCH   6   7
ENDBRANCH   5   6
ENDBRANCH   4   5
ENDBRANCH   3   4
ENDBRANCH   2   3
ENDBRANCH   1   2
BRANCH   1  17
ATOM     17  C   UNL     1       5.119 -36.420  25.803  1.00  0.00     0.000 C 
BRANCH  17  18
ATOM     18  C   UNL     1       3.974 -37.445  25.718  1.00  0.00     0.000 C 
BRANCH  18  19
ATOM     19  C   UNL     1       3.369 -37.793  27.091  1.00  0.00     0.000 C 
BRANCH  19  20
ATOM     20  C   UNL     1       1.829 -37.782  27.066  1.00  0.00     0.000 C 
BRANCH  20  21
ATOM     21  C   UNL     1       1.238 -36.364  27.228  1.00  0.00     0.000 C 
BRANCH  21  22
ATOM     22  C   UNL     1       1.815 -35.566  28.414  1.00  0.00    -0.000 C 
BRANCH  22  23
ATOM     23  C   UNL     1       1.222 -34.163  28.614  1.00  0.00    -0.000 C 
BRANCH  23  24
ATOM     24  C   UNL     1       0.511 -33.998  29.966  1.00  0.00    -0.000 C 
BRANCH  24  25
ATOM     25  C   UNL     1      -0.952 -33.584  29.770  1.00  0.00    -0.000 C 
BRANCH  25  26
ATOM     26  C   UNL     1      -1.082 -32.061  29.663  1.00  0.00    -0.000 C 
BRANCH  26  27
ATOM     27  C   UNL     1      -2.414 -31.578  30.258  1.00  0.00    -0.000 C 
BRANCH  27  28
ATOM     28  C   UNL     1      -2.327 -30.154  30.829  1.00  0.00    -0.000 C 
BRANCH  28  29
ATOM     29  C   UNL     1      -2.600 -29.075  29.772  1.00  0.00    -0.003 C 
ATOM     30  C   UNL     1      -4.087 -28.737  29.705  1.00  0.00     0.004 C 
ENDBRANCH  28  29
ENDBRANCH  27  28
ENDBRANCH  26  27
ENDBRANCH  25  26
ENDBRANCH  24  25
ENDBRANCH  23  24
ENDBRANCH  22  23
ENDBRANCH  21  22
ENDBRANCH  20  21
ENDBRANCH  19  20
ENDBRANCH  18  19
ENDBRANCH  17  18
ENDBRANCH   1  17
TORSDOF 26
ENDMDL
MODEL 3
REMARK VINA RESULT:     8.847      2.348      4.436
REMARK INTER + INTRA:          25.033
REMARK INTER:                  23.497
REMARK INTRA:                   1.536
REMARK UNBOUND:                 2.739
REMARK SMILES CCCCCCCCCCCCCCCCCCCCCCCCCCCC(=O)[O-]
REMARK SMILES IDX 15 1 16 2 17 3 18 4 19 5 20 6 21 7 22 8 23 9 24 10 25 11
REMARK SMILES IDX 26 12 27 13 28 14 29 15 30 16 14 17 13 18 12 19 11 20 10 21
REMARK SMILES IDX 9 22 8 23 7 24 6 25 5 26 4 27 3 28 2 29 1 30
REMARK H PARENT
REMARK Flexibility Score: inf
ROOT
ATOM      1  C   UNL     1       4.855 -35.452  24.269  1.00  0.00     0.000 C 
ENDROOT
BRANCH   1   2
ATOM      2  C   UNL     1       5.104 -36.239  22.975  1.00  0.00     0.000 C 
BRANCH   2   3
ATOM      3  C   UNL     1       4.339 -35.662  21.771  1.00  0.00     0.000 C 
BRANCH   3   4
ATOM      4  C   UNL     1       5.125 -35.651  20.442  1.00  0.00     0.000 C 
BRANCH   4   5
ATOM      5  C   UNL     1       4.563 -36.574  19.345  1.00  0.00     0.000 C 
BRANCH   5   6
ATOM      6  C   UNL     1       3.098 -37.012  19.550  1.00  0.00     0.000 C 
BRANCH   6   7
ATOM      7  C   UNL     1       2.577 -37.982  18.464  1.00  0.00     0.000 C 
BRANCH   7   8
ATOM      8  C   UNL     1       1.198 -37.603  17.897  1.00  0.00     0.000 C 
BRANCH   8   9
ATOM      9  C   UNL     1       1.292 -36.589  16.742  1.00  0.00     0.000 C 
BRANCH   9  10
ATOM     10  C   UNL     1       2.726 -36.085  16.513  1.00  0.00     0.000 C 
BRANCH  10  11
ATOM     11  C   UNL     1       2.882 -35.312  15.192  1.00  0.00     0.000 C 
BRANCH  11  12
ATOM     12  C   UNL     1       2.979 -36.235  13.964  1.00  0.00     0.006 C 
BRANCH  12  13
ATOM     13  C   UNL     1       4.295 -37.029  13.877  1.00  0.00     0.053 C 
BRANCH  13  14
ATOM     14  C   UNL     1       4.236 -38.334  14.612  1.00  0.00     0.041 C 
ATOM     15  O   UNL     1       4.804 -39.355  14.142  1.00  0.00    -0.550 OA
ATOM     16  O   UNL     1       3.518 -38.433  15.797  1.00  0.00    -0.550 OA
ENDBRANCH  13  14
ENDBRANCH  12  13
ENDBRANCH  11  12
ENDBRANCH  10  11
ENDBRANCH   9  10
ENDBRANCH   8   9
ENDBRANCH   7   8
ENDBRANCH   6   7
ENDBRANCH   5   6
ENDBRANCH   4   5
ENDBRANCH   3   4
ENDBRANCH   2   3
ENDBRANCH   1   2
BRANCH   1  17
ATOM     17  C   UNL     1       5.096 -36.330  25.508  1.00  0.00     0.000 C 
BRANCH  17  18
ATOM     18  C   UNL     1       3.935 -37.310  25.759  1.00  0.00     0.000 C 
BRANCH  18  19
ATOM     19  C   UNL     1       3.452 -37.314  27.221  1.00  0.00     0.000 C 
BRANCH  19  20
ATOM     20  C   UNL     1       1.935 -37.069  27.332  1.00  0.00     0.000 C 
BRANCH  20  21
ATOM     21  C   UNL     1       1.591 -35.621  27.744  1.00  0.00     0.000 C 
BRANCH  21  22
ATOM     22  C   UNL     1       1.951 -35.272  29.202  1.00  0.00    -0.000 C 
BRANCH  22  23
ATOM     23  C   UNL     1       1.884 -33.778  29.557  1.00  0.00    -0.000 C 
BRANCH  23  24
ATOM     24  C   UNL     1       0.447 -33.267  29.737  1.00  0.00    -0.000 C 
BRANCH  24  25
ATOM     25  C   UNL     1      -0.531 -34.061  28.863  1.00  0.00    -0.000 C 
BRANCH  25  26
ATOM     26  C   UNL     1      -1.941 -34.045  29.464  1.00  0.00    -0.000 C 
BRANCH  26  27
ATOM     27  C   UNL     1      -3.009 -34.184  28.368  1.00  0.00    -0.000 C 
BRANCH  27  28
ATOM     28  C   UNL     1      -4.017 -35.308  28.661  1.00  0.00    -0.000 C 
BRANCH  28  29
ATOM     29  C   UNL     1      -5.080 -35.449  27.563  1.00  0.00    -0.003 C 
ATOM     30  C   UNL     1      -5.495 -36.908  27.387  1.00  0.00     0.004 C 
ENDBRANCH  28  29
ENDBRANCH  27  28
ENDBRANCH  26  27
ENDBRANCH  25  26
ENDBRANCH  24  25
ENDBRANCH  23  24
ENDBRANCH  22  23
ENDBRANCH  21  22
ENDBRANCH  20  21
ENDBRANCH  19  20
ENDBRANCH  18  19
ENDBRANCH  17  18
ENDBRANCH   1  17
TORSDOF 26
ENDMDL
MODEL 4
REMARK VINA RESULT:     9.161      3.379     11.176
REMARK INTER + INTRA:          25.825
REMARK INTER:                  25.245
REMARK INTRA:                   0.580
REMARK UNBOUND:                 2.739
REMARK SMILES CCCCCCCCCCCCCCCCCCCCCCCCCCCC(=O)[O-]
REMARK SMILES IDX 15 1 16 2 17 3 18 4 19 5 20 6 21 7 22 8 23 9 24 10 25 11
REMARK SMILES IDX 26 12 27 13 28 14 29 15 30 16 14 17 13 18 12 19 11 20 10 21
REMARK SMILES IDX 9 22 8 23 7 24 6 25 5 26 4 27 3 28 2 29 1 30
REMARK H PARENT
REMARK Flexibility Score: inf
ROOT
ATOM      1  C   UNL     1       4.921 -35.871  24.308  1.00  0.00     0.000 C 
ENDROOT
BRANCH   1   2
ATOM      2  C   UNL     1       4.739 -37.270  23.702  1.00  0.00     0.000 C 
BRANCH   2   3
ATOM      3  C   UNL     1       4.728 -38.382  24.765  1.00  0.00     0.000 C 
BRANCH   3   4
ATOM      4  C   UNL     1       4.742 -37.888  26.228  1.00  0.00     0.000 C 
BRANCH   4   5
ATOM      5  C   UNL     1       3.623 -36.895  26.590  1.00  0.00     0.000 C 
BRANCH   5   6
ATOM      6  C   UNL     1       2.402 -37.518  27.296  1.00  0.00     0.000 C 
BRANCH   6   7
ATOM      7  C   UNL     1       1.722 -36.577  28.318  1.00  0.00     0.000 C 
BRANCH   7   8
ATOM      8  C   UNL     1       1.876 -35.082  27.991  1.00  0.00     0.000 C 
BRANCH   8   9
ATOM      9  C   UNL     1       1.868 -34.196  29.251  1.00  0.00     0.000 C 
BRANCH   9  10
ATOM     10  C   UNL     1       0.469 -33.648  29.578  1.00  0.00     0.000 C 
BRANCH  10  11
ATOM     11  C   UNL     1      -0.661 -34.582  29.114  1.00  0.00     0.000 C 
BRANCH  11  12
ATOM     12  C   UNL     1      -2.062 -33.982  29.324  1.00  0.00     0.006 C 
BRANCH  12  13
ATOM     13  C   UNL     1      -3.190 -34.754  28.617  1.00  0.00     0.053 C 
BRANCH  13  14
ATOM     14  C   UNL     1      -4.555 -34.278  29.008  1.00  0.00     0.041 C 
ATOM     15  O   UNL     1      -5.506 -34.324  28.183  1.00  0.00    -0.550 OA
ATOM     16  O   UNL     1      -4.770 -33.744  30.272  1.00  0.00    -0.550 OA
ENDBRANCH  13  14
ENDBRANCH  12  13
ENDBRANCH  11  12
ENDBRANCH  10  11
ENDBRANCH   9  10
ENDBRANCH   8   9
ENDBRANCH   7   8
ENDBRANCH   6   7
ENDBRANCH   5   6
ENDBRANCH   4   5
ENDBRANCH   3   4
ENDBRANCH   2   3
ENDBRANCH   1   2
BRANCH   1  17
ATOM     17  C   UNL     1       5.123 -34.813  23.212  1.00  0.00     0.000 C 
BRANCH  17  18
ATOM     18  C   UNL     1       5.113 -35.429  21.801  1.00  0.00     0.000 C 
BRANCH  18  19
ATOM     19  C   UNL     1       4.438 -34.526  20.751  1.00  0.00     0.000 C 
BRANCH  19  20
ATOM     20  C   UNL     1       5.125 -34.623  19.376  1.00  0.00     0.000 C 
BRANCH  20  21
ATOM     21  C   UNL     1       4.835 -35.956  18.653  1.00  0.00     0.000 C 
BRANCH  21  22
ATOM     22  C   UNL     1       3.351 -36.175  18.295  1.00  0.00    -0.000 C 
BRANCH  22  23
ATOM     23  C   UNL     1       2.940 -37.637  18.057  1.00  0.00    -0.000 C 
BRANCH  23  24
ATOM     24  C   UNL     1       1.417 -37.840  18.053  1.00  0.00    -0.000 C 
BRANCH  24  25
ATOM     25  C   UNL     1       0.746 -36.936  17.012  1.00  0.00    -0.000 C 
BRANCH  25  26
ATOM     26  C   UNL     1       1.713 -35.853  16.520  1.00  0.00    -0.000 C 
BRANCH  26  27
ATOM     27  C   UNL     1       2.020 -36.027  15.025  1.00  0.00    -0.000 C 
BRANCH  27  28
ATOM     28  C   UNL     1       3.529 -36.093  14.734  1.00  0.00    -0.000 C 
BRANCH  28  29
ATOM     29  C   UNL     1       3.913 -37.305  13.875  1.00  0.00    -0.003 C 
ATOM     30  C   UNL     1       4.344 -38.482  14.747  1.00  0.00     0.004 C 
ENDBRANCH  28  29
ENDBRANCH  27  28
ENDBRANCH  26  27
ENDBRANCH  25  26
ENDBRANCH  24  25
ENDBRANCH  23  24
ENDBRANCH  22  23
ENDBRANCH  21  22
ENDBRANCH  20  21
ENDBRANCH  19  20
ENDBRANCH  18  19
ENDBRANCH  17  18
ENDBRANCH   1  17
TORSDOF 26
ENDMDL
MODEL 5
REMARK VINA RESULT:     9.406      3.214     10.712
REMARK INTER + INTRA:          26.443
REMARK INTER:                  24.079
REMARK INTRA:                   2.364
REMARK UNBOUND:                 2.739
REMARK SMILES CCCCCCCCCCCCCCCCCCCCCCCCCCCC(=O)[O-]
REMARK SMILES IDX 15 1 16 2 17 3 18 4 19 5 20 6 21 7 22 8 23 9 24 10 25 11
REMARK SMILES IDX 26 12 27 13 28 14 29 15 30 16 14 17 13 18 12 19 11 20 10 21
REMARK SMILES IDX 9 22 8 23 7 24 6 25 5 26 4 27 3 28 2 29 1 30
REMARK H PARENT
REMARK Flexibility Score: inf
ROOT
ATOM      1  C   UNL     1       4.598 -35.948  23.226  1.00  0.00     0.000 C 
ENDROOT
BRANCH   1   2
ATOM      2  C   UNL     1       4.737 -37.370  22.663  1.00  0.00     0.000 C 
BRANCH   2   3
ATOM      3  C   UNL     1       4.659 -38.452  23.754  1.00  0.00     0.000 C 
BRANCH   3   4
ATOM      4  C   UNL     1       5.105 -37.995  25.160  1.00  0.00     0.000 C 
BRANCH   4   5
ATOM      5  C   UNL     1       4.129 -37.043  25.875  1.00  0.00     0.000 C 
BRANCH   5   6
ATOM      6  C   UNL     1       2.794 -37.682  26.307  1.00  0.00     0.000 C 
BRANCH   6   7
ATOM      7  C   UNL     1       2.396 -37.374  27.769  1.00  0.00     0.000 C 
BRANCH   7   8
ATOM      8  C   UNL     1       1.448 -36.172  27.919  1.00  0.00     0.000 C 
BRANCH   8   9
ATOM      9  C   UNL     1       2.170 -34.909  28.425  1.00  0.00     0.000 C 
BRANCH   9  10
ATOM     10  C   UNL     1       1.609 -34.405  29.765  1.00  0.00     0.000 C 
BRANCH  10  11
ATOM     11  C   UNL     1       0.504 -33.350  29.589  1.00  0.00     0.000 C 
BRANCH  11  12
ATOM     12  C   UNL     1      -0.829 -33.951  29.106  1.00  0.00     0.006 C 
BRANCH  12  13
ATOM     13  C   UNL     1      -2.075 -33.204  29.614  1.00  0.00     0.053 C 
BRANCH  13  14
ATOM     14  C   UNL     1      -3.317 -34.040  29.555  1.00  0.00     0.041 C 
ATOM     15  O   UNL     1      -3.565 -34.741  28.538  1.00  0.00    -0.550 OA
ATOM     16  O   UNL     1      -4.224 -34.013  30.607  1.00  0.00    -0.550 OA
ENDBRANCH  13  14
ENDBRANCH  12  13
ENDBRANCH  11  12
ENDBRANCH  10  11
ENDBRANCH   9  10
ENDBRANCH   8   9
ENDBRANCH   7   8
ENDBRANCH   6   7
ENDBRANCH   5   6
ENDBRANCH   4   5
ENDBRANCH   3   4
ENDBRANCH   2   3
ENDBRANCH   1   2
BRANCH   1  17
ATOM     17  C   UNL     1       4.800 -34.893  22.126  1.00  0.00     0.000 C 
BRANCH  17  18
ATOM     18  C   UNL     1       5.124 -35.531  20.763  1.00  0.00     0.000 C 
BRANCH  18  19
ATOM     19  C   UNL     1       4.220 -35.021  19.626  1.00  0.00     0.000 C 
BRANCH  19  20
ATOM     20  C   UNL     1       4.951 -34.028  18.703  1.00  0.00     0.000 C 
BRANCH  20  21
ATOM     21  C   UNL     1       4.860 -34.417  17.211  1.00  0.00     0.000 C 
BRANCH  21  22
ATOM     22  C   UNL     1       3.816 -35.510  16.903  1.00  0.00    -0.000 C 
BRANCH  22  23
ATOM     23  C   UNL     1       2.954 -35.263  15.654  1.00  0.00    -0.000 C 
BRANCH  23  24
ATOM     24  C   UNL     1       3.012 -36.421  14.646  1.00  0.00    -0.000 C 
BRANCH  24  25
ATOM     25  C   UNL     1       3.459 -37.720  15.327  1.00  0.00    -0.000 C 
BRANCH  25  26
ATOM     26  C   UNL     1       2.801 -37.872  16.703  1.00  0.00    -0.000 C 
BRANCH  26  27
ATOM     27  C   UNL     1       1.560 -36.974  16.824  1.00  0.00    -0.000 C 
BRANCH  27  28
ATOM     28  C   UNL     1       0.711 -37.301  18.063  1.00  0.00    -0.000 C 
BRANCH  28  29
ATOM     29  C   UNL     1       1.392 -38.309  18.998  1.00  0.00    -0.003 C 
ATOM     30  C   UNL     1       2.254 -37.598  20.038  1.00  0.00     0.004 C 
ENDBRANCH  28  29
ENDBRANCH  27  28
ENDBRANCH  26  27
ENDBRANCH  25  26
ENDBRANCH  24  25
ENDBRANCH  23  24
ENDBRANCH  22  23
ENDBRANCH  21  22
ENDBRANCH  20  21
ENDBRANCH  19  20
ENDBRANCH  18  19
ENDBRANCH  17  18
ENDBRANCH   1  17
TORSDOF 26
ENDMDL
MODEL 6
REMARK VINA RESULT:     9.460      1.176      2.248
REMARK INTER + INTRA:          26.578
REMARK INTER:                  21.880
REMARK INTRA:                   4.698
REMARK UNBOUND:                 2.739
REMARK SMILES CCCCCCCCCCCCCCCCCCCCCCCCCCCC(=O)[O-]
REMARK SMILES IDX 15 1 16 2 17 3 18 4 19 5 20 6 21 7 22 8 23 9 24 10 25 11
REMARK SMILES IDX 26 12 27 13 28 14 29 15 30 16 14 17 13 18 12 19 11 20 10 21
REMARK SMILES IDX 9 22 8 23 7 24 6 25 5 26 4 27 3 28 2 29 1 30
REMARK H PARENT
REMARK Flexibility Score: inf
ROOT
ATOM      1  C   UNL     1       3.822 -34.064  22.861  1.00  0.00     0.000 C 
ENDROOT
BRANCH   1   2
ATOM      2  C   UNL     1       3.426 -33.897  21.387  1.00  0.00     0.000 C 
BRANCH   2   3
ATOM      3  C   UNL     1       4.344 -34.680  20.432  1.00  0.00     0.000 C 
BRANCH   3   4
ATOM      4  C   UNL     1       4.971 -35.958  21.030  1.00  0.00     0.000 C 
BRANCH   4   5
ATOM      5  C   UNL     1       4.840 -37.218  20.155  1.00  0.00     0.000 C 
BRANCH   5   6
ATOM      6  C   UNL     1       4.206 -36.987  18.769  1.00  0.00     0.000 C 
BRANCH   6   7
ATOM      7  C   UNL     1       4.613 -35.648  18.110  1.00  0.00     0.000 C 
BRANCH   7   8
ATOM      8  C   UNL     1       4.535 -35.658  16.574  1.00  0.00     0.000 C 
BRANCH   8   9
ATOM      9  C   UNL     1       3.796 -36.894  16.027  1.00  0.00     0.000 C 
BRANCH   9  10
ATOM     10  C   UNL     1       3.005 -36.590  14.744  1.00  0.00     0.000 C 
BRANCH  10  11
ATOM     11  C   UNL     1       1.622 -35.980  15.028  1.00  0.00     0.000 C 
BRANCH  11  12
ATOM     12  C   UNL     1       1.341 -35.801  16.531  1.00  0.00     0.006 C 
BRANCH  12  13
ATOM     13  C   UNL     1       0.298 -36.782  17.096  1.00  0.00     0.053 C 
BRANCH  13  14
ATOM     14  C   UNL     1       0.772 -37.488  18.329  1.00  0.00     0.041 C 
ATOM     15  O   UNL     1      -0.031 -37.739  19.267  1.00  0.00    -0.550 OA
ATOM     16  O   UNL     1       2.110 -37.834  18.461  1.00  0.00    -0.550 OA
ENDBRANCH  13  14
ENDBRANCH  12  13
ENDBRANCH  11  12
ENDBRANCH  10  11
ENDBRANCH   9  10
ENDBRANCH   8   9
ENDBRANCH   7   8
ENDBRANCH   6   7
ENDBRANCH   5   6
ENDBRANCH   4   5
ENDBRANCH   3   4
ENDBRANCH   2   3
ENDBRANCH   1   2
BRANCH   1  17
ATOM     17  C   UNL     1       5.125 -34.869  22.998  1.00  0.00     0.000 C 
BRANCH  17  18
ATOM     18  C   UNL     1       5.038 -35.929  24.111  1.00  0.00     0.000 C 
BRANCH  18  19
ATOM     19  C   UNL     1       5.125 -37.372  23.580  1.00  0.00     0.000 C 
BRANCH  19  20
ATOM     20  C   UNL     1       3.974 -38.253  24.102  1.00  0.00     0.000 C 
BRANCH  20  21
ATOM     21  C   UNL     1       4.244 -38.815  25.515  1.00  0.00     0.000 C 
BRANCH  21  22
ATOM     22  C   UNL     1       4.265 -37.749  26.629  1.00  0.00    -0.000 C 
BRANCH  22  23
ATOM     23  C   UNL     1       3.063 -36.790  26.644  1.00  0.00    -0.000 C 
BRANCH  23  24
ATOM     24  C   UNL     1       1.881 -37.321  27.468  1.00  0.00    -0.000 C 
BRANCH  24  25
ATOM     25  C   UNL     1       1.118 -36.172  28.138  1.00  0.00    -0.000 C 
BRANCH  25  26
ATOM     26  C   UNL     1       2.066 -35.023  28.503  1.00  0.00    -0.000 C 
BRANCH  26  27
ATOM     27  C   UNL     1       1.658 -34.375  29.835  1.00  0.00    -0.000 C 
BRANCH  27  28
ATOM     28  C   UNL     1       0.574 -33.299  29.663  1.00  0.00    -0.000 C 
BRANCH  28  29
ATOM     29  C   UNL     1      -0.590 -33.769  28.779  1.00  0.00    -0.003 C 
ATOM     30  C   UNL     1      -1.820 -34.098  29.621  1.00  0.00     0.004 C 
ENDBRANCH  28  29
ENDBRANCH  27  28
ENDBRANCH  26  27
ENDBRANCH  25  26
ENDBRANCH  24  25
ENDBRANCH  23  24
ENDBRANCH  22  23
ENDBRANCH  21  22
ENDBRANCH  20  21
ENDBRANCH  19  20
ENDBRANCH  18  19
ENDBRANCH  17  18
ENDBRANCH   1  17
TORSDOF 26
ENDMDL
