MODEL 1
REMARK VINA RESULT:    -5.205      0.000      0.000
REMARK INTER + INTRA:          -6.024
REMARK INTER:                  -5.813
REMARK INTRA:                  -0.210
REMARK UNBOUND:                -0.210
REMARK SMILES CC(C)c1ccc(C(=O)[O-])cc1
REMARK SMILES IDX 7 1 6 2 11 3 5 4 12 5 4 6 8 7 9 8 10 9 2 10 1 11 3 12
REMARK H PARENT
REMARK Flexibility Score: inf
ROOT
ATOM      1  C   UNL     1      56.907  28.725  19.053  1.00  0.00    -0.003 A 
ATOM      2  C   UNL     1      56.792  28.588  17.659  1.00  0.00     0.010 A 
ATOM      3  C   UNL     1      57.987  28.112  19.711  1.00  0.00     0.010 A 
ATOM      4  C   UNL     1      57.738  27.855  16.938  1.00  0.00     0.004 A 
ATOM      5  C   UNL     1      58.932  27.378  18.989  1.00  0.00     0.004 A 
ATOM      6  C   UNL     1      58.818  27.240  17.594  1.00  0.00    -0.045 A 
ENDROOT
BRANCH   1   7
ATOM      7  C   UNL     1      55.903  29.503  19.813  1.00  0.00     0.071 C 
ATOM      8  O   UNL     1      56.187  29.988  20.940  1.00  0.00    -0.545 OA
ATOM      9  O   UNL     1      54.630  29.709  19.293  1.00  0.00    -0.545 OA
ENDBRANCH   1   7
BRANCH   6  10
ATOM     10  C   UNL     1      59.837  26.447  16.798  1.00  0.00     0.013 C 
ATOM     11  C   UNL     1      60.904  27.367  16.193  1.00  0.00     0.012 C 
ATOM     12  C   UNL     1      60.477  25.350  17.658  1.00  0.00     0.012 C 
ENDBRANCH   6  10
TORSDOF 2
ENDMDL
MODEL 2
REMARK VINA RESULT:    -5.168      0.146      1.686
REMARK INTER + INTRA:          -5.982
REMARK INTER:                  -5.771
REMARK INTRA:                  -0.212
REMARK UNBOUND:                -0.210
REMARK SMILES CC(C)c1ccc(C(=O)[O-])cc1
REMARK SMILES IDX 7 1 6 2 11 3 5 4 12 5 4 6 8 7 9 8 10 9 2 10 1 11 3 12
REMARK H PARENT
REMARK Flexibility Score: inf
ROOT
ATOM      1  C   UNL     1      56.972  28.698  19.127  1.00  0.00    -0.003 A 
ATOM      2  C   UNL     1      58.093  28.106  19.732  1.00  0.00     0.010 A 
ATOM      3  C   UNL     1      56.792  28.555  17.741  1.00  0.00     0.010 A 
ATOM      4  C   UNL     1      59.015  27.386  18.968  1.00  0.00     0.004 A 
ATOM      5  C   UNL     1      57.714  27.836  16.976  1.00  0.00     0.004 A 
ATOM      6  C   UNL     1      58.837  27.243  17.581  1.00  0.00    -0.045 A 
ENDROOT
BRANCH   1   7
ATOM      7  C   UNL     1      55.997  29.459  19.941  1.00  0.00     0.071 C 
ATOM      8  O   UNL     1      54.828  29.659  19.519  1.00  0.00    -0.545 OA
ATOM      9  O   UNL     1      56.360  29.965  21.184  1.00  0.00    -0.545 OA
ENDBRANCH   1   7
BRANCH   6  10
ATOM     10  C   UNL     1      59.846  26.460  16.764  1.00  0.00     0.013 C 
ATOM     11  C   UNL     1      60.913  27.385  16.168  1.00  0.00     0.012 C 
ATOM     12  C   UNL     1      60.488  25.345  17.598  1.00  0.00     0.012 C 
ENDBRANCH   6  10
TORSDOF 2
ENDMDL
MODEL 3
REMARK VINA RESULT:    -4.996     14.296     15.205
REMARK INTER + INTRA:          -5.791
REMARK INTER:                  -5.576
REMARK INTRA:                  -0.215
REMARK UNBOUND:                -0.210
REMARK SMILES CC(C)c1ccc(C(=O)[O-])cc1
REMARK SMILES IDX 7 1 6 2 11 3 5 4 12 5 4 6 8 7 9 8 10 9 2 10 1 11 3 12
REMARK H PARENT
REMARK Flexibility Score: inf
ROOT
ATOM      1  C   UNL     1      62.744  40.002  13.679  1.00  0.00    -0.003 A 
ATOM      2  C   UNL     1      63.135  39.404  12.470  1.00  0.00     0.010 A 
ATOM      3  C   UNL     1      63.101  41.339  13.924  1.00  0.00     0.010 A 
ATOM      4  C   UNL     1      63.866  40.128  11.524  1.00  0.00     0.004 A 
ATOM      5  C   UNL     1      63.832  42.063  12.978  1.00  0.00     0.004 A 
ATOM      6  C   UNL     1      64.223  41.465  11.767  1.00  0.00    -0.045 A 
ENDROOT
BRANCH   1   7
ATOM      7  C   UNL     1      61.970  39.232  14.678  1.00  0.00     0.071 C 
ATOM      8  O   UNL     1      62.409  38.140  15.126  1.00  0.00    -0.545 OA
ATOM      9  O   UNL     1      60.745  39.704  15.137  1.00  0.00    -0.545 OA
ENDBRANCH   1   7
BRANCH   6  10
ATOM     10  C   UNL     1      65.017  42.238  10.731  1.00  0.00     0.013 C 
ATOM     11  C   UNL     1      66.079  43.122  11.395  1.00  0.00     0.012 C 
ATOM     12  C   UNL     1      65.650  41.295   9.702  1.00  0.00     0.012 C 
ENDBRANCH   6  10
TORSDOF 2
ENDMDL
MODEL 4
REMARK VINA RESULT:    -4.950      3.089      5.175
REMARK INTER + INTRA:          -5.739
REMARK INTER:                  -5.529
REMARK INTRA:                  -0.210
REMARK UNBOUND:                -0.210
REMARK SMILES CC(C)c1ccc(C(=O)[O-])cc1
REMARK SMILES IDX 7 1 6 2 11 3 5 4 12 5 4 6 8 7 9 8 10 9 2 10 1 11 3 12
REMARK H PARENT
REMARK Flexibility Score: inf
ROOT
ATOM      1  C   UNL     1      58.711  26.712  17.884  1.00  0.00    -0.003 A 
ATOM      2  C   UNL     1      58.741  27.046  19.249  1.00  0.00     0.010 A 
ATOM      3  C   UNL     1      57.835  27.406  17.033  1.00  0.00     0.010 A 
ATOM      4  C   UNL     1      57.913  28.053  19.751  1.00  0.00     0.004 A 
ATOM      5  C   UNL     1      57.006  28.413  17.535  1.00  0.00     0.004 A 
ATOM      6  C   UNL     1      57.035  28.748  18.901  1.00  0.00    -0.045 A 
ENDROOT
BRANCH   1   7
ATOM      7  C   UNL     1      59.590  25.645  17.356  1.00  0.00     0.071 C 
ATOM      8  O   UNL     1      60.837  25.813  17.296  1.00  0.00    -0.545 OA
ATOM      9  O   UNL     1      59.051  24.441  16.918  1.00  0.00    -0.545 OA
ENDBRANCH   1   7
BRANCH   6  10
ATOM     10  C   UNL     1      56.142  29.838  19.461  1.00  0.00     0.013 C 
ATOM     11  C   UNL     1      54.663  29.526  19.205  1.00  0.00     0.012 C 
ATOM     12  C   UNL     1      56.408  30.060  20.954  1.00  0.00     0.012 C 
ENDBRANCH   6  10
TORSDOF 2
ENDMDL
MODEL 5
REMARK VINA RESULT:    -4.862     14.747     15.648
REMARK INTER + INTRA:          -5.641
REMARK INTER:                  -5.435
REMARK INTRA:                  -0.206
REMARK UNBOUND:                -0.210
REMARK SMILES CC(C)c1ccc(C(=O)[O-])cc1
REMARK SMILES IDX 7 1 6 2 11 3 5 4 12 5 4 6 8 7 9 8 10 9 2 10 1 11 3 12
REMARK H PARENT
REMARK Flexibility Score: inf
ROOT
ATOM      1  C   UNL     1      63.879  41.533  11.463  1.00  0.00    -0.003 A 
ATOM      2  C   UNL     1      63.575  40.162  11.398  1.00  0.00     0.010 A 
ATOM      3  C   UNL     1      63.645  42.226  12.662  1.00  0.00     0.010 A 
ATOM      4  C   UNL     1      63.048  39.499  12.509  1.00  0.00     0.004 A 
ATOM      5  C   UNL     1      63.119  41.562  13.774  1.00  0.00     0.004 A 
ATOM      6  C   UNL     1      62.813  40.190  13.710  1.00  0.00    -0.045 A 
ENDROOT
BRANCH   1   7
ATOM      7  C   UNL     1      64.436  42.231  10.283  1.00  0.00     0.071 C 
ATOM      8  O   UNL     1      65.658  42.535  10.236  1.00  0.00    -0.545 OA
ATOM      9  O   UNL     1      63.618  42.563   9.209  1.00  0.00    -0.545 OA
ENDBRANCH   1   7
BRANCH   6  10
ATOM     10  C   UNL     1      62.242  39.457  14.908  1.00  0.00     0.013 C 
ATOM     11  C   UNL     1      60.758  39.790  15.103  1.00  0.00     0.012 C 
ATOM     12  C   UNL     1      62.455  37.944  14.785  1.00  0.00     0.012 C 
ENDBRANCH   6  10
TORSDOF 2
ENDMDL
MODEL 6
REMARK VINA RESULT:    -4.606     15.181     16.243
REMARK INTER + INTRA:          -5.354
REMARK INTER:                  -5.139
REMARK INTRA:                  -0.216
REMARK UNBOUND:                -0.210
REMARK SMILES CC(C)c1ccc(C(=O)[O-])cc1
REMARK SMILES IDX 7 1 6 2 11 3 5 4 12 5 4 6 8 7 9 8 10 9 2 10 1 11 3 12
REMARK H PARENT
REMARK Flexibility Score: inf
ROOT
ATOM      1  C   UNL     1      59.637  38.125   7.603  1.00  0.00    -0.003 A 
ATOM      2  C   UNL     1      59.083  39.250   6.970  1.00  0.00     0.010 A 
ATOM      3  C   UNL     1      60.695  38.306   8.511  1.00  0.00     0.010 A 
ATOM      4  C   UNL     1      59.575  40.530   7.240  1.00  0.00     0.004 A 
ATOM      5  C   UNL     1      61.186  39.586   8.780  1.00  0.00     0.004 A 
ATOM      6  C   UNL     1      60.632  40.713   8.147  1.00  0.00    -0.045 A 
ENDROOT
BRANCH   1   7
ATOM      7  C   UNL     1      59.113  36.771   7.315  1.00  0.00     0.071 C 
ATOM      8  O   UNL     1      58.984  36.373   6.127  1.00  0.00    -0.545 OA
ATOM      9  O   UNL     1      58.754  35.919   8.354  1.00  0.00    -0.545 OA
ENDBRANCH   1   7
BRANCH   6  10
ATOM     10  C   UNL     1      61.156  42.109   8.429  1.00  0.00     0.013 C 
ATOM     11  C   UNL     1      62.679  42.102   8.606  1.00  0.00     0.012 C 
ATOM     12  C   UNL     1      60.733  43.091   7.331  1.00  0.00     0.012 C 
ENDBRANCH   6  10
TORSDOF 2
ENDMDL
MODEL 7
REMARK VINA RESULT:    -4.560     15.387     16.347
REMARK INTER + INTRA:          -5.304
REMARK INTER:                  -5.089
REMARK INTRA:                  -0.215
REMARK UNBOUND:                -0.210
REMARK SMILES CC(C)c1ccc(C(=O)[O-])cc1
REMARK SMILES IDX 7 1 6 2 11 3 5 4 12 5 4 6 8 7 9 8 10 9 2 10 1 11 3 12
REMARK H PARENT
REMARK Flexibility Score: inf
ROOT
ATOM      1  C   UNL     1      62.012  40.151   9.748  1.00  0.00    -0.003 A 
ATOM      2  C   UNL     1      61.700  41.335   9.059  1.00  0.00     0.010 A 
ATOM      3  C   UNL     1      61.269  38.990   9.476  1.00  0.00     0.010 A 
ATOM      4  C   UNL     1      60.668  41.358   8.118  1.00  0.00     0.004 A 
ATOM      5  C   UNL     1      60.236  39.013   8.534  1.00  0.00     0.004 A 
ATOM      6  C   UNL     1      59.924  40.198   7.845  1.00  0.00    -0.045 A 
ENDROOT
BRANCH   1   7
ATOM      7  C   UNL     1      63.106  40.132  10.744  1.00  0.00     0.071 C 
ATOM      8  O   UNL     1      64.149  40.815  10.564  1.00  0.00    -0.545 OA
ATOM      9  O   UNL     1      62.999  39.357  11.894  1.00  0.00    -0.545 OA
ENDBRANCH   1   7
BRANCH   6  10
ATOM     10  C   UNL     1      58.806  40.238   6.820  1.00  0.00     0.013 C 
ATOM     11  C   UNL     1      58.622  41.652   6.257  1.00  0.00     0.012 C 
ATOM     12  C   UNL     1      59.050  39.224   5.696  1.00  0.00     0.012 C 
ENDBRANCH   6  10
TORSDOF 2
ENDMDL
MODEL 8
REMARK VINA RESULT:    -4.530     15.073     16.025
REMARK INTER + INTRA:          -5.270
REMARK INTER:                  -5.049
REMARK INTRA:                  -0.221
REMARK UNBOUND:                -0.210
REMARK SMILES CC(C)c1ccc(C(=O)[O-])cc1
REMARK SMILES IDX 7 1 6 2 11 3 5 4 12 5 4 6 8 7 9 8 10 9 2 10 1 11 3 12
REMARK H PARENT
REMARK Flexibility Score: inf
ROOT
ATOM      1  C   UNL     1      61.539  39.838   8.955  1.00  0.00    -0.003 A 
ATOM      2  C   UNL     1      61.306  40.552   7.768  1.00  0.00     0.010 A 
ATOM      3  C   UNL     1      60.898  38.601   9.142  1.00  0.00     0.010 A 
ATOM      4  C   UNL     1      60.451  40.040   6.788  1.00  0.00     0.004 A 
ATOM      5  C   UNL     1      60.043  38.090   8.163  1.00  0.00     0.004 A 
ATOM      6  C   UNL     1      59.809  38.804   6.974  1.00  0.00    -0.045 A 
ENDROOT
BRANCH   1   7
ATOM      7  C   UNL     1      62.446  40.383   9.990  1.00  0.00     0.071 C 
ATOM      8  O   UNL     1      62.683  39.733  11.042  1.00  0.00    -0.545 OA
ATOM      9  O   UNL     1      63.049  41.624   9.814  1.00  0.00    -0.545 OA
ENDBRANCH   1   7
BRANCH   6  10
ATOM     10  C   UNL     1      58.883  38.261   5.902  1.00  0.00     0.013 C 
ATOM     11  C   UNL     1      59.058  39.023   4.583  1.00  0.00     0.012 C 
ATOM     12  C   UNL     1      59.092  36.756   5.701  1.00  0.00     0.012 C 
ENDBRANCH   6  10
TORSDOF 2
ENDMDL
MODEL 9
REMARK VINA RESULT:    -4.518     15.110     16.100
REMARK INTER + INTRA:          -5.256
REMARK INTER:                  -5.035
REMARK INTRA:                  -0.221
REMARK UNBOUND:                -0.210
REMARK SMILES CC(C)c1ccc(C(=O)[O-])cc1
REMARK SMILES IDX 7 1 6 2 11 3 5 4 12 5 4 6 8 7 9 8 10 9 2 10 1 11 3 12
REMARK H PARENT
REMARK Flexibility Score: inf
ROOT
ATOM      1  C   UNL     1      61.590  39.948   8.944  1.00  0.00    -0.003 A 
ATOM      2  C   UNL     1      60.971  38.703   9.145  1.00  0.00     0.010 A 
ATOM      3  C   UNL     1      61.318  40.662   7.765  1.00  0.00     0.010 A 
ATOM      4  C   UNL     1      60.097  38.183   8.186  1.00  0.00     0.004 A 
ATOM      5  C   UNL     1      60.445  40.142   6.807  1.00  0.00     0.004 A 
ATOM      6  C   UNL     1      59.824  38.895   7.006  1.00  0.00    -0.045 A 
ENDROOT
BRANCH   1   7
ATOM      7  C   UNL     1      62.515  40.496   9.963  1.00  0.00     0.071 C 
ATOM      8  O   UNL     1      63.077  41.608   9.786  1.00  0.00    -0.545 OA
ATOM      9  O   UNL     1      62.776  39.788  11.131  1.00  0.00    -0.545 OA
ENDBRANCH   1   7
BRANCH   6  10
ATOM     10  C   UNL     1      58.874  38.318   5.974  1.00  0.00     0.013 C 
ATOM     11  C   UNL     1      59.099  38.956   4.598  1.00  0.00     0.012 C 
ATOM     12  C   UNL     1      58.998  36.792   5.901  1.00  0.00     0.012 C 
ENDBRANCH   6  10
TORSDOF 2
ENDMDL
