MODEL 1
REMARK VINA RESULT:    -3.760      0.000      0.000
REMARK INTER + INTRA:          -7.427
REMARK INTER:                  -5.738
REMARK INTRA:                  -1.689
REMARK UNBOUND:                -1.689
REMARK SMILES OC[C@@H]1O[C@@H](O[C@@]2(CO)O[C@H](CO)[C@@H](O)[C@@H]2O)[C@@H](O)[C@H](O)[C@H]1O
REMARK SMILES IDX 6 1 5 2 3 3 22 4 4 5 20 6 18 7 2 8 1 9 23 11 21 13 19 15
REMARK SMILES IDX 7 17 16 18 10 19 14 20 11 21 8 22 9 23 17 25 15 27 12 29
REMARK SMILES IDX 13 30
REMARK H PARENT 1 10 23 12 21 14 19 16 9 24 17 26 15 28 13 31
REMARK Flexibility Score: inf
ROOT
ATOM      1  O   UNL     1       5.622   1.094  -6.545  1.00  0.00    -0.313 OA
ENDROOT
BRANCH   1   2
ATOM      2  C   UNL     1       6.233   1.629  -7.717  1.00  0.00     0.285 C 
ATOM      3  C   UNL     1       6.413   3.764  -6.742  1.00  0.00     0.178 C 
ATOM      4  C   UNL     1       5.341   4.376  -7.677  1.00  0.00     0.177 C 
ATOM      5  O   UNL     1       7.099   2.708  -7.397  1.00  0.00    -0.341 OA
ATOM      6  C   UNL     1       4.368   3.278  -8.137  1.00  0.00     0.179 C 
ATOM      7  C   UNL     1       5.152   2.086  -8.710  1.00  0.00     0.202 C 
BRANCH   3   8
ATOM      8  C   UNL     1       7.460   4.810  -6.323  1.00  0.00     0.191 C 
BRANCH   8   9
ATOM      9  O   UNL     1       6.971   5.641  -5.304  1.00  0.00    -0.394 OA
ATOM     10  H   UNL     1       5.981   5.634  -5.382  1.00  0.00     0.210 HD
ENDBRANCH   8   9
ENDBRANCH   3   8
BRANCH   4  11
ATOM     11  O   UNL     1       4.614   5.371  -6.999  1.00  0.00    -0.387 OA
ATOM     12  H   UNL     1       5.274   5.974  -6.567  1.00  0.00     0.211 HD
ENDBRANCH   4  11
BRANCH   6  13
ATOM     13  O   UNL     1       3.509   3.786  -9.127  1.00  0.00    -0.387 OA
ATOM     14  H   UNL     1       3.566   3.170  -9.903  1.00  0.00     0.211 HD
ENDBRANCH   6  13
BRANCH   7  15
ATOM     15  O   UNL     1       4.281   1.015  -8.975  1.00  0.00    -0.385 OA
ATOM     16  H   UNL     1       3.360   1.384  -8.972  1.00  0.00     0.211 HD
ENDBRANCH   7  15
ENDBRANCH   1   2
BRANCH   1  17
ATOM     17  C   UNL     1       6.072  -0.204  -6.157  1.00  0.00     0.224 C 
ATOM     18  C   UNL     1       6.809  -0.909  -7.330  1.00  0.00     0.208 C 
ATOM     19  O   UNL     1       4.985  -1.008  -5.732  1.00  0.00    -0.337 OA
ATOM     20  C   UNL     1       5.882  -2.045  -7.726  1.00  0.00     0.180 C 
ATOM     21  C   UNL     1       4.919  -2.168  -6.539  1.00  0.00     0.179 C 
BRANCH  17  22
ATOM     22  C   UNL     1       6.983   0.035  -4.933  1.00  0.00     0.225 C 
BRANCH  22  23
ATOM     23  O   UNL     1       6.446  -0.546  -3.776  1.00  0.00    -0.391 OA
ATOM     24  H   UNL     1       7.219  -0.872  -3.246  1.00  0.00     0.210 HD
ENDBRANCH  22  23
ENDBRANCH  17  22
BRANCH  18  25
ATOM     25  O   UNL     1       8.096  -1.380  -6.990  1.00  0.00    -0.385 OA
ATOM     26  H   UNL     1       8.016  -2.009  -6.228  1.00  0.00     0.211 HD
ENDBRANCH  18  25
BRANCH  20  27
ATOM     27  O   UNL     1       5.162  -1.712  -8.886  1.00  0.00    -0.387 OA
ATOM     28  H   UNL     1       5.703  -2.025  -9.657  1.00  0.00     0.211 HD
ENDBRANCH  20  27
BRANCH  21  29
ATOM     29  C   UNL     1       5.210  -3.412  -5.684  1.00  0.00     0.191 C 
BRANCH  29  30
ATOM     30  O   UNL     1       5.116  -3.104  -4.320  1.00  0.00    -0.394 OA
ATOM     31  H   UNL     1       5.134  -3.968  -3.831  1.00  0.00     0.210 HD
ENDBRANCH  29  30
ENDBRANCH  21  29
ENDBRANCH   1  17
TORSDOF 13
ENDMDL
MODEL 2
REMARK VINA RESULT:    -3.540      3.004      4.603
REMARK INTER + INTRA:          -7.091
REMARK INTER:                  -5.157
REMARK INTRA:                  -1.934
REMARK UNBOUND:                -1.689
REMARK SMILES OC[C@@H]1O[C@@H](O[C@@]2(CO)O[C@H](CO)[C@@H](O)[C@@H]2O)[C@@H](O)[C@H](O)[C@H]1O
REMARK SMILES IDX 6 1 5 2 3 3 22 4 4 5 20 6 18 7 2 8 1 9 23 11 21 13 19 15
REMARK SMILES IDX 7 17 16 18 10 19 14 20 11 21 8 22 9 23 17 25 15 27 12 29
REMARK SMILES IDX 13 30
REMARK H PARENT 1 10 23 12 21 14 19 16 9 24 17 26 15 28 13 31
REMARK Flexibility Score: inf
ROOT
ATOM      1  O   UNL     1       4.481  -2.455  -6.165  1.00  0.00    -0.313 OA
ENDROOT
BRANCH   1   2
ATOM      2  C   UNL     1       4.658  -2.632  -7.569  1.00  0.00     0.285 C 
ATOM      3  C   UNL     1       4.184  -0.366  -7.993  1.00  0.00     0.178 C 
ATOM      4  C   UNL     1       2.829  -0.687  -8.670  1.00  0.00     0.177 C 
ATOM      5  O   UNL     1       5.100  -1.433  -8.186  1.00  0.00    -0.341 OA
ATOM      6  C   UNL     1       2.273  -2.008  -8.114  1.00  0.00     0.179 C 
ATOM      7  C   UNL     1       3.342  -3.109  -8.206  1.00  0.00     0.202 C 
BRANCH   3   8
ATOM      8  C   UNL     1       4.820   0.906  -8.578  1.00  0.00     0.191 C 
BRANCH   8   9
ATOM      9  O   UNL     1       4.285   1.211  -9.839  1.00  0.00    -0.394 OA
ATOM     10  H   UNL     1       3.662   0.473 -10.069  1.00  0.00     0.210 HD
ENDBRANCH   8   9
ENDBRANCH   3   8
BRANCH   4  11
ATOM     11  O   UNL     1       1.901   0.338  -8.412  1.00  0.00    -0.387 OA
ATOM     12  H   UNL     1       1.475   0.136  -7.538  1.00  0.00     0.211 HD
ENDBRANCH   4  11
BRANCH   6  13
ATOM     13  O   UNL     1       1.143  -2.399  -8.852  1.00  0.00    -0.387 OA
ATOM     14  H   UNL     1       0.672  -1.567  -9.123  1.00  0.00     0.211 HD
ENDBRANCH   6  13
BRANCH   7  15
ATOM     15  O   UNL     1       2.901  -4.270  -7.548  1.00  0.00    -0.385 OA
ATOM     16  H   UNL     1       3.462  -4.372  -6.736  1.00  0.00     0.211 HD
ENDBRANCH   7  15
ENDBRANCH   1   2
BRANCH   1  17
ATOM     17  C   UNL     1       5.459  -3.090  -5.339  1.00  0.00     0.224 C 
ATOM     18  C   UNL     1       6.249  -4.161  -6.140  1.00  0.00     0.208 C 
ATOM     19  O   UNL     1       4.848  -3.696  -4.213  1.00  0.00    -0.337 OA
ATOM     20  C   UNL     1       5.805  -5.483  -5.536  1.00  0.00     0.180 C 
ATOM     21  C   UNL     1       5.140  -5.081  -4.214  1.00  0.00     0.179 C 
BRANCH  17  22
ATOM     22  C   UNL     1       6.356  -1.943  -4.824  1.00  0.00     0.225 C 
BRANCH  22  23
ATOM     23  O   UNL     1       7.123  -2.352  -3.724  1.00  0.00    -0.391 OA
ATOM     24  H   UNL     1       6.482  -2.518  -2.986  1.00  0.00     0.210 HD
ENDBRANCH  22  23
ENDBRANCH  17  22
BRANCH  18  25
ATOM     25  O   UNL     1       7.650  -4.001  -6.072  1.00  0.00    -0.385 OA
ATOM     26  H   UNL     1       8.030  -4.110  -6.981  1.00  0.00     0.211 HD
ENDBRANCH  18  25
BRANCH  20  27
ATOM     27  O   UNL     1       4.863  -6.112  -6.367  1.00  0.00    -0.387 OA
ATOM     28  H   UNL     1       4.587  -5.441  -7.045  1.00  0.00     0.211 HD
ENDBRANCH  20  27
BRANCH  21  29
ATOM     29  C   UNL     1       6.014  -5.428  -2.997  1.00  0.00     0.191 C 
BRANCH  29  30
ATOM     30  O   UNL     1       7.373  -5.278  -3.309  1.00  0.00    -0.394 OA
ATOM     31  H   UNL     1       7.539  -5.820  -4.125  1.00  0.00     0.210 HD
ENDBRANCH  29  30
ENDBRANCH  21  29
ENDBRANCH   1  17
TORSDOF 13
ENDMDL
MODEL 3
REMARK VINA RESULT:    -3.521      1.801      5.999
REMARK INTER + INTRA:          -7.063
REMARK INTER:                  -5.652
REMARK INTRA:                  -1.411
REMARK UNBOUND:                -1.689
REMARK SMILES OC[C@@H]1O[C@@H](O[C@@]2(CO)O[C@H](CO)[C@@H](O)[C@@H]2O)[C@@H](O)[C@H](O)[C@H]1O
REMARK SMILES IDX 6 1 5 2 3 3 22 4 4 5 20 6 18 7 2 8 1 9 23 11 21 13 19 15
REMARK SMILES IDX 7 17 16 18 10 19 14 20 11 21 8 22 9 23 17 25 15 27 12 29
REMARK SMILES IDX 13 30
REMARK H PARENT 1 10 23 12 21 14 19 16 9 24 17 26 15 28 13 31
REMARK Flexibility Score: inf
ROOT
ATOM      1  O   UNL     1       5.864   1.947  -7.050  1.00  0.00    -0.313 OA
ENDROOT
BRANCH   1   2
ATOM      2  C   UNL     1       6.219   0.841  -7.876  1.00  0.00     0.285 C 
ATOM      3  C   UNL     1       3.982   0.515  -8.534  1.00  0.00     0.178 C 
ATOM      4  C   UNL     1       3.853  -0.811  -7.743  1.00  0.00     0.177 C 
ATOM      5  O   UNL     1       5.320   0.705  -8.967  1.00  0.00    -0.341 OA
ATOM      6  C   UNL     1       4.829  -0.803  -6.555  1.00  0.00     0.179 C 
ATOM      7  C   UNL     1       6.245  -0.450  -7.040  1.00  0.00     0.202 C 
BRANCH   3   8
ATOM      8  C   UNL     1       3.083   0.518  -9.781  1.00  0.00     0.191 C 
BRANCH   8   9
ATOM      9  O   UNL     1       1.802   1.006  -9.486  1.00  0.00    -0.394 OA
ATOM     10  H   UNL     1       1.639   0.815  -8.525  1.00  0.00     0.210 HD
ENDBRANCH   8   9
ENDBRANCH   3   8
BRANCH   4  11
ATOM     11  O   UNL     1       2.543  -0.958  -7.252  1.00  0.00    -0.387 OA
ATOM     12  H   UNL     1       2.000  -0.221  -7.636  1.00  0.00     0.211 HD
ENDBRANCH   4  11
BRANCH   6  13
ATOM     13  O   UNL     1       4.851  -2.069  -5.946  1.00  0.00    -0.387 OA
ATOM     14  H   UNL     1       4.310  -2.674  -6.517  1.00  0.00     0.211 HD
ENDBRANCH   6  13
BRANCH   7  15
ATOM     15  O   UNL     1       7.104  -0.275  -5.942  1.00  0.00    -0.385 OA
ATOM     16  H   UNL     1       7.852  -0.919  -6.055  1.00  0.00     0.211 HD
ENDBRANCH   7  15
ENDBRANCH   1   2
BRANCH   1  17
ATOM     17  C   UNL     1       6.614   3.142  -7.271  1.00  0.00     0.224 C 
ATOM     18  C   UNL     1       6.023   4.326  -6.456  1.00  0.00     0.208 C 
ATOM     19  O   UNL     1       6.631   3.478  -8.648  1.00  0.00    -0.337 OA
ATOM     20  C   UNL     1       5.440   5.252  -7.510  1.00  0.00     0.180 C 
ATOM     21  C   UNL     1       6.076   4.769  -8.820  1.00  0.00     0.179 C 
BRANCH  17  22
ATOM     22  C   UNL     1       8.060   2.793  -6.857  1.00  0.00     0.225 C 
BRANCH  22  23
ATOM     23  O   UNL     1       8.124   2.394  -5.515  1.00  0.00    -0.391 OA
ATOM     24  H   UNL     1       8.706   3.055  -5.058  1.00  0.00     0.210 HD
ENDBRANCH  22  23
ENDBRANCH  17  22
BRANCH  18  25
ATOM     25  O   UNL     1       6.971   4.987  -5.647  1.00  0.00    -0.385 OA
ATOM     26  H   UNL     1       6.501   5.639  -5.068  1.00  0.00     0.211 HD
ENDBRANCH  18  25
BRANCH  20  27
ATOM     27  O   UNL     1       4.045   5.105  -7.580  1.00  0.00    -0.387 OA
ATOM     28  H   UNL     1       3.709   5.837  -8.162  1.00  0.00     0.211 HD
ENDBRANCH  20  27
BRANCH  21  29
ATOM     29  C   UNL     1       7.156   5.735  -9.331  1.00  0.00     0.191 C 
BRANCH  29  30
ATOM     30  O   UNL     1       7.865   6.292  -8.258  1.00  0.00    -0.394 OA
ATOM     31  H   UNL     1       8.814   6.353  -8.544  1.00  0.00     0.210 HD
ENDBRANCH  29  30
ENDBRANCH  21  29
ENDBRANCH   1  17
TORSDOF 13
ENDMDL
MODEL 4
REMARK VINA RESULT:    -3.371      1.184      2.277
REMARK INTER + INTRA:          -6.833
REMARK INTER:                  -5.642
REMARK INTRA:                  -1.191
REMARK UNBOUND:                -1.689
REMARK SMILES OC[C@@H]1O[C@@H](O[C@@]2(CO)O[C@H](CO)[C@@H](O)[C@@H]2O)[C@@H](O)[C@H](O)[C@H]1O
REMARK SMILES IDX 6 1 5 2 3 3 22 4 4 5 20 6 18 7 2 8 1 9 23 11 21 13 19 15
REMARK SMILES IDX 7 17 16 18 10 19 14 20 11 21 8 22 9 23 17 25 15 27 12 29
REMARK SMILES IDX 13 30
REMARK H PARENT 1 10 23 12 21 14 19 16 9 24 17 26 15 28 13 31
REMARK Flexibility Score: inf
ROOT
ATOM      1  O   UNL     1       5.814   1.246  -6.868  1.00  0.00    -0.313 OA
ENDROOT
BRANCH   1   2
ATOM      2  C   UNL     1       6.411   1.916  -7.975  1.00  0.00     0.285 C 
ATOM      3  C   UNL     1       6.578   3.929  -6.767  1.00  0.00     0.178 C 
ATOM      4  C   UNL     1       5.492   4.631  -7.620  1.00  0.00     0.177 C 
ATOM      5  O   UNL     1       7.268   2.961  -7.542  1.00  0.00    -0.341 OA
ATOM      6  C   UNL     1       4.526   3.582  -8.195  1.00  0.00     0.179 C 
ATOM      7  C   UNL     1       5.317   2.471  -8.904  1.00  0.00     0.202 C 
BRANCH   3   8
ATOM      8  C   UNL     1       7.617   4.932  -6.240  1.00  0.00     0.191 C 
BRANCH   8   9
ATOM      9  O   UNL     1       7.061   5.782  -5.273  1.00  0.00    -0.394 OA
ATOM     10  H   UNL     1       6.183   5.391  -5.021  1.00  0.00     0.210 HD
ENDBRANCH   8   9
ENDBRANCH   3   8
BRANCH   4  11
ATOM     11  O   UNL     1       4.761   5.535  -6.829  1.00  0.00    -0.387 OA
ATOM     12  H   UNL     1       3.839   5.568  -7.197  1.00  0.00     0.211 HD
ENDBRANCH   4  11
BRANCH   6  13
ATOM     13  O   UNL     1       3.655   4.188  -9.115  1.00  0.00    -0.387 OA
ATOM     14  H   UNL     1       4.165   4.316  -9.957  1.00  0.00     0.211 HD
ENDBRANCH   6  13
BRANCH   7  15
ATOM     15  O   UNL     1       4.455   1.427  -9.282  1.00  0.00    -0.385 OA
ATOM     16  H   UNL     1       3.537   1.703  -9.025  1.00  0.00     0.211 HD
ENDBRANCH   7  15
ENDBRANCH   1   2
BRANCH   1  17
ATOM     17  C   UNL     1       6.423   0.008  -6.500  1.00  0.00     0.224 C 
ATOM     18  C   UNL     1       5.359  -1.004  -5.992  1.00  0.00     0.208 C 
ATOM     19  O   UNL     1       7.403   0.207  -5.495  1.00  0.00    -0.337 OA
ATOM     20  C   UNL     1       5.656  -1.147  -4.509  1.00  0.00     0.180 C 
ATOM     21  C   UNL     1       7.065  -0.560  -4.355  1.00  0.00     0.179 C 
BRANCH  17  22
ATOM     22  C   UNL     1       7.151  -0.477  -7.773  1.00  0.00     0.225 C 
BRANCH  22  23
ATOM     23  O   UNL     1       7.991  -1.565  -7.497  1.00  0.00    -0.391 OA
ATOM     24  H   UNL     1       8.078  -2.069  -8.347  1.00  0.00     0.210 HD
ENDBRANCH  22  23
ENDBRANCH  17  22
BRANCH  18  25
ATOM     25  O   UNL     1       5.399  -2.250  -6.654  1.00  0.00    -0.385 OA
ATOM     26  H   UNL     1       5.696  -2.107  -7.589  1.00  0.00     0.211 HD
ENDBRANCH  18  25
BRANCH  20  27
ATOM     27  O   UNL     1       4.745  -0.395  -3.749  1.00  0.00    -0.387 OA
ATOM     28  H   UNL     1       3.882  -0.886  -3.769  1.00  0.00     0.211 HD
ENDBRANCH  20  27
BRANCH  21  29
ATOM     29  C   UNL     1       8.125  -1.650  -4.130  1.00  0.00     0.191 C 
BRANCH  29  30
ATOM     30  O   UNL     1       7.570  -2.742  -3.449  1.00  0.00    -0.394 OA
ATOM     31  H   UNL     1       7.516  -3.488  -4.103  1.00  0.00     0.210 HD
ENDBRANCH  29  30
ENDBRANCH  21  29
ENDBRANCH   1  17
TORSDOF 13
ENDMDL
MODEL 5
REMARK VINA RESULT:    -3.370      1.427      1.754
REMARK INTER + INTRA:          -6.832
REMARK INTER:                  -5.210
REMARK INTRA:                  -1.623
REMARK UNBOUND:                -1.689
REMARK SMILES OC[C@@H]1O[C@@H](O[C@@]2(CO)O[C@H](CO)[C@@H](O)[C@@H]2O)[C@@H](O)[C@H](O)[C@H]1O
REMARK SMILES IDX 6 1 5 2 3 3 22 4 4 5 20 6 18 7 2 8 1 9 23 11 21 13 19 15
REMARK SMILES IDX 7 17 16 18 10 19 14 20 11 21 8 22 9 23 17 25 15 27 12 29
REMARK SMILES IDX 13 30
REMARK H PARENT 1 10 23 12 21 14 19 16 9 24 17 26 15 28 13 31
REMARK Flexibility Score: inf
ROOT
ATOM      1  O   UNL     1       4.777   1.153  -7.606  1.00  0.00    -0.313 OA
ENDROOT
BRANCH   1   2
ATOM      2  C   UNL     1       5.363   1.899  -8.670  1.00  0.00     0.285 C 
ATOM      3  C   UNL     1       6.021   3.619  -7.204  1.00  0.00     0.178 C 
ATOM      4  C   UNL     1       4.996   4.624  -7.785  1.00  0.00     0.177 C 
ATOM      5  O   UNL     1       6.438   2.701  -8.203  1.00  0.00    -0.341 OA
ATOM      6  C   UNL     1       3.799   3.860  -8.375  1.00  0.00     0.179 C 
ATOM      7  C   UNL     1       4.295   2.775  -9.346  1.00  0.00     0.202 C 
BRANCH   3   8
ATOM      8  C   UNL     1       7.276   4.335  -6.677  1.00  0.00     0.191 C 
BRANCH   8   9
ATOM      9  O   UNL     1       6.981   5.119  -5.552  1.00  0.00    -0.394 OA
ATOM     10  H   UNL     1       7.263   4.595  -4.757  1.00  0.00     0.210 HD
ENDBRANCH   8   9
ENDBRANCH   3   8
BRANCH   4  11
ATOM     11  O   UNL     1       4.530   5.483  -6.774  1.00  0.00    -0.387 OA
ATOM     12  H   UNL     1       3.757   5.035  -6.340  1.00  0.00     0.211 HD
ENDBRANCH   4  11
BRANCH   6  13
ATOM     13  O   UNL     1       2.959   4.749  -9.066  1.00  0.00    -0.387 OA
ATOM     14  H   UNL     1       2.024   4.492  -8.848  1.00  0.00     0.211 HD
ENDBRANCH   6  13
BRANCH   7  15
ATOM     15  O   UNL     1       3.222   1.965  -9.757  1.00  0.00    -0.385 OA
ATOM     16  H   UNL     1       3.614   1.186 -10.231  1.00  0.00     0.211 HD
ENDBRANCH   7  15
ENDBRANCH   1   2
BRANCH   1  17
ATOM     17  C   UNL     1       5.055  -0.248  -7.615  1.00  0.00     0.224 C 
ATOM     18  C   UNL     1       5.063  -0.803  -9.066  1.00  0.00     0.208 C 
ATOM     19  O   UNL     1       4.099  -0.956  -6.843  1.00  0.00    -0.337 OA
ATOM     20  C   UNL     1       3.833  -1.692  -9.133  1.00  0.00     0.180 C 
ATOM     21  C   UNL     1       3.452  -1.910  -7.664  1.00  0.00     0.179 C 
BRANCH  17  22
ATOM     22  C   UNL     1       6.422  -0.392  -6.910  1.00  0.00     0.225 C 
BRANCH  22  23
ATOM     23  O   UNL     1       6.708  -1.733  -6.620  1.00  0.00    -0.391 OA
ATOM     24  H   UNL     1       7.546  -1.728  -6.090  1.00  0.00     0.210 HD
ENDBRANCH  22  23
ENDBRANCH  17  22
BRANCH  18  25
ATOM     25  O   UNL     1       6.238  -1.512  -9.395  1.00  0.00    -0.385 OA
ATOM     26  H   UNL     1       6.007  -2.465  -9.545  1.00  0.00     0.211 HD
ENDBRANCH  18  25
BRANCH  20  27
ATOM     27  O   UNL     1       2.785  -1.034  -9.800  1.00  0.00    -0.387 OA
ATOM     28  H   UNL     1       1.939  -1.378  -9.410  1.00  0.00     0.211 HD
ENDBRANCH  20  27
BRANCH  21  29
ATOM     29  C   UNL     1       3.796  -3.328  -7.181  1.00  0.00     0.191 C 
BRANCH  29  30
ATOM     30  O   UNL     1       4.374  -3.286  -5.904  1.00  0.00    -0.394 OA
ATOM     31  H   UNL     1       4.113  -4.128  -5.446  1.00  0.00     0.210 HD
ENDBRANCH  29  30
ENDBRANCH  21  29
ENDBRANCH   1  17
TORSDOF 13
ENDMDL
MODEL 6
REMARK VINA RESULT:    -3.258      2.532      4.500
REMARK INTER + INTRA:          -6.661
REMARK INTER:                  -5.247
REMARK INTRA:                  -1.414
REMARK UNBOUND:                -1.689
REMARK SMILES OC[C@@H]1O[C@@H](O[C@@]2(CO)O[C@H](CO)[C@@H](O)[C@@H]2O)[C@@H](O)[C@H](O)[C@H]1O
REMARK SMILES IDX 6 1 5 2 3 3 22 4 4 5 20 6 18 7 2 8 1 9 23 11 21 13 19 15
REMARK SMILES IDX 7 17 16 18 10 19 14 20 11 21 8 22 9 23 17 25 15 27 12 29
REMARK SMILES IDX 13 30
REMARK H PARENT 1 10 23 12 21 14 19 16 9 24 17 26 15 28 13 31
REMARK Flexibility Score: inf
ROOT
ATOM      1  O   UNL     1       6.552  -2.059  -5.844  1.00  0.00    -0.313 OA
ENDROOT
BRANCH   1   2
ATOM      2  C   UNL     1       5.632  -1.051  -5.431  1.00  0.00     0.285 C 
ATOM      3  C   UNL     1       4.378  -1.274  -7.410  1.00  0.00     0.178 C 
ATOM      4  C   UNL     1       4.819   0.110  -7.947  1.00  0.00     0.177 C 
ATOM      5  O   UNL     1       4.346  -1.269  -5.991  1.00  0.00    -0.341 OA
ATOM      6  C   UNL     1       6.190   0.481  -7.359  1.00  0.00     0.179 C 
ATOM      7  C   UNL     1       6.162   0.337  -5.828  1.00  0.00     0.202 C 
BRANCH   3   8
ATOM      8  C   UNL     1       2.972  -1.651  -7.906  1.00  0.00     0.191 C 
BRANCH   8   9
ATOM      9  O   UNL     1       2.210  -0.509  -8.196  1.00  0.00    -0.394 OA
ATOM     10  H   UNL     1       2.842   0.256  -8.218  1.00  0.00     0.210 HD
ENDBRANCH   8   9
ENDBRANCH   3   8
BRANCH   4  11
ATOM     11  O   UNL     1       4.921   0.078  -9.349  1.00  0.00    -0.387 OA
ATOM     12  H   UNL     1       5.331  -0.793  -9.594  1.00  0.00     0.211 HD
ENDBRANCH   4  11
BRANCH   6  13
ATOM     13  O   UNL     1       6.509   1.808  -7.693  1.00  0.00    -0.387 OA
ATOM     14  H   UNL     1       6.118   1.984  -8.588  1.00  0.00     0.211 HD
ENDBRANCH   6  13
BRANCH   7  15
ATOM     15  O   UNL     1       7.453   0.510  -5.301  1.00  0.00    -0.385 OA
ATOM     16  H   UNL     1       7.746  -0.375  -4.958  1.00  0.00     0.211 HD
ENDBRANCH   7  15
ENDBRANCH   1   2
BRANCH   1  17
ATOM     17  C   UNL     1       6.710  -3.153  -4.940  1.00  0.00     0.224 C 
ATOM     18  C   UNL     1       6.966  -4.477  -5.711  1.00  0.00     0.208 C 
ATOM     19  O   UNL     1       5.562  -3.298  -4.120  1.00  0.00    -0.337 OA
ATOM     20  C   UNL     1       5.706  -5.294  -5.481  1.00  0.00     0.180 C 
ATOM     21  C   UNL     1       5.019  -4.592  -4.304  1.00  0.00     0.179 C 
BRANCH  17  22
ATOM     22  C   UNL     1       7.889  -2.753  -4.026  1.00  0.00     0.225 C 
BRANCH  22  23
ATOM     23  O   UNL     1       7.740  -3.286  -2.738  1.00  0.00    -0.391 OA
ATOM     24  H   UNL     1       8.011  -2.569  -2.109  1.00  0.00     0.210 HD
ENDBRANCH  22  23
ENDBRANCH  17  22
BRANCH  18  25
ATOM     25  O   UNL     1       8.121  -5.167  -5.285  1.00  0.00    -0.385 OA
ATOM     26  H   UNL     1       8.568  -5.565  -6.075  1.00  0.00     0.211 HD
ENDBRANCH  18  25
BRANCH  20  27
ATOM     27  O   UNL     1       4.873  -5.246  -6.612  1.00  0.00    -0.387 OA
ATOM     28  H   UNL     1       4.650  -4.289  -6.761  1.00  0.00     0.211 HD
ENDBRANCH  20  27
BRANCH  21  29
ATOM     29  C   UNL     1       5.140  -5.395  -2.999  1.00  0.00     0.191 C 
BRANCH  29  30
ATOM     30  O   UNL     1       6.453  -5.855  -2.825  1.00  0.00    -0.394 OA
ATOM     31  H   UNL     1       6.555  -6.651  -3.409  1.00  0.00     0.210 HD
ENDBRANCH  29  30
ENDBRANCH  21  29
ENDBRANCH   1  17
TORSDOF 13
ENDMDL
MODEL 7
REMARK VINA RESULT:    -3.220      1.619      6.216
REMARK INTER + INTRA:          -6.603
REMARK INTER:                  -5.038
REMARK INTRA:                  -1.564
REMARK UNBOUND:                -1.689
REMARK SMILES OC[C@@H]1O[C@@H](O[C@@]2(CO)O[C@H](CO)[C@@H](O)[C@@H]2O)[C@@H](O)[C@H](O)[C@H]1O
REMARK SMILES IDX 6 1 5 2 3 3 22 4 4 5 20 6 18 7 2 8 1 9 23 11 21 13 19 15
REMARK SMILES IDX 7 17 16 18 10 19 14 20 11 21 8 22 9 23 17 25 15 27 12 29
REMARK SMILES IDX 13 30
REMARK H PARENT 1 10 23 12 21 14 19 16 9 24 17 26 15 28 13 31
REMARK Flexibility Score: inf
ROOT
ATOM      1  O   UNL     1       6.252   2.585  -6.553  1.00  0.00    -0.313 OA
ENDROOT
BRANCH   1   2
ATOM      2  C   UNL     1       7.133   1.581  -7.052  1.00  0.00     0.285 C 
ATOM      3  C   UNL     1       5.331   0.211  -7.696  1.00  0.00     0.178 C 
ATOM      4  C   UNL     1       5.625  -0.840  -6.597  1.00  0.00     0.177 C 
ATOM      5  O   UNL     1       6.530   0.848  -8.108  1.00  0.00    -0.341 OA
ATOM      6  C   UNL     1       6.334  -0.165  -5.412  1.00  0.00     0.179 C 
ATOM      7  C   UNL     1       7.548   0.636  -5.911  1.00  0.00     0.202 C 
BRANCH   3   8
ATOM      8  C   UNL     1       4.696  -0.435  -8.939  1.00  0.00     0.191 C 
BRANCH   8   9
ATOM      9  O   UNL     1       4.175   0.535  -9.808  1.00  0.00    -0.394 OA
ATOM     10  H   UNL     1       3.200   0.362  -9.878  1.00  0.00     0.210 HD
ENDBRANCH   8   9
ENDBRANCH   3   8
BRANCH   4  11
ATOM     11  O   UNL     1       4.426  -1.415  -6.140  1.00  0.00    -0.387 OA
ATOM     12  H   UNL     1       3.762  -0.681  -6.055  1.00  0.00     0.211 HD
ENDBRANCH   4  11
BRANCH   6  13
ATOM     13  O   UNL     1       6.768  -1.140  -4.497  1.00  0.00    -0.387 OA
ATOM     14  H   UNL     1       6.159  -1.095  -3.715  1.00  0.00     0.211 HD
ENDBRANCH   6  13
BRANCH   7  15
ATOM     15  O   UNL     1       8.098   1.389  -4.860  1.00  0.00    -0.385 OA
ATOM     16  H   UNL     1       7.435   2.091  -4.631  1.00  0.00     0.211 HD
ENDBRANCH   7  15
ENDBRANCH   1   2
BRANCH   1  17
ATOM     17  C   UNL     1       6.355   3.861  -7.188  1.00  0.00     0.224 C 
ATOM     18  C   UNL     1       4.948   4.432  -7.515  1.00  0.00     0.208 C 
ATOM     19  O   UNL     1       7.117   3.769  -8.380  1.00  0.00    -0.337 OA
ATOM     20  C   UNL     1       4.870   4.392  -9.032  1.00  0.00     0.180 C 
ATOM     21  C   UNL     1       6.327   4.202  -9.472  1.00  0.00     0.179 C 
BRANCH  17  22
ATOM     22  C   UNL     1       7.145   4.742  -6.196  1.00  0.00     0.225 C 
BRANCH  22  23
ATOM     23  O   UNL     1       7.650   5.889  -6.823  1.00  0.00    -0.391 OA
ATOM     24  H   UNL     1       8.553   6.038  -6.441  1.00  0.00     0.210 HD
ENDBRANCH  22  23
ENDBRANCH  17  22
BRANCH  18  25
ATOM     25  O   UNL     1       4.735   5.736  -7.016  1.00  0.00    -0.385 OA
ATOM     26  H   UNL     1       5.234   5.839  -6.166  1.00  0.00     0.211 HD
ENDBRANCH  18  25
BRANCH  20  27
ATOM     27  O   UNL     1       4.101   3.296  -9.457  1.00  0.00    -0.387 OA
ATOM     28  H   UNL     1       4.421   3.060 -10.368  1.00  0.00     0.211 HD
ENDBRANCH  20  27
BRANCH  21  29
ATOM     29  C   UNL     1       6.925   5.487 -10.067  1.00  0.00     0.191 C 
BRANCH  29  30
ATOM     30  O   UNL     1       6.373   6.618  -9.450  1.00  0.00    -0.394 OA
ATOM     31  H   UNL     1       5.951   6.305  -8.607  1.00  0.00     0.210 HD
ENDBRANCH  29  30
ENDBRANCH  21  29
ENDBRANCH   1  17
TORSDOF 13
ENDMDL
MODEL 8
REMARK VINA RESULT:    -3.206      3.321      5.787
REMARK INTER + INTRA:          -6.581
REMARK INTER:                  -4.656
REMARK INTRA:                  -1.925
REMARK UNBOUND:                -1.689
REMARK SMILES OC[C@@H]1O[C@@H](O[C@@]2(CO)O[C@H](CO)[C@@H](O)[C@@H]2O)[C@@H](O)[C@H](O)[C@H]1O
REMARK SMILES IDX 6 1 5 2 3 3 22 4 4 5 20 6 18 7 2 8 1 9 23 11 21 13 19 15
REMARK SMILES IDX 7 17 16 18 10 19 14 20 11 21 8 22 9 23 17 25 15 27 12 29
REMARK SMILES IDX 13 30
REMARK H PARENT 1 10 23 12 21 14 19 16 9 24 17 26 15 28 13 31
REMARK Flexibility Score: inf
ROOT
ATOM      1  O   UNL     1       5.398  -2.182  -5.731  1.00  0.00    -0.313 OA
ENDROOT
BRANCH   1   2
ATOM      2  C   UNL     1       6.784  -2.187  -6.066  1.00  0.00     0.285 C 
ATOM      3  C   UNL     1       7.375  -3.006  -3.940  1.00  0.00     0.178 C 
ATOM      4  C   UNL     1       8.036  -1.672  -3.514  1.00  0.00     0.177 C 
ATOM      5  O   UNL     1       7.484  -3.188  -5.343  1.00  0.00    -0.341 OA
ATOM      6  C   UNL     1       7.390  -0.506  -4.281  1.00  0.00     0.179 C 
ATOM      7  C   UNL     1       7.394  -0.802  -5.789  1.00  0.00     0.202 C 
BRANCH   3   8
ATOM      8  C   UNL     1       8.046  -4.211  -3.259  1.00  0.00     0.191 C 
BRANCH   8   9
ATOM      9  O   UNL     1       7.528  -4.425  -1.974  1.00  0.00    -0.394 OA
ATOM     10  H   UNL     1       6.668  -4.909  -2.091  1.00  0.00     0.210 HD
ENDBRANCH   8   9
ENDBRANCH   3   8
BRANCH   4  11
ATOM     11  O   UNL     1       7.859  -1.459  -2.135  1.00  0.00    -0.387 OA
ATOM     12  H   UNL     1       7.923  -0.481  -1.978  1.00  0.00     0.211 HD
ENDBRANCH   4  11
BRANCH   6  13
ATOM     13  O   UNL     1       8.105   0.679  -4.040  1.00  0.00    -0.387 OA
ATOM     14  H   UNL     1       7.530   1.254  -3.469  1.00  0.00     0.211 HD
ENDBRANCH   6  13
BRANCH   7  15
ATOM     15  O   UNL     1       6.657   0.176  -6.478  1.00  0.00    -0.385 OA
ATOM     16  H   UNL     1       6.436   0.887  -5.821  1.00  0.00     0.211 HD
ENDBRANCH   7  15
ENDBRANCH   1   2
BRANCH   1  17
ATOM     17  C   UNL     1       4.522  -2.682  -6.742  1.00  0.00     0.224 C 
ATOM     18  C   UNL     1       5.218  -2.678  -8.131  1.00  0.00     0.208 C 
ATOM     19  O   UNL     1       3.335  -1.909  -6.806  1.00  0.00    -0.337 OA
ATOM     20  C   UNL     1       4.482  -1.606  -8.916  1.00  0.00     0.180 C 
ATOM     21  C   UNL     1       3.201  -1.369  -8.107  1.00  0.00     0.179 C 
BRANCH  17  22
ATOM     22  C   UNL     1       4.131  -4.099  -6.271  1.00  0.00     0.225 C 
BRANCH  22  23
ATOM     23  O   UNL     1       3.159  -4.665  -7.108  1.00  0.00    -0.391 OA
ATOM     24  H   UNL     1       2.721  -5.381  -6.579  1.00  0.00     0.210 HD
ENDBRANCH  22  23
ENDBRANCH  17  22
BRANCH  18  25
ATOM     25  O   UNL     1       5.179  -3.926  -8.788  1.00  0.00    -0.385 OA
ATOM     26  H   UNL     1       4.665  -3.830  -9.630  1.00  0.00     0.211 HD
ENDBRANCH  18  25
BRANCH  20  27
ATOM     27  O   UNL     1       5.238  -0.422  -8.962  1.00  0.00    -0.387 OA
ATOM     28  H   UNL     1       5.432  -0.171  -8.021  1.00  0.00     0.211 HD
ENDBRANCH  20  27
BRANCH  21  29
ATOM     29  C   UNL     1       1.964  -1.970  -8.793  1.00  0.00     0.191 C 
BRANCH  29  30
ATOM     30  O   UNL     1       2.303  -3.148  -9.473  1.00  0.00    -0.394 OA
ATOM     31  H   UNL     1       2.187  -3.893  -8.828  1.00  0.00     0.210 HD
ENDBRANCH  29  30
ENDBRANCH  21  29
ENDBRANCH   1  17
TORSDOF 13
ENDMDL
MODEL 9
REMARK VINA RESULT:    -3.192      1.761      2.503
REMARK INTER + INTRA:          -6.560
REMARK INTER:                  -4.859
REMARK INTRA:                  -1.702
REMARK UNBOUND:                -1.689
REMARK SMILES OC[C@@H]1O[C@@H](O[C@@]2(CO)O[C@H](CO)[C@@H](O)[C@@H]2O)[C@@H](O)[C@H](O)[C@H]1O
REMARK SMILES IDX 6 1 5 2 3 3 22 4 4 5 20 6 18 7 2 8 1 9 23 11 21 13 19 15
REMARK SMILES IDX 7 17 16 18 10 19 14 20 11 21 8 22 9 23 17 25 15 27 12 29
REMARK SMILES IDX 13 30
REMARK H PARENT 1 10 23 12 21 14 19 16 9 24 17 26 15 28 13 31
REMARK Flexibility Score: inf
ROOT
ATOM      1  O   UNL     1       4.356  -0.171  -7.163  1.00  0.00    -0.313 OA
ENDROOT
BRANCH   1   2
ATOM      2  C   UNL     1       4.695  -0.013  -8.539  1.00  0.00     0.285 C 
ATOM      3  C   UNL     1       4.230   2.293  -8.468  1.00  0.00     0.178 C 
ATOM      4  C   UNL     1       2.966   2.153  -9.352  1.00  0.00     0.177 C 
ATOM      5  O   UNL     1       5.182   1.295  -8.801  1.00  0.00    -0.341 OA
ATOM      6  C   UNL     1       2.375   0.743  -9.191  1.00  0.00     0.179 C 
ATOM      7  C   UNL     1       3.468  -0.314  -9.417  1.00  0.00     0.202 C 
BRANCH   3   8
ATOM      8  C   UNL     1       4.904   3.662  -8.659  1.00  0.00     0.191 C 
BRANCH   8   9
ATOM      9  O   UNL     1       4.263   4.656  -7.906  1.00  0.00    -0.394 OA
ATOM     10  H   UNL     1       4.897   4.923  -7.189  1.00  0.00     0.210 HD
ENDBRANCH   8   9
ENDBRANCH   3   8
BRANCH   4  11
ATOM     11  O   UNL     1       1.996   3.096  -8.967  1.00  0.00    -0.387 OA
ATOM     12  H   UNL     1       2.062   3.860  -9.599  1.00  0.00     0.211 HD
ENDBRANCH   4  11
BRANCH   6  13
ATOM     13  O   UNL     1       1.344   0.548 -10.125  1.00  0.00    -0.387 OA
ATOM     14  H   UNL     1       0.488   0.725  -9.653  1.00  0.00     0.211 HD
ENDBRANCH   6  13
BRANCH   7  15
ATOM     15  O   UNL     1       2.978  -1.594  -9.107  1.00  0.00    -0.385 OA
ATOM     16  H   UNL     1       2.999  -1.679  -8.118  1.00  0.00     0.211 HD
ENDBRANCH   7  15
ENDBRANCH   1   2
BRANCH   1  17
ATOM     17  C   UNL     1       5.149  -1.116  -6.442  1.00  0.00     0.224 C 
ATOM     18  C   UNL     1       6.280  -1.690  -7.339  1.00  0.00     0.208 C 
ATOM     19  O   UNL     1       4.347  -2.178  -5.954  1.00  0.00    -0.337 OA
ATOM     20  C   UNL     1       5.886  -3.142  -7.554  1.00  0.00     0.180 C 
ATOM     21  C   UNL     1       4.829  -3.403  -6.473  1.00  0.00     0.179 C 
BRANCH  17  22
ATOM     22  C   UNL     1       5.689  -0.339  -5.221  1.00  0.00     0.225 C 
BRANCH  22  23
ATOM     23  O   UNL     1       6.090  -1.210  -4.199  1.00  0.00    -0.391 OA
ATOM     24  H   UNL     1       7.013  -1.496  -4.425  1.00  0.00     0.210 HD
ENDBRANCH  22  23
ENDBRANCH  17  22
BRANCH  18  25
ATOM     25  O   UNL     1       7.567  -1.577  -6.771  1.00  0.00    -0.385 OA
ATOM     26  H   UNL     1       8.131  -1.016  -7.363  1.00  0.00     0.211 HD
ENDBRANCH  18  25
BRANCH  20  27
ATOM     27  O   UNL     1       5.315  -3.315  -8.826  1.00  0.00    -0.387 OA
ATOM     28  H   UNL     1       4.553  -3.942  -8.713  1.00  0.00     0.211 HD
ENDBRANCH  20  27
BRANCH  21  29
ATOM     29  C   UNL     1       5.373  -4.274  -5.330  1.00  0.00     0.191 C 
BRANCH  29  30
ATOM     30  O   UNL     1       4.980  -3.755  -4.088  1.00  0.00    -0.394 OA
ATOM     31  H   UNL     1       5.698  -3.134  -3.799  1.00  0.00     0.210 HD
ENDBRANCH  29  30
ENDBRANCH  21  29
ENDBRANCH   1  17
TORSDOF 13
ENDMDL
