MODEL 1
REMARK VINA RESULT:    -2.637      0.000      0.000
REMARK INTER + INTRA:          -3.756
REMARK INTER:                  -3.716
REMARK INTRA:                  -0.041
REMARK UNBOUND:                -0.041
REMARK SMILES CCCCCCCCC(=O)[O-]
REMARK SMILES IDX 6 1 7 2 8 3 9 4 10 5 11 6 5 7 4 8 3 9 2 10 1 11
REMARK H PARENT
REMARK Flexibility Score: inf
ROOT
ATOM      1  C   UNL     1       6.574  39.546  14.814  1.00  0.00     0.000 C 
ENDROOT
BRANCH   1   2
ATOM      2  C   UNL     1       7.837  40.414  14.915  1.00  0.00     0.006 C 
BRANCH   2   3
ATOM      3  C   UNL     1       8.738  39.941  16.059  1.00  0.00     0.053 C 
BRANCH   3   4
ATOM      4  C   UNL     1       9.658  38.859  15.588  1.00  0.00     0.041 C 
ATOM      5  O   UNL     1       9.212  37.900  14.904  1.00  0.00    -0.550 OA
ATOM      6  O   UNL     1      11.017  38.934  15.862  1.00  0.00    -0.550 OA
ENDBRANCH   3   4
ENDBRANCH   2   3
ENDBRANCH   1   2
BRANCH   1   7
ATOM      7  C   UNL     1       5.765  39.508  16.124  1.00  0.00     0.000 C 
BRANCH   7   8
ATOM      8  C   UNL     1       4.240  39.393  15.948  1.00  0.00    -0.000 C 
BRANCH   8   9
ATOM      9  C   UNL     1       3.790  37.984  15.522  1.00  0.00    -0.000 C 
BRANCH   9  10
ATOM     10  C   UNL     1       2.265  37.875  15.368  1.00  0.00    -0.003 C 
ATOM     11  C   UNL     1       1.809  37.960  13.910  1.00  0.00     0.004 C 
ENDBRANCH   9  10
ENDBRANCH   8   9
ENDBRANCH   7   8
ENDBRANCH   1   7
TORSDOF 7
ENDMDL
