MODEL 1
REMARK VINA RESULT:    -4.496      0.000      0.000
REMARK INTER + INTRA:          -5.557
REMARK INTER:                  -5.415
REMARK INTRA:                  -0.141
REMARK UNBOUND:                -0.141
REMARK SMILES [NH3+][C@H](Cc1cnc[nH]1)C(=O)[O-]
REMARK SMILES IDX 3 1 2 2 1 3 9 7 10 8 11 9 4 10 5 11 8 12 6 13 7 14
REMARK H PARENT 1 4 1 5 1 6 8 15
REMARK Flexibility Score: inf
ROOT
ATOM      1  C   UNL     1     -18.490  -8.495  43.773  1.00  0.00     0.127 C 
ENDROOT
BRANCH   1   2
ATOM      2  C   UNL     1     -17.414  -7.697  43.008  1.00  0.00     0.233 C 
BRANCH   2   3
ATOM      3  N   UNL     1     -16.445  -7.115  43.944  1.00  0.00    -0.350 N 
ATOM      4  H   UNL     1     -15.891  -6.370  43.462  1.00  0.00     0.345 HD
ATOM      5  H   UNL     1     -16.934  -6.696  44.769  1.00  0.00     0.345 HD
ATOM      6  H   UNL     1     -15.782  -7.854  44.274  1.00  0.00     0.345 HD
ENDBRANCH   2   3
BRANCH   2   7
ATOM      7  C   UNL     1     -16.709  -8.566  41.999  1.00  0.00     0.099 C 
ATOM      8  O   UNL     1     -16.717  -9.820  42.119  1.00  0.00    -0.544 OA
ATOM      9  O   UNL     1     -16.063  -7.985  40.914  1.00  0.00    -0.544 OA
ENDBRANCH   2   7
ENDBRANCH   1   2
BRANCH   1  10
ATOM     10  C   UNL     1     -19.870  -7.987  43.474  1.00  0.00     0.041 A 
ATOM     11  C   UNL     1     -20.830  -8.620  42.718  1.00  0.00     0.134 A 
ATOM     12  N   UNL     1     -20.396  -6.862  43.982  1.00  0.00    -0.348 N 
ATOM     13  N   UNL     1     -21.961  -7.887  42.737  1.00  0.00    -0.245 NA
ATOM     14  C   UNL     1     -21.658  -6.825  43.515  1.00  0.00     0.196 A 
ATOM     15  H   UNL     1     -19.935  -6.170  44.613  1.00  0.00     0.167 HD
ENDBRANCH   1  10
TORSDOF 4
ENDMDL
MODEL 2
REMARK VINA RESULT:    -4.489      2.344      4.650
REMARK INTER + INTRA:          -5.549
REMARK INTER:                  -5.238
REMARK INTRA:                  -0.311
REMARK UNBOUND:                -0.141
REMARK SMILES [NH3+][C@H](Cc1cnc[nH]1)C(=O)[O-]
REMARK SMILES IDX 3 1 2 2 1 3 9 7 10 8 11 9 4 10 5 11 8 12 6 13 7 14
REMARK H PARENT 1 4 1 5 1 6 8 15
REMARK Flexibility Score: inf
ROOT
ATOM      1  C   UNL     1     -18.179  -7.641  43.188  1.00  0.00     0.127 C 
ENDROOT
BRANCH   1   2
ATOM      2  C   UNL     1     -19.473  -8.050  43.921  1.00  0.00     0.233 C 
BRANCH   2   3
ATOM      3  N   UNL     1     -20.318  -6.875  44.168  1.00  0.00    -0.350 N 
ATOM      4  H   UNL     1     -20.784  -6.582  43.279  1.00  0.00     0.345 HD
ATOM      5  H   UNL     1     -21.051  -7.092  44.883  1.00  0.00     0.345 HD
ATOM      6  H   UNL     1     -19.729  -6.079  44.507  1.00  0.00     0.345 HD
ENDBRANCH   2   3
BRANCH   2   7
ATOM      7  C   UNL     1     -20.236  -9.087  43.137  1.00  0.00     0.099 C 
ATOM      8  O   UNL     1     -21.231  -8.756  42.439  1.00  0.00    -0.544 OA
ATOM      9  O   UNL     1     -19.829 -10.415  43.165  1.00  0.00    -0.544 OA
ENDBRANCH   2   7
ENDBRANCH   1   2
BRANCH   1  10
ATOM     10  C   UNL     1     -16.966  -8.250  43.828  1.00  0.00     0.041 A 
ATOM     11  C   UNL     1     -15.834  -7.581  44.237  1.00  0.00     0.134 A 
ATOM     12  N   UNL     1     -16.851  -9.541  44.172  1.00  0.00    -0.348 N 
ATOM     13  N   UNL     1     -14.995  -8.455  44.828  1.00  0.00    -0.245 NA
ATOM     14  C   UNL     1     -15.648  -9.636  44.769  1.00  0.00     0.196 A 
ATOM     15  H   UNL     1     -17.545 -10.305  44.023  1.00  0.00     0.167 HD
ENDBRANCH   1  10
TORSDOF 4
ENDMDL
MODEL 3
REMARK VINA RESULT:    -4.487      1.702      2.168
REMARK INTER + INTRA:          -5.547
REMARK INTER:                  -5.372
REMARK INTRA:                  -0.175
REMARK UNBOUND:                -0.141
REMARK SMILES [NH3+][C@H](Cc1cnc[nH]1)C(=O)[O-]
REMARK SMILES IDX 3 1 2 2 1 3 9 7 10 8 11 9 4 10 5 11 8 12 6 13 7 14
REMARK H PARENT 1 4 1 5 1 6 8 15
REMARK Flexibility Score: inf
ROOT
ATOM      1  C   UNL     1     -17.131  -8.046  43.003  1.00  0.00     0.127 C 
ENDROOT
BRANCH   1   2
ATOM      2  C   UNL     1     -16.665  -8.930  41.828  1.00  0.00     0.233 C 
BRANCH   2   3
ATOM      3  N   UNL     1     -16.232  -8.097  40.699  1.00  0.00    -0.350 N 
ATOM      4  H   UNL     1     -16.945  -7.353  40.514  1.00  0.00     0.345 HD
ATOM      5  H   UNL     1     -15.312  -7.644  40.906  1.00  0.00     0.345 HD
ATOM      6  H   UNL     1     -16.141  -8.684  39.838  1.00  0.00     0.345 HD
ENDBRANCH   2   3
BRANCH   2   7
ATOM      7  C   UNL     1     -15.553  -9.854  42.252  1.00  0.00     0.099 C 
ATOM      8  O   UNL     1     -14.376  -9.666  41.845  1.00  0.00    -0.544 OA
ATOM      9  O   UNL     1     -15.819 -10.909  43.115  1.00  0.00    -0.544 OA
ENDBRANCH   2   7
ENDBRANCH   1   2
BRANCH   1  10
ATOM     10  C   UNL     1     -18.598  -8.212  43.270  1.00  0.00     0.041 A 
ATOM     11  C   UNL     1     -19.382  -9.280  42.894  1.00  0.00     0.134 A 
ATOM     12  N   UNL     1     -19.344  -7.366  43.996  1.00  0.00    -0.348 N 
ATOM     13  N   UNL     1     -20.630  -9.101  43.373  1.00  0.00    -0.245 NA
ATOM     14  C   UNL     1     -20.567  -7.926  44.037  1.00  0.00     0.196 A 
ATOM     15  H   UNL     1     -19.041  -6.474  44.444  1.00  0.00     0.167 HD
ENDBRANCH   1  10
TORSDOF 4
ENDMDL
MODEL 4
REMARK VINA RESULT:    -4.448      4.669      5.423
REMARK INTER + INTRA:          -5.500
REMARK INTER:                  -5.373
REMARK INTRA:                  -0.127
REMARK UNBOUND:                -0.141
REMARK SMILES [NH3+][C@H](Cc1cnc[nH]1)C(=O)[O-]
REMARK SMILES IDX 3 1 2 2 1 3 9 7 10 8 11 9 4 10 5 11 8 12 6 13 7 14
REMARK H PARENT 1 4 1 5 1 6 8 15
REMARK Flexibility Score: inf
ROOT
ATOM      1  C   UNL     1     -17.313 -11.283  42.650  1.00  0.00     0.127 C 
ENDROOT
BRANCH   1   2
ATOM      2  C   UNL     1     -15.943 -10.868  43.226  1.00  0.00     0.233 C 
BRANCH   2   3
ATOM      3  N   UNL     1     -14.988 -10.607  42.143  1.00  0.00    -0.350 N 
ATOM      4  H   UNL     1     -15.504 -10.421  41.253  1.00  0.00     0.345 HD
ATOM      5  H   UNL     1     -14.389  -9.779  42.371  1.00  0.00     0.345 HD
ATOM      6  H   UNL     1     -14.377 -11.445  41.999  1.00  0.00     0.345 HD
ENDBRANCH   2   3
BRANCH   2   7
ATOM      7  C   UNL     1     -16.073  -9.655  44.111  1.00  0.00     0.099 C 
ATOM      8  O   UNL     1     -16.892  -8.741  43.828  1.00  0.00    -0.544 OA
ATOM      9  O   UNL     1     -15.300  -9.549  45.261  1.00  0.00    -0.544 OA
ENDBRANCH   2   7
ENDBRANCH   1   2
BRANCH   1  10
ATOM     10  C   UNL     1     -17.643 -12.707  42.985  1.00  0.00     0.041 A 
ATOM     11  C   UNL     1     -18.630 -13.138  43.843  1.00  0.00     0.134 A 
ATOM     12  N   UNL     1     -17.065 -13.779  42.422  1.00  0.00    -0.348 N 
ATOM     13  N   UNL     1     -18.667 -14.486  43.831  1.00  0.00    -0.245 NA
ATOM     14  C   UNL     1     -17.700 -14.839  42.956  1.00  0.00     0.196 A 
ATOM     15  H   UNL     1     -16.299 -13.791  41.713  1.00  0.00     0.167 HD
ENDBRANCH   1  10
TORSDOF 4
ENDMDL
MODEL 5
REMARK VINA RESULT:    -4.426      4.597      5.920
REMARK INTER + INTRA:          -5.473
REMARK INTER:                  -5.375
REMARK INTRA:                  -0.098
REMARK UNBOUND:                -0.141
REMARK SMILES [NH3+][C@H](Cc1cnc[nH]1)C(=O)[O-]
REMARK SMILES IDX 3 1 2 2 1 3 9 7 10 8 11 9 4 10 5 11 8 12 6 13 7 14
REMARK H PARENT 1 4 1 5 1 6 8 15
REMARK Flexibility Score: inf
ROOT
ATOM      1  C   UNL     1     -17.867 -12.246  43.475  1.00  0.00     0.127 C 
ENDROOT
BRANCH   1   2
ATOM      2  C   UNL     1     -18.139 -13.348  42.430  1.00  0.00     0.233 C 
BRANCH   2   3
ATOM      3  N   UNL     1     -16.972 -14.228  42.295  1.00  0.00    -0.350 N 
ATOM      4  H   UNL     1     -16.818 -14.459  41.286  1.00  0.00     0.345 HD
ATOM      5  H   UNL     1     -16.114 -13.764  42.673  1.00  0.00     0.345 HD
ATOM      6  H   UNL     1     -17.138 -15.121  42.813  1.00  0.00     0.345 HD
ENDBRANCH   2   3
BRANCH   2   7
ATOM      7  C   UNL     1     -19.360 -14.153  42.797  1.00  0.00     0.099 C 
ATOM      8  O   UNL     1     -20.474 -13.587  42.954  1.00  0.00    -0.544 OA
ATOM      9  O   UNL     1     -19.264 -15.531  42.943  1.00  0.00    -0.544 OA
ENDBRANCH   2   7
ENDBRANCH   1   2
BRANCH   1  10
ATOM     10  C   UNL     1     -17.143 -11.080  42.869  1.00  0.00     0.041 A 
ATOM     11  C   UNL     1     -17.698  -9.877  42.496  1.00  0.00     0.134 A 
ATOM     12  N   UNL     1     -15.816 -11.018  42.682  1.00  0.00    -0.348 N 
ATOM     13  N   UNL     1     -16.721  -9.057  42.059  1.00  0.00    -0.245 NA
ATOM     14  C   UNL     1     -15.591  -9.786  42.186  1.00  0.00     0.196 A 
ATOM     15  H   UNL     1     -15.108 -11.756  42.887  1.00  0.00     0.167 HD
ENDBRANCH   1  10
TORSDOF 4
ENDMDL
MODEL 6
REMARK VINA RESULT:    -4.400      4.047      6.124
REMARK INTER + INTRA:          -5.441
REMARK INTER:                  -5.264
REMARK INTRA:                  -0.177
REMARK UNBOUND:                -0.141
REMARK SMILES [NH3+][C@H](Cc1cnc[nH]1)C(=O)[O-]
REMARK SMILES IDX 3 1 2 2 1 3 9 7 10 8 11 9 4 10 5 11 8 12 6 13 7 14
REMARK H PARENT 1 4 1 5 1 6 8 15
REMARK Flexibility Score: inf
ROOT
ATOM      1  C   UNL     1     -15.611  -9.586  42.152  1.00  0.00     0.127 C 
ENDROOT
BRANCH   1   2
ATOM      2  C   UNL     1     -15.533  -8.120  41.677  1.00  0.00     0.233 C 
BRANCH   2   3
ATOM      3  N   UNL     1     -16.143  -7.976  40.350  1.00  0.00    -0.350 N 
ATOM      4  H   UNL     1     -16.408  -6.977  40.188  1.00  0.00     0.345 HD
ATOM      5  H   UNL     1     -15.475  -8.277  39.602  1.00  0.00     0.345 HD
ATOM      6  H   UNL     1     -17.010  -8.558  40.292  1.00  0.00     0.345 HD
ENDBRANCH   2   3
BRANCH   2   7
ATOM      7  C   UNL     1     -16.202  -7.195  42.662  1.00  0.00     0.099 C 
ATOM      8  O   UNL     1     -16.293  -5.963  42.421  1.00  0.00    -0.544 OA
ATOM      9  O   UNL     1     -16.742  -7.706  43.836  1.00  0.00    -0.544 OA
ENDBRANCH   2   7
ENDBRANCH   1   2
BRANCH   1  10
ATOM     10  C   UNL     1     -14.296 -10.058  42.700  1.00  0.00     0.041 A 
ATOM     11  C   UNL     1     -13.977 -10.228  44.028  1.00  0.00     0.134 A 
ATOM     12  N   UNL     1     -13.259 -10.465  41.952  1.00  0.00    -0.348 N 
ATOM     13  N   UNL     1     -12.730 -10.732  44.121  1.00  0.00    -0.245 NA
ATOM     14  C   UNL     1     -12.326 -10.862  42.838  1.00  0.00     0.196 A 
ATOM     15  H   UNL     1     -13.192 -10.484  40.911  1.00  0.00     0.167 HD
ENDBRANCH   1  10
TORSDOF 4
ENDMDL
MODEL 7
REMARK VINA RESULT:    -4.382      2.501      2.718
REMARK INTER + INTRA:          -5.420
REMARK INTER:                  -5.144
REMARK INTRA:                  -0.276
REMARK UNBOUND:                -0.141
REMARK SMILES [NH3+][C@H](Cc1cnc[nH]1)C(=O)[O-]
REMARK SMILES IDX 3 1 2 2 1 3 9 7 10 8 11 9 4 10 5 11 8 12 6 13 7 14
REMARK H PARENT 1 4 1 5 1 6 8 15
REMARK Flexibility Score: inf
ROOT
ATOM      1  C   UNL     1     -17.014  -9.168  42.669  1.00  0.00     0.127 C 
ENDROOT
BRANCH   1   2
ATOM      2  C   UNL     1     -16.292  -9.949  43.786  1.00  0.00     0.233 C 
BRANCH   2   3
ATOM      3  N   UNL     1     -15.417 -10.978  43.211  1.00  0.00    -0.350 N 
ATOM      4  H   UNL     1     -15.447 -10.925  42.167  1.00  0.00     0.345 HD
ATOM      5  H   UNL     1     -14.430 -10.844  43.532  1.00  0.00     0.345 HD
ATOM      6  H   UNL     1     -15.747 -11.928  43.501  1.00  0.00     0.345 HD
ENDBRANCH   2   3
BRANCH   2   7
ATOM      7  C   UNL     1     -15.498  -9.022  44.670  1.00  0.00     0.099 C 
ATOM      8  O   UNL     1     -14.711  -9.485  45.538  1.00  0.00    -0.544 OA
ATOM      9  O   UNL     1     -15.616  -7.646  44.515  1.00  0.00    -0.544 OA
ENDBRANCH   2   7
ENDBRANCH   1   2
BRANCH   1  10
ATOM     10  C   UNL     1     -18.402  -8.775  43.080  1.00  0.00     0.041 A 
ATOM     11  C   UNL     1     -19.539  -9.543  42.961  1.00  0.00     0.134 A 
ATOM     12  N   UNL     1     -18.719  -7.631  43.706  1.00  0.00    -0.348 N 
ATOM     13  N   UNL     1     -20.579  -8.877  43.502  1.00  0.00    -0.245 NA
ATOM     14  C   UNL     1     -20.041  -7.719  43.944  1.00  0.00     0.196 A 
ATOM     15  H   UNL     1     -18.080  -6.848  43.966  1.00  0.00     0.167 HD
ENDBRANCH   1  10
TORSDOF 4
ENDMDL
MODEL 8
REMARK VINA RESULT:    -4.377      3.566      4.197
REMARK INTER + INTRA:          -5.413
REMARK INTER:                  -5.109
REMARK INTRA:                  -0.305
REMARK UNBOUND:                -0.141
REMARK SMILES [NH3+][C@H](Cc1cnc[nH]1)C(=O)[O-]
REMARK SMILES IDX 3 1 2 2 1 3 9 7 10 8 11 9 4 10 5 11 8 12 6 13 7 14
REMARK H PARENT 1 4 1 5 1 6 8 15
REMARK Flexibility Score: inf
ROOT
ATOM      1  C   UNL     1     -16.870  -9.151  42.636  1.00  0.00     0.127 C 
ENDROOT
BRANCH   1   2
ATOM      2  C   UNL     1     -15.826  -9.131  41.501  1.00  0.00     0.233 C 
BRANCH   2   3
ATOM      3  N   UNL     1     -16.048  -7.980  40.617  1.00  0.00    -0.350 N 
ATOM      4  H   UNL     1     -16.399  -8.309  39.688  1.00  0.00     0.345 HD
ATOM      5  H   UNL     1     -16.750  -7.325  41.034  1.00  0.00     0.345 HD
ATOM      6  H   UNL     1     -15.148  -7.469  40.465  1.00  0.00     0.345 HD
ENDBRANCH   2   3
BRANCH   2   7
ATOM      7  C   UNL     1     -14.424  -9.101  42.054  1.00  0.00     0.099 C 
ATOM      8  O   UNL     1     -13.807  -8.009  42.173  1.00  0.00    -0.544 OA
ATOM      9  O   UNL     1     -13.812 -10.281  42.458  1.00  0.00    -0.544 OA
ENDBRANCH   2   7
ENDBRANCH   1   2
BRANCH   1  10
ATOM     10  C   UNL     1     -17.411 -10.532  42.863  1.00  0.00     0.041 A 
ATOM     11  C   UNL     1     -18.697 -10.857  43.232  1.00  0.00     0.134 A 
ATOM     12  N   UNL     1     -16.724 -11.665  42.653  1.00  0.00    -0.348 N 
ATOM     13  N   UNL     1     -18.819 -12.199  43.269  1.00  0.00    -0.245 NA
ATOM     14  C   UNL     1     -17.599 -12.656  42.911  1.00  0.00     0.196 A 
ATOM     15  H   UNL     1     -15.732 -11.762  42.344  1.00  0.00     0.167 HD
ENDBRANCH   1  10
TORSDOF 4
ENDMDL
MODEL 9
REMARK VINA RESULT:    -4.372      3.803      4.582
REMARK INTER + INTRA:          -5.408
REMARK INTER:                  -5.228
REMARK INTRA:                  -0.180
REMARK UNBOUND:                -0.141
REMARK SMILES [NH3+][C@H](Cc1cnc[nH]1)C(=O)[O-]
REMARK SMILES IDX 3 1 2 2 1 3 9 7 10 8 11 9 4 10 5 11 8 12 6 13 7 14
REMARK H PARENT 1 4 1 5 1 6 8 15
REMARK Flexibility Score: inf
ROOT
ATOM      1  C   UNL     1     -16.181 -10.590  42.988  1.00  0.00     0.127 C 
ENDROOT
BRANCH   1   2
ATOM      2  C   UNL     1     -16.339  -9.741  44.267  1.00  0.00     0.233 C 
BRANCH   2   3
ATOM      3  N   UNL     1     -15.129  -9.826  45.093  1.00  0.00    -0.350 N 
ATOM      4  H   UNL     1     -14.291  -9.573  44.520  1.00  0.00     0.345 HD
ATOM      5  H   UNL     1     -15.194  -9.174  45.910  1.00  0.00     0.345 HD
ATOM      6  H   UNL     1     -15.005 -10.804  45.442  1.00  0.00     0.345 HD
ENDBRANCH   2   3
BRANCH   2   7
ATOM      7  C   UNL     1     -16.642  -8.304  43.929  1.00  0.00     0.099 C 
ATOM      8  O   UNL     1     -15.908  -7.377  44.362  1.00  0.00    -0.544 OA
ATOM      9  O   UNL     1     -17.727  -7.996  43.116  1.00  0.00    -0.544 OA
ENDBRANCH   2   7
ENDBRANCH   1   2
BRANCH   1  10
ATOM     10  C   UNL     1     -17.172 -11.715  42.946  1.00  0.00     0.041 A 
ATOM     11  C   UNL     1     -18.471 -11.678  43.403  1.00  0.00     0.134 A 
ATOM     12  N   UNL     1     -16.951 -12.908  42.373  1.00  0.00    -0.348 N 
ATOM     13  N   UNL     1     -19.068 -12.856  43.129  1.00  0.00    -0.245 NA
ATOM     14  C   UNL     1     -18.112 -13.577  42.503  1.00  0.00     0.196 A 
ATOM     15  H   UNL     1     -16.076 -13.242  41.913  1.00  0.00     0.167 HD
ENDBRANCH   1  10
TORSDOF 4
ENDMDL
