MODEL 1
REMARK VINA RESULT:    -3.180      0.000      0.000
REMARK INTER + INTRA:          -8.037
REMARK INTER:                  -5.783
REMARK INTRA:                  -2.255
REMARK UNBOUND:                -2.255
REMARK SMILES CCCCCCCCCCCCCCCC(=O)[O-]
REMARK SMILES IDX 9 1 10 2 11 3 12 4 13 5 14 6 15 7 16 8 17 9 18 10 8 11 7 12
REMARK SMILES IDX 6 13 5 14 4 15 3 16 2 17 1 18
REMARK H PARENT
REMARK Flexibility Score: inf
ROOT
ATOM      1  C   UNL     1      57.863  28.875  51.817  1.00  0.00     0.000 C 
ENDROOT
BRANCH   1   2
ATOM      2  C   UNL     1      57.777  28.490  50.330  1.00  0.00     0.000 C 
BRANCH   2   3
ATOM      3  C   UNL     1      59.082  28.779  49.569  1.00  0.00     0.000 C 
BRANCH   3   4
ATOM      4  C   UNL     1      60.033  27.568  49.536  1.00  0.00     0.000 C 
BRANCH   4   5
ATOM      5  C   UNL     1      59.358  26.197  49.739  1.00  0.00     0.000 C 
BRANCH   5   6
ATOM      6  C   UNL     1      60.257  25.109  50.361  1.00  0.00     0.006 C 
BRANCH   6   7
ATOM      7  C   UNL     1      59.512  23.830  50.771  1.00  0.00     0.053 C 
BRANCH   7   8
ATOM      8  C   UNL     1      59.309  23.753  52.254  1.00  0.00     0.041 C 
ATOM      9  O   UNL     1      58.582  22.853  52.749  1.00  0.00    -0.550 OA
ATOM     10  O   UNL     1      59.950  24.658  53.091  1.00  0.00    -0.550 OA
ENDBRANCH   7   8
ENDBRANCH   6   7
ENDBRANCH   5   6
ENDBRANCH   4   5
ENDBRANCH   3   4
ENDBRANCH   2   3
ENDBRANCH   1   2
BRANCH   1  11
ATOM     11  C   UNL     1      56.795  28.169  52.671  1.00  0.00     0.000 C 
BRANCH  11  12
ATOM     12  C   UNL     1      57.098  26.675  52.878  1.00  0.00    -0.000 C 
BRANCH  12  13
ATOM     13  C   UNL     1      55.950  25.768  52.402  1.00  0.00    -0.000 C 
BRANCH  13  14
ATOM     14  C   UNL     1      56.092  25.350  50.927  1.00  0.00    -0.000 C 
BRANCH  14  15
ATOM     15  C   UNL     1      55.012  25.908  49.980  1.00  0.00    -0.000 C 
BRANCH  15  16
ATOM     16  C   UNL     1      53.602  26.031  50.593  1.00  0.00    -0.000 C 
BRANCH  16  17
ATOM     17  C   UNL     1      52.996  27.444  50.540  1.00  0.00    -0.003 C 
ATOM     18  C   UNL     1      54.048  28.537  50.357  1.00  0.00     0.004 C 
ENDBRANCH  16  17
ENDBRANCH  15  16
ENDBRANCH  14  15
ENDBRANCH  13  14
ENDBRANCH  12  13
ENDBRANCH  11  12
ENDBRANCH   1  11
TORSDOF 14
ENDMDL
MODEL 2
REMARK VINA RESULT:    -3.084      2.357      4.443
REMARK INTER + INTRA:          -7.862
REMARK INTER:                  -5.690
REMARK INTRA:                  -2.173
REMARK UNBOUND:                -2.255
REMARK SMILES CCCCCCCCCCCCCCCC(=O)[O-]
REMARK SMILES IDX 9 1 10 2 11 3 12 4 13 5 14 6 15 7 16 8 17 9 18 10 8 11 7 12
REMARK SMILES IDX 6 13 5 14 4 15 3 16 2 17 1 18
REMARK H PARENT
REMARK Flexibility Score: inf
ROOT
ATOM      1  C   UNL     1      55.249  25.292  49.879  1.00  0.00     0.000 C 
ENDROOT
BRANCH   1   2
ATOM      2  C   UNL     1      55.625  25.060  51.353  1.00  0.00     0.000 C 
BRANCH   2   3
ATOM      3  C   UNL     1      57.146  24.974  51.567  1.00  0.00     0.000 C 
BRANCH   3   4
ATOM      4  C   UNL     1      57.947  25.285  50.289  1.00  0.00     0.000 C 
BRANCH   4   5
ATOM      5  C   UNL     1      59.388  25.782  50.521  1.00  0.00     0.000 C 
BRANCH   5   6
ATOM      6  C   UNL     1      59.838  26.940  49.608  1.00  0.00     0.006 C 
BRANCH   6   7
ATOM      7  C   UNL     1      60.678  28.014  50.315  1.00  0.00     0.053 C 
BRANCH   7   8
ATOM      8  C   UNL     1      62.144  27.721  50.232  1.00  0.00     0.041 C 
ATOM      9  O   UNL     1      62.622  27.156  49.214  1.00  0.00    -0.550 OA
ATOM     10  O   UNL     1      62.989  28.101  51.268  1.00  0.00    -0.550 OA
ENDBRANCH   7   8
ENDBRANCH   6   7
ENDBRANCH   5   6
ENDBRANCH   4   5
ENDBRANCH   3   4
ENDBRANCH   2   3
ENDBRANCH   1   2
BRANCH   1  11
ATOM     11  C   UNL     1      53.784  25.732  49.708  1.00  0.00     0.000 C 
BRANCH  11  12
ATOM     12  C   UNL     1      53.346  26.749  50.775  1.00  0.00    -0.000 C 
BRANCH  12  13
ATOM     13  C   UNL     1      53.117  28.155  50.193  1.00  0.00    -0.000 C 
BRANCH  13  14
ATOM     14  C   UNL     1      54.212  29.156  50.605  1.00  0.00    -0.000 C 
BRANCH  14  15
ATOM     15  C   UNL     1      55.219  28.633  51.648  1.00  0.00    -0.000 C 
BRANCH  15  16
ATOM     16  C   UNL     1      56.689  28.600  51.182  1.00  0.00    -0.000 C 
BRANCH  16  17
ATOM     17  C   UNL     1      57.706  29.119  52.212  1.00  0.00    -0.003 C 
ATOM     18  C   UNL     1      58.091  28.065  53.251  1.00  0.00     0.004 C 
ENDBRANCH  16  17
ENDBRANCH  15  16
ENDBRANCH  14  15
ENDBRANCH  13  14
ENDBRANCH  12  13
ENDBRANCH  11  12
ENDBRANCH   1  11
TORSDOF 14
ENDMDL
MODEL 3
REMARK VINA RESULT:    -3.082      2.267      3.777
REMARK INTER + INTRA:          -7.859
REMARK INTER:                  -5.834
REMARK INTRA:                  -2.025
REMARK UNBOUND:                -2.255
REMARK SMILES CCCCCCCCCCCCCCCC(=O)[O-]
REMARK SMILES IDX 9 1 10 2 11 3 12 4 13 5 14 6 15 7 16 8 17 9 18 10 8 11 7 12
REMARK SMILES IDX 6 13 5 14 4 15 3 16 2 17 1 18
REMARK H PARENT
REMARK Flexibility Score: inf
ROOT
ATOM      1  C   UNL     1      56.307  26.990  53.021  1.00  0.00     0.000 C 
ENDROOT
BRANCH   1   2
ATOM      2  C   UNL     1      56.432  25.532  52.546  1.00  0.00     0.000 C 
BRANCH   2   3
ATOM      3  C   UNL     1      57.882  25.021  52.582  1.00  0.00     0.000 C 
BRANCH   3   4
ATOM      4  C   UNL     1      58.352  24.463  51.225  1.00  0.00     0.000 C 
BRANCH   4   5
ATOM      5  C   UNL     1      58.707  25.526  50.166  1.00  0.00     0.000 C 
BRANCH   5   6
ATOM      6  C   UNL     1      60.151  26.065  50.235  1.00  0.00     0.006 C 
BRANCH   6   7
ATOM      7  C   UNL     1      60.385  27.355  49.437  1.00  0.00     0.053 C 
BRANCH   7   8
ATOM      8  C   UNL     1      59.516  28.476  49.919  1.00  0.00     0.041 C 
ATOM      9  O   UNL     1      58.621  28.953  49.174  1.00  0.00    -0.550 OA
ATOM     10  O   UNL     1      59.674  28.973  51.207  1.00  0.00    -0.550 OA
ENDBRANCH   7   8
ENDBRANCH   6   7
ENDBRANCH   5   6
ENDBRANCH   4   5
ENDBRANCH   3   4
ENDBRANCH   2   3
ENDBRANCH   1   2
BRANCH   1  11
ATOM     11  C   UNL     1      56.417  27.997  51.863  1.00  0.00     0.000 C 
BRANCH  11  12
ATOM     12  C   UNL     1      55.736  27.495  50.578  1.00  0.00    -0.000 C 
BRANCH  12  13
ATOM     13  C   UNL     1      54.249  27.887  50.507  1.00  0.00    -0.000 C 
BRANCH  13  14
ATOM     14  C   UNL     1      53.372  26.784  49.886  1.00  0.00    -0.000 C 
BRANCH  14  15
ATOM     15  C   UNL     1      54.093  25.450  49.608  1.00  0.00    -0.000 C 
BRANCH  15  16
ATOM     16  C   UNL     1      53.491  24.220  50.315  1.00  0.00    -0.000 C 
BRANCH  16  17
ATOM     17  C   UNL     1      52.955  24.486  51.732  1.00  0.00    -0.003 C 
ATOM     18  C   UNL     1      53.423  23.447  52.751  1.00  0.00     0.004 C 
ENDBRANCH  16  17
ENDBRANCH  15  16
ENDBRANCH  14  15
ENDBRANCH  13  14
ENDBRANCH  12  13
ENDBRANCH  11  12
ENDBRANCH   1  11
TORSDOF 14
ENDMDL
MODEL 4
REMARK VINA RESULT:    -3.048     10.317     12.184
REMARK INTER + INTRA:          -7.797
REMARK INTER:                  -5.494
REMARK INTRA:                  -2.303
REMARK UNBOUND:                -2.255
REMARK SMILES CCCCCCCCCCCCCCCC(=O)[O-]
REMARK SMILES IDX 9 1 10 2 11 3 12 4 13 5 14 6 15 7 16 8 17 9 18 10 8 11 7 12
REMARK SMILES IDX 6 13 5 14 4 15 3 16 2 17 1 18
REMARK H PARENT
REMARK Flexibility Score: inf
ROOT
ATOM      1  C   UNL     1      64.439  34.004  61.353  1.00  0.00     0.000 C 
ENDROOT
BRANCH   1   2
ATOM      2  C   UNL     1      64.558  33.383  59.951  1.00  0.00     0.000 C 
BRANCH   2   3
ATOM      3  C   UNL     1      64.590  31.846  59.988  1.00  0.00     0.000 C 
BRANCH   3   4
ATOM      4  C   UNL     1      64.002  31.267  61.289  1.00  0.00     0.000 C 
BRANCH   4   5
ATOM      5  C   UNL     1      63.590  29.783  61.220  1.00  0.00     0.000 C 
BRANCH   5   6
ATOM      6  C   UNL     1      62.183  29.467  61.768  1.00  0.00     0.006 C 
BRANCH   6   7
ATOM      7  C   UNL     1      61.171  29.030  60.699  1.00  0.00     0.053 C 
BRANCH   7   8
ATOM      8  C   UNL     1      61.092  27.539  60.580  1.00  0.00     0.041 C 
ATOM      9  O   UNL     1      60.154  26.907  61.132  1.00  0.00    -0.550 OA
ATOM     10  O   UNL     1      62.038  26.850  59.832  1.00  0.00    -0.550 OA
ENDBRANCH   7   8
ENDBRANCH   6   7
ENDBRANCH   5   6
ENDBRANCH   4   5
ENDBRANCH   3   4
ENDBRANCH   2   3
ENDBRANCH   1   2
BRANCH   1  11
ATOM     11  C   UNL     1      63.714  35.362  61.337  1.00  0.00     0.000 C 
BRANCH  11  12
ATOM     12  C   UNL     1      62.649  35.447  60.230  1.00  0.00    -0.000 C 
BRANCH  12  13
ATOM     13  C   UNL     1      61.224  35.597  60.792  1.00  0.00    -0.000 C 
BRANCH  13  14
ATOM     14  C   UNL     1      60.272  34.489  60.306  1.00  0.00    -0.000 C 
BRANCH  14  15
ATOM     15  C   UNL     1      60.811  33.051  60.452  1.00  0.00    -0.000 C 
BRANCH  15  16
ATOM     16  C   UNL     1      60.920  32.256  59.135  1.00  0.00    -0.000 C 
BRANCH  16  17
ATOM     17  C   UNL     1      60.818  33.105  57.857  1.00  0.00    -0.003 C 
ATOM     18  C   UNL     1      62.133  33.172  57.080  1.00  0.00     0.004 C 
ENDBRANCH  16  17
ENDBRANCH  15  16
ENDBRANCH  14  15
ENDBRANCH  13  14
ENDBRANCH  12  13
ENDBRANCH  11  12
ENDBRANCH   1  11
TORSDOF 14
ENDMDL
MODEL 5
REMARK VINA RESULT:    -3.028      2.074      3.097
REMARK INTER + INTRA:          -7.761
REMARK INTER:                  -5.820
REMARK INTRA:                  -1.941
REMARK UNBOUND:                -2.255
REMARK SMILES CCCCCCCCCCCCCCCC(=O)[O-]
REMARK SMILES IDX 9 1 10 2 11 3 12 4 13 5 14 6 15 7 16 8 17 9 18 10 8 11 7 12
REMARK SMILES IDX 6 13 5 14 4 15 3 16 2 17 1 18
REMARK H PARENT
REMARK Flexibility Score: inf
ROOT
ATOM      1  C   UNL     1      57.544  28.260  50.313  1.00  0.00     0.000 C 
ENDROOT
BRANCH   1   2
ATOM      2  C   UNL     1      58.881  28.567  49.617  1.00  0.00     0.000 C 
BRANCH   2   3
ATOM      3  C   UNL     1      59.809  27.342  49.556  1.00  0.00     0.000 C 
BRANCH   3   4
ATOM      4  C   UNL     1      59.053  26.011  49.731  1.00  0.00     0.000 C 
BRANCH   4   5
ATOM      5  C   UNL     1      59.865  24.875  50.384  1.00  0.00     0.000 C 
BRANCH   5   6
ATOM      6  C   UNL     1      60.807  25.314  51.524  1.00  0.00     0.006 C 
BRANCH   6   7
ATOM      7  C   UNL     1      62.135  24.545  51.579  1.00  0.00     0.053 C 
BRANCH   7   8
ATOM      8  C   UNL     1      63.141  25.098  50.617  1.00  0.00     0.041 C 
ATOM      9  O   UNL     1      63.118  26.317  50.304  1.00  0.00    -0.550 OA
ATOM     10  O   UNL     1      64.126  24.272  50.089  1.00  0.00    -0.550 OA
ENDBRANCH   7   8
ENDBRANCH   6   7
ENDBRANCH   5   6
ENDBRANCH   4   5
ENDBRANCH   3   4
ENDBRANCH   2   3
ENDBRANCH   1   2
BRANCH   1  11
ATOM     11  C   UNL     1      57.501  28.779  51.761  1.00  0.00     0.000 C 
BRANCH  11  12
ATOM     12  C   UNL     1      56.081  28.763  52.351  1.00  0.00    -0.000 C 
BRANCH  12  13
ATOM     13  C   UNL     1      54.992  28.929  51.275  1.00  0.00    -0.000 C 
BRANCH  13  14
ATOM     14  C   UNL     1      53.967  27.780  51.283  1.00  0.00    -0.000 C 
BRANCH  14  15
ATOM     15  C   UNL     1      53.986  26.876  50.034  1.00  0.00    -0.000 C 
BRANCH  15  16
ATOM     16  C   UNL     1      54.911  25.646  50.129  1.00  0.00    -0.000 C 
BRANCH  16  17
ATOM     17  C   UNL     1      55.038  25.041  51.537  1.00  0.00    -0.003 C 
ATOM     18  C   UNL     1      56.463  25.105  52.086  1.00  0.00     0.004 C 
ENDBRANCH  16  17
ENDBRANCH  15  16
ENDBRANCH  14  15
ENDBRANCH  13  14
ENDBRANCH  12  13
ENDBRANCH  11  12
ENDBRANCH   1  11
TORSDOF 14
ENDMDL
MODEL 6
REMARK VINA RESULT:    -3.025     10.580     12.674
REMARK INTER + INTRA:          -7.756
REMARK INTER:                  -5.471
REMARK INTRA:                  -2.285
REMARK UNBOUND:                -2.255
REMARK SMILES CCCCCCCCCCCCCCCC(=O)[O-]
REMARK SMILES IDX 9 1 10 2 11 3 12 4 13 5 14 6 15 7 16 8 17 9 18 10 8 11 7 12
REMARK SMILES IDX 6 13 5 14 4 15 3 16 2 17 1 18
REMARK H PARENT
REMARK Flexibility Score: inf
ROOT
ATOM      1  C   UNL     1      63.487  30.153  59.941  1.00  0.00     0.000 C 
ENDROOT
BRANCH   1   2
ATOM      2  C   UNL     1      63.118  30.223  61.433  1.00  0.00     0.000 C 
BRANCH   2   3
ATOM      3  C   UNL     1      61.649  30.620  61.659  1.00  0.00     0.000 C 
BRANCH   3   4
ATOM      4  C   UNL     1      61.033  31.341  60.446  1.00  0.00     0.000 C 
BRANCH   4   5
ATOM      5  C   UNL     1      60.942  32.875  60.571  1.00  0.00     0.000 C 
BRANCH   5   6
ATOM      6  C   UNL     1      62.149  33.652  60.007  1.00  0.00     0.006 C 
BRANCH   6   7
ATOM      7  C   UNL     1      62.800  34.623  61.003  1.00  0.00     0.053 C 
BRANCH   7   8
ATOM      8  C   UNL     1      64.248  34.310  61.223  1.00  0.00     0.041 C 
ATOM      9  O   UNL     1      64.913  34.948  62.081  1.00  0.00    -0.550 OA
ATOM     10  O   UNL     1      64.857  33.290  60.502  1.00  0.00    -0.550 OA
ENDBRANCH   7   8
ENDBRANCH   6   7
ENDBRANCH   5   6
ENDBRANCH   4   5
ENDBRANCH   3   4
ENDBRANCH   2   3
ENDBRANCH   1   2
BRANCH   1  11
ATOM     11  C   UNL     1      64.613  29.142  59.659  1.00  0.00     0.000 C 
BRANCH  11  12
ATOM     12  C   UNL     1      64.733  28.073  60.759  1.00  0.00    -0.000 C 
BRANCH  12  13
ATOM     13  C   UNL     1      64.696  26.641  60.197  1.00  0.00    -0.000 C 
BRANCH  13  14
ATOM     14  C   UNL     1      63.396  25.895  60.549  1.00  0.00    -0.000 C 
BRANCH  14  15
ATOM     15  C   UNL     1      62.512  26.584  61.607  1.00  0.00    -0.000 C 
BRANCH  15  16
ATOM     16  C   UNL     1      61.108  26.998  61.120  1.00  0.00    -0.000 C 
BRANCH  16  17
ATOM     17  C   UNL     1      61.045  27.468  59.657  1.00  0.00    -0.003 C 
ATOM     18  C   UNL     1      59.715  28.134  59.303  1.00  0.00     0.004 C 
ENDBRANCH  16  17
ENDBRANCH  15  16
ENDBRANCH  14  15
ENDBRANCH  13  14
ENDBRANCH  12  13
ENDBRANCH  11  12
ENDBRANCH   1  11
TORSDOF 14
ENDMDL
MODEL 7
REMARK VINA RESULT:    -3.018     10.220     12.283
REMARK INTER + INTRA:          -7.743
REMARK INTER:                  -5.270
REMARK INTRA:                  -2.473
REMARK UNBOUND:                -2.255
REMARK SMILES CCCCCCCCCCCCCCCC(=O)[O-]
REMARK SMILES IDX 9 1 10 2 11 3 12 4 13 5 14 6 15 7 16 8 17 9 18 10 8 11 7 12
REMARK SMILES IDX 6 13 5 14 4 15 3 16 2 17 1 18
REMARK H PARENT
REMARK Flexibility Score: inf
ROOT
ATOM      1  C   UNL     1      61.835  30.781  57.812  1.00  0.00     0.000 C 
ENDROOT
BRANCH   1   2
ATOM      2  C   UNL     1      60.556  30.808  58.667  1.00  0.00     0.000 C 
BRANCH   2   3
ATOM      3  C   UNL     1      60.629  29.852  59.869  1.00  0.00     0.000 C 
BRANCH   3   4
ATOM      4  C   UNL     1      61.217  30.518  61.127  1.00  0.00     0.000 C 
BRANCH   4   5
ATOM      5  C   UNL     1      62.275  29.684  61.878  1.00  0.00     0.000 C 
BRANCH   5   6
ATOM      6  C   UNL     1      63.740  30.026  61.541  1.00  0.00     0.006 C 
BRANCH   6   7
ATOM      7  C   UNL     1      64.325  29.224  60.369  1.00  0.00     0.053 C 
BRANCH   7   8
ATOM      8  C   UNL     1      65.817  29.340  60.303  1.00  0.00     0.041 C 
ATOM      9  O   UNL     1      66.541  28.705  61.114  1.00  0.00    -0.550 OA
ATOM     10  O   UNL     1      66.410  30.126  59.322  1.00  0.00    -0.550 OA
ENDBRANCH   7   8
ENDBRANCH   6   7
ENDBRANCH   5   6
ENDBRANCH   4   5
ENDBRANCH   3   4
ENDBRANCH   2   3
ENDBRANCH   1   2
BRANCH   1  11
ATOM     11  C   UNL     1      62.048  32.088  57.029  1.00  0.00     0.000 C 
BRANCH  11  12
ATOM     12  C   UNL     1      62.816  33.144  57.842  1.00  0.00    -0.000 C 
BRANCH  12  13
ATOM     13  C   UNL     1      63.923  32.526  58.715  1.00  0.00    -0.000 C 
BRANCH  13  14
ATOM     14  C   UNL     1      64.228  33.364  59.970  1.00  0.00    -0.000 C 
BRANCH  14  15
ATOM     15  C   UNL     1      63.021  33.630  60.891  1.00  0.00    -0.000 C 
BRANCH  15  16
ATOM     16  C   UNL     1      62.562  35.100  60.961  1.00  0.00    -0.000 C 
BRANCH  16  17
ATOM     17  C   UNL     1      61.122  35.351  60.482  1.00  0.00    -0.003 C 
ATOM     18  C   UNL     1      60.280  34.075  60.434  1.00  0.00     0.004 C 
ENDBRANCH  16  17
ENDBRANCH  15  16
ENDBRANCH  14  15
ENDBRANCH  13  14
ENDBRANCH  12  13
ENDBRANCH  11  12
ENDBRANCH   1  11
TORSDOF 14
ENDMDL
MODEL 8
REMARK VINA RESULT:    -2.978     11.096     13.390
REMARK INTER + INTRA:          -7.671
REMARK INTER:                  -5.301
REMARK INTRA:                  -2.370
REMARK UNBOUND:                -2.255
REMARK SMILES CCCCCCCCCCCCCCCC(=O)[O-]
REMARK SMILES IDX 9 1 10 2 11 3 12 4 13 5 14 6 15 7 16 8 17 9 18 10 8 11 7 12
REMARK SMILES IDX 6 13 5 14 4 15 3 16 2 17 1 18
REMARK H PARENT
REMARK Flexibility Score: inf
ROOT
ATOM      1  C   UNL     1      65.616  29.247  60.621  1.00  0.00     0.000 C 
ENDROOT
BRANCH   1   2
ATOM      2  C   UNL     1      64.089  29.095  60.734  1.00  0.00     0.000 C 
BRANCH   2   3
ATOM      3  C   UNL     1      63.466  30.109  61.708  1.00  0.00     0.000 C 
BRANCH   3   4
ATOM      4  C   UNL     1      61.969  30.355  61.437  1.00  0.00     0.000 C 
BRANCH   4   5
ATOM      5  C   UNL     1      61.583  30.473  59.949  1.00  0.00     0.000 C 
BRANCH   5   6
ATOM      6  C   UNL     1      60.817  31.757  59.570  1.00  0.00     0.006 C 
BRANCH   6   7
ATOM      7  C   UNL     1      60.788  32.826  60.673  1.00  0.00     0.053 C 
BRANCH   7   8
ATOM      8  C   UNL     1      60.303  34.147  60.158  1.00  0.00     0.041 C 
ATOM      9  O   UNL     1      59.147  34.555  60.444  1.00  0.00    -0.550 OA
ATOM     10  O   UNL     1      61.141  34.942  59.386  1.00  0.00    -0.550 OA
ENDBRANCH   7   8
ENDBRANCH   6   7
ENDBRANCH   5   6
ENDBRANCH   4   5
ENDBRANCH   3   4
ENDBRANCH   2   3
ENDBRANCH   1   2
BRANCH   1  11
ATOM     11  C   UNL     1      66.052  29.822  59.262  1.00  0.00     0.000 C 
BRANCH  11  12
ATOM     12  C   UNL     1      64.903  29.852  58.239  1.00  0.00    -0.000 C 
BRANCH  12  13
ATOM     13  C   UNL     1      64.609  31.271  57.722  1.00  0.00    -0.000 C 
BRANCH  13  14
ATOM     14  C   UNL     1      65.171  32.369  58.643  1.00  0.00    -0.000 C 
BRANCH  14  15
ATOM     15  C   UNL     1      64.114  33.180  59.419  1.00  0.00    -0.000 C 
BRANCH  15  16
ATOM     16  C   UNL     1      64.515  33.578  60.853  1.00  0.00    -0.000 C 
BRANCH  16  17
ATOM     17  C   UNL     1      64.030  34.969  61.297  1.00  0.00    -0.003 C 
ATOM     18  C   UNL     1      65.107  35.768  62.031  1.00  0.00     0.004 C 
ENDBRANCH  16  17
ENDBRANCH  15  16
ENDBRANCH  14  15
ENDBRANCH  13  14
ENDBRANCH  12  13
ENDBRANCH  11  12
ENDBRANCH   1  11
TORSDOF 14
ENDMDL
MODEL 9
REMARK VINA RESULT:    -2.966      1.910      4.034
REMARK INTER + INTRA:          -7.649
REMARK INTER:                  -5.382
REMARK INTRA:                  -2.266
REMARK UNBOUND:                -2.255
REMARK SMILES CCCCCCCCCCCCCCCC(=O)[O-]
REMARK SMILES IDX 9 1 10 2 11 3 12 4 13 5 14 6 15 7 16 8 17 9 18 10 8 11 7 12
REMARK SMILES IDX 6 13 5 14 4 15 3 16 2 17 1 18
REMARK H PARENT
REMARK Flexibility Score: inf
ROOT
ATOM      1  C   UNL     1      54.731  29.055  52.610  1.00  0.00     0.000 C 
ENDROOT
BRANCH   1   2
ATOM      2  C   UNL     1      55.562  30.198  53.217  1.00  0.00     0.000 C 
BRANCH   2   3
ATOM      3  C   UNL     1      57.031  29.803  53.446  1.00  0.00     0.000 C 
BRANCH   3   4
ATOM      4  C   UNL     1      57.295  28.310  53.178  1.00  0.00     0.000 C 
BRANCH   4   5
ATOM      5  C   UNL     1      58.457  28.013  52.208  1.00  0.00     0.000 C 
BRANCH   5   6
ATOM      6  C   UNL     1      58.588  28.991  51.023  1.00  0.00     0.006 C 
BRANCH   6   7
ATOM      7  C   UNL     1      58.656  28.314  49.647  1.00  0.00     0.053 C 
BRANCH   7   8
ATOM      8  C   UNL     1      59.646  27.190  49.625  1.00  0.00     0.041 C 
ATOM      9  O   UNL     1      60.881  27.431  49.661  1.00  0.00    -0.550 OA
ATOM     10  O   UNL     1      59.203  25.873  49.598  1.00  0.00    -0.550 OA
ENDBRANCH   7   8
ENDBRANCH   6   7
ENDBRANCH   5   6
ENDBRANCH   4   5
ENDBRANCH   3   4
ENDBRANCH   2   3
ENDBRANCH   1   2
BRANCH   1  11
ATOM     11  C   UNL     1      54.076  29.448  51.274  1.00  0.00     0.000 C 
BRANCH  11  12
ATOM     12  C   UNL     1      53.935  28.256  50.313  1.00  0.00    -0.000 C 
BRANCH  12  13
ATOM     13  C   UNL     1      55.119  27.276  50.411  1.00  0.00    -0.000 C 
BRANCH  13  14
ATOM     14  C   UNL     1      54.738  25.840  50.008  1.00  0.00    -0.000 C 
BRANCH  14  15
ATOM     15  C   UNL     1      54.598  24.846  51.178  1.00  0.00    -0.000 C 
BRANCH  15  16
ATOM     16  C   UNL     1      55.001  25.399  52.560  1.00  0.00    -0.000 C 
BRANCH  16  17
ATOM     17  C   UNL     1      56.154  24.647  53.245  1.00  0.00    -0.003 C 
ATOM     18  C   UNL     1      57.393  24.521  52.358  1.00  0.00     0.004 C 
ENDBRANCH  16  17
ENDBRANCH  15  16
ENDBRANCH  14  15
ENDBRANCH  13  14
ENDBRANCH  12  13
ENDBRANCH  11  12
ENDBRANCH   1  11
TORSDOF 14
ENDMDL
