MODEL 1
REMARK VINA RESULT:    -3.435      0.000      0.000
REMARK INTER + INTRA:          -6.791
REMARK INTER:                  -5.242
REMARK INTRA:                  -1.549
REMARK UNBOUND:                -1.549
REMARK SMILES CCCCCCCCCC=CC(=O)[O-]
REMARK SMILES IDX 7 1 8 2 9 3 10 4 11 5 12 6 13 7 14 8 6 9 5 10 4 11 3 12 2 13
REMARK SMILES IDX 1 14
REMARK H PARENT
REMARK Flexibility Score: inf
ROOT
ATOM      1  C   UNL     1      33.133  -1.087  -0.892  1.00  0.00     0.000 C 
ENDROOT
BRANCH   1   2
ATOM      2  C   UNL     1      31.741  -0.476  -1.087  1.00  0.00     0.004 C 
BRANCH   2   3
ATOM      3  C   UNL     1      31.247   0.193   0.202  1.00  0.00     0.027 C 
BRANCH   3   4
ATOM      4  C   UNL     1      29.776  -0.034   0.404  1.00  0.00    -0.025 C 
ATOM      5  C   UNL     1      29.199  -1.197   0.084  1.00  0.00     0.020 C 
BRANCH   5   6
ATOM      6  C   UNL     1      27.763  -1.438   0.289  1.00  0.00     0.064 C 
ATOM      7  O   UNL     1      26.931  -0.980  -0.538  1.00  0.00    -0.545 OA
ATOM      8  O   UNL     1      27.308  -2.166   1.383  1.00  0.00    -0.545 OA
ENDBRANCH   5   6
ENDBRANCH   3   4
ENDBRANCH   2   3
ENDBRANCH   1   2
BRANCH   1   9
ATOM      9  C   UNL     1      33.315  -1.594   0.546  1.00  0.00     0.000 C 
BRANCH   9  10
ATOM     10  C   UNL     1      33.122  -3.114   0.664  1.00  0.00     0.000 C 
BRANCH  10  11
ATOM     11  C   UNL     1      31.827  -3.490   1.408  1.00  0.00    -0.000 C 
BRANCH  11  12
ATOM     12  C   UNL     1      30.900  -4.375   0.550  1.00  0.00    -0.000 C 
BRANCH  12  13
ATOM     13  C   UNL     1      31.455  -4.667  -0.856  1.00  0.00    -0.003 C 
ATOM     14  C   UNL     1      30.706  -3.926  -1.961  1.00  0.00     0.004 C 
ENDBRANCH  12  13
ENDBRANCH  11  12
ENDBRANCH  10  11
ENDBRANCH   9  10
ENDBRANCH   1   9
TORSDOF 9
ENDMDL
MODEL 2
REMARK VINA RESULT:    -3.350     13.467     15.677
REMARK INTER + INTRA:          -6.662
REMARK INTER:                  -5.936
REMARK INTRA:                  -0.726
REMARK UNBOUND:                -1.549
REMARK SMILES CCCCCCCCCC=CC(=O)[O-]
REMARK SMILES IDX 7 1 8 2 9 3 10 4 11 5 12 6 13 7 14 8 6 9 5 10 4 11 3 12 2 13
REMARK SMILES IDX 1 14
REMARK H PARENT
REMARK Flexibility Score: inf
ROOT
ATOM      1  C   UNL     1      15.725  -4.952  -1.334  1.00  0.00     0.000 C 
ENDROOT
BRANCH   1   2
ATOM      2  C   UNL     1      15.209  -3.728  -2.099  1.00  0.00     0.004 C 
BRANCH   2   3
ATOM      3  C   UNL     1      15.155  -4.004  -3.607  1.00  0.00     0.027 C 
BRANCH   3   4
ATOM      4  C   UNL     1      16.065  -3.077  -4.362  1.00  0.00    -0.025 C 
ATOM      5  C   UNL     1      17.258  -2.720  -3.875  1.00  0.00     0.020 C 
BRANCH   5   6
ATOM      6  C   UNL     1      18.165  -1.825  -4.610  1.00  0.00     0.064 C 
ATOM      7  O   UNL     1      19.320  -2.222  -4.912  1.00  0.00    -0.545 OA
ATOM      8  O   UNL     1      17.765  -0.545  -4.977  1.00  0.00    -0.545 OA
ENDBRANCH   5   6
ENDBRANCH   3   4
ENDBRANCH   2   3
ENDBRANCH   1   2
BRANCH   1   9
ATOM      9  C   UNL     1      15.867  -4.644   0.165  1.00  0.00     0.000 C 
BRANCH   9  10
ATOM     10  C   UNL     1      14.528  -4.729   0.913  1.00  0.00     0.000 C 
BRANCH  10  11
ATOM     11  C   UNL     1      14.583  -4.068   2.302  1.00  0.00    -0.000 C 
BRANCH  11  12
ATOM     12  C   UNL     1      15.011  -2.588   2.225  1.00  0.00    -0.000 C 
BRANCH  12  13
ATOM     13  C   UNL     1      13.877  -1.642   1.792  1.00  0.00    -0.003 C 
ATOM     14  C   UNL     1      13.959  -1.245   0.320  1.00  0.00     0.004 C 
ENDBRANCH  12  13
ENDBRANCH  11  12
ENDBRANCH  10  11
ENDBRANCH   9  10
ENDBRANCH   1   9
TORSDOF 9
ENDMDL
MODEL 3
REMARK VINA RESULT:    -3.348      1.112      3.369
REMARK INTER + INTRA:          -6.659
REMARK INTER:                  -5.473
REMARK INTRA:                  -1.186
REMARK UNBOUND:                -1.549
REMARK SMILES CCCCCCCCCC=CC(=O)[O-]
REMARK SMILES IDX 7 1 8 2 9 3 10 4 11 5 12 6 13 7 14 8 6 9 5 10 4 11 3 12 2 13
REMARK SMILES IDX 1 14
REMARK H PARENT
REMARK Flexibility Score: inf
ROOT
ATOM      1  C   UNL     1      32.577  -3.806  -0.200  1.00  0.00     0.000 C 
ENDROOT
BRANCH   1   2
ATOM      2  C   UNL     1      31.196  -4.299   0.246  1.00  0.00     0.004 C 
BRANCH   2   3
ATOM      3  C   UNL     1      30.876  -3.825   1.670  1.00  0.00     0.027 C 
BRANCH   3   4
ATOM      4  C   UNL     1      29.597  -3.038   1.707  1.00  0.00    -0.025 C 
ATOM      5  C   UNL     1      29.141  -2.396   0.626  1.00  0.00     0.020 C 
BRANCH   5   6
ATOM      6  C   UNL     1      27.883  -1.634   0.643  1.00  0.00     0.064 C 
ATOM      7  O   UNL     1      26.874  -2.114   1.220  1.00  0.00    -0.545 OA
ATOM      8  O   UNL     1      27.793  -0.388   0.032  1.00  0.00    -0.545 OA
ENDBRANCH   5   6
ENDBRANCH   3   4
ENDBRANCH   2   3
ENDBRANCH   1   2
BRANCH   1   9
ATOM      9  C   UNL     1      33.240  -2.958   0.895  1.00  0.00     0.000 C 
BRANCH   9  10
ATOM     10  C   UNL     1      33.733  -1.600   0.371  1.00  0.00     0.000 C 
BRANCH  10  11
ATOM     11  C   UNL     1      32.731  -0.939  -0.593  1.00  0.00    -0.000 C 
BRANCH  11  12
ATOM     12  C   UNL     1      31.734  -0.020   0.144  1.00  0.00    -0.000 C 
BRANCH  12  13
ATOM     13  C   UNL     1      30.902   0.867  -0.798  1.00  0.00    -0.003 C 
ATOM     14  C   UNL     1      31.595   1.139  -2.132  1.00  0.00     0.004 C 
ENDBRANCH  12  13
ENDBRANCH  11  12
ENDBRANCH  10  11
ENDBRANCH   9  10
ENDBRANCH   1   9
TORSDOF 9
ENDMDL
MODEL 4
REMARK VINA RESULT:    -3.302     13.668     16.353
REMARK INTER + INTRA:          -6.589
REMARK INTER:                  -6.288
REMARK INTRA:                  -0.301
REMARK UNBOUND:                -1.549
REMARK SMILES CCCCCCCCCC=CC(=O)[O-]
REMARK SMILES IDX 7 1 8 2 9 3 10 4 11 5 12 6 13 7 14 8 6 9 5 10 4 11 3 12 2 13
REMARK SMILES IDX 1 14
REMARK H PARENT
REMARK Flexibility Score: inf
ROOT
ATOM      1  C   UNL     1      14.743  -3.883   1.225  1.00  0.00     0.000 C 
ENDROOT
BRANCH   1   2
ATOM      2  C   UNL     1      14.846  -5.410   1.134  1.00  0.00     0.004 C 
BRANCH   2   3
ATOM      3  C   UNL     1      15.011  -5.865  -0.321  1.00  0.00     0.027 C 
BRANCH   3   4
ATOM      4  C   UNL     1      15.701  -4.815  -1.144  1.00  0.00    -0.025 C 
ATOM      5  C   UNL     1      16.884  -5.047  -1.722  1.00  0.00     0.020 C 
BRANCH   5   6
ATOM      6  C   UNL     1      17.565  -4.034  -2.543  1.00  0.00     0.064 C 
ATOM      7  O   UNL     1      17.286  -2.817  -2.385  1.00  0.00    -0.545 OA
ATOM      8  O   UNL     1      18.513  -4.400  -3.492  1.00  0.00    -0.545 OA
ENDBRANCH   5   6
ENDBRANCH   3   4
ENDBRANCH   2   3
ENDBRANCH   1   2
BRANCH   1   9
ATOM      9  C   UNL     1      14.243  -3.446   2.610  1.00  0.00     0.000 C 
BRANCH   9  10
ATOM     10  C   UNL     1      14.632  -1.998   2.948  1.00  0.00     0.000 C 
BRANCH  10  11
ATOM     11  C   UNL     1      13.990  -1.503   4.257  1.00  0.00    -0.000 C 
BRANCH  11  12
ATOM     12  C   UNL     1      14.899  -0.510   5.010  1.00  0.00    -0.000 C 
BRANCH  12  13
ATOM     13  C   UNL     1      14.468  -0.264   6.467  1.00  0.00    -0.003 C 
ATOM     14  C   UNL     1      14.818   1.135   6.967  1.00  0.00     0.004 C 
ENDBRANCH  12  13
ENDBRANCH  11  12
ENDBRANCH  10  11
ENDBRANCH   9  10
ENDBRANCH   1   9
TORSDOF 9
ENDMDL
MODEL 5
REMARK VINA RESULT:    -3.243      1.569      2.619
REMARK INTER + INTRA:          -6.498
REMARK INTER:                  -5.222
REMARK INTRA:                  -1.276
REMARK UNBOUND:                -1.549
REMARK SMILES CCCCCCCCCC=CC(=O)[O-]
REMARK SMILES IDX 7 1 8 2 9 3 10 4 11 5 12 6 13 7 14 8 6 9 5 10 4 11 3 12 2 13
REMARK SMILES IDX 1 14
REMARK H PARENT
REMARK Flexibility Score: inf
ROOT
ATOM      1  C   UNL     1      30.259   0.636  -0.732  1.00  0.00     0.000 C 
ENDROOT
BRANCH   1   2
ATOM      2  C   UNL     1      30.159  -0.269  -1.966  1.00  0.00     0.004 C 
BRANCH   2   3
ATOM      3  C   UNL     1      28.701  -0.656  -2.248  1.00  0.00     0.027 C 
BRANCH   3   4
ATOM      4  C   UNL     1      27.930  -0.838  -0.973  1.00  0.00    -0.025 C 
ATOM      5  C   UNL     1      26.672  -1.289  -0.976  1.00  0.00     0.020 C 
BRANCH   5   6
ATOM      6  C   UNL     1      25.909  -1.485   0.267  1.00  0.00     0.064 C 
ATOM      7  O   UNL     1      26.155  -2.481   0.996  1.00  0.00    -0.545 OA
ATOM      8  O   UNL     1      24.920  -0.586   0.650  1.00  0.00    -0.545 OA
ENDBRANCH   5   6
ENDBRANCH   3   4
ENDBRANCH   2   3
ENDBRANCH   1   2
BRANCH   1   9
ATOM      9  C   UNL     1      31.439   0.221   0.160  1.00  0.00     0.000 C 
BRANCH   9  10
ATOM     10  C   UNL     1      32.194  -0.998  -0.392  1.00  0.00     0.000 C 
BRANCH  10  11
ATOM     11  C   UNL     1      32.738  -1.911   0.721  1.00  0.00    -0.000 C 
BRANCH  11  12
ATOM     12  C   UNL     1      32.071  -3.302   0.710  1.00  0.00    -0.000 C 
BRANCH  12  13
ATOM     13  C   UNL     1      30.592  -3.272   0.286  1.00  0.00    -0.003 C 
ATOM     14  C   UNL     1      29.642  -2.980   1.446  1.00  0.00     0.004 C 
ENDBRANCH  12  13
ENDBRANCH  11  12
ENDBRANCH  10  11
ENDBRANCH   9  10
ENDBRANCH   1   9
TORSDOF 9
ENDMDL
MODEL 6
REMARK VINA RESULT:    -3.205     12.862     15.112
REMARK INTER + INTRA:          -6.440
REMARK INTER:                  -5.911
REMARK INTRA:                  -0.529
REMARK UNBOUND:                -1.549
REMARK SMILES CCCCCCCCCC=CC(=O)[O-]
REMARK SMILES IDX 7 1 8 2 9 3 10 4 11 5 12 6 13 7 14 8 6 9 5 10 4 11 3 12 2 13
REMARK SMILES IDX 1 14
REMARK H PARENT
REMARK Flexibility Score: inf
ROOT
ATOM      1  C   UNL     1      16.944  -4.180  -1.905  1.00  0.00     0.000 C 
ENDROOT
BRANCH   1   2
ATOM      2  C   UNL     1      15.718  -3.499  -2.524  1.00  0.00     0.004 C 
BRANCH   2   3
ATOM      3  C   UNL     1      16.004  -3.056  -3.965  1.00  0.00     0.027 C 
BRANCH   3   4
ATOM      4  C   UNL     1      17.413  -2.557  -4.112  1.00  0.00    -0.025 C 
ATOM      5  C   UNL     1      17.732  -1.623  -5.014  1.00  0.00     0.020 C 
BRANCH   5   6
ATOM      6  C   UNL     1      19.105  -1.115  -5.159  1.00  0.00     0.064 C 
ATOM      7  O   UNL     1      19.325   0.119  -5.048  1.00  0.00    -0.545 OA
ATOM      8  O   UNL     1      20.164  -1.978  -5.415  1.00  0.00    -0.545 OA
ENDBRANCH   5   6
ENDBRANCH   3   4
ENDBRANCH   2   3
ENDBRANCH   1   2
BRANCH   1   9
ATOM      9  C   UNL     1      16.631  -4.697  -0.493  1.00  0.00     0.000 C 
BRANCH   9  10
ATOM     10  C   UNL     1      15.698  -3.756   0.286  1.00  0.00     0.000 C 
BRANCH  10  11
ATOM     11  C   UNL     1      14.436  -4.469   0.805  1.00  0.00    -0.000 C 
BRANCH  11  12
ATOM     12  C   UNL     1      14.659  -5.985   0.987  1.00  0.00    -0.000 C 
BRANCH  12  13
ATOM     13  C   UNL     1      14.247  -6.505   2.375  1.00  0.00    -0.003 C 
ATOM     14  C   UNL     1      14.346  -8.024   2.499  1.00  0.00     0.004 C 
ENDBRANCH  12  13
ENDBRANCH  11  12
ENDBRANCH  10  11
ENDBRANCH   9  10
ENDBRANCH   1   9
TORSDOF 9
ENDMDL
MODEL 7
REMARK VINA RESULT:    -3.196     13.981     15.496
REMARK INTER + INTRA:          -6.427
REMARK INTER:                  -5.974
REMARK INTRA:                  -0.453
REMARK UNBOUND:                -1.549
REMARK SMILES CCCCCCCCCC=CC(=O)[O-]
REMARK SMILES IDX 7 1 8 2 9 3 10 4 11 5 12 6 13 7 14 8 6 9 5 10 4 11 3 12 2 13
REMARK SMILES IDX 1 14
REMARK H PARENT
REMARK Flexibility Score: inf
ROOT
ATOM      1  C   UNL     1      16.771  -4.793  -1.003  1.00  0.00     0.000 C 
ENDROOT
BRANCH   1   2
ATOM      2  C   UNL     1      15.482  -5.606  -0.834  1.00  0.00     0.004 C 
BRANCH   2   3
ATOM      3  C   UNL     1      14.918  -5.455   0.584  1.00  0.00     0.027 C 
BRANCH   3   4
ATOM      4  C   UNL     1      14.560  -4.026   0.877  1.00  0.00    -0.025 C 
ATOM      5  C   UNL     1      14.863  -3.457   2.048  1.00  0.00     0.020 C 
BRANCH   5   6
ATOM      6  C   UNL     1      14.532  -2.054   2.344  1.00  0.00     0.064 C 
ATOM      7  O   UNL     1      14.701  -1.608   3.508  1.00  0.00    -0.545 OA
ATOM      8  O   UNL     1      14.034  -1.213   1.355  1.00  0.00    -0.545 OA
ENDBRANCH   5   6
ENDBRANCH   3   4
ENDBRANCH   2   3
ENDBRANCH   1   2
BRANCH   1   9
ATOM      9  C   UNL     1      17.296  -4.887  -2.444  1.00  0.00     0.000 C 
BRANCH   9  10
ATOM     10  C   UNL     1      16.375  -4.183  -3.454  1.00  0.00     0.000 C 
BRANCH  10  11
ATOM     11  C   UNL     1      16.924  -2.818  -3.903  1.00  0.00    -0.000 C 
BRANCH  11  12
ATOM     12  C   UNL     1      16.170  -2.263  -5.130  1.00  0.00    -0.000 C 
BRANCH  12  13
ATOM     13  C   UNL     1      16.923  -1.135  -5.857  1.00  0.00    -0.003 C 
ATOM     14  C   UNL     1      18.171  -0.670  -5.110  1.00  0.00     0.004 C 
ENDBRANCH  12  13
ENDBRANCH  11  12
ENDBRANCH  10  11
ENDBRANCH   9  10
ENDBRANCH   1   9
TORSDOF 9
ENDMDL
MODEL 8
REMARK VINA RESULT:    -3.170     13.506     15.401
REMARK INTER + INTRA:          -6.387
REMARK INTER:                  -5.384
REMARK INTRA:                  -1.003
REMARK UNBOUND:                -1.549
REMARK SMILES CCCCCCCCCC=CC(=O)[O-]
REMARK SMILES IDX 7 1 8 2 9 3 10 4 11 5 12 6 13 7 14 8 6 9 5 10 4 11 3 12 2 13
REMARK SMILES IDX 1 14
REMARK H PARENT
REMARK Flexibility Score: inf
ROOT
ATOM      1  C   UNL     1      16.299  -5.174  -2.276  1.00  0.00     0.000 C 
ENDROOT
BRANCH   1   2
ATOM      2  C   UNL     1      14.950  -5.332  -2.987  1.00  0.00     0.004 C 
BRANCH   2   3
ATOM      3  C   UNL     1      13.968  -4.235  -2.554  1.00  0.00     0.027 C 
BRANCH   3   4
ATOM      4  C   UNL     1      14.506  -3.451  -1.392  1.00  0.00    -0.025 C 
ATOM      5  C   UNL     1      13.973  -3.560  -0.171  1.00  0.00     0.020 C 
BRANCH   5   6
ATOM      6  C   UNL     1      14.499  -2.809   0.980  1.00  0.00     0.064 C 
ATOM      7  O   UNL     1      14.504  -1.551   0.952  1.00  0.00    -0.545 OA
ATOM      8  O   UNL     1      14.990  -3.469   2.101  1.00  0.00    -0.545 OA
ENDBRANCH   5   6
ENDBRANCH   3   4
ENDBRANCH   2   3
ENDBRANCH   1   2
BRANCH   1   9
ATOM      9  C   UNL     1      17.461  -5.522  -3.218  1.00  0.00     0.000 C 
BRANCH   9  10
ATOM     10  C   UNL     1      18.358  -4.310  -3.519  1.00  0.00     0.000 C 
BRANCH  10  11
ATOM     11  C   UNL     1      17.632  -2.969  -3.306  1.00  0.00    -0.000 C 
BRANCH  11  12
ATOM     12  C   UNL     1      18.093  -1.893  -4.311  1.00  0.00    -0.000 C 
BRANCH  12  13
ATOM     13  C   UNL     1      17.067  -1.609  -5.423  1.00  0.00    -0.003 C 
ATOM     14  C   UNL     1      15.770  -2.397  -5.255  1.00  0.00     0.004 C 
ENDBRANCH  12  13
ENDBRANCH  11  12
ENDBRANCH  10  11
ENDBRANCH   9  10
ENDBRANCH   1   9
TORSDOF 9
ENDMDL
MODEL 9
REMARK VINA RESULT:    -3.155      1.248      3.093
REMARK INTER + INTRA:          -6.365
REMARK INTER:                  -5.268
REMARK INTRA:                  -1.096
REMARK UNBOUND:                -1.549
REMARK SMILES CCCCCCCCCC=CC(=O)[O-]
REMARK SMILES IDX 7 1 8 2 9 3 10 4 11 5 12 6 13 7 14 8 6 9 5 10 4 11 3 12 2 13
REMARK SMILES IDX 1 14
REMARK H PARENT
REMARK Flexibility Score: inf
ROOT
ATOM      1  C   UNL     1      31.340  -4.584   0.558  1.00  0.00     0.000 C 
ENDROOT
BRANCH   1   2
ATOM      2  C   UNL     1      30.369  -3.516   0.041  1.00  0.00     0.004 C 
BRANCH   2   3
ATOM      3  C   UNL     1      29.912  -2.591   1.177  1.00  0.00     0.027 C 
BRANCH   3   4
ATOM      4  C   UNL     1      28.420  -2.428   1.177  1.00  0.00    -0.025 C 
ATOM      5  C   UNL     1      27.812  -1.563   0.359  1.00  0.00     0.020 C 
BRANCH   5   6
ATOM      6  C   UNL     1      26.350  -1.402   0.339  1.00  0.00     0.064 C 
ATOM      7  O   UNL     1      25.614  -2.367   0.670  1.00  0.00    -0.545 OA
ATOM      8  O   UNL     1      25.767  -0.198  -0.041  1.00  0.00    -0.545 OA
ENDBRANCH   5   6
ENDBRANCH   3   4
ENDBRANCH   2   3
ENDBRANCH   1   2
BRANCH   1   9
ATOM      9  C   UNL     1      32.181  -4.044   1.725  1.00  0.00     0.000 C 
BRANCH   9  10
ATOM     10  C   UNL     1      33.681  -3.990   1.394  1.00  0.00     0.000 C 
BRANCH  10  11
ATOM     11  C   UNL     1      34.003  -2.995   0.265  1.00  0.00    -0.000 C 
BRANCH  11  12
ATOM     12  C   UNL     1      33.492  -1.573   0.580  1.00  0.00    -0.000 C 
BRANCH  12  13
ATOM     13  C   UNL     1      32.864  -0.862  -0.632  1.00  0.00    -0.003 C 
ATOM     14  C   UNL     1      31.738   0.095  -0.247  1.00  0.00     0.004 C 
ENDBRANCH  12  13
ENDBRANCH  11  12
ENDBRANCH  10  11
ENDBRANCH   9  10
ENDBRANCH   1   9
TORSDOF 9
ENDMDL
