MODEL 1
REMARK VINA RESULT:    -2.763      0.000      0.000
REMARK INTER + INTRA:          -3.102
REMARK INTER:                  -3.086
REMARK INTRA:                  -0.016
REMARK UNBOUND:                -0.016
REMARK SMILES CCCC(=O)[O-]
REMARK SMILES IDX 3 1 4 2 5 3 6 4 2 5 1 6
REMARK H PARENT
REMARK Flexibility Score: inf
ROOT
ATOM      1  C   UNL     1       8.400 -29.925  17.537  1.00  0.00     0.052 C 
ENDROOT
BRANCH   1   2
ATOM      2  C   UNL     1       9.344 -28.994  18.231  1.00  0.00     0.041 C 
ATOM      3  O   UNL     1       9.369 -28.939  19.489  1.00  0.00    -0.550 OA
ATOM      4  O   UNL     1      10.162 -28.152  17.490  1.00  0.00    -0.550 OA
ENDBRANCH   1   2
BRANCH   1   5
ATOM      5  C   UNL     1       7.039 -29.927  18.236  1.00  0.00     0.003 C 
ATOM      6  C   UNL     1       5.925 -29.523  17.275  1.00  0.00     0.004 C 
ENDBRANCH   1   5
TORSDOF 2
ENDMDL
MODEL 2
REMARK VINA RESULT:    -2.663      0.291      1.353
REMARK INTER + INTRA:          -2.990
REMARK INTER:                  -2.984
REMARK INTRA:                  -0.006
REMARK UNBOUND:                -0.016
REMARK SMILES CCCC(=O)[O-]
REMARK SMILES IDX 3 1 4 2 5 3 6 4 2 5 1 6
REMARK H PARENT
REMARK Flexibility Score: inf
ROOT
ATOM      1  C   UNL     1       8.310 -29.968  17.490  1.00  0.00     0.052 C 
ENDROOT
BRANCH   1   2
ATOM      2  C   UNL     1       9.287 -29.058  18.166  1.00  0.00     0.041 C 
ATOM      3  O   UNL     1      10.064 -28.342  17.480  1.00  0.00    -0.550 OA
ATOM      4  O   UNL     1       9.374 -29.035  19.551  1.00  0.00    -0.550 OA
ENDBRANCH   1   2
BRANCH   1   5
ATOM      5  C   UNL     1       6.888 -29.685  17.980  1.00  0.00     0.003 C 
ATOM      6  C   UNL     1       5.877 -29.823  16.845  1.00  0.00     0.004 C 
ENDBRANCH   1   5
TORSDOF 2
ENDMDL
MODEL 3
REMARK VINA RESULT:    -2.642      1.309      1.630
REMARK INTER + INTRA:          -2.967
REMARK INTER:                  -2.930
REMARK INTRA:                  -0.036
REMARK UNBOUND:                -0.016
REMARK SMILES CCCC(=O)[O-]
REMARK SMILES IDX 3 1 4 2 5 3 6 4 2 5 1 6
REMARK H PARENT
REMARK Flexibility Score: inf
ROOT
ATOM      1  C   UNL     1       8.830 -29.156  18.526  1.00  0.00     0.052 C 
ENDROOT
BRANCH   1   2
ATOM      2  C   UNL     1       9.503 -28.737  17.257  1.00  0.00     0.041 C 
ATOM      3  O   UNL     1      10.369 -27.823  17.271  1.00  0.00    -0.550 OA
ATOM      4  O   UNL     1       9.140 -29.323  16.051  1.00  0.00    -0.550 OA
ENDBRANCH   1   2
BRANCH   1   5
ATOM      5  C   UNL     1       7.662 -30.098  18.227  1.00  0.00     0.003 C 
ATOM      6  C   UNL     1       6.336 -29.343  18.211  1.00  0.00     0.004 C 
ENDBRANCH   1   5
TORSDOF 2
ENDMDL
MODEL 4
REMARK VINA RESULT:    -2.601      2.338      3.180
REMARK INTER + INTRA:          -2.921
REMARK INTER:                  -2.890
REMARK INTRA:                  -0.031
REMARK UNBOUND:                -0.016
REMARK SMILES CCCC(=O)[O-]
REMARK SMILES IDX 3 1 4 2 5 3 6 4 2 5 1 6
REMARK H PARENT
REMARK Flexibility Score: inf
ROOT
ATOM      1  C   UNL     1       8.164 -30.019  18.022  1.00  0.00     0.052 C 
ENDROOT
BRANCH   1   2
ATOM      2  C   UNL     1       6.804 -29.569  17.590  1.00  0.00     0.041 C 
ATOM      3  O   UNL     1       5.971 -29.162  18.443  1.00  0.00    -0.550 OA
ATOM      4  O   UNL     1       6.437 -29.644  16.253  1.00  0.00    -0.550 OA
ENDBRANCH   1   2
BRANCH   1   5
ATOM      5  C   UNL     1       8.957 -28.846  18.603  1.00  0.00     0.003 C 
ATOM      6  C   UNL     1       9.961 -28.305  17.590  1.00  0.00     0.004 C 
ENDBRANCH   1   5
TORSDOF 2
ENDMDL
MODEL 5
REMARK VINA RESULT:    -2.564      2.235      3.095
REMARK INTER + INTRA:          -2.880
REMARK INTER:                  -2.849
REMARK INTRA:                  -0.031
REMARK UNBOUND:                -0.016
REMARK SMILES CCCC(=O)[O-]
REMARK SMILES IDX 3 1 4 2 5 3 6 4 2 5 1 6
REMARK H PARENT
REMARK Flexibility Score: inf
ROOT
ATOM      1  C   UNL     1       8.186 -30.499  17.252  1.00  0.00     0.052 C 
ENDROOT
BRANCH   1   2
ATOM      2  C   UNL     1       8.070 -29.797  15.936  1.00  0.00     0.041 C 
ATOM      3  O   UNL     1       9.065 -29.199  15.447  1.00  0.00    -0.550 OA
ATOM      4  O   UNL     1       6.851 -29.761  15.272  1.00  0.00    -0.550 OA
ENDBRANCH   1   2
BRANCH   1   5
ATOM      5  C   UNL     1       7.883 -29.535  18.402  1.00  0.00     0.003 C 
ATOM      6  C   UNL     1       9.161 -28.894  18.934  1.00  0.00     0.004 C 
ENDBRANCH   1   5
TORSDOF 2
ENDMDL
MODEL 6
REMARK VINA RESULT:    -2.557      1.089      1.271
REMARK INTER + INTRA:          -2.871
REMARK INTER:                  -2.833
REMARK INTRA:                  -0.038
REMARK UNBOUND:                -0.016
REMARK SMILES CCCC(=O)[O-]
REMARK SMILES IDX 3 1 4 2 5 3 6 4 2 5 1 6
REMARK H PARENT
REMARK Flexibility Score: inf
ROOT
ATOM      1  C   UNL     1       7.397 -30.104  18.347  1.00  0.00     0.052 C 
ENDROOT
BRANCH   1   2
ATOM      2  C   UNL     1       8.676 -29.344  18.192  1.00  0.00     0.041 C 
ATOM      3  O   UNL     1       9.255 -28.865  19.203  1.00  0.00    -0.550 OA
ATOM      4  O   UNL     1       9.205 -29.123  16.927  1.00  0.00    -0.550 OA
ENDBRANCH   1   2
BRANCH   1   5
ATOM      5  C   UNL     1       6.487 -29.872  17.138  1.00  0.00     0.003 C 
ATOM      6  C   UNL     1       6.257 -31.168  16.366  1.00  0.00     0.004 C 
ENDBRANCH   1   5
TORSDOF 2
ENDMDL
MODEL 7
REMARK VINA RESULT:    -2.502      2.792      3.377
REMARK INTER + INTRA:          -2.811
REMARK INTER:                  -2.796
REMARK INTRA:                  -0.015
REMARK UNBOUND:                -0.016
REMARK SMILES CCCC(=O)[O-]
REMARK SMILES IDX 3 1 4 2 5 3 6 4 2 5 1 6
REMARK H PARENT
REMARK Flexibility Score: inf
ROOT
ATOM      1  C   UNL     1       8.272 -29.866  16.816  1.00  0.00     0.052 C 
ENDROOT
BRANCH   1   2
ATOM      2  C   UNL     1       6.996 -29.824  16.035  1.00  0.00     0.041 C 
ATOM      3  O   UNL     1       5.888 -29.790  16.633  1.00  0.00    -0.550 OA
ATOM      4  O   UNL     1       7.029 -29.872  14.647  1.00  0.00    -0.550 OA
ENDBRANCH   1   2
BRANCH   1   5
ATOM      5  C   UNL     1       8.007 -29.547  18.290  1.00  0.00     0.003 C 
ATOM      6  C   UNL     1       9.203 -28.844  18.924  1.00  0.00     0.004 C 
ENDBRANCH   1   5
TORSDOF 2
ENDMDL
MODEL 8
REMARK VINA RESULT:    -2.478      1.868      2.595
REMARK INTER + INTRA:          -2.784
REMARK INTER:                  -2.750
REMARK INTRA:                  -0.034
REMARK UNBOUND:                -0.016
REMARK SMILES CCCC(=O)[O-]
REMARK SMILES IDX 3 1 4 2 5 3 6 4 2 5 1 6
REMARK H PARENT
REMARK Flexibility Score: inf
ROOT
ATOM      1  C   UNL     1       8.176 -30.574  17.059  1.00  0.00     0.052 C 
ENDROOT
BRANCH   1   2
ATOM      2  C   UNL     1       7.849 -29.672  18.207  1.00  0.00     0.041 C 
ATOM      3  O   UNL     1       6.650 -29.386  18.467  1.00  0.00    -0.550 OA
ATOM      4  O   UNL     1       8.870 -29.109  18.962  1.00  0.00    -0.550 OA
ENDBRANCH   1   2
BRANCH   1   5
ATOM      5  C   UNL     1       8.009 -29.831  15.731  1.00  0.00     0.003 C 
ATOM      6  C   UNL     1       9.362 -29.451  15.138  1.00  0.00     0.004 C 
ENDBRANCH   1   5
TORSDOF 2
ENDMDL
MODEL 9
REMARK VINA RESULT:    -2.399      1.846      2.445
REMARK INTER + INTRA:          -2.696
REMARK INTER:                  -2.682
REMARK INTRA:                  -0.014
REMARK UNBOUND:                -0.016
REMARK SMILES CCCC(=O)[O-]
REMARK SMILES IDX 3 1 4 2 5 3 6 4 2 5 1 6
REMARK H PARENT
REMARK Flexibility Score: inf
ROOT
ATOM      1  C   UNL     1       7.796 -30.201  17.026  1.00  0.00     0.052 C 
ENDROOT
BRANCH   1   2
ATOM      2  C   UNL     1       8.610 -29.519  15.973  1.00  0.00     0.041 C 
ATOM      3  O   UNL     1       8.315 -29.656  14.756  1.00  0.00    -0.550 OA
ATOM      4  O   UNL     1       9.724 -28.770  16.331  1.00  0.00    -0.550 OA
ENDBRANCH   1   2
BRANCH   1   5
ATOM      5  C   UNL     1       6.333 -29.759  16.942  1.00  0.00     0.003 C 
ATOM      6  C   UNL     1       5.893 -29.064  18.227  1.00  0.00     0.004 C 
ENDBRANCH   1   5
TORSDOF 2
ENDMDL
