MODEL 1
REMARK VINA RESULT:    -7.234      0.000      0.000
REMARK INTER + INTRA:          -9.087
REMARK INTER:                  -8.714
REMARK INTRA:                  -0.373
REMARK UNBOUND:                -0.373
REMARK SMILES Oc1cc(O)c2c(c1)O[C@@H](c1ccc(O)c(O)c1)[C@H](O)C2
REMARK SMILES IDX 21 1 19 2 10 3 9 4 7 5 8 6 2 7 3 8 4 9 6 10 20 11 11 13
REMARK SMILES IDX 18 14 12 15 16 16 13 17 14 18 17 19 15 21 5 23 1 25
REMARK H PARENT 20 12 17 20 15 22 5 24 1 26
REMARK Flexibility Score: inf
ROOT
ATOM      1  C   UNL     1      16.520  24.842  43.337  1.00  0.00     0.079 C 
ATOM      2  C   UNL     1      17.171  23.909  42.299  1.00  0.00     0.164 C 
ATOM      3  C   UNL     1      17.911  24.742  41.238  1.00  0.00     0.232 C 
ATOM      4  O   UNL     1      18.873  25.587  41.870  1.00  0.00    -0.482 OA
ATOM      5  C   UNL     1      18.620  26.226  43.089  1.00  0.00     0.131 A 
ATOM      6  C   UNL     1      19.527  27.182  43.553  1.00  0.00     0.093 A 
ATOM      7  C   UNL     1      19.292  27.848  44.761  1.00  0.00     0.122 A 
ATOM      8  C   UNL     1      18.140  27.563  45.498  1.00  0.00     0.092 A 
ATOM      9  C   UNL     1      17.221  26.609  45.047  1.00  0.00     0.126 A 
ATOM     10  C   UNL     1      17.476  25.900  43.849  1.00  0.00     0.039 A 
ENDROOT
BRANCH   2  11
ATOM     11  O   UNL     1      16.184  23.123  41.682  1.00  0.00    -0.389 OA
ATOM     12  H   UNL     1      15.550  23.751  41.246  1.00  0.00     0.211 HD
ENDBRANCH   2  11
BRANCH   3  13
ATOM     13  C   UNL     1      18.599  23.854  40.229  1.00  0.00    -0.001 A 
ATOM     14  C   UNL     1      19.680  23.046  40.617  1.00  0.00     0.057 A 
ATOM     15  C   UNL     1      18.200  23.863  38.881  1.00  0.00     0.012 A 
ATOM     16  C   UNL     1      20.340  22.242  39.677  1.00  0.00     0.157 A 
ATOM     17  C   UNL     1      18.857  23.062  37.945  1.00  0.00     0.050 A 
ATOM     18  C   UNL     1      19.927  22.249  38.338  1.00  0.00     0.157 A 
BRANCH  16  19
ATOM     19  O   UNL     1      21.410  21.436  40.065  1.00  0.00    -0.504 OA
ATOM     20  H   UNL     1      21.274  20.618  40.649  1.00  0.00     0.293 HD
ENDBRANCH  16  19
BRANCH  18  21
ATOM     21  O   UNL     1      20.585  21.447  37.407  1.00  0.00    -0.504 OA
ATOM     22  H   UNL     1      20.860  21.806  36.500  1.00  0.00     0.293 HD
ENDBRANCH  18  21
ENDBRANCH   3  13
BRANCH   9  23
ATOM     23  O   UNL     1      16.067  26.400  45.805  1.00  0.00    -0.507 OA
ATOM     24  H   UNL     1      15.836  25.514  46.234  1.00  0.00     0.293 HD
ENDBRANCH   9  23
BRANCH   7  25
ATOM     25  O   UNL     1      20.192  28.801  45.232  1.00  0.00    -0.508 OA
ATOM     26  H   UNL     1      20.851  29.260  44.614  1.00  0.00     0.293 HD
ENDBRANCH   7  25
TORSDOF 6
ENDMDL
MODEL 2
REMARK VINA RESULT:    -6.642      1.274      2.824
REMARK INTER + INTRA:          -8.375
REMARK INTER:                  -8.033
REMARK INTRA:                  -0.341
REMARK UNBOUND:                -0.373
REMARK SMILES Oc1cc(O)c2c(c1)O[C@@H](c1ccc(O)c(O)c1)[C@H](O)C2
REMARK SMILES IDX 21 1 19 2 10 3 9 4 7 5 8 6 2 7 3 8 4 9 6 10 20 11 11 13
REMARK SMILES IDX 18 14 12 15 16 16 13 17 14 18 17 19 15 21 5 23 1 25
REMARK H PARENT 20 12 17 20 15 22 5 24 1 26
REMARK Flexibility Score: inf
ROOT
ATOM      1  C   UNL     1      19.917  26.782  42.495  1.00  0.00     0.079 C 
ATOM      2  C   UNL     1      19.661  26.149  41.115  1.00  0.00     0.164 C 
ATOM      3  C   UNL     1      19.255  24.675  41.282  1.00  0.00     0.232 C 
ATOM      4  O   UNL     1      18.110  24.582  42.129  1.00  0.00    -0.482 OA
ATOM      5  C   UNL     1      17.944  25.398  43.253  1.00  0.00     0.131 A 
ATOM      6  C   UNL     1      16.898  25.125  44.139  1.00  0.00     0.093 A 
ATOM      7  C   UNL     1      16.717  25.916  45.280  1.00  0.00     0.122 A 
ATOM      8  C   UNL     1      17.593  26.973  45.538  1.00  0.00     0.092 A 
ATOM      9  C   UNL     1      18.645  27.259  44.661  1.00  0.00     0.126 A 
ATOM     10  C   UNL     1      18.806  26.491  43.483  1.00  0.00     0.039 A 
ENDROOT
BRANCH   2  11
ATOM     11  O   UNL     1      20.823  26.235  40.330  1.00  0.00    -0.389 OA
ATOM     12  H   UNL     1      20.694  27.001  39.712  1.00  0.00     0.211 HD
ENDBRANCH   2  11
BRANCH   3  13
ATOM     13  C   UNL     1      18.953  24.036  39.947  1.00  0.00    -0.001 A 
ATOM     14  C   UNL     1      19.840  23.098  39.394  1.00  0.00     0.057 A 
ATOM     15  C   UNL     1      17.808  24.408  39.221  1.00  0.00     0.012 A 
ATOM     16  C   UNL     1      19.577  22.523  38.142  1.00  0.00     0.157 A 
ATOM     17  C   UNL     1      17.547  23.835  37.974  1.00  0.00     0.050 A 
ATOM     18  C   UNL     1      18.428  22.891  37.431  1.00  0.00     0.157 A 
BRANCH  16  19
ATOM     19  O   UNL     1      20.456  21.588  37.596  1.00  0.00    -0.504 OA
ATOM     20  H   UNL     1      20.866  20.853  38.161  1.00  0.00     0.293 HD
ENDBRANCH  16  19
BRANCH  18  21
ATOM     21  O   UNL     1      18.170  22.317  36.188  1.00  0.00    -0.504 OA
ATOM     22  H   UNL     1      18.208  22.863  35.334  1.00  0.00     0.293 HD
ENDBRANCH  18  21
ENDBRANCH   3  13
BRANCH   9  23
ATOM     23  O   UNL     1      19.514  28.300  44.996  1.00  0.00    -0.507 OA
ATOM     24  H   UNL     1      19.844  28.469  45.937  1.00  0.00     0.293 HD
ENDBRANCH   9  23
BRANCH   7  25
ATOM     25  O   UNL     1      15.676  25.651  46.167  1.00  0.00    -0.508 OA
ATOM     26  H   UNL     1      15.310  26.367  46.784  1.00  0.00     0.293 HD
ENDBRANCH   7  25
TORSDOF 6
ENDMDL
MODEL 3
REMARK VINA RESULT:    -6.520     10.808     12.388
REMARK INTER + INTRA:          -8.227
REMARK INTER:                  -8.123
REMARK INTRA:                  -0.104
REMARK UNBOUND:                -0.373
REMARK SMILES Oc1cc(O)c2c(c1)O[C@@H](c1ccc(O)c(O)c1)[C@H](O)C2
REMARK SMILES IDX 21 1 19 2 10 3 9 4 7 5 8 6 2 7 3 8 4 9 6 10 20 11 11 13
REMARK SMILES IDX 18 14 12 15 16 16 13 17 14 18 17 19 15 21 5 23 1 25
REMARK H PARENT 20 12 17 20 15 22 5 24 1 26
REMARK Flexibility Score: inf
ROOT
ATOM      1  C   UNL     1      27.607  23.985  52.206  1.00  0.00     0.079 C 
ATOM      2  C   UNL     1      27.696  24.489  50.754  1.00  0.00     0.164 C 
ATOM      3  C   UNL     1      27.885  23.299  49.798  1.00  0.00     0.232 C 
ATOM      4  O   UNL     1      26.819  22.365  49.971  1.00  0.00    -0.482 OA
ATOM      5  C   UNL     1      26.285  22.066  51.229  1.00  0.00     0.131 A 
ATOM      6  C   UNL     1      25.378  21.009  51.346  1.00  0.00     0.093 A 
ATOM      7  C   UNL     1      24.840  20.677  52.595  1.00  0.00     0.122 A 
ATOM      8  C   UNL     1      25.221  21.399  53.728  1.00  0.00     0.092 A 
ATOM      9  C   UNL     1      26.128  22.460  53.629  1.00  0.00     0.126 A 
ATOM     10  C   UNL     1      26.641  22.828  52.362  1.00  0.00     0.039 A 
ENDROOT
BRANCH   2  11
ATOM     11  O   UNL     1      28.777  25.377  50.625  1.00  0.00    -0.389 OA
ATOM     12  H   UNL     1      28.467  26.255  50.968  1.00  0.00     0.211 HD
ENDBRANCH   2  11
BRANCH   3  13
ATOM     13  C   UNL     1      27.931  23.756  48.359  1.00  0.00    -0.001 A 
ATOM     14  C   UNL     1      26.796  23.638  47.541  1.00  0.00     0.057 A 
ATOM     15  C   UNL     1      29.123  24.257  47.807  1.00  0.00     0.012 A 
ATOM     16  C   UNL     1      26.842  24.034  46.197  1.00  0.00     0.157 A 
ATOM     17  C   UNL     1      29.170  24.652  46.468  1.00  0.00     0.050 A 
ATOM     18  C   UNL     1      28.031  24.544  45.660  1.00  0.00     0.157 A 
BRANCH  16  19
ATOM     19  O   UNL     1      25.712  23.922  45.388  1.00  0.00    -0.504 OA
ATOM     20  H   UNL     1      24.835  23.563  45.749  1.00  0.00     0.293 HD
ENDBRANCH  16  19
BRANCH  18  21
ATOM     21  O   UNL     1      28.074  24.938  44.324  1.00  0.00    -0.504 OA
ATOM     22  H   UNL     1      28.698  24.494  43.660  1.00  0.00     0.293 HD
ENDBRANCH  18  21
ENDBRANCH   3  13
BRANCH   9  23
ATOM     23  O   UNL     1      26.504  23.114  54.804  1.00  0.00    -0.507 OA
ATOM     24  H   UNL     1      27.019  22.665  55.550  1.00  0.00     0.293 HD
ENDBRANCH   9  23
BRANCH   7  25
ATOM     25  O   UNL     1      23.934  19.626  52.719  1.00  0.00    -0.508 OA
ATOM     26  H   UNL     1      23.673  19.255  53.625  1.00  0.00     0.293 HD
ENDBRANCH   7  25
TORSDOF 6
ENDMDL
MODEL 4
REMARK VINA RESULT:    -6.418      1.734      6.806
REMARK INTER + INTRA:          -8.105
REMARK INTER:                  -7.789
REMARK INTRA:                  -0.316
REMARK UNBOUND:                -0.373
REMARK SMILES Oc1cc(O)c2c(c1)O[C@@H](c1ccc(O)c(O)c1)[C@H](O)C2
REMARK SMILES IDX 21 1 19 2 10 3 9 4 7 5 8 6 2 7 3 8 4 9 6 10 20 11 11 13
REMARK SMILES IDX 18 14 12 15 16 16 13 17 14 18 17 19 15 21 5 23 1 25
REMARK H PARENT 20 12 17 20 15 22 5 24 1 26
REMARK Flexibility Score: inf
ROOT
ATOM      1  C   UNL     1      16.547  24.455  39.282  1.00  0.00     0.079 C 
ATOM      2  C   UNL     1      17.065  25.476  40.311  1.00  0.00     0.164 C 
ATOM      3  C   UNL     1      18.002  24.780  41.313  1.00  0.00     0.232 C 
ATOM      4  O   UNL     1      19.070  24.141  40.615  1.00  0.00    -0.482 OA
ATOM      5  C   UNL     1      18.877  23.485  39.394  1.00  0.00     0.131 A 
ATOM      6  C   UNL     1      19.921  22.724  38.862  1.00  0.00     0.093 A 
ATOM      7  C   UNL     1      19.751  22.044  37.650  1.00  0.00     0.122 A 
ATOM      8  C   UNL     1      18.530  22.120  36.978  1.00  0.00     0.092 A 
ATOM      9  C   UNL     1      17.474  22.878  37.497  1.00  0.00     0.126 A 
ATOM     10  C   UNL     1      17.655  23.603  38.698  1.00  0.00     0.039 A 
ENDROOT
BRANCH   2  11
ATOM     11  O   UNL     1      15.983  26.054  40.995  1.00  0.00    -0.389 OA
ATOM     12  H   UNL     1      16.284  26.206  41.929  1.00  0.00     0.211 HD
ENDBRANCH   2  11
BRANCH   3  13
ATOM     13  C   UNL     1      18.565  25.765  42.311  1.00  0.00    -0.001 A 
ATOM     14  C   UNL     1      19.648  26.588  41.960  1.00  0.00     0.057 A 
ATOM     15  C   UNL     1      18.045  25.836  43.615  1.00  0.00     0.012 A 
ATOM     16  C   UNL     1      20.192  27.483  42.892  1.00  0.00     0.157 A 
ATOM     17  C   UNL     1      18.587  26.728  44.543  1.00  0.00     0.050 A 
ATOM     18  C   UNL     1      19.660  27.555  44.186  1.00  0.00     0.157 A 
BRANCH  16  19
ATOM     19  O   UNL     1      21.264  28.303  42.541  1.00  0.00    -0.504 OA
ATOM     20  H   UNL     1      22.213  27.949  42.505  1.00  0.00     0.293 HD
ENDBRANCH  16  19
BRANCH  18  21
ATOM     21  O   UNL     1      20.202  28.447  45.108  1.00  0.00    -0.504 OA
ATOM     22  H   UNL     1      20.916  29.117  44.842  1.00  0.00     0.293 HD
ENDBRANCH  18  21
ENDBRANCH   3  13
BRANCH   9  23
ATOM     23  O   UNL     1      16.263  22.878  36.801  1.00  0.00    -0.507 OA
ATOM     24  H   UNL     1      15.376  23.109  37.229  1.00  0.00     0.293 HD
ENDBRANCH   9  23
BRANCH   7  25
ATOM     25  O   UNL     1      20.788  21.284  37.113  1.00  0.00    -0.508 OA
ATOM     26  H   UNL     1      20.621  20.595  36.389  1.00  0.00     0.293 HD
ENDBRANCH   7  25
TORSDOF 6
ENDMDL
MODEL 5
REMARK VINA RESULT:    -6.386     12.039     13.539
REMARK INTER + INTRA:          -8.065
REMARK INTER:                  -7.845
REMARK INTRA:                  -0.221
REMARK UNBOUND:                -0.373
REMARK SMILES Oc1cc(O)c2c(c1)O[C@@H](c1ccc(O)c(O)c1)[C@H](O)C2
REMARK SMILES IDX 21 1 19 2 10 3 9 4 7 5 8 6 2 7 3 8 4 9 6 10 20 11 11 13
REMARK SMILES IDX 18 14 12 15 16 16 13 17 14 18 17 19 15 21 5 23 1 25
REMARK H PARENT 20 12 17 20 15 22 5 24 1 26
REMARK Flexibility Score: inf
ROOT
ATOM      1  C   UNL     1      30.259  21.771  51.094  1.00  0.00     0.079 C 
ATOM      2  C   UNL     1      30.020  22.323  49.677  1.00  0.00     0.164 C 
ATOM      3  C   UNL     1      28.570  22.820  49.548  1.00  0.00     0.232 C 
ATOM      4  O   UNL     1      28.302  23.799  50.552  1.00  0.00    -0.482 OA
ATOM      5  C   UNL     1      28.801  23.689  51.854  1.00  0.00     0.131 A 
ATOM      6  C   UNL     1      28.347  24.579  52.831  1.00  0.00     0.093 A 
ATOM      7  C   UNL     1      28.817  24.482  54.146  1.00  0.00     0.122 A 
ATOM      8  C   UNL     1      29.736  23.486  54.482  1.00  0.00     0.092 A 
ATOM      9  C   UNL     1      30.201  22.587  53.516  1.00  0.00     0.126 A 
ATOM     10  C   UNL     1      29.763  22.708  52.176  1.00  0.00     0.039 A 
ENDROOT
BRANCH   2  11
ATOM     11  O   UNL     1      30.263  21.318  48.727  1.00  0.00    -0.389 OA
ATOM     12  H   UNL     1      29.600  20.599  48.896  1.00  0.00     0.211 HD
ENDBRANCH   2  11
BRANCH   3  13
ATOM     13  C   UNL     1      28.314  23.411  48.181  1.00  0.00    -0.001 A 
ATOM     14  C   UNL     1      27.086  23.195  47.534  1.00  0.00     0.057 A 
ATOM     15  C   UNL     1      29.317  24.142  47.521  1.00  0.00     0.012 A 
ATOM     16  C   UNL     1      26.855  23.718  46.254  1.00  0.00     0.157 A 
ATOM     17  C   UNL     1      29.087  24.663  46.246  1.00  0.00     0.050 A 
ATOM     18  C   UNL     1      27.857  24.455  45.609  1.00  0.00     0.157 A 
BRANCH  16  19
ATOM     19  O   UNL     1      25.634  23.507  45.615  1.00  0.00    -0.504 OA
ATOM     20  H   UNL     1      24.865  24.160  45.713  1.00  0.00     0.293 HD
ENDBRANCH  16  19
BRANCH  18  21
ATOM     21  O   UNL     1      27.623  24.974  44.337  1.00  0.00    -0.504 OA
ATOM     22  H   UNL     1      28.133  25.780  43.992  1.00  0.00     0.293 HD
ENDBRANCH  18  21
ENDBRANCH   3  13
BRANCH   9  23
ATOM     23  O   UNL     1      31.084  21.585  53.924  1.00  0.00    -0.507 OA
ATOM     24  H   UNL     1      31.868  21.273  53.365  1.00  0.00     0.293 HD
ENDBRANCH   9  23
BRANCH   7  25
ATOM     25  O   UNL     1      28.370  25.367  55.125  1.00  0.00    -0.508 OA
ATOM     26  H   UNL     1      28.013  26.285  54.888  1.00  0.00     0.293 HD
ENDBRANCH   7  25
TORSDOF 6
ENDMDL
MODEL 6
REMARK VINA RESULT:    -6.257      3.268      6.051
REMARK INTER + INTRA:          -7.910
REMARK INTER:                  -7.654
REMARK INTRA:                  -0.256
REMARK UNBOUND:                -0.373
REMARK SMILES Oc1cc(O)c2c(c1)O[C@@H](c1ccc(O)c(O)c1)[C@H](O)C2
REMARK SMILES IDX 21 1 19 2 10 3 9 4 7 5 8 6 2 7 3 8 4 9 6 10 20 11 11 13
REMARK SMILES IDX 18 14 12 15 16 16 13 17 14 18 17 19 15 21 5 23 1 25
REMARK H PARENT 20 12 17 20 15 22 5 24 1 26
REMARK Flexibility Score: inf
ROOT
ATOM      1  C   UNL     1      14.766  23.464  42.718  1.00  0.00     0.079 C 
ATOM      2  C   UNL     1      15.902  24.441  42.365  1.00  0.00     0.164 C 
ATOM      3  C   UNL     1      16.902  24.523  43.531  1.00  0.00     0.232 C 
ATOM      4  O   UNL     1      17.398  23.220  43.837  1.00  0.00    -0.482 OA
ATOM      5  C   UNL     1      16.582  22.084  43.803  1.00  0.00     0.131 A 
ATOM      6  C   UNL     1      17.084  20.875  44.294  1.00  0.00     0.093 A 
ATOM      7  C   UNL     1      16.285  19.726  44.287  1.00  0.00     0.122 A 
ATOM      8  C   UNL     1      14.978  19.793  43.799  1.00  0.00     0.092 A 
ATOM      9  C   UNL     1      14.460  20.995  43.305  1.00  0.00     0.126 A 
ATOM     10  C   UNL     1      15.279  22.149  43.267  1.00  0.00     0.039 A 
ENDROOT
BRANCH   2  11
ATOM     11  O   UNL     1      15.371  25.716  42.106  1.00  0.00    -0.389 OA
ATOM     12  H   UNL     1      15.643  26.297  42.863  1.00  0.00     0.211 HD
ENDBRANCH   2  11
BRANCH   3  13
ATOM     13  C   UNL     1      18.056  25.440  43.200  1.00  0.00    -0.001 A 
ATOM     14  C   UNL     1      18.548  26.338  44.162  1.00  0.00     0.057 A 
ATOM     15  C   UNL     1      18.618  25.442  41.911  1.00  0.00     0.012 A 
ATOM     16  C   UNL     1      19.599  27.210  43.849  1.00  0.00     0.157 A 
ATOM     17  C   UNL     1      19.666  26.311  41.599  1.00  0.00     0.050 A 
ATOM     18  C   UNL     1      20.161  27.196  42.566  1.00  0.00     0.157 A 
BRANCH  16  19
ATOM     19  O   UNL     1      20.090  28.097  44.807  1.00  0.00    -0.504 OA
ATOM     20  H   UNL     1      20.922  28.651  44.640  1.00  0.00     0.293 HD
ENDBRANCH  16  19
BRANCH  18  21
ATOM     21  O   UNL     1      21.207  28.065  42.259  1.00  0.00    -0.504 OA
ATOM     22  H   UNL     1      21.179  29.043  42.526  1.00  0.00     0.293 HD
ENDBRANCH  18  21
ENDBRANCH   3  13
BRANCH   9  23
ATOM     23  O   UNL     1      13.133  21.009  42.871  1.00  0.00    -0.507 OA
ATOM     24  H   UNL     1      12.816  20.541  42.032  1.00  0.00     0.293 HD
ENDBRANCH   9  23
BRANCH   7  25
ATOM     25  O   UNL     1      16.778  18.517  44.773  1.00  0.00    -0.508 OA
ATOM     26  H   UNL     1      17.489  17.995  44.275  1.00  0.00     0.293 HD
ENDBRANCH   7  25
TORSDOF 6
ENDMDL
MODEL 7
REMARK VINA RESULT:    -6.039      1.646      2.316
REMARK INTER + INTRA:          -7.648
REMARK INTER:                  -7.284
REMARK INTRA:                  -0.364
REMARK UNBOUND:                -0.373
REMARK SMILES Oc1cc(O)c2c(c1)O[C@@H](c1ccc(O)c(O)c1)[C@H](O)C2
REMARK SMILES IDX 21 1 19 2 10 3 9 4 7 5 8 6 2 7 3 8 4 9 6 10 20 11 11 13
REMARK SMILES IDX 18 14 12 15 16 16 13 17 14 18 17 19 15 21 5 23 1 25
REMARK H PARENT 20 12 17 20 15 22 5 24 1 26
REMARK Flexibility Score: inf
ROOT
ATOM      1  C   UNL     1      16.077  24.049  44.568  1.00  0.00     0.079 C 
ATOM      2  C   UNL     1      16.825  23.577  43.307  1.00  0.00     0.164 C 
ATOM      3  C   UNL     1      16.874  24.714  42.272  1.00  0.00     0.232 C 
ATOM      4  O   UNL     1      17.483  25.869  42.849  1.00  0.00    -0.482 OA
ATOM      5  C   UNL     1      17.250  26.252  44.175  1.00  0.00     0.131 A 
ATOM      6  C   UNL     1      17.727  27.490  44.615  1.00  0.00     0.093 A 
ATOM      7  C   UNL     1      17.495  27.906  45.931  1.00  0.00     0.122 A 
ATOM      8  C   UNL     1      16.776  27.085  46.802  1.00  0.00     0.092 A 
ATOM      9  C   UNL     1      16.292  25.842  46.377  1.00  0.00     0.126 A 
ATOM     10  C   UNL     1      16.562  25.397  45.061  1.00  0.00     0.039 A 
ENDROOT
BRANCH   2  11
ATOM     11  O   UNL     1      16.172  22.462  42.756  1.00  0.00    -0.389 OA
ATOM     12  H   UNL     1      16.738  22.142  42.007  1.00  0.00     0.211 HD
ENDBRANCH   2  11
BRANCH   3  13
ATOM     13  C   UNL     1      17.641  24.298  41.039  1.00  0.00    -0.001 A 
ATOM     14  C   UNL     1      17.012  24.289  39.783  1.00  0.00     0.057 A 
ATOM     15  C   UNL     1      18.976  23.870  41.139  1.00  0.00     0.012 A 
ATOM     16  C   UNL     1      17.712  23.877  38.640  1.00  0.00     0.157 A 
ATOM     17  C   UNL     1      19.673  23.459  40.001  1.00  0.00     0.050 A 
ATOM     18  C   UNL     1      19.046  23.462  38.749  1.00  0.00     0.157 A 
BRANCH  16  19
ATOM     19  O   UNL     1      17.088  23.872  37.393  1.00  0.00    -0.504 OA
ATOM     20  H   UNL     1      17.620  23.950  36.534  1.00  0.00     0.293 HD
ENDBRANCH  16  19
BRANCH  18  21
ATOM     21  O   UNL     1      19.738  23.054  37.610  1.00  0.00    -0.504 OA
ATOM     22  H   UNL     1      20.398  23.667  37.144  1.00  0.00     0.293 HD
ENDBRANCH  18  21
ENDBRANCH   3  13
BRANCH   9  23
ATOM     23  O   UNL     1      15.542  25.086  47.281  1.00  0.00    -0.507 OA
ATOM     24  H   UNL     1      15.892  24.790  48.183  1.00  0.00     0.293 HD
ENDBRANCH   9  23
BRANCH   7  25
ATOM     25  O   UNL     1      17.967  29.138  46.378  1.00  0.00    -0.508 OA
ATOM     26  H   UNL     1      17.514  30.006  46.120  1.00  0.00     0.293 HD
ENDBRANCH   7  25
TORSDOF 6
ENDMDL
MODEL 8
REMARK VINA RESULT:    -6.024      3.058      6.715
REMARK INTER + INTRA:          -7.630
REMARK INTER:                  -7.350
REMARK INTRA:                  -0.280
REMARK UNBOUND:                -0.373
REMARK SMILES Oc1cc(O)c2c(c1)O[C@@H](c1ccc(O)c(O)c1)[C@H](O)C2
REMARK SMILES IDX 21 1 19 2 10 3 9 4 7 5 8 6 2 7 3 8 4 9 6 10 20 11 11 13
REMARK SMILES IDX 18 14 12 15 16 16 13 17 14 18 17 19 15 21 5 23 1 25
REMARK H PARENT 20 12 17 20 15 22 5 24 1 26
REMARK Flexibility Score: inf
ROOT
ATOM      1  C   UNL     1      17.273  25.503  41.520  1.00  0.00     0.079 C 
ATOM      2  C   UNL     1      16.536  25.592  42.869  1.00  0.00     0.164 C 
ATOM      3  C   UNL     1      17.506  25.262  44.017  1.00  0.00     0.232 C 
ATOM      4  O   UNL     1      18.632  26.137  43.967  1.00  0.00    -0.482 OA
ATOM      5  C   UNL     1      19.218  26.532  42.760  1.00  0.00     0.131 A 
ATOM      6  C   UNL     1      20.426  27.235  42.792  1.00  0.00     0.093 A 
ATOM      7  C   UNL     1      21.044  27.628  41.599  1.00  0.00     0.122 A 
ATOM      8  C   UNL     1      20.455  27.307  40.374  1.00  0.00     0.092 A 
ATOM      9  C   UNL     1      19.246  26.604  40.325  1.00  0.00     0.126 A 
ATOM     10  C   UNL     1      18.594  26.243  41.528  1.00  0.00     0.039 A 
ENDROOT
BRANCH   2  11
ATOM     11  O   UNL     1      15.459  24.691  42.883  1.00  0.00    -0.389 OA
ATOM     12  H   UNL     1      15.706  23.942  42.281  1.00  0.00     0.211 HD
ENDBRANCH   2  11
BRANCH   3  13
ATOM     13  C   UNL     1      16.825  25.385  45.360  1.00  0.00    -0.001 A 
ATOM     14  C   UNL     1      16.733  26.634  45.996  1.00  0.00     0.057 A 
ATOM     15  C   UNL     1      16.320  24.246  46.011  1.00  0.00     0.012 A 
ATOM     16  C   UNL     1      16.127  26.748  47.255  1.00  0.00     0.157 A 
ATOM     17  C   UNL     1      15.717  24.360  47.266  1.00  0.00     0.050 A 
ATOM     18  C   UNL     1      15.617  25.609  47.891  1.00  0.00     0.157 A 
BRANCH  16  19
ATOM     19  O   UNL     1      16.032  27.990  47.882  1.00  0.00    -0.504 OA
ATOM     20  H   UNL     1      15.201  28.262  48.395  1.00  0.00     0.293 HD
ENDBRANCH  16  19
BRANCH  18  21
ATOM     21  O   UNL     1      15.014  25.727  49.142  1.00  0.00    -0.504 OA
ATOM     22  H   UNL     1      14.019  25.894  49.237  1.00  0.00     0.293 HD
ENDBRANCH  18  21
ENDBRANCH   3  13
BRANCH   9  23
ATOM     23  O   UNL     1      18.730  26.274  39.070  1.00  0.00    -0.507 OA
ATOM     24  H   UNL     1      17.781  25.955  38.925  1.00  0.00     0.293 HD
ENDBRANCH   9  23
BRANCH   7  25
ATOM     25  O   UNL     1      22.247  28.330  41.622  1.00  0.00    -0.508 OA
ATOM     26  H   UNL     1      23.090  27.953  41.206  1.00  0.00     0.293 HD
ENDBRANCH   7  25
TORSDOF 6
ENDMDL
MODEL 9
REMARK VINA RESULT:    -5.986      2.433      6.978
REMARK INTER + INTRA:          -7.585
REMARK INTER:                  -7.384
REMARK INTRA:                  -0.200
REMARK UNBOUND:                -0.373
REMARK SMILES Oc1cc(O)c2c(c1)O[C@@H](c1ccc(O)c(O)c1)[C@H](O)C2
REMARK SMILES IDX 21 1 19 2 10 3 9 4 7 5 8 6 2 7 3 8 4 9 6 10 20 11 11 13
REMARK SMILES IDX 18 14 12 15 16 16 13 17 14 18 17 19 15 21 5 23 1 25
REMARK H PARENT 20 12 17 20 15 22 5 24 1 26
REMARK Flexibility Score: inf
ROOT
ATOM      1  C   UNL     1      19.296  23.642  39.259  1.00  0.00     0.079 C 
ATOM      2  C   UNL     1      18.765  24.224  40.582  1.00  0.00     0.164 C 
ATOM      3  C   UNL     1      19.467  25.559  40.886  1.00  0.00     0.232 C 
ATOM      4  O   UNL     1      19.282  26.462  39.796  1.00  0.00    -0.482 OA
ATOM      5  C   UNL     1      19.312  26.040  38.463  1.00  0.00     0.131 A 
ATOM      6  C   UNL     1      19.312  27.001  37.448  1.00  0.00     0.093 A 
ATOM      7  C   UNL     1      19.358  26.608  36.106  1.00  0.00     0.122 A 
ATOM      8  C   UNL     1      19.414  25.251  35.782  1.00  0.00     0.092 A 
ATOM      9  C   UNL     1      19.414  24.275  36.785  1.00  0.00     0.126 A 
ATOM     10  C   UNL     1      19.323  24.665  38.143  1.00  0.00     0.039 A 
ENDROOT
BRANCH   2  11
ATOM     11  O   UNL     1      18.998  23.316  41.629  1.00  0.00    -0.389 OA
ATOM     12  H   UNL     1      19.691  23.724  42.211  1.00  0.00     0.211 HD
ENDBRANCH   2  11
BRANCH   3  13
ATOM     13  C   UNL     1      18.935  26.179  42.156  1.00  0.00    -0.001 A 
ATOM     14  C   UNL     1      19.796  26.876  43.019  1.00  0.00     0.057 A 
ATOM     15  C   UNL     1      17.584  26.026  42.514  1.00  0.00     0.012 A 
ATOM     16  C   UNL     1      19.312  27.430  44.213  1.00  0.00     0.157 A 
ATOM     17  C   UNL     1      17.102  26.577  43.704  1.00  0.00     0.050 A 
ATOM     18  C   UNL     1      17.962  27.281  44.556  1.00  0.00     0.157 A 
BRANCH  16  19
ATOM     19  O   UNL     1      20.168  28.126  45.066  1.00  0.00    -0.504 OA
ATOM     20  H   UNL     1      20.650  28.965  44.765  1.00  0.00     0.293 HD
ENDBRANCH  16  19
BRANCH  18  21
ATOM     21  O   UNL     1      17.485  27.834  45.743  1.00  0.00    -0.504 OA
ATOM     22  H   UNL     1      16.569  27.596  46.108  1.00  0.00     0.293 HD
ENDBRANCH  18  21
ENDBRANCH   3  13
BRANCH   9  23
ATOM     23  O   UNL     1      19.517  22.937  36.400  1.00  0.00    -0.507 OA
ATOM     24  H   UNL     1      18.753  22.278  36.471  1.00  0.00     0.293 HD
ENDBRANCH   9  23
BRANCH   7  25
ATOM     25  O   UNL     1      19.357  27.560  35.089  1.00  0.00    -0.508 OA
ATOM     26  H   UNL     1      19.560  28.535  35.274  1.00  0.00     0.293 HD
ENDBRANCH   7  25
TORSDOF 6
ENDMDL
