MODEL 1
REMARK VINA RESULT:    -4.383      0.000      0.000
REMARK INTER + INTRA:          -4.943
REMARK INTER:                  -4.768
REMARK INTRA:                  -0.175
REMARK UNBOUND:                -0.175
REMARK SMILES CC1=CC[C@@](O)(C(C)C)CC1
REMARK SMILES IDX 1 1 2 2 3 3 4 4 5 5 10 6 11 7 7 8 8 9 9 10 6 11
REMARK H PARENT 6 12
REMARK Flexibility Score: inf
ROOT
ATOM      1  C   UNL     1     139.922 141.838 142.295  1.00  0.00     0.039 C 
ATOM      2  C   UNL     1     139.420 141.770 143.710  1.00  0.00    -0.077 C 
ATOM      3  C   UNL     1     138.378 142.526 144.092  1.00  0.00    -0.025 C 
ATOM      4  C   UNL     1     137.956 142.519 145.534  1.00  0.00     0.062 C 
ATOM      5  C   UNL     1     139.215 142.655 146.435  1.00  0.00     0.071 C 
ATOM      6  C   UNL     1     140.221 141.492 146.122  1.00  0.00     0.040 C 
ATOM      7  C   UNL     1     140.064 140.846 144.721  1.00  0.00     0.033 C 
ENDROOT
BRANCH   5   8
ATOM      8  C   UNL     1     138.822 142.712 147.957  1.00  0.00     0.015 C 
ATOM      9  C   UNL     1     139.270 141.449 148.716  1.00  0.00     0.010 C 
ATOM     10  C   UNL     1     137.329 142.988 148.228  1.00  0.00     0.010 C 
ENDBRANCH   5   8
BRANCH   5  11
ATOM     11  O   UNL     1     139.868 143.863 146.099  1.00  0.00    -0.389 OA
ATOM     12  H   UNL     1     140.358 144.188 146.901  1.00  0.00     0.211 HD
ENDBRANCH   5  11
TORSDOF 2
ENDMDL
MODEL 2
REMARK VINA RESULT:    -4.339      1.285      2.197
REMARK INTER + INTRA:          -4.894
REMARK INTER:                  -4.738
REMARK INTRA:                  -0.156
REMARK UNBOUND:                -0.175
REMARK SMILES CC1=CC[C@@](O)(C(C)C)CC1
REMARK SMILES IDX 1 1 2 2 3 3 4 4 5 5 10 6 11 7 7 8 8 9 9 10 6 11
REMARK H PARENT 6 12
REMARK Flexibility Score: inf
ROOT
ATOM      1  C   UNL     1     139.079 140.796 142.332  1.00  0.00     0.039 C 
ATOM      2  C   UNL     1     139.207 141.599 143.596  1.00  0.00    -0.077 C 
ATOM      3  C   UNL     1     140.240 141.386 144.427  1.00  0.00    -0.025 C 
ATOM      4  C   UNL     1     140.296 142.127 145.733  1.00  0.00     0.062 C 
ATOM      5  C   UNL     1     138.900 142.067 146.413  1.00  0.00     0.071 C 
ATOM      6  C   UNL     1     137.815 142.671 145.453  1.00  0.00     0.040 C 
ATOM      7  C   UNL     1     138.191 142.663 143.949  1.00  0.00     0.033 C 
ENDROOT
BRANCH   5   8
ATOM      8  C   UNL     1     138.919 142.780 147.816  1.00  0.00     0.015 C 
ATOM      9  C   UNL     1     137.500 143.081 148.329  1.00  0.00     0.010 C 
ATOM     10  C   UNL     1     139.784 144.055 147.879  1.00  0.00     0.010 C 
ENDBRANCH   5   8
BRANCH   5  11
ATOM     11  O   UNL     1     138.563 140.708 146.610  1.00  0.00    -0.389 OA
ATOM     12  H   UNL     1     139.003 140.171 145.899  1.00  0.00     0.211 HD
ENDBRANCH   5  11
TORSDOF 2
ENDMDL
MODEL 3
REMARK VINA RESULT:    -4.327      1.584      2.157
REMARK INTER + INTRA:          -4.881
REMARK INTER:                  -4.732
REMARK INTRA:                  -0.148
REMARK UNBOUND:                -0.175
REMARK SMILES CC1=CC[C@@](O)(C(C)C)CC1
REMARK SMILES IDX 1 1 2 2 3 3 4 4 5 5 10 6 11 7 7 8 8 9 9 10 6 11
REMARK H PARENT 6 12
REMARK Flexibility Score: inf
ROOT
ATOM      1  C   UNL     1     139.855 138.735 143.877  1.00  0.00     0.039 C 
ATOM      2  C   UNL     1     139.303 139.686 144.902  1.00  0.00    -0.077 C 
ATOM      3  C   UNL     1     139.077 140.969 144.578  1.00  0.00    -0.025 C 
ATOM      4  C   UNL     1     138.620 141.925 145.642  1.00  0.00     0.062 C 
ATOM      5  C   UNL     1     139.490 141.726 146.915  1.00  0.00     0.071 C 
ATOM      6  C   UNL     1     139.393 140.236 147.397  1.00  0.00     0.040 C 
ATOM      7  C   UNL     1     138.979 139.217 146.305  1.00  0.00     0.033 C 
ENDROOT
BRANCH   5   8
ATOM      8  C   UNL     1     139.090 142.747 148.044  1.00  0.00     0.015 C 
ATOM      9  C   UNL     1     137.567 142.963 148.112  1.00  0.00     0.010 C 
ATOM     10  C   UNL     1     139.812 144.107 147.968  1.00  0.00     0.010 C 
ENDBRANCH   5   8
BRANCH   5  11
ATOM     11  O   UNL     1     140.841 141.957 146.566  1.00  0.00    -0.389 OA
ATOM     12  H   UNL     1     141.229 141.103 146.236  1.00  0.00     0.211 HD
ENDBRANCH   5  11
TORSDOF 2
ENDMDL
MODEL 4
REMARK VINA RESULT:    -4.236      1.208      4.224
REMARK INTER + INTRA:          -4.782
REMARK INTER:                  -4.607
REMARK INTRA:                  -0.174
REMARK UNBOUND:                -0.175
REMARK SMILES CC1=CC[C@@](O)(C(C)C)CC1
REMARK SMILES IDX 1 1 2 2 3 3 4 4 5 5 10 6 11 7 7 8 8 9 9 10 6 11
REMARK H PARENT 6 12
REMARK Flexibility Score: inf
ROOT
ATOM      1  C   UNL     1     137.242 143.183 148.662  1.00  0.00     0.039 C 
ATOM      2  C   UNL     1     137.994 142.364 147.650  1.00  0.00    -0.077 C 
ATOM      3  C   UNL     1     138.856 141.418 148.056  1.00  0.00    -0.025 C 
ATOM      4  C   UNL     1     139.671 140.680 147.033  1.00  0.00     0.062 C 
ATOM      5  C   UNL     1     140.264 141.700 146.021  1.00  0.00     0.071 C 
ATOM      6  C   UNL     1     139.105 142.521 145.353  1.00  0.00     0.040 C 
ATOM      7  C   UNL     1     137.786 142.576 146.166  1.00  0.00     0.033 C 
ENDROOT
BRANCH   5   8
ATOM      8  C   UNL     1     141.177 140.983 144.958  1.00  0.00     0.015 C 
ATOM      9  C   UNL     1     140.491 140.883 143.583  1.00  0.00     0.010 C 
ATOM     10  C   UNL     1     141.700 139.598 145.388  1.00  0.00     0.010 C 
ENDBRANCH   5   8
BRANCH   5  11
ATOM     11  O   UNL     1     141.058 142.623 146.739  1.00  0.00    -0.389 OA
ATOM     12  H   UNL     1     141.471 143.252 146.089  1.00  0.00     0.211 HD
ENDBRANCH   5  11
TORSDOF 2
ENDMDL
MODEL 5
REMARK VINA RESULT:    -4.224      2.188      4.026
REMARK INTER + INTRA:          -4.769
REMARK INTER:                  -4.662
REMARK INTRA:                  -0.107
REMARK UNBOUND:                -0.175
REMARK SMILES CC1=CC[C@@](O)(C(C)C)CC1
REMARK SMILES IDX 1 1 2 2 3 3 4 4 5 5 10 6 11 7 7 8 8 9 9 10 6 11
REMARK H PARENT 6 12
REMARK Flexibility Score: inf
ROOT
ATOM      1  C   UNL     1     140.086 144.487 148.269  1.00  0.00     0.039 C 
ATOM      2  C   UNL     1     140.211 143.123 147.648  1.00  0.00    -0.077 C 
ATOM      3  C   UNL     1     140.512 143.002 146.345  1.00  0.00    -0.025 C 
ATOM      4  C   UNL     1     140.533 141.635 145.722  1.00  0.00     0.062 C 
ATOM      5  C   UNL     1     139.265 140.853 146.165  1.00  0.00     0.071 C 
ATOM      6  C   UNL     1     139.211 140.772 147.731  1.00  0.00     0.040 C 
ATOM      7  C   UNL     1     140.013 141.871 148.474  1.00  0.00     0.033 C 
ENDROOT
BRANCH   5   8
ATOM      8  C   UNL     1     139.208 139.432 145.491  1.00  0.00     0.015 C 
ATOM      9  C   UNL     1     138.521 139.475 144.114  1.00  0.00     0.010 C 
ATOM     10  C   UNL     1     138.573 138.330 146.362  1.00  0.00     0.010 C 
ENDBRANCH   5   8
BRANCH   5  11
ATOM     11  O   UNL     1     138.128 141.587 145.753  1.00  0.00    -0.389 OA
ATOM     12  H   UNL     1     137.562 140.995 145.190  1.00  0.00     0.211 HD
ENDBRANCH   5  11
TORSDOF 2
ENDMDL
MODEL 6
REMARK VINA RESULT:    -4.207      1.881      2.407
REMARK INTER + INTRA:          -4.751
REMARK INTER:                  -4.637
REMARK INTRA:                  -0.114
REMARK UNBOUND:                -0.175
REMARK SMILES CC1=CC[C@@](O)(C(C)C)CC1
REMARK SMILES IDX 1 1 2 2 3 3 4 4 5 5 10 6 11 7 7 8 8 9 9 10 6 11
REMARK H PARENT 6 12
REMARK Flexibility Score: inf
ROOT
ATOM      1  C   UNL     1     140.316 138.933 143.600  1.00  0.00     0.039 C 
ATOM      2  C   UNL     1     140.222 139.709 144.884  1.00  0.00    -0.077 C 
ATOM      3  C   UNL     1     139.344 139.340 145.831  1.00  0.00    -0.025 C 
ATOM      4  C   UNL     1     139.194 140.187 147.063  1.00  0.00     0.062 C 
ATOM      5  C   UNL     1     139.102 141.681 146.646  1.00  0.00     0.071 C 
ATOM      6  C   UNL     1     140.375 142.082 145.821  1.00  0.00     0.040 C 
ATOM      7  C   UNL     1     141.116 140.903 145.140  1.00  0.00     0.033 C 
ENDROOT
BRANCH   5   8
ATOM      8  C   UNL     1     138.885 142.609 147.899  1.00  0.00     0.015 C 
ATOM      9  C   UNL     1     137.410 143.014 148.067  1.00  0.00     0.010 C 
ATOM     10  C   UNL     1     139.783 143.861 147.937  1.00  0.00     0.010 C 
ENDBRANCH   5   8
BRANCH   5  11
ATOM     11  O   UNL     1     137.991 141.831 145.785  1.00  0.00    -0.389 OA
ATOM     12  H   UNL     1     137.366 141.075 145.945  1.00  0.00     0.211 HD
ENDBRANCH   5  11
TORSDOF 2
ENDMDL
MODEL 7
REMARK VINA RESULT:    -4.157      1.979      4.144
REMARK INTER + INTRA:          -4.697
REMARK INTER:                  -4.527
REMARK INTRA:                  -0.170
REMARK UNBOUND:                -0.175
REMARK SMILES CC1=CC[C@@](O)(C(C)C)CC1
REMARK SMILES IDX 1 1 2 2 3 3 4 4 5 5 10 6 11 7 7 8 8 9 9 10 6 11
REMARK H PARENT 6 12
REMARK Flexibility Score: inf
ROOT
ATOM      1  C   UNL     1     139.985 144.379 148.206  1.00  0.00     0.039 C 
ATOM      2  C   UNL     1     139.513 143.024 147.758  1.00  0.00    -0.077 C 
ATOM      3  C   UNL     1     139.959 141.918 148.375  1.00  0.00    -0.025 C 
ATOM      4  C   UNL     1     139.555 140.570 147.849  1.00  0.00     0.062 C 
ATOM      5  C   UNL     1     139.721 140.556 146.303  1.00  0.00     0.071 C 
ATOM      6  C   UNL     1     138.864 141.705 145.666  1.00  0.00     0.040 C 
ATOM      7  C   UNL     1     138.526 142.879 146.620  1.00  0.00     0.033 C 
ENDROOT
BRANCH   5   8
ATOM      8  C   UNL     1     139.366 139.144 145.706  1.00  0.00     0.015 C 
ATOM      9  C   UNL     1     138.591 139.257 144.380  1.00  0.00     0.010 C 
ATOM     10  C   UNL     1     138.621 138.203 146.673  1.00  0.00     0.010 C 
ENDBRANCH   5   8
BRANCH   5  11
ATOM     11  O   UNL     1     141.074 140.838 146.003  1.00  0.00    -0.389 OA
ATOM     12  H   UNL     1     141.425 140.109 145.427  1.00  0.00     0.211 HD
ENDBRANCH   5  11
TORSDOF 2
ENDMDL
MODEL 8
REMARK VINA RESULT:    -4.091      1.817      4.250
REMARK INTER + INTRA:          -4.624
REMARK INTER:                  -4.515
REMARK INTRA:                  -0.109
REMARK UNBOUND:                -0.175
REMARK SMILES CC1=CC[C@@](O)(C(C)C)CC1
REMARK SMILES IDX 1 1 2 2 3 3 4 4 5 5 10 6 11 7 7 8 8 9 9 10 6 11
REMARK H PARENT 6 12
REMARK Flexibility Score: inf
ROOT
ATOM      1  C   UNL     1     137.007 143.022 148.373  1.00  0.00     0.039 C 
ATOM      2  C   UNL     1     138.297 142.528 147.778  1.00  0.00    -0.077 C 
ATOM      3  C   UNL     1     138.741 143.036 146.617  1.00  0.00    -0.025 C 
ATOM      4  C   UNL     1     139.978 142.459 145.989  1.00  0.00     0.062 C 
ATOM      5  C   UNL     1     139.890 140.908 146.021  1.00  0.00     0.071 C 
ATOM      6  C   UNL     1     139.710 140.416 147.501  1.00  0.00     0.040 C 
ATOM      7  C   UNL     1     139.121 141.467 148.476  1.00  0.00     0.033 C 
ENDROOT
BRANCH   5   8
ATOM      8  C   UNL     1     141.138 140.252 145.321  1.00  0.00     0.015 C 
ATOM      9  C   UNL     1     140.898 140.016 143.819  1.00  0.00     0.010 C 
ATOM     10  C   UNL     1     141.641 138.955 145.984  1.00  0.00     0.010 C 
ENDBRANCH   5   8
BRANCH   5  11
ATOM     11  O   UNL     1     138.728 140.517 145.316  1.00  0.00    -0.389 OA
ATOM     12  H   UNL     1     139.008 140.112 144.452  1.00  0.00     0.211 HD
ENDBRANCH   5  11
TORSDOF 2
ENDMDL
MODEL 9
REMARK VINA RESULT:    -4.036      1.669      4.153
REMARK INTER + INTRA:          -4.565
REMARK INTER:                  -4.435
REMARK INTRA:                  -0.130
REMARK UNBOUND:                -0.175
REMARK SMILES CC1=CC[C@@](O)(C(C)C)CC1
REMARK SMILES IDX 1 1 2 2 3 3 4 4 5 5 10 6 11 7 7 8 8 9 9 10 6 11
REMARK H PARENT 6 12
REMARK Flexibility Score: inf
ROOT
ATOM      1  C   UNL     1     139.892 141.502 148.754  1.00  0.00     0.039 C 
ATOM      2  C   UNL     1     139.457 142.095 147.443  1.00  0.00    -0.077 C 
ATOM      3  C   UNL     1     138.150 142.248 147.174  1.00  0.00    -0.025 C 
ATOM      4  C   UNL     1     137.734 142.748 145.820  1.00  0.00     0.062 C 
ATOM      5  C   UNL     1     138.533 141.986 144.726  1.00  0.00     0.071 C 
ATOM      6  C   UNL     1     140.072 142.175 144.964  1.00  0.00     0.040 C 
ATOM      7  C   UNL     1     140.473 142.542 146.415  1.00  0.00     0.033 C 
ENDROOT
BRANCH   5   8
ATOM      8  C   UNL     1     138.091 142.433 143.283  1.00  0.00     0.015 C 
ATOM      9  C   UNL     1     137.101 143.611 143.323  1.00  0.00     0.010 C 
ATOM     10  C   UNL     1     137.527 141.300 142.402  1.00  0.00     0.010 C 
ENDBRANCH   5   8
BRANCH   5  11
ATOM     11  O   UNL     1     138.263 140.605 144.866  1.00  0.00    -0.389 OA
ATOM     12  H   UNL     1     138.499 140.332 145.792  1.00  0.00     0.211 HD
ENDBRANCH   5  11
TORSDOF 2
ENDMDL
