MODEL 1
REMARK VINA RESULT:    -3.334      0.000      0.000
REMARK INTER + INTRA:          -3.550
REMARK INTER:                  -3.528
REMARK INTRA:                  -0.021
REMARK UNBOUND:                -0.021
REMARK SMILES O=C([O-])c1cccnc1
REMARK SMILES IDX 4 1 5 2 9 3 6 4 8 5 7 6 2 7 1 8 3 9
REMARK H PARENT
REMARK Flexibility Score: inf
ROOT
ATOM      1  C   UNL     1      63.777  35.221  61.187  1.00  0.00     0.016 A 
ATOM      2  C   UNL     1      62.471  35.682  60.943  1.00  0.00     0.013 A 
ATOM      3  C   UNL     1      64.053  33.859  60.978  1.00  0.00     0.120 A 
ATOM      4  C   UNL     1      61.486  34.797  60.504  1.00  0.00     0.021 A 
ATOM      5  N   UNL     1      63.075  33.018  60.548  1.00  0.00    -0.264 NA
ATOM      6  C   UNL     1      61.809  33.453  60.309  1.00  0.00     0.111 A 
ENDROOT
BRANCH   1   7
ATOM      7  C   UNL     1      64.835  36.143  61.654  1.00  0.00     0.073 C 
ATOM      8  O   UNL     1      64.561  37.086  62.441  1.00  0.00    -0.545 OA
ATOM      9  O   UNL     1      66.148  35.979  61.227  1.00  0.00    -0.545 OA
ENDBRANCH   1   7
TORSDOF 1
ENDMDL
MODEL 2
REMARK VINA RESULT:    -3.249     14.842     16.005
REMARK INTER + INTRA:          -3.460
REMARK INTER:                  -3.441
REMARK INTRA:                  -0.019
REMARK UNBOUND:                -0.021
REMARK SMILES O=C([O-])c1cccnc1
REMARK SMILES IDX 4 1 5 2 9 3 6 4 8 5 7 6 2 7 1 8 3 9
REMARK H PARENT
REMARK Flexibility Score: inf
ROOT
ATOM      1  C   UNL     1      55.182  27.597  50.093  1.00  0.00     0.016 A 
ATOM      2  C   UNL     1      53.895  28.124  49.890  1.00  0.00     0.013 A 
ATOM      3  C   UNL     1      55.407  26.245  49.781  1.00  0.00     0.120 A 
ATOM      4  C   UNL     1      52.875  27.312  49.390  1.00  0.00     0.021 A 
ATOM      5  N   UNL     1      54.397  25.476  49.294  1.00  0.00    -0.264 NA
ATOM      6  C   UNL     1      53.148  25.976  49.095  1.00  0.00     0.111 A 
ENDROOT
BRANCH   1   7
ATOM      7  C   UNL     1      56.275  28.441  50.622  1.00  0.00     0.073 C 
ATOM      8  O   UNL     1      57.409  28.439  50.074  1.00  0.00    -0.545 OA
ATOM      9  O   UNL     1      56.064  29.249  51.734  1.00  0.00    -0.545 OA
ENDBRANCH   1   7
TORSDOF 1
ENDMDL
MODEL 3
REMARK VINA RESULT:    -3.247      3.004      3.702
REMARK INTER + INTRA:          -3.458
REMARK INTER:                  -3.439
REMARK INTRA:                  -0.018
REMARK UNBOUND:                -0.021
REMARK SMILES O=C([O-])c1cccnc1
REMARK SMILES IDX 4 1 5 2 9 3 6 4 8 5 7 6 2 7 1 8 3 9
REMARK H PARENT
REMARK Flexibility Score: inf
ROOT
ATOM      1  C   UNL     1      62.737  34.469  60.750  1.00  0.00     0.016 A 
ATOM      2  C   UNL     1      62.278  35.784  60.939  1.00  0.00     0.013 A 
ATOM      3  C   UNL     1      64.076  34.179  61.061  1.00  0.00     0.120 A 
ATOM      4  C   UNL     1      63.143  36.766  61.426  1.00  0.00     0.021 A 
ATOM      5  N   UNL     1      64.898  35.153  61.534  1.00  0.00    -0.264 NA
ATOM      6  C   UNL     1      64.464  36.428  61.721  1.00  0.00     0.111 A 
ENDROOT
BRANCH   1   7
ATOM      7  C   UNL     1      61.836  33.416  60.235  1.00  0.00     0.073 C 
ATOM      8  O   UNL     1      61.231  33.568  59.140  1.00  0.00    -0.545 OA
ATOM      9  O   UNL     1      61.644  32.242  60.955  1.00  0.00    -0.545 OA
ENDBRANCH   1   7
TORSDOF 1
ENDMDL
MODEL 4
REMARK VINA RESULT:    -3.226      2.805      3.489
REMARK INTER + INTRA:          -3.436
REMARK INTER:                  -3.413
REMARK INTRA:                  -0.023
REMARK UNBOUND:                -0.021
REMARK SMILES O=C([O-])c1cccnc1
REMARK SMILES IDX 4 1 5 2 9 3 6 4 8 5 7 6 2 7 1 8 3 9
REMARK H PARENT
REMARK Flexibility Score: inf
ROOT
ATOM      1  C   UNL     1      63.206  34.601  60.987  1.00  0.00     0.016 A 
ATOM      2  C   UNL     1      62.391  35.746  60.950  1.00  0.00     0.013 A 
ATOM      3  C   UNL     1      64.525  34.737  61.452  1.00  0.00     0.120 A 
ATOM      4  C   UNL     1      62.893  36.979  61.369  1.00  0.00     0.021 A 
ATOM      5  N   UNL     1      64.990  35.949  61.856  1.00  0.00    -0.264 NA
ATOM      6  C   UNL     1      64.210  37.062  61.824  1.00  0.00     0.111 A 
ENDROOT
BRANCH   1   7
ATOM      7  C   UNL     1      62.692  33.286  60.546  1.00  0.00     0.073 C 
ATOM      8  O   UNL     1      61.453  33.069  60.489  1.00  0.00    -0.545 OA
ATOM      9  O   UNL     1      63.573  32.271  60.190  1.00  0.00    -0.545 OA
ENDBRANCH   1   7
TORSDOF 1
ENDMDL
MODEL 5
REMARK VINA RESULT:    -3.222      2.841      3.818
REMARK INTER + INTRA:          -3.431
REMARK INTER:                  -3.407
REMARK INTRA:                  -0.024
REMARK UNBOUND:                -0.021
REMARK SMILES O=C([O-])c1cccnc1
REMARK SMILES IDX 4 1 5 2 9 3 6 4 8 5 7 6 2 7 1 8 3 9
REMARK H PARENT
REMARK Flexibility Score: inf
ROOT
ATOM      1  C   UNL     1      63.170  34.567  60.998  1.00  0.00     0.016 A 
ATOM      2  C   UNL     1      64.490  34.710  61.459  1.00  0.00     0.013 A 
ATOM      3  C   UNL     1      62.351  35.708  60.955  1.00  0.00     0.120 A 
ATOM      4  C   UNL     1      64.961  35.962  61.859  1.00  0.00     0.021 A 
ATOM      5  N   UNL     1      62.834  36.915  61.350  1.00  0.00    -0.264 NA
ATOM      6  C   UNL     1      64.110  37.065  61.797  1.00  0.00     0.111 A 
ENDROOT
BRANCH   1   7
ATOM      7  C   UNL     1      62.652  33.249  60.570  1.00  0.00     0.073 C 
ATOM      8  O   UNL     1      61.458  33.122  60.192  1.00  0.00    -0.545 OA
ATOM      9  O   UNL     1      63.480  32.132  60.580  1.00  0.00    -0.545 OA
ENDBRANCH   1   7
TORSDOF 1
ENDMDL
MODEL 6
REMARK VINA RESULT:    -3.170     14.715     15.836
REMARK INTER + INTRA:          -3.377
REMARK INTER:                  -3.356
REMARK INTRA:                  -0.021
REMARK UNBOUND:                -0.021
REMARK SMILES O=C([O-])c1cccnc1
REMARK SMILES IDX 4 1 5 2 9 3 6 4 8 5 7 6 2 7 1 8 3 9
REMARK H PARENT
REMARK Flexibility Score: inf
ROOT
ATOM      1  C   UNL     1      55.606  27.408  50.110  1.00  0.00     0.016 A 
ATOM      2  C   UNL     1      54.487  28.259  50.099  1.00  0.00     0.013 A 
ATOM      3  C   UNL     1      55.439  26.082  49.677  1.00  0.00     0.120 A 
ATOM      4  C   UNL     1      53.249  27.784  49.665  1.00  0.00     0.021 A 
ATOM      5  N   UNL     1      54.222  25.644  49.259  1.00  0.00    -0.264 NA
ATOM      6  C   UNL     1      53.134  26.459  49.244  1.00  0.00     0.111 A 
ENDROOT
BRANCH   1   7
ATOM      7  C   UNL     1      56.926  27.893  50.567  1.00  0.00     0.073 C 
ATOM      8  O   UNL     1      57.321  29.052  50.272  1.00  0.00    -0.545 OA
ATOM      9  O   UNL     1      57.751  27.073  51.329  1.00  0.00    -0.545 OA
ENDBRANCH   1   7
TORSDOF 1
ENDMDL
MODEL 7
REMARK VINA RESULT:    -3.165     15.137     16.219
REMARK INTER + INTRA:          -3.371
REMARK INTER:                  -3.347
REMARK INTRA:                  -0.024
REMARK UNBOUND:                -0.021
REMARK SMILES O=C([O-])c1cccnc1
REMARK SMILES IDX 4 1 5 2 9 3 6 4 8 5 7 6 2 7 1 8 3 9
REMARK H PARENT
REMARK Flexibility Score: inf
ROOT
ATOM      1  C   UNL     1      54.660  27.548  50.039  1.00  0.00     0.016 A 
ATOM      2  C   UNL     1      53.372  27.967  49.663  1.00  0.00     0.013 A 
ATOM      3  C   UNL     1      55.447  28.422  50.809  1.00  0.00     0.120 A 
ATOM      4  C   UNL     1      52.901  29.221  50.052  1.00  0.00     0.021 A 
ATOM      5  N   UNL     1      54.964  29.638  51.176  1.00  0.00    -0.264 NA
ATOM      6  C   UNL     1      53.720  30.053  50.817  1.00  0.00     0.111 A 
ENDROOT
BRANCH   1   7
ATOM      7  C   UNL     1      55.177  26.223  49.636  1.00  0.00     0.073 C 
ATOM      8  O   UNL     1      54.485  25.457  48.915  1.00  0.00    -0.545 OA
ATOM      9  O   UNL     1      56.438  25.805  50.049  1.00  0.00    -0.545 OA
ENDBRANCH   1   7
TORSDOF 1
ENDMDL
MODEL 8
REMARK VINA RESULT:    -3.072      3.755      4.519
REMARK INTER + INTRA:          -3.273
REMARK INTER:                  -3.257
REMARK INTRA:                  -0.016
REMARK UNBOUND:                -0.021
REMARK SMILES O=C([O-])c1cccnc1
REMARK SMILES IDX 4 1 5 2 9 3 6 4 8 5 7 6 2 7 1 8 3 9
REMARK H PARENT
REMARK Flexibility Score: inf
ROOT
ATOM      1  C   UNL     1      62.064  32.470  60.622  1.00  0.00     0.016 A 
ATOM      2  C   UNL     1      61.767  33.843  60.563  1.00  0.00     0.013 A 
ATOM      3  C   UNL     1      63.414  32.079  60.619  1.00  0.00     0.120 A 
ATOM      4  C   UNL     1      62.798  34.781  60.504  1.00  0.00     0.021 A 
ATOM      5  N   UNL     1      64.399  33.013  60.561  1.00  0.00    -0.264 NA
ATOM      6  C   UNL     1      64.123  34.343  60.504  1.00  0.00     0.111 A 
ENDROOT
BRANCH   1   7
ATOM      7  C   UNL     1      60.985  31.460  60.684  1.00  0.00     0.073 C 
ATOM      8  O   UNL     1      60.375  31.109  59.640  1.00  0.00    -0.545 OA
ATOM      9  O   UNL     1      60.631  30.885  61.900  1.00  0.00    -0.545 OA
ENDBRANCH   1   7
TORSDOF 1
ENDMDL
MODEL 9
REMARK VINA RESULT:    -3.061     14.717     15.548
REMARK INTER + INTRA:          -3.261
REMARK INTER:                  -3.242
REMARK INTRA:                  -0.019
REMARK UNBOUND:                -0.021
REMARK SMILES O=C([O-])c1cccnc1
REMARK SMILES IDX 4 1 5 2 9 3 6 4 8 5 7 6 2 7 1 8 3 9
REMARK H PARENT
REMARK Flexibility Score: inf
ROOT
ATOM      1  C   UNL     1      56.681  26.871  50.125  1.00  0.00     0.016 A 
ATOM      2  C   UNL     1      55.496  26.205  49.766  1.00  0.00     0.013 A 
ATOM      3  C   UNL     1      56.603  28.231  50.472  1.00  0.00     0.120 A 
ATOM      4  C   UNL     1      54.280  26.890  49.760  1.00  0.00     0.021 A 
ATOM      5  N   UNL     1      55.406  28.875  50.459  1.00  0.00    -0.264 NA
ATOM      6  C   UNL     1      54.254  28.240  50.114  1.00  0.00     0.111 A 
ENDROOT
BRANCH   1   7
ATOM      7  C   UNL     1      57.979  26.162  50.136  1.00  0.00     0.073 C 
ATOM      8  O   UNL     1      58.122  25.098  50.794  1.00  0.00    -0.545 OA
ATOM      9  O   UNL     1      59.059  26.664  49.419  1.00  0.00    -0.545 OA
ENDBRANCH   1   7
TORSDOF 1
ENDMDL
