MODEL 1
REMARK VINA RESULT:    -4.246      0.000      0.000
REMARK INTER + INTRA:          -6.074
REMARK INTER:                  -5.487
REMARK INTRA:                  -0.587
REMARK UNBOUND:                -0.587
REMARK SMILES C=CC(=O)CCCCC
REMARK SMILES IDX 6 1 7 2 8 3 9 4 5 5 3 6 4 7 2 8 1 9
REMARK H PARENT
REMARK Flexibility Score: inf
ROOT
ATOM      1  C   UNL     1      -1.334 -20.920 -10.761  1.00  0.00     0.008 C 
ENDROOT
BRANCH   1   2
ATOM      2  C   UNL     1      -1.822 -21.073 -12.213  1.00  0.00     0.000 C 
BRANCH   2   3
ATOM      3  C   UNL     1      -3.029 -20.192 -12.586  1.00  0.00    -0.003 C 
ATOM      4  C   UNL     1      -4.366 -20.798 -12.161  1.00  0.00     0.004 C 
ENDBRANCH   2   3
ENDBRANCH   1   2
BRANCH   1   5
ATOM      5  C   UNL     1      -1.319 -22.252  -9.991  1.00  0.00     0.080 C 
BRANCH   5   6
ATOM      6  C   UNL     1      -2.693 -22.681  -9.529  1.00  0.00     0.155 C 
ATOM      7  O   UNL     1      -3.333 -21.971  -8.707  1.00  0.00    -0.295 OA
BRANCH   6   8
ATOM      8  C   UNL     1      -3.315 -23.938  -9.995  1.00  0.00     0.039 C 
ATOM      9  C   UNL     1      -3.336 -24.320 -11.272  1.00  0.00     0.012 C 
ENDBRANCH   6   8
ENDBRANCH   5   6
ENDBRANCH   1   5
TORSDOF 5
ENDMDL
MODEL 2
REMARK VINA RESULT:    -4.105      1.984      2.590
REMARK INTER + INTRA:          -5.892
REMARK INTER:                  -5.325
REMARK INTRA:                  -0.567
REMARK UNBOUND:                -0.587
REMARK SMILES C=CC(=O)CCCCC
REMARK SMILES IDX 6 1 7 2 8 3 9 4 5 5 3 6 4 7 2 8 1 9
REMARK H PARENT
REMARK Flexibility Score: inf
ROOT
ATOM      1  C   UNL     1      -2.898 -22.152  -9.724  1.00  0.00     0.008 C 
ENDROOT
BRANCH   1   2
ATOM      2  C   UNL     1      -3.939 -21.792 -10.799  1.00  0.00     0.000 C 
BRANCH   2   3
ATOM      3  C   UNL     1      -3.358 -21.160 -12.078  1.00  0.00    -0.003 C 
ATOM      4  C   UNL     1      -2.068 -20.380 -11.826  1.00  0.00     0.004 C 
ENDBRANCH   2   3
ENDBRANCH   1   2
BRANCH   1   5
ATOM      5  C   UNL     1      -2.665 -23.669  -9.600  1.00  0.00     0.080 C 
BRANCH   5   6
ATOM      6  C   UNL     1      -1.209 -24.055  -9.730  1.00  0.00     0.155 C 
ATOM      7  O   UNL     1      -0.677 -24.810  -8.871  1.00  0.00    -0.295 OA
BRANCH   6   8
ATOM      8  C   UNL     1      -0.365 -23.552 -10.833  1.00  0.00     0.039 C 
ATOM      9  C   UNL     1      -0.545 -23.888 -12.110  1.00  0.00     0.012 C 
ENDBRANCH   6   8
ENDBRANCH   5   6
ENDBRANCH   1   5
TORSDOF 5
ENDMDL
MODEL 3
REMARK VINA RESULT:    -4.017      1.965      3.456
REMARK INTER + INTRA:          -5.778
REMARK INTER:                  -5.308
REMARK INTRA:                  -0.471
REMARK UNBOUND:                -0.587
REMARK SMILES C=CC(=O)CCCCC
REMARK SMILES IDX 6 1 7 2 8 3 9 4 5 5 3 6 4 7 2 8 1 9
REMARK H PARENT
REMARK Flexibility Score: inf
ROOT
ATOM      1  C   UNL     1      -1.289 -24.043  -9.569  1.00  0.00     0.008 C 
ENDROOT
BRANCH   1   2
ATOM      2  C   UNL     1      -0.319 -23.452 -10.608  1.00  0.00     0.000 C 
BRANCH   2   3
ATOM      3  C   UNL     1      -0.505 -23.979 -12.043  1.00  0.00    -0.003 C 
ATOM      4  C   UNL     1       0.445 -25.125 -12.387  1.00  0.00     0.004 C 
ENDBRANCH   2   3
ENDBRANCH   1   2
BRANCH   1   5
ATOM      5  C   UNL     1      -2.766 -23.892  -9.975  1.00  0.00     0.080 C 
BRANCH   5   6
ATOM      6  C   UNL     1      -3.262 -22.468  -9.872  1.00  0.00     0.155 C 
ATOM      7  O   UNL     1      -3.313 -21.896  -8.749  1.00  0.00    -0.295 OA
BRANCH   6   8
ATOM      8  C   UNL     1      -3.720 -21.714 -11.057  1.00  0.00     0.039 C 
ATOM      9  C   UNL     1      -2.903 -21.026 -11.854  1.00  0.00     0.012 C 
ENDBRANCH   6   8
ENDBRANCH   5   6
ENDBRANCH   1   5
TORSDOF 5
ENDMDL
MODEL 4
REMARK VINA RESULT:    -4.003      1.226      2.408
REMARK INTER + INTRA:          -5.760
REMARK INTER:                  -5.138
REMARK INTRA:                  -0.623
REMARK UNBOUND:                -0.587
REMARK SMILES C=CC(=O)CCCCC
REMARK SMILES IDX 6 1 7 2 8 3 9 4 5 5 3 6 4 7 2 8 1 9
REMARK H PARENT
REMARK Flexibility Score: inf
ROOT
ATOM      1  C   UNL     1      -3.752 -23.418 -12.458  1.00  0.00     0.008 C 
ENDROOT
BRANCH   1   2
ATOM      2  C   UNL     1      -2.705 -22.407 -12.960  1.00  0.00     0.000 C 
BRANCH   2   3
ATOM      3  C   UNL     1      -3.004 -20.938 -12.612  1.00  0.00    -0.003 C 
ATOM      4  C   UNL     1      -1.935 -20.305 -11.722  1.00  0.00     0.004 C 
ENDBRANCH   2   3
ENDBRANCH   1   2
BRANCH   1   5
ATOM      5  C   UNL     1      -3.199 -24.367 -11.380  1.00  0.00     0.080 C 
BRANCH   5   6
ATOM      6  C   UNL     1      -2.887 -23.663 -10.079  1.00  0.00     0.155 C 
ATOM      7  O   UNL     1      -3.790 -23.025  -9.474  1.00  0.00    -0.295 OA
BRANCH   6   8
ATOM      8  C   UNL     1      -1.531 -23.677  -9.492  1.00  0.00     0.039 C 
ATOM      9  C   UNL     1      -0.428 -23.376 -10.176  1.00  0.00     0.012 C 
ENDBRANCH   6   8
ENDBRANCH   5   6
ENDBRANCH   1   5
TORSDOF 5
ENDMDL
MODEL 5
REMARK VINA RESULT:    -3.845      1.815      2.313
REMARK INTER + INTRA:          -5.556
REMARK INTER:                  -5.022
REMARK INTRA:                  -0.535
REMARK UNBOUND:                -0.587
REMARK SMILES C=CC(=O)CCCCC
REMARK SMILES IDX 6 1 7 2 8 3 9 4 5 5 3 6 4 7 2 8 1 9
REMARK H PARENT
REMARK Flexibility Score: inf
ROOT
ATOM      1  C   UNL     1      -1.180 -22.636 -12.568  1.00  0.00     0.008 C 
ENDROOT
BRANCH   1   2
ATOM      2  C   UNL     1      -2.326 -22.511 -13.588  1.00  0.00     0.000 C 
BRANCH   2   3
ATOM      3  C   UNL     1      -3.447 -21.534 -13.187  1.00  0.00    -0.003 C 
ATOM      4  C   UNL     1      -2.919 -20.240 -12.568  1.00  0.00     0.004 C 
ENDBRANCH   2   3
ENDBRANCH   1   2
BRANCH   1   5
ATOM      5  C   UNL     1      -1.234 -23.947 -11.763  1.00  0.00     0.080 C 
BRANCH   5   6
ATOM      6  C   UNL     1      -2.415 -24.011 -10.821  1.00  0.00     0.155 C 
ATOM      7  O   UNL     1      -3.438 -24.678 -11.135  1.00  0.00    -0.295 OA
BRANCH   6   8
ATOM      8  C   UNL     1      -2.424 -23.289  -9.532  1.00  0.00     0.039 C 
ATOM      9  C   UNL     1      -3.069 -22.139  -9.335  1.00  0.00     0.012 C 
ENDBRANCH   6   8
ENDBRANCH   5   6
ENDBRANCH   1   5
TORSDOF 5
ENDMDL
MODEL 6
REMARK VINA RESULT:    -3.841      2.201      3.900
REMARK INTER + INTRA:          -5.551
REMARK INTER:                  -4.933
REMARK INTRA:                  -0.617
REMARK UNBOUND:                -0.587
REMARK SMILES C=CC(=O)CCCCC
REMARK SMILES IDX 6 1 7 2 8 3 9 4 5 5 3 6 4 7 2 8 1 9
REMARK H PARENT
REMARK Flexibility Score: inf
ROOT
ATOM      1  C   UNL     1      -1.291 -23.248 -11.419  1.00  0.00     0.008 C 
ENDROOT
BRANCH   1   2
ATOM      2  C   UNL     1      -2.475 -24.147 -11.020  1.00  0.00     0.000 C 
BRANCH   2   3
ATOM      3  C   UNL     1      -3.345 -23.602  -9.873  1.00  0.00    -0.003 C 
ATOM      4  C   UNL     1      -2.728 -22.388  -9.179  1.00  0.00     0.004 C 
ENDBRANCH   2   3
ENDBRANCH   1   2
BRANCH   1   5
ATOM      5  C   UNL     1      -1.288 -22.889 -12.916  1.00  0.00     0.080 C 
BRANCH   5   6
ATOM      6  C   UNL     1      -2.516 -22.115 -13.339  1.00  0.00     0.155 C 
ATOM      7  O   UNL     1      -3.197 -22.503 -14.327  1.00  0.00    -0.295 OA
BRANCH   6   8
ATOM      8  C   UNL     1      -2.944 -20.887 -12.638  1.00  0.00     0.039 C 
ATOM      9  C   UNL     1      -4.163 -20.716 -12.127  1.00  0.00     0.012 C 
ENDBRANCH   6   8
ENDBRANCH   5   6
ENDBRANCH   1   5
TORSDOF 5
ENDMDL
MODEL 7
REMARK VINA RESULT:    -3.719      1.867      2.327
REMARK INTER + INTRA:          -5.392
REMARK INTER:                  -4.889
REMARK INTRA:                  -0.504
REMARK UNBOUND:                -0.587
REMARK SMILES C=CC(=O)CCCCC
REMARK SMILES IDX 6 1 7 2 8 3 9 4 5 5 3 6 4 7 2 8 1 9
REMARK H PARENT
REMARK Flexibility Score: inf
ROOT
ATOM      1  C   UNL     1      -2.552 -21.836  -9.775  1.00  0.00     0.008 C 
ENDROOT
BRANCH   1   2
ATOM      2  C   UNL     1      -1.590 -21.055 -10.689  1.00  0.00     0.000 C 
BRANCH   2   3
ATOM      3  C   UNL     1      -2.227 -20.502 -11.977  1.00  0.00    -0.003 C 
ATOM      4  C   UNL     1      -3.688 -20.918 -12.149  1.00  0.00     0.004 C 
ENDBRANCH   2   3
ENDBRANCH   1   2
BRANCH   1   5
ATOM      5  C   UNL     1      -2.125 -23.300  -9.569  1.00  0.00     0.080 C 
BRANCH   5   6
ATOM      6  C   UNL     1      -2.126 -24.101 -10.851  1.00  0.00     0.155 C 
ATOM      7  O   UNL     1      -3.219 -24.454 -11.374  1.00  0.00    -0.295 OA
BRANCH   6   8
ATOM      8  C   UNL     1      -0.873 -24.514 -11.514  1.00  0.00     0.039 C 
ATOM      9  C   UNL     1       0.339 -24.171 -11.078  1.00  0.00     0.012 C 
ENDBRANCH   6   8
ENDBRANCH   5   6
ENDBRANCH   1   5
TORSDOF 5
ENDMDL
MODEL 8
REMARK VINA RESULT:    -3.664      2.116      4.244
REMARK INTER + INTRA:          -5.322
REMARK INTER:                  -4.946
REMARK INTRA:                  -0.376
REMARK UNBOUND:                -0.587
REMARK SMILES C=CC(=O)CCCCC
REMARK SMILES IDX 6 1 7 2 8 3 9 4 5 5 3 6 4 7 2 8 1 9
REMARK H PARENT
REMARK Flexibility Score: inf
ROOT
ATOM      1  C   UNL     1      -3.173 -23.621  -9.878  1.00  0.00     0.008 C 
ENDROOT
BRANCH   1   2
ATOM      2  C   UNL     1      -1.736 -23.201  -9.521  1.00  0.00     0.000 C 
BRANCH   2   3
ATOM      3  C   UNL     1      -0.754 -24.367  -9.305  1.00  0.00    -0.003 C 
ATOM      4  C   UNL     1       0.360 -24.412 -10.350  1.00  0.00     0.004 C 
ENDBRANCH   2   3
ENDBRANCH   1   2
BRANCH   1   5
ATOM      5  C   UNL     1      -3.363 -23.890 -11.381  1.00  0.00     0.080 C 
BRANCH   5   6
ATOM      6  C   UNL     1      -2.930 -22.729 -12.247  1.00  0.00     0.155 C 
ATOM      7  O   UNL     1      -1.940 -22.851 -13.018  1.00  0.00    -0.295 OA
BRANCH   6   8
ATOM      8  C   UNL     1      -3.624 -21.425 -12.206  1.00  0.00     0.039 C 
ATOM      9  C   UNL     1      -3.028 -20.265 -12.482  1.00  0.00     0.012 C 
ENDBRANCH   6   8
ENDBRANCH   5   6
ENDBRANCH   1   5
TORSDOF 5
ENDMDL
MODEL 9
REMARK VINA RESULT:    -3.525      2.964      4.169
REMARK INTER + INTRA:          -5.143
REMARK INTER:                  -4.873
REMARK INTRA:                  -0.270
REMARK UNBOUND:                -0.587
REMARK SMILES C=CC(=O)CCCCC
REMARK SMILES IDX 6 1 7 2 8 3 9 4 5 5 3 6 4 7 2 8 1 9
REMARK H PARENT
REMARK Flexibility Score: inf
ROOT
ATOM      1  C   UNL     1       0.217 -23.959 -10.684  1.00  0.00     0.008 C 
ENDROOT
BRANCH   1   2
ATOM      2  C   UNL     1       0.097 -24.766 -11.990  1.00  0.00     0.000 C 
BRANCH   2   3
ATOM      3  C   UNL     1       1.402 -25.435 -12.460  1.00  0.00    -0.003 C 
ATOM      4  C   UNL     1       2.226 -26.012 -11.309  1.00  0.00     0.004 C 
ENDBRANCH   2   3
ENDBRANCH   1   2
BRANCH   1   5
ATOM      5  C   UNL     1      -0.741 -24.453  -9.585  1.00  0.00     0.080 C 
BRANCH   5   6
ATOM      6  C   UNL     1      -1.988 -23.606  -9.467  1.00  0.00     0.155 C 
ATOM      7  O   UNL     1      -1.964 -22.535  -8.801  1.00  0.00    -0.295 OA
BRANCH   6   8
ATOM      8  C   UNL     1      -3.264 -24.005 -10.095  1.00  0.00     0.039 C 
ATOM      9  C   UNL     1      -3.405 -24.228 -11.402  1.00  0.00     0.012 C 
ENDBRANCH   6   8
ENDBRANCH   5   6
ENDBRANCH   1   5
TORSDOF 5
ENDMDL
