MODEL 1
REMARK VINA RESULT:    -3.383      0.000      0.000
REMARK INTER + INTRA:          -4.038
REMARK INTER:                  -3.976
REMARK INTRA:                  -0.063
REMARK UNBOUND:                -0.063
REMARK SMILES CCCCC(=O)[O-]
REMARK SMILES IDX 4 1 5 2 6 3 7 4 3 5 2 6 1 7
REMARK H PARENT
REMARK Flexibility Score: inf
ROOT
ATOM      1  C   UNL     1      -1.536   6.171  -0.109  1.00  0.00     0.053 C 
ENDROOT
BRANCH   1   2
ATOM      2  C   UNL     1      -0.504   6.734  -1.033  1.00  0.00     0.041 C 
ATOM      3  O   UNL     1      -0.769   6.906  -2.251  1.00  0.00    -0.550 OA
ATOM      4  O   UNL     1       0.770   7.024  -0.558  1.00  0.00    -0.550 OA
ENDBRANCH   1   2
BRANCH   1   5
ATOM      5  C   UNL     1      -2.498   5.257  -0.872  1.00  0.00     0.006 C 
BRANCH   5   6
ATOM      6  C   UNL     1      -3.929   5.806  -0.828  1.00  0.00    -0.003 C 
ATOM      7  C   UNL     1      -4.666   5.529  -2.135  1.00  0.00     0.004 C 
ENDBRANCH   5   6
ENDBRANCH   1   5
TORSDOF 3
ENDMDL
MODEL 2
REMARK VINA RESULT:    -3.255      1.482      1.660
REMARK INTER + INTRA:          -3.888
REMARK INTER:                  -3.817
REMARK INTRA:                  -0.071
REMARK UNBOUND:                -0.063
REMARK SMILES CCCCC(=O)[O-]
REMARK SMILES IDX 4 1 5 2 6 3 7 4 3 5 2 6 1 7
REMARK H PARENT
REMARK Flexibility Score: inf
ROOT
ATOM      1  C   UNL     1      -1.593   5.961  -2.013  1.00  0.00     0.053 C 
ENDROOT
BRANCH   1   2
ATOM      2  C   UNL     1      -0.955   6.293  -0.701  1.00  0.00     0.041 C 
ATOM      3  O   UNL     1      -1.619   6.215   0.365  1.00  0.00    -0.550 OA
ATOM      4  O   UNL     1       0.362   6.736  -0.661  1.00  0.00    -0.550 OA
ENDBRANCH   1   2
BRANCH   1   5
ATOM      5  C   UNL     1      -2.992   6.577  -2.100  1.00  0.00     0.006 C 
BRANCH   5   6
ATOM      6  C   UNL     1      -4.075   5.508  -1.910  1.00  0.00    -0.003 C 
ATOM      7  C   UNL     1      -5.061   5.911  -0.817  1.00  0.00     0.004 C 
ENDBRANCH   5   6
ENDBRANCH   1   5
TORSDOF 3
ENDMDL
MODEL 3
REMARK VINA RESULT:    -3.247     12.402     13.583
REMARK INTER + INTRA:          -3.878
REMARK INTER:                  -3.830
REMARK INTRA:                  -0.048
REMARK UNBOUND:                -0.063
REMARK SMILES CCCCC(=O)[O-]
REMARK SMILES IDX 4 1 5 2 6 3 7 4 3 5 2 6 1 7
REMARK H PARENT
REMARK Flexibility Score: inf
ROOT
ATOM      1  C   UNL     1      -8.256  -4.678  -4.930  1.00  0.00     0.053 C 
ENDROOT
BRANCH   1   2
ATOM      2  C   UNL     1      -8.257  -3.453  -4.070  1.00  0.00     0.041 C 
ATOM      3  O   UNL     1      -9.100  -3.330  -3.144  1.00  0.00    -0.550 OA
ATOM      4  O   UNL     1      -7.358  -2.425  -4.325  1.00  0.00    -0.550 OA
ENDBRANCH   1   2
BRANCH   1   5
ATOM      5  C   UNL     1      -8.298  -5.941  -4.067  1.00  0.00     0.006 C 
BRANCH   5   6
ATOM      6  C   UNL     1      -9.550  -6.772  -4.368  1.00  0.00    -0.003 C 
ATOM      7  C   UNL     1      -9.236  -8.265  -4.359  1.00  0.00     0.004 C 
ENDBRANCH   5   6
ENDBRANCH   1   5
TORSDOF 3
ENDMDL
MODEL 4
REMARK VINA RESULT:    -3.195     14.503     15.097
REMARK INTER + INTRA:          -3.818
REMARK INTER:                  -3.778
REMARK INTRA:                  -0.039
REMARK UNBOUND:                -0.063
REMARK SMILES CCCCC(=O)[O-]
REMARK SMILES IDX 4 1 5 2 6 3 7 4 3 5 2 6 1 7
REMARK H PARENT
REMARK Flexibility Score: inf
ROOT
ATOM      1  C   UNL     1       2.057  -5.665  -9.084  1.00  0.00     0.053 C 
ENDROOT
BRANCH   1   2
ATOM      2  C   UNL     1       1.811  -4.496  -8.184  1.00  0.00     0.041 C 
ATOM      3  O   UNL     1       1.983  -4.605  -6.942  1.00  0.00    -0.550 OA
ATOM      4  O   UNL     1       1.342  -3.299  -8.712  1.00  0.00    -0.550 OA
ENDBRANCH   1   2
BRANCH   1   5
ATOM      5  C   UNL     1       3.306  -6.431  -8.641  1.00  0.00     0.006 C 
BRANCH   5   6
ATOM      6  C   UNL     1       3.044  -7.941  -8.613  1.00  0.00    -0.003 C 
ATOM      7  C   UNL     1       4.205  -8.690  -7.965  1.00  0.00     0.004 C 
ENDBRANCH   5   6
ENDBRANCH   1   5
TORSDOF 3
ENDMDL
MODEL 5
REMARK VINA RESULT:    -3.178      3.012      3.955
REMARK INTER + INTRA:          -3.797
REMARK INTER:                  -3.697
REMARK INTRA:                  -0.101
REMARK UNBOUND:                -0.063
REMARK SMILES CCCCC(=O)[O-]
REMARK SMILES IDX 4 1 5 2 6 3 7 4 3 5 2 6 1 7
REMARK H PARENT
REMARK Flexibility Score: inf
ROOT
ATOM      1  C   UNL     1      -3.325   6.146  -0.356  1.00  0.00     0.053 C 
ENDROOT
BRANCH   1   2
ATOM      2  C   UNL     1      -4.692   5.716  -0.787  1.00  0.00     0.041 C 
ATOM      3  O   UNL     1      -5.611   5.578   0.063  1.00  0.00    -0.550 OA
ATOM      4  O   UNL     1      -4.939   5.419  -2.122  1.00  0.00    -0.550 OA
ENDBRANCH   1   2
BRANCH   1   5
ATOM      5  C   UNL     1      -2.289   5.078  -0.715  1.00  0.00     0.006 C 
BRANCH   5   6
ATOM      6  C   UNL     1      -1.096   5.697  -1.453  1.00  0.00    -0.003 C 
ATOM      7  C   UNL     1      -1.546   6.423  -2.717  1.00  0.00     0.004 C 
ENDBRANCH   5   6
ENDBRANCH   1   5
TORSDOF 3
ENDMDL
MODEL 6
REMARK VINA RESULT:    -3.142     14.322     14.831
REMARK INTER + INTRA:          -3.755
REMARK INTER:                  -3.716
REMARK INTRA:                  -0.040
REMARK UNBOUND:                -0.063
REMARK SMILES CCCCC(=O)[O-]
REMARK SMILES IDX 4 1 5 2 6 3 7 4 3 5 2 6 1 7
REMARK H PARENT
REMARK Flexibility Score: inf
ROOT
ATOM      1  C   UNL     1       2.626  -5.696  -8.249  1.00  0.00     0.053 C 
ENDROOT
BRANCH   1   2
ATOM      2  C   UNL     1       1.873  -4.524  -7.705  1.00  0.00     0.041 C 
ATOM      3  O   UNL     1       1.456  -3.623  -8.479  1.00  0.00    -0.550 OA
ATOM      4  O   UNL     1       1.674  -4.401  -6.335  1.00  0.00    -0.550 OA
ENDBRANCH   1   2
BRANCH   1   5
ATOM      5  C   UNL     1       1.842  -6.359  -9.384  1.00  0.00     0.006 C 
BRANCH   5   6
ATOM      6  C   UNL     1       2.195  -7.846  -9.501  1.00  0.00    -0.003 C 
ATOM      7  C   UNL     1       3.310  -8.226  -8.531  1.00  0.00     0.004 C 
ENDBRANCH   5   6
ENDBRANCH   1   5
TORSDOF 3
ENDMDL
MODEL 7
REMARK VINA RESULT:    -2.966     17.223     17.596
REMARK INTER + INTRA:          -3.548
REMARK INTER:                  -3.443
REMARK INTRA:                  -0.105
REMARK UNBOUND:                -0.063
REMARK SMILES CCCCC(=O)[O-]
REMARK SMILES IDX 4 1 5 2 6 3 7 4 3 5 2 6 1 7
REMARK H PARENT
REMARK Flexibility Score: inf
ROOT
ATOM      1  C   UNL     1       5.228  -8.917  -9.089  1.00  0.00     0.053 C 
ENDROOT
BRANCH   1   2
ATOM      2  C   UNL     1       6.516  -8.223  -8.774  1.00  0.00     0.041 C 
ATOM      3  O   UNL     1       7.578  -8.885  -8.649  1.00  0.00    -0.550 OA
ATOM      4  O   UNL     1       6.532  -6.848  -8.569  1.00  0.00    -0.550 OA
ENDBRANCH   1   2
BRANCH   1   5
ATOM      5  C   UNL     1       4.177  -8.611  -8.019  1.00  0.00     0.006 C 
BRANCH   5   6
ATOM      6  C   UNL     1       2.923  -7.987  -8.642  1.00  0.00    -0.003 C 
ATOM      7  C   UNL     1       2.991  -6.463  -8.612  1.00  0.00     0.004 C 
ENDBRANCH   5   6
ENDBRANCH   1   5
TORSDOF 3
ENDMDL
MODEL 8
REMARK VINA RESULT:    -2.955     17.288     17.813
REMARK INTER + INTRA:          -3.536
REMARK INTER:                  -3.480
REMARK INTRA:                  -0.056
REMARK UNBOUND:                -0.063
REMARK SMILES CCCCC(=O)[O-]
REMARK SMILES IDX 4 1 5 2 6 3 7 4 3 5 2 6 1 7
REMARK H PARENT
REMARK Flexibility Score: inf
ROOT
ATOM      1  C   UNL     1      -4.837  -8.412   6.547  1.00  0.00     0.053 C 
ENDROOT
BRANCH   1   2
ATOM      2  C   UNL     1      -5.596  -9.701   6.527  1.00  0.00     0.041 C 
ATOM      3  O   UNL     1      -6.141 -10.133   7.576  1.00  0.00    -0.550 OA
ATOM      4  O   UNL     1      -5.659 -10.452   5.359  1.00  0.00    -0.550 OA
ENDBRANCH   1   2
BRANCH   1   5
ATOM      5  C   UNL     1      -3.715  -8.466   7.588  1.00  0.00     0.006 C 
BRANCH   5   6
ATOM      6  C   UNL     1      -4.100  -7.689   8.852  1.00  0.00    -0.003 C 
ATOM      7  C   UNL     1      -5.253  -6.727   8.578  1.00  0.00     0.004 C 
ENDBRANCH   5   6
ENDBRANCH   1   5
TORSDOF 3
ENDMDL
MODEL 9
REMARK VINA RESULT:    -2.949     11.352     12.398
REMARK INTER + INTRA:          -3.529
REMARK INTER:                  -3.434
REMARK INTRA:                  -0.095
REMARK UNBOUND:                -0.063
REMARK SMILES CCCCC(=O)[O-]
REMARK SMILES IDX 4 1 5 2 6 3 7 4 3 5 2 6 1 7
REMARK H PARENT
REMARK Flexibility Score: inf
ROOT
ATOM      1  C   UNL     1      -7.693  -2.321  -4.842  1.00  0.00     0.053 C 
ENDROOT
BRANCH   1   2
ATOM      2  C   UNL     1      -8.230  -2.249  -6.237  1.00  0.00     0.041 C 
ATOM      3  O   UNL     1      -8.036  -3.198  -7.040  1.00  0.00    -0.550 OA
ATOM      4  O   UNL     1      -8.903  -1.111  -6.664  1.00  0.00    -0.550 OA
ENDBRANCH   1   2
BRANCH   1   5
ATOM      5  C   UNL     1      -8.506  -3.310  -4.004  1.00  0.00     0.006 C 
BRANCH   5   6
ATOM      6  C   UNL     1      -7.762  -4.642  -3.850  1.00  0.00    -0.003 C 
ATOM      7  C   UNL     1      -8.607  -5.807  -4.356  1.00  0.00     0.004 C 
ENDBRANCH   5   6
ENDBRANCH   1   5
TORSDOF 3
ENDMDL
