MODEL 1
REMARK VINA RESULT:    -3.977      0.000      0.000
REMARK INTER + INTRA:          -4.962
REMARK INTER:                  -4.907
REMARK INTRA:                  -0.055
REMARK UNBOUND:                -0.055
REMARK SMILES CCCCCC(C)=O
REMARK SMILES IDX 4 1 3 2 2 3 1 4 5 5 6 6 8 7 7 8
REMARK H PARENT
REMARK Flexibility Score: inf
ROOT
ATOM      1  C   UNL     1      25.923  57.369  -9.384  1.00  0.00     0.008 C 
ENDROOT
BRANCH   1   2
ATOM      2  C   UNL     1      26.154  58.851  -9.701  1.00  0.00     0.000 C 
BRANCH   2   3
ATOM      3  C   UNL     1      27.414  59.042 -10.552  1.00  0.00    -0.003 C 
ATOM      4  C   UNL     1      27.830  60.509 -10.600  1.00  0.00     0.004 C 
ENDBRANCH   2   3
ENDBRANCH   1   2
BRANCH   1   5
ATOM      5  C   UNL     1      24.562  57.155  -8.713  1.00  0.00     0.075 C 
BRANCH   5   6
ATOM      6  C   UNL     1      24.449  55.758  -8.167  1.00  0.00     0.129 C 
ATOM      7  O   UNL     1      25.445  55.055  -8.088  1.00  0.00    -0.300 OA
ATOM      8  C   UNL     1      23.127  55.231  -7.696  1.00  0.00     0.087 C 
ENDBRANCH   5   6
ENDBRANCH   1   5
TORSDOF 4
ENDMDL
MODEL 2
REMARK VINA RESULT:    -3.890      1.742      5.178
REMARK INTER + INTRA:          -4.855
REMARK INTER:                  -4.794
REMARK INTRA:                  -0.061
REMARK UNBOUND:                -0.055
REMARK SMILES CCCCCC(C)=O
REMARK SMILES IDX 4 1 3 2 2 3 1 4 5 5 6 6 8 7 7 8
REMARK H PARENT
REMARK Flexibility Score: inf
ROOT
ATOM      1  C   UNL     1      24.477  56.962  -8.700  1.00  0.00     0.008 C 
ENDROOT
BRANCH   1   2
ATOM      2  C   UNL     1      24.389  55.764  -7.748  1.00  0.00     0.000 C 
BRANCH   2   3
ATOM      3  C   UNL     1      22.997  55.126  -7.793  1.00  0.00    -0.003 C 
ATOM      4  C   UNL     1      22.531  54.718  -6.398  1.00  0.00     0.004 C 
ENDBRANCH   2   3
ENDBRANCH   1   2
BRANCH   1   5
ATOM      5  C   UNL     1      25.845  57.017  -9.391  1.00  0.00     0.075 C 
BRANCH   5   6
ATOM      6  C   UNL     1      26.195  58.430  -9.770  1.00  0.00     0.129 C 
ATOM      7  O   UNL     1      25.591  59.362  -9.262  1.00  0.00    -0.300 OA
ATOM      8  C   UNL     1      27.297  58.702 -10.748  1.00  0.00     0.087 C 
ENDBRANCH   5   6
ENDBRANCH   1   5
TORSDOF 4
ENDMDL
MODEL 3
REMARK VINA RESULT:    -3.659      1.997      5.127
REMARK INTER + INTRA:          -4.570
REMARK INTER:                  -4.516
REMARK INTRA:                  -0.054
REMARK UNBOUND:                -0.055
REMARK SMILES CCCCCC(C)=O
REMARK SMILES IDX 4 1 3 2 2 3 1 4 5 5 6 6 8 7 7 8
REMARK H PARENT
REMARK Flexibility Score: inf
ROOT
ATOM      1  C   UNL     1      26.153  57.721  -9.471  1.00  0.00     0.008 C 
ENDROOT
BRANCH   1   2
ATOM      2  C   UNL     1      24.840  57.295  -8.806  1.00  0.00     0.000 C 
BRANCH   2   3
ATOM      3  C   UNL     1      24.885  55.819  -8.394  1.00  0.00    -0.003 C 
ATOM      4  C   UNL     1      23.510  55.328  -7.952  1.00  0.00     0.004 C 
ENDBRANCH   2   3
ENDBRANCH   1   2
BRANCH   1   5
ATOM      5  C   UNL     1      26.169  59.230  -9.742  1.00  0.00     0.075 C 
BRANCH   5   6
ATOM      6  C   UNL     1      27.437  59.634 -10.443  1.00  0.00     0.129 C 
ATOM      7  O   UNL     1      28.022  58.828 -11.151  1.00  0.00    -0.300 OA
ATOM      8  C   UNL     1      27.974  61.025 -10.298  1.00  0.00     0.087 C 
ENDBRANCH   5   6
ENDBRANCH   1   5
TORSDOF 4
ENDMDL
MODEL 4
REMARK VINA RESULT:    -3.596     16.790     17.841
REMARK INTER + INTRA:          -4.492
REMARK INTER:                  -4.213
REMARK INTRA:                  -0.279
REMARK UNBOUND:                -0.055
REMARK SMILES CCCCCC(C)=O
REMARK SMILES IDX 4 1 3 2 2 3 1 4 5 5 6 6 8 7 7 8
REMARK H PARENT
REMARK Flexibility Score: inf
ROOT
ATOM      1  C   UNL     1      19.829  45.022  -0.105  1.00  0.00     0.008 C 
ENDROOT
BRANCH   1   2
ATOM      2  C   UNL     1      20.068  44.577   1.342  1.00  0.00     0.000 C 
BRANCH   2   3
ATOM      3  C   UNL     1      21.017  43.375   1.399  1.00  0.00    -0.003 C 
ATOM      4  C   UNL     1      21.055  42.639   0.063  1.00  0.00     0.004 C 
ENDBRANCH   2   3
ENDBRANCH   1   2
BRANCH   1   5
ATOM      5  C   UNL     1      18.352  45.357  -0.341  1.00  0.00     0.075 C 
BRANCH   5   6
ATOM      6  C   UNL     1      17.473  44.200   0.049  1.00  0.00     0.129 C 
ATOM      7  O   UNL     1      17.571  43.137  -0.545  1.00  0.00    -0.300 OA
ATOM      8  C   UNL     1      16.496  44.336   1.177  1.00  0.00     0.087 C 
ENDBRANCH   5   6
ENDBRANCH   1   5
TORSDOF 4
ENDMDL
MODEL 5
REMARK VINA RESULT:    -3.555     16.553     18.243
REMARK INTER + INTRA:          -4.441
REMARK INTER:                  -4.183
REMARK INTRA:                  -0.257
REMARK UNBOUND:                -0.055
REMARK SMILES CCCCCC(C)=O
REMARK SMILES IDX 4 1 3 2 2 3 1 4 5 5 6 6 8 7 7 8
REMARK H PARENT
REMARK Flexibility Score: inf
ROOT
ATOM      1  C   UNL     1      17.341  43.923   0.944  1.00  0.00     0.008 C 
ENDROOT
BRANCH   1   2
ATOM      2  C   UNL     1      16.132  44.612   1.588  1.00  0.00     0.000 C 
BRANCH   2   3
ATOM      3  C   UNL     1      15.387  45.482   0.570  1.00  0.00    -0.003 C 
ATOM      4  C   UNL     1      16.196  45.645  -0.713  1.00  0.00     0.004 C 
ENDBRANCH   2   3
ENDBRANCH   1   2
BRANCH   1   5
ATOM      5  C   UNL     1      18.578  44.028   1.843  1.00  0.00     0.075 C 
BRANCH   5   6
ATOM      6  C   UNL     1      19.815  44.274   1.023  1.00  0.00     0.129 C 
ATOM      7  O   UNL     1      20.828  43.629   1.246  1.00  0.00    -0.300 OA
ATOM      8  C   UNL     1      19.804  45.286  -0.082  1.00  0.00     0.087 C 
ENDBRANCH   5   6
ENDBRANCH   1   5
TORSDOF 4
ENDMDL
MODEL 6
REMARK VINA RESULT:    -3.495     16.527     17.700
REMARK INTER + INTRA:          -4.367
REMARK INTER:                  -4.172
REMARK INTRA:                  -0.195
REMARK UNBOUND:                -0.055
REMARK SMILES CCCCCC(C)=O
REMARK SMILES IDX 4 1 3 2 2 3 1 4 5 5 6 6 8 7 7 8
REMARK H PARENT
REMARK Flexibility Score: inf
ROOT
ATOM      1  C   UNL     1      18.426  45.632  -0.551  1.00  0.00     0.008 C 
ENDROOT
BRANCH   1   2
ATOM      2  C   UNL     1      19.842  45.319  -0.054  1.00  0.00     0.000 C 
BRANCH   2   3
ATOM      3  C   UNL     1      19.803  44.497   1.239  1.00  0.00    -0.003 C 
ATOM      4  C   UNL     1      20.808  43.350   1.194  1.00  0.00     0.004 C 
ENDBRANCH   2   3
ENDBRANCH   1   2
BRANCH   1   5
ATOM      5  C   UNL     1      17.432  44.560  -0.090  1.00  0.00     0.075 C 
BRANCH   5   6
ATOM      6  C   UNL     1      16.108  45.178   0.266  1.00  0.00     0.129 C 
ATOM      7  O   UNL     1      15.516  45.862  -0.555  1.00  0.00    -0.300 OA
ATOM      8  C   UNL     1      15.497  44.939   1.614  1.00  0.00     0.087 C 
ENDBRANCH   5   6
ENDBRANCH   1   5
TORSDOF 4
ENDMDL
MODEL 7
REMARK VINA RESULT:    -3.403      6.035      7.384
REMARK INTER + INTRA:          -4.253
REMARK INTER:                  -3.993
REMARK INTRA:                  -0.260
REMARK UNBOUND:                -0.055
REMARK SMILES CCCCCC(C)=O
REMARK SMILES IDX 4 1 3 2 2 3 1 4 5 5 6 6 8 7 7 8
REMARK H PARENT
REMARK Flexibility Score: inf
ROOT
ATOM      1  C   UNL     1      30.197  57.472 -13.438  1.00  0.00     0.008 C 
ENDROOT
BRANCH   1   2
ATOM      2  C   UNL     1      31.476  56.699 -13.778  1.00  0.00     0.000 C 
BRANCH   2   3
ATOM      3  C   UNL     1      32.655  57.653 -13.996  1.00  0.00    -0.003 C 
ATOM      4  C   UNL     1      33.976  56.997 -13.605  1.00  0.00     0.004 C 
ENDBRANCH   2   3
ENDBRANCH   1   2
BRANCH   1   5
ATOM      5  C   UNL     1      30.508  58.940 -13.125  1.00  0.00     0.075 C 
BRANCH   5   6
ATOM      6  C   UNL     1      30.206  59.255 -11.685  1.00  0.00     0.129 C 
ATOM      7  O   UNL     1      29.048  59.267 -11.297  1.00  0.00    -0.300 OA
ATOM      8  C   UNL     1      31.319  59.530 -10.719  1.00  0.00     0.087 C 
ENDBRANCH   5   6
ENDBRANCH   1   5
TORSDOF 4
ENDMDL
MODEL 8
REMARK VINA RESULT:    -3.390      4.427      6.214
REMARK INTER + INTRA:          -4.238
REMARK INTER:                  -4.062
REMARK INTRA:                  -0.176
REMARK UNBOUND:                -0.055
REMARK SMILES CCCCCC(C)=O
REMARK SMILES IDX 4 1 3 2 2 3 1 4 5 5 6 6 8 7 7 8
REMARK H PARENT
REMARK Flexibility Score: inf
ROOT
ATOM      1  C   UNL     1      30.377  59.136 -12.702  1.00  0.00     0.008 C 
ENDROOT
BRANCH   1   2
ATOM      2  C   UNL     1      29.974  57.756 -13.237  1.00  0.00     0.000 C 
BRANCH   2   3
ATOM      3  C   UNL     1      31.207  56.946 -13.652  1.00  0.00    -0.003 C 
ATOM      4  C   UNL     1      32.394  57.858 -13.947  1.00  0.00     0.004 C 
ENDBRANCH   2   3
ENDBRANCH   1   2
BRANCH   1   5
ATOM      5  C   UNL     1      30.030  59.272 -11.215  1.00  0.00     0.075 C 
BRANCH   5   6
ATOM      6  C   UNL     1      28.645  59.830 -11.039  1.00  0.00     0.129 C 
ATOM      7  O   UNL     1      28.448  61.026 -11.198  1.00  0.00    -0.300 OA
ATOM      8  C   UNL     1      27.500  58.927 -10.693  1.00  0.00     0.087 C 
ENDBRANCH   5   6
ENDBRANCH   1   5
TORSDOF 4
ENDMDL
MODEL 9
REMARK VINA RESULT:    -3.294     16.769     18.324
REMARK INTER + INTRA:          -4.119
REMARK INTER:                  -3.769
REMARK INTRA:                  -0.351
REMARK UNBOUND:                -0.055
REMARK SMILES CCCCCC(C)=O
REMARK SMILES IDX 4 1 3 2 2 3 1 4 5 5 6 6 8 7 7 8
REMARK H PARENT
REMARK Flexibility Score: inf
ROOT
ATOM      1  C   UNL     1      18.254  43.181   0.196  1.00  0.00     0.008 C 
ENDROOT
BRANCH   1   2
ATOM      2  C   UNL     1      19.168  43.348   1.416  1.00  0.00     0.000 C 
BRANCH   2   3
ATOM      3  C   UNL     1      20.102  44.550   1.244  1.00  0.00    -0.003 C 
ATOM      4  C   UNL     1      19.809  45.295  -0.056  1.00  0.00     0.004 C 
ENDBRANCH   2   3
ENDBRANCH   1   2
BRANCH   1   5
ATOM      5  C   UNL     1      16.780  43.132   0.615  1.00  0.00     0.075 C 
BRANCH   5   6
ATOM      6  C   UNL     1      16.235  44.520   0.814  1.00  0.00     0.129 C 
ATOM      7  O   UNL     1      15.892  44.882   1.929  1.00  0.00    -0.300 OA
ATOM      8  C   UNL     1      16.134  45.468  -0.342  1.00  0.00     0.087 C 
ENDBRANCH   5   6
ENDBRANCH   1   5
TORSDOF 4
ENDMDL
