MODEL 1
REMARK VINA RESULT:    -7.218      0.000      0.000
REMARK INTER + INTRA:          -9.041
REMARK INTER:                  -8.484
REMARK INTRA:                  -0.557
REMARK UNBOUND:                -0.557
REMARK SMILES C=C(C)[C@H]1CC[C@@]2(CO)CC[C@@]3(C)[C@H](CC[C@@H]4[C@@]5(C)CC[C@H](O)C(C)(C)[C@H]5CC[C@@]43C)[C@H]12
REMARK SMILES IDX 4 1 5 2 6 3 7 4 32 5 14 6 15 7 16 8 17 9 18 10 20 11 21 12
REMARK SMILES IDX 22 13 24 14 27 15 28 16 29 17 30 18 12 19 11 20 10 21 13 22
REMARK SMILES IDX 31 23 25 24 26 25 19 26 2 27 3 28 1 29 8 30 9 31 23 33
REMARK H PARENT 9 32 23 34
REMARK Flexibility Score: inf
ROOT
ATOM      1  C   UNL     1      93.126  85.553  81.738  1.00  0.00     0.018 C 
ATOM      2  C   UNL     1      92.279  85.460  80.442  1.00  0.00     0.009 C 
ATOM      3  C   UNL     1      93.195  85.923  79.284  1.00  0.00     0.010 C 
ATOM      4  C   UNL     1      94.632  85.738  79.824  1.00  0.00    -0.003 C 
ATOM      5  C   UNL     1      94.408  86.246  81.262  1.00  0.00     0.008 C 
ATOM      6  C   UNL     1      95.664  86.341  82.174  1.00  0.00    -0.000 C 
ATOM      7  C   UNL     1      96.231  84.968  82.518  1.00  0.00     0.005 C 
ATOM      8  C   UNL     1      97.385  85.088  83.478  1.00  0.00     0.005 C 
ATOM      9  C   UNL     1      98.606  85.836  82.840  1.00  0.00     0.002 C 
ATOM     10  C   UNL     1      99.883  85.731  83.825  1.00  0.00    -0.026 C 
ATOM     11  C   UNL     1     101.231  86.091  83.119  1.00  0.00     0.010 C 
ATOM     12  C   UNL     1     102.452  86.125  84.057  1.00  0.00     0.033 C 
ATOM     13  C   UNL     1     102.243  87.065  85.252  1.00  0.00     0.120 C 
ATOM     14  C   UNL     1     100.940  86.756  86.061  1.00  0.00    -0.006 C 
ATOM     15  C   UNL     1      99.676  86.666  85.085  1.00  0.00     0.003 C 
ATOM     16  C   UNL     1      99.199  88.086  84.650  1.00  0.00     0.005 C 
ATOM     17  C   UNL     1      97.992  88.128  83.700  1.00  0.00     0.008 C 
ATOM     18  C   UNL     1      98.148  87.298  82.388  1.00  0.00    -0.024 C 
ATOM     19  C   UNL     1      96.750  87.296  81.534  1.00  0.00    -0.024 C 
ATOM     20  C   UNL     1      96.972  86.845  80.029  1.00  0.00     0.008 C 
ATOM     21  C   UNL     1      95.686  86.659  79.159  1.00  0.00     0.010 C 
ATOM     22  C   UNL     1      96.167  88.757  81.510  1.00  0.00     0.012 C 
ATOM     23  C   UNL     1      99.240  87.985  81.495  1.00  0.00     0.012 C 
ATOM     24  C   UNL     1     100.744  87.891  87.110  1.00  0.00     0.014 C 
ATOM     25  C   UNL     1     101.106  85.453  86.901  1.00  0.00     0.014 C 
ATOM     26  C   UNL     1     100.018  84.224  84.240  1.00  0.00     0.012 C 
ENDROOT
BRANCH   1  27
ATOM     27  C   UNL     1      92.432  86.288  82.882  1.00  0.00    -0.077 C 
ATOM     28  C   UNL     1      92.028  85.530  84.120  1.00  0.00     0.039 C 
ATOM     29  C   UNL     1      92.186  87.608  82.829  1.00  0.00     0.008 C 
ENDBRANCH   1  27
BRANCH   4  30
ATOM     30  C   UNL     1      94.990  84.204  79.662  1.00  0.00     0.163 C 
BRANCH  30  31
ATOM     31  O   UNL     1      94.398  83.618  78.533  1.00  0.00    -0.396 OA
ATOM     32  H   UNL     1      94.400  84.310  77.822  1.00  0.00     0.210 HD
ENDBRANCH  30  31
ENDBRANCH   4  30
BRANCH  13  33
ATOM     33  O   UNL     1     103.376  86.982  86.084  1.00  0.00    -0.393 OA
ATOM     34  H   UNL     1     104.170  86.883  85.496  1.00  0.00     0.210 HD
ENDBRANCH  13  33
TORSDOF 4
ENDMDL
MODEL 2
REMARK VINA RESULT:    -6.697      5.006      7.271
REMARK INTER + INTRA:          -8.428
REMARK INTER:                  -7.838
REMARK INTRA:                  -0.590
REMARK UNBOUND:                -0.557
REMARK SMILES C=C(C)[C@H]1CC[C@@]2(CO)CC[C@@]3(C)[C@H](CC[C@@H]4[C@@]5(C)CC[C@H](O)C(C)(C)[C@H]5CC[C@@]43C)[C@H]12
REMARK SMILES IDX 4 1 5 2 6 3 7 4 32 5 14 6 15 7 16 8 17 9 18 10 20 11 21 12
REMARK SMILES IDX 22 13 24 14 27 15 28 16 29 17 30 18 12 19 11 20 10 21 13 22
REMARK SMILES IDX 31 23 25 24 26 25 19 26 2 27 3 28 1 29 8 30 9 31 23 33
REMARK H PARENT 9 32 23 34
REMARK Flexibility Score: inf
ROOT
ATOM      1  C   UNL     1     101.062  91.367  79.562  1.00  0.00     0.018 C 
ATOM      2  C   UNL     1     101.779  92.587  78.926  1.00  0.00     0.009 C 
ATOM      3  C   UNL     1     102.521  93.309  80.076  1.00  0.00     0.010 C 
ATOM      4  C   UNL     1     102.675  92.235  81.178  1.00  0.00    -0.003 C 
ATOM      5  C   UNL     1     101.283  91.582  81.063  1.00  0.00     0.008 C 
ATOM      6  C   UNL     1     100.943  90.474  82.099  1.00  0.00    -0.000 C 
ATOM      7  C   UNL     1     101.785  89.218  81.897  1.00  0.00     0.005 C 
ATOM      8  C   UNL     1     101.367  88.131  82.850  1.00  0.00     0.005 C 
ATOM      9  C   UNL     1     101.645  88.517  84.343  1.00  0.00     0.002 C 
ATOM     10  C   UNL     1     101.394  87.235  85.293  1.00  0.00    -0.026 C 
ATOM     11  C   UNL     1     102.016  87.399  86.719  1.00  0.00     0.010 C 
ATOM     12  C   UNL     1     101.689  86.252  87.693  1.00  0.00     0.033 C 
ATOM     13  C   UNL     1     100.179  86.012  87.826  1.00  0.00     0.120 C 
ATOM     14  C   UNL     1      99.466  85.784  86.452  1.00  0.00    -0.006 C 
ATOM     15  C   UNL     1      99.844  86.945  85.419  1.00  0.00     0.003 C 
ATOM     16  C   UNL     1      99.059  88.255  85.733  1.00  0.00     0.005 C 
ATOM     17  C   UNL     1      99.346  89.450  84.809  1.00  0.00     0.008 C 
ATOM     18  C   UNL     1     100.849  89.856  84.696  1.00  0.00    -0.024 C 
ATOM     19  C   UNL     1     101.047  91.034  83.575  1.00  0.00    -0.024 C 
ATOM     20  C   UNL     1     102.445  91.768  83.722  1.00  0.00     0.008 C 
ATOM     21  C   UNL     1     102.809  92.807  82.611  1.00  0.00     0.010 C 
ATOM     22  C   UNL     1      99.920  92.116  83.769  1.00  0.00     0.012 C 
ATOM     23  C   UNL     1     101.307  90.444  86.077  1.00  0.00     0.012 C 
ATOM     24  C   UNL     1      97.929  85.755  86.707  1.00  0.00     0.014 C 
ATOM     25  C   UNL     1      99.808  84.376  85.878  1.00  0.00     0.014 C 
ATOM     26  C   UNL     1     102.158  86.028  84.643  1.00  0.00     0.012 C 
ENDROOT
BRANCH   1  27
ATOM     27  C   UNL     1      99.589  91.244  79.180  1.00  0.00    -0.077 C 
ATOM     28  C   UNL     1      98.615  92.313  79.604  1.00  0.00     0.039 C 
ATOM     29  C   UNL     1      99.130  90.212  78.452  1.00  0.00     0.008 C 
ENDBRANCH   1  27
BRANCH   4  30
ATOM     30  C   UNL     1     103.914  91.336  80.773  1.00  0.00     0.163 C 
BRANCH  30  31
ATOM     31  O   UNL     1     104.979  92.077  80.239  1.00  0.00    -0.396 OA
ATOM     32  H   UNL     1     104.783  93.031  80.430  1.00  0.00     0.210 HD
ENDBRANCH  30  31
ENDBRANCH   4  30
BRANCH  13  33
ATOM     33  O   UNL     1      99.979  84.909  88.679  1.00  0.00    -0.393 OA
ATOM     34  H   UNL     1      99.086  84.530  88.469  1.00  0.00     0.210 HD
ENDBRANCH  13  33
TORSDOF 4
ENDMDL
MODEL 3
REMARK VINA RESULT:    -6.531      3.902      6.042
REMARK INTER + INTRA:          -8.233
REMARK INTER:                  -8.003
REMARK INTRA:                  -0.230
REMARK UNBOUND:                -0.557
REMARK SMILES C=C(C)[C@H]1CC[C@@]2(CO)CC[C@@]3(C)[C@H](CC[C@@H]4[C@@]5(C)CC[C@H](O)C(C)(C)[C@H]5CC[C@@]43C)[C@H]12
REMARK SMILES IDX 4 1 5 2 6 3 7 4 32 5 14 6 15 7 16 8 17 9 18 10 20 11 21 12
REMARK SMILES IDX 22 13 24 14 27 15 28 16 29 17 30 18 12 19 11 20 10 21 13 22
REMARK SMILES IDX 31 23 25 24 26 25 19 26 2 27 3 28 1 29 8 30 9 31 23 33
REMARK H PARENT 9 32 23 34
REMARK Flexibility Score: inf
ROOT
ATOM      1  C   UNL     1      97.293  92.842  79.669  1.00  0.00     0.018 C 
ATOM      2  C   UNL     1      97.767  94.013  78.769  1.00  0.00     0.009 C 
ATOM      3  C   UNL     1      99.312  93.944  78.736  1.00  0.00     0.010 C 
ATOM      4  C   UNL     1      99.647  92.486  79.127  1.00  0.00    -0.003 C 
ATOM      5  C   UNL     1      98.604  92.300  80.246  1.00  0.00     0.008 C 
ATOM      6  C   UNL     1      98.651  90.956  81.029  1.00  0.00    -0.000 C 
ATOM      7  C   UNL     1      98.247  89.770  80.160  1.00  0.00     0.005 C 
ATOM      8  C   UNL     1      98.208  88.501  80.969  1.00  0.00     0.005 C 
ATOM      9  C   UNL     1      99.626  88.096  81.498  1.00  0.00     0.002 C 
ATOM     10  C   UNL     1      99.562  86.620  82.154  1.00  0.00    -0.026 C 
ATOM     11  C   UNL     1     100.973  85.975  82.347  1.00  0.00     0.010 C 
ATOM     12  C   UNL     1     100.960  84.623  83.084  1.00  0.00     0.033 C 
ATOM     13  C   UNL     1     100.254  84.708  84.445  1.00  0.00     0.120 C 
ATOM     14  C   UNL     1      98.808  85.297  84.356  1.00  0.00    -0.006 C 
ATOM     15  C   UNL     1      98.807  86.675  83.544  1.00  0.00     0.003 C 
ATOM     16  C   UNL     1      99.347  87.846  84.422  1.00  0.00     0.005 C 
ATOM     17  C   UNL     1      99.403  89.225  83.745  1.00  0.00     0.008 C 
ATOM     18  C   UNL     1     100.204  89.276  82.406  1.00  0.00    -0.024 C 
ATOM     19  C   UNL     1     100.066  90.750  81.705  1.00  0.00    -0.024 C 
ATOM     20  C   UNL     1     101.177  90.990  80.599  1.00  0.00     0.008 C 
ATOM     21  C   UNL     1     101.051  92.302  79.756  1.00  0.00     0.010 C 
ATOM     22  C   UNL     1     100.248  91.857  82.809  1.00  0.00     0.012 C 
ATOM     23  C   UNL     1     101.723  89.053  82.730  1.00  0.00     0.012 C 
ATOM     24  C   UNL     1      98.286  85.516  85.808  1.00  0.00     0.014 C 
ATOM     25  C   UNL     1      97.827  84.263  83.725  1.00  0.00     0.014 C 
ATOM     26  C   UNL     1      98.817  85.696  81.128  1.00  0.00     0.012 C 
ENDROOT
BRANCH   1  27
ATOM     27  C   UNL     1      96.285  93.252  80.741  1.00  0.00    -0.077 C 
ATOM     28  C   UNL     1      94.959  93.840  80.333  1.00  0.00     0.039 C 
ATOM     29  C   UNL     1      96.537  93.083  82.050  1.00  0.00     0.008 C 
ENDBRANCH   1  27
BRANCH   4  30
ATOM     30  C   UNL     1      99.454  91.605  77.825  1.00  0.00     0.163 C 
BRANCH  30  31
ATOM     31  O   UNL     1      99.788  92.288  76.645  1.00  0.00    -0.396 OA
ATOM     32  H   UNL     1      99.740  91.623  75.911  1.00  0.00     0.210 HD
ENDBRANCH  30  31
ENDBRANCH   4  30
BRANCH  13  33
ATOM     33  O   UNL     1     100.232  83.420  85.014  1.00  0.00    -0.393 OA
ATOM     34  H   UNL     1     101.088  82.976  84.777  1.00  0.00     0.210 HD
ENDBRANCH  13  33
TORSDOF 4
ENDMDL
MODEL 4
REMARK VINA RESULT:    -6.516      6.221      8.721
REMARK INTER + INTRA:          -8.215
REMARK INTER:                  -7.660
REMARK INTRA:                  -0.555
REMARK UNBOUND:                -0.557
REMARK SMILES C=C(C)[C@H]1CC[C@@]2(CO)CC[C@@]3(C)[C@H](CC[C@@H]4[C@@]5(C)CC[C@H](O)C(C)(C)[C@H]5CC[C@@]43C)[C@H]12
REMARK SMILES IDX 4 1 5 2 6 3 7 4 32 5 14 6 15 7 16 8 17 9 18 10 20 11 21 12
REMARK SMILES IDX 22 13 24 14 27 15 28 16 29 17 30 18 12 19 11 20 10 21 13 22
REMARK SMILES IDX 31 23 25 24 26 25 19 26 2 27 3 28 1 29 8 30 9 31 23 33
REMARK H PARENT 9 32 23 34
REMARK Flexibility Score: inf
ROOT
ATOM      1  C   UNL     1      85.740  86.476  78.694  1.00  0.00     0.018 C 
ATOM      2  C   UNL     1      85.118  85.566  77.603  1.00  0.00     0.009 C 
ATOM      3  C   UNL     1      86.070  84.358  77.444  1.00  0.00     0.010 C 
ATOM      4  C   UNL     1      86.871  84.313  78.766  1.00  0.00    -0.003 C 
ATOM      5  C   UNL     1      87.104  85.826  78.948  1.00  0.00     0.008 C 
ATOM      6  C   UNL     1      87.998  86.257  80.145  1.00  0.00    -0.000 C 
ATOM      7  C   UNL     1      87.332  85.980  81.489  1.00  0.00     0.005 C 
ATOM      8  C   UNL     1      88.177  86.495  82.624  1.00  0.00     0.005 C 
ATOM      9  C   UNL     1      89.543  85.735  82.732  1.00  0.00     0.002 C 
ATOM     10  C   UNL     1      90.299  86.167  84.094  1.00  0.00    -0.026 C 
ATOM     11  C   UNL     1      91.457  85.191  84.486  1.00  0.00     0.010 C 
ATOM     12  C   UNL     1      92.281  85.639  85.708  1.00  0.00     0.033 C 
ATOM     13  C   UNL     1      92.850  87.055  85.540  1.00  0.00     0.120 C 
ATOM     14  C   UNL     1      91.761  88.122  85.193  1.00  0.00    -0.006 C 
ATOM     15  C   UNL     1      90.867  87.638  83.958  1.00  0.00     0.003 C 
ATOM     16  C   UNL     1      91.627  87.817  82.608  1.00  0.00     0.005 C 
ATOM     17  C   UNL     1      90.870  87.376  81.346  1.00  0.00     0.008 C 
ATOM     18  C   UNL     1      90.348  85.905  81.363  1.00  0.00    -0.024 C 
ATOM     19  C   UNL     1      89.433  85.600  80.039  1.00  0.00    -0.024 C 
ATOM     20  C   UNL     1      89.242  84.045  79.793  1.00  0.00     0.008 C 
ATOM     21  C   UNL     1      88.259  83.635  78.646  1.00  0.00     0.010 C 
ATOM     22  C   UNL     1      90.153  86.196  78.774  1.00  0.00     0.012 C 
ATOM     23  C   UNL     1      91.585  84.942  81.307  1.00  0.00     0.012 C 
ATOM     24  C   UNL     1      92.487  89.459  84.854  1.00  0.00     0.014 C 
ATOM     25  C   UNL     1      90.884  88.444  86.441  1.00  0.00     0.014 C 
ATOM     26  C   UNL     1      89.249  86.057  85.255  1.00  0.00     0.012 C 
ENDROOT
BRANCH   1  27
ATOM     27  C   UNL     1      85.837  87.947  78.295  1.00  0.00    -0.077 C 
ATOM     28  C   UNL     1      85.766  89.015  79.356  1.00  0.00     0.039 C 
ATOM     29  C   UNL     1      86.006  88.323  77.016  1.00  0.00     0.008 C 
ENDBRANCH   1  27
BRANCH   4  30
ATOM     30  C   UNL     1      85.949  83.604  79.839  1.00  0.00     0.163 C 
BRANCH  30  31
ATOM     31  O   UNL     1      86.209  82.231  79.966  1.00  0.00    -0.396 OA
ATOM     32  H   UNL     1      86.203  81.857  79.047  1.00  0.00     0.210 HD
ENDBRANCH  30  31
ENDBRANCH   4  30
BRANCH  13  33
ATOM     33  O   UNL     1      93.529  87.403  86.723  1.00  0.00    -0.393 OA
ATOM     34  H   UNL     1      93.746  86.560  87.200  1.00  0.00     0.210 HD
ENDBRANCH  13  33
TORSDOF 4
ENDMDL
MODEL 5
REMARK VINA RESULT:    -6.391      3.927      7.296
REMARK INTER + INTRA:          -8.068
REMARK INTER:                  -7.565
REMARK INTRA:                  -0.503
REMARK UNBOUND:                -0.557
REMARK SMILES C=C(C)[C@H]1CC[C@@]2(CO)CC[C@@]3(C)[C@H](CC[C@@H]4[C@@]5(C)CC[C@H](O)C(C)(C)[C@H]5CC[C@@]43C)[C@H]12
REMARK SMILES IDX 4 1 5 2 6 3 7 4 32 5 14 6 15 7 16 8 17 9 18 10 20 11 21 12
REMARK SMILES IDX 22 13 24 14 27 15 28 16 29 17 30 18 12 19 11 20 10 21 13 22
REMARK SMILES IDX 31 23 25 24 26 25 19 26 2 27 3 28 1 29 8 30 9 31 23 33
REMARK H PARENT 9 32 23 34
REMARK Flexibility Score: inf
ROOT
ATOM      1  C   UNL     1      99.609  84.184  83.277  1.00  0.00     0.018 C 
ATOM      2  C   UNL     1     101.098  83.955  82.905  1.00  0.00     0.009 C 
ATOM      3  C   UNL     1     101.888  85.144  83.502  1.00  0.00     0.010 C 
ATOM      4  C   UNL     1     100.976  85.698  84.621  1.00  0.00    -0.003 C 
ATOM      5  C   UNL     1      99.621  85.587  83.893  1.00  0.00     0.008 C 
ATOM      6  C   UNL     1      98.380  86.157  84.637  1.00  0.00    -0.000 C 
ATOM      7  C   UNL     1      98.025  85.339  85.875  1.00  0.00     0.005 C 
ATOM      8  C   UNL     1      96.765  85.855  86.517  1.00  0.00     0.005 C 
ATOM      9  C   UNL     1      96.943  87.307  87.080  1.00  0.00     0.002 C 
ATOM     10  C   UNL     1      95.646  87.715  87.953  1.00  0.00    -0.026 C 
ATOM     11  C   UNL     1      95.891  88.959  88.868  1.00  0.00     0.010 C 
ATOM     12  C   UNL     1      94.642  89.454  89.619  1.00  0.00     0.033 C 
ATOM     13  C   UNL     1      93.470  89.748  88.672  1.00  0.00     0.120 C 
ATOM     14  C   UNL     1      93.109  88.542  87.743  1.00  0.00    -0.006 C 
ATOM     15  C   UNL     1      94.413  87.990  87.000  1.00  0.00     0.003 C 
ATOM     16  C   UNL     1      94.824  88.919  85.817  1.00  0.00     0.005 C 
ATOM     17  C   UNL     1      96.073  88.495  85.029  1.00  0.00     0.008 C 
ATOM     18  C   UNL     1      97.360  88.285  85.888  1.00  0.00    -0.024 C 
ATOM     19  C   UNL     1      98.578  87.690  84.968  1.00  0.00    -0.024 C 
ATOM     20  C   UNL     1      99.991  87.861  85.669  1.00  0.00     0.008 C 
ATOM     21  C   UNL     1     101.211  87.193  84.952  1.00  0.00     0.010 C 
ATOM     22  C   UNL     1      98.623  88.483  83.609  1.00  0.00     0.012 C 
ATOM     23  C   UNL     1      97.824  89.681  86.432  1.00  0.00     0.012 C 
ATOM     24  C   UNL     1      92.053  89.033  86.706  1.00  0.00     0.014 C 
ATOM     25  C   UNL     1      92.392  87.418  88.549  1.00  0.00     0.014 C 
ATOM     26  C   UNL     1      95.363  86.524  88.936  1.00  0.00     0.012 C 
ENDROOT
BRANCH   1  27
ATOM     27  C   UNL     1      98.647  84.051  82.098  1.00  0.00    -0.077 C 
ATOM     28  C   UNL     1      98.494  85.192  81.127  1.00  0.00     0.039 C 
ATOM     29  C   UNL     1      97.941  82.928  81.886  1.00  0.00     0.008 C 
ENDBRANCH   1  27
BRANCH   4  30
ATOM     30  C   UNL     1     101.180  84.765  85.884  1.00  0.00     0.163 C 
BRANCH  30  31
ATOM     31  O   UNL     1     101.723  85.444  86.986  1.00  0.00    -0.396 OA
ATOM     32  H   UNL     1     102.256  84.778  87.493  1.00  0.00     0.210 HD
ENDBRANCH  30  31
ENDBRANCH   4  30
BRANCH  13  33
ATOM     33  O   UNL     1      92.358  90.129  89.447  1.00  0.00    -0.393 OA
ATOM     34  H   UNL     1      91.680  89.409  89.368  1.00  0.00     0.210 HD
ENDBRANCH  13  33
TORSDOF 4
ENDMDL
MODEL 6
REMARK VINA RESULT:    -6.365      4.043      7.964
REMARK INTER + INTRA:          -8.038
REMARK INTER:                  -7.730
REMARK INTRA:                  -0.308
REMARK UNBOUND:                -0.557
REMARK SMILES C=C(C)[C@H]1CC[C@@]2(CO)CC[C@@]3(C)[C@H](CC[C@@H]4[C@@]5(C)CC[C@H](O)C(C)(C)[C@H]5CC[C@@]43C)[C@H]12
REMARK SMILES IDX 4 1 5 2 6 3 7 4 32 5 14 6 15 7 16 8 17 9 18 10 20 11 21 12
REMARK SMILES IDX 22 13 24 14 27 15 28 16 29 17 30 18 12 19 11 20 10 21 13 22
REMARK SMILES IDX 31 23 25 24 26 25 19 26 2 27 3 28 1 29 8 30 9 31 23 33
REMARK H PARENT 9 32 23 34
REMARK Flexibility Score: inf
ROOT
ATOM      1  C   UNL     1     102.298  92.259  79.945  1.00  0.00     0.018 C 
ATOM      2  C   UNL     1     103.391  93.357  80.018  1.00  0.00     0.009 C 
ATOM      3  C   UNL     1     103.733  93.537  81.516  1.00  0.00     0.010 C 
ATOM      4  C   UNL     1     103.272  92.221  82.184  1.00  0.00    -0.003 C 
ATOM      5  C   UNL     1     101.949  92.022  81.418  1.00  0.00     0.008 C 
ATOM      6  C   UNL     1     101.059  90.825  81.858  1.00  0.00    -0.000 C 
ATOM      7  C   UNL     1     101.700  89.480  81.531  1.00  0.00     0.005 C 
ATOM      8  C   UNL     1     100.775  88.345  81.879  1.00  0.00     0.005 C 
ATOM      9  C   UNL     1     100.509  88.254  83.420  1.00  0.00     0.002 C 
ATOM     10  C   UNL     1      99.706  86.892  83.755  1.00  0.00    -0.026 C 
ATOM     11  C   UNL     1      99.742  86.518  85.273  1.00  0.00     0.010 C 
ATOM     12  C   UNL     1      98.882  85.297  85.648  1.00  0.00     0.033 C 
ATOM     13  C   UNL     1      97.422  85.452  85.202  1.00  0.00     0.120 C 
ATOM     14  C   UNL     1      97.273  85.779  83.679  1.00  0.00    -0.006 C 
ATOM     15  C   UNL     1      98.204  87.014  83.271  1.00  0.00     0.003 C 
ATOM     16  C   UNL     1      97.580  88.366  83.734  1.00  0.00     0.005 C 
ATOM     17  C   UNL     1      98.392  89.629  83.406  1.00  0.00     0.008 C 
ATOM     18  C   UNL     1      99.865  89.626  83.924  1.00  0.00    -0.024 C 
ATOM     19  C   UNL     1     100.670  90.947  83.386  1.00  0.00    -0.024 C 
ATOM     20  C   UNL     1     101.999  91.211  84.210  1.00  0.00     0.008 C 
ATOM     21  C   UNL     1     102.928  92.356  83.688  1.00  0.00     0.010 C 
ATOM     22  C   UNL     1      99.746  92.210  83.557  1.00  0.00     0.012 C 
ATOM     23  C   UNL     1      99.838  89.701  85.491  1.00  0.00     0.012 C 
ATOM     24  C   UNL     1      95.774  86.106  83.402  1.00  0.00     0.014 C 
ATOM     25  C   UNL     1      97.580  84.522  82.810  1.00  0.00     0.014 C 
ATOM     26  C   UNL     1     100.457  85.726  83.020  1.00  0.00     0.012 C 
ENDROOT
BRANCH   1  27
ATOM     27  C   UNL     1     101.090  92.641  79.092  1.00  0.00    -0.077 C 
ATOM     28  C   UNL     1      99.994  91.635  78.856  1.00  0.00     0.039 C 
ATOM     29  C   UNL     1     100.962  93.867  78.557  1.00  0.00     0.008 C 
ENDBRANCH   1  27
BRANCH   4  30
ATOM     30  C   UNL     1     104.409  91.150  81.923  1.00  0.00     0.163 C 
BRANCH  30  31
ATOM     31  O   UNL     1     105.125  90.816  83.083  1.00  0.00    -0.396 OA
ATOM     32  H   UNL     1     104.747  91.367  83.817  1.00  0.00     0.210 HD
ENDBRANCH  30  31
ENDBRANCH   4  30
BRANCH  13  33
ATOM     33  O   UNL     1      96.731  84.268  85.526  1.00  0.00    -0.393 OA
ATOM     34  H   UNL     1      97.009  84.004  86.441  1.00  0.00     0.210 HD
ENDBRANCH  13  33
TORSDOF 4
ENDMDL
MODEL 7
REMARK VINA RESULT:    -6.299      3.263      7.142
REMARK INTER + INTRA:          -7.960
REMARK INTER:                  -7.524
REMARK INTRA:                  -0.437
REMARK UNBOUND:                -0.557
REMARK SMILES C=C(C)[C@H]1CC[C@@]2(CO)CC[C@@]3(C)[C@H](CC[C@@H]4[C@@]5(C)CC[C@H](O)C(C)(C)[C@H]5CC[C@@]43C)[C@H]12
REMARK SMILES IDX 4 1 5 2 6 3 7 4 32 5 14 6 15 7 16 8 17 9 18 10 20 11 21 12
REMARK SMILES IDX 22 13 24 14 27 15 28 16 29 17 30 18 12 19 11 20 10 21 13 22
REMARK SMILES IDX 31 23 25 24 26 25 19 26 2 27 3 28 1 29 8 30 9 31 23 33
REMARK H PARENT 9 32 23 34
REMARK Flexibility Score: inf
ROOT
ATOM      1  C   UNL     1      99.297  85.594  86.716  1.00  0.00     0.018 C 
ATOM      2  C   UNL     1     100.194  84.333  86.815  1.00  0.00     0.009 C 
ATOM      3  C   UNL     1     100.618  83.981  85.370  1.00  0.00     0.010 C 
ATOM      4  C   UNL     1     100.437  85.296  84.577  1.00  0.00    -0.003 C 
ATOM      5  C   UNL     1      99.110  85.765  85.205  1.00  0.00     0.008 C 
ATOM      6  C   UNL     1      98.469  87.050  84.607  1.00  0.00    -0.000 C 
ATOM      7  C   UNL     1      99.298  88.296  84.902  1.00  0.00     0.005 C 
ATOM      8  C   UNL     1      98.605  89.534  84.396  1.00  0.00     0.005 C 
ATOM      9  C   UNL     1      98.481  89.542  82.834  1.00  0.00     0.002 C 
ATOM     10  C   UNL     1      97.945  90.984  82.339  1.00  0.00    -0.026 C 
ATOM     11  C   UNL     1      98.162  91.224  80.809  1.00  0.00     0.010 C 
ATOM     12  C   UNL     1      97.551  92.534  80.277  1.00  0.00     0.033 C 
ATOM     13  C   UNL     1      96.054  92.652  80.598  1.00  0.00     0.120 C 
ATOM     14  C   UNL     1      95.733  92.476  82.119  1.00  0.00    -0.006 C 
ATOM     15  C   UNL     1      96.410  91.144  82.691  1.00  0.00     0.003 C 
ATOM     16  C   UNL     1      95.608  89.877  82.263  1.00  0.00     0.005 C 
ATOM     17  C   UNL     1      96.170  88.530  82.747  1.00  0.00     0.008 C 
ATOM     18  C   UNL     1      97.658  88.256  82.366  1.00  0.00    -0.024 C 
ATOM     19  C   UNL     1      98.187  86.869  83.061  1.00  0.00    -0.024 C 
ATOM     20  C   UNL     1      99.514  86.330  82.381  1.00  0.00     0.008 C 
ATOM     21  C   UNL     1     100.195  85.097  83.060  1.00  0.00     0.010 C 
ATOM     22  C   UNL     1      97.082  85.762  82.891  1.00  0.00     0.012 C 
ATOM     23  C   UNL     1      97.743  88.060  80.812  1.00  0.00     0.012 C 
ATOM     24  C   UNL     1      94.184  92.416  82.280  1.00  0.00     0.014 C 
ATOM     25  C   UNL     1      96.176  93.733  82.927  1.00  0.00     0.014 C 
ATOM     26  C   UNL     1      98.819  92.070  83.060  1.00  0.00     0.012 C 
ENDROOT
BRANCH   1  27
ATOM     27  C   UNL     1      97.979  85.480  87.478  1.00  0.00    -0.077 C 
ATOM     28  C   UNL     1      96.714  85.135  86.736  1.00  0.00     0.039 C 
ATOM     29  C   UNL     1      97.913  85.659  88.808  1.00  0.00     0.008 C 
ENDBRANCH   1  27
BRANCH   4  30
ATOM     30  C   UNL     1     101.713  86.188  84.868  1.00  0.00     0.163 C 
BRANCH  30  31
ATOM     31  O   UNL     1     102.907  85.600  84.424  1.00  0.00    -0.396 OA
ATOM     32  H   UNL     1     103.504  85.541  85.214  1.00  0.00     0.210 HD
ENDBRANCH  30  31
ENDBRANCH   4  30
BRANCH  13  33
ATOM     33  O   UNL     1      95.598  93.901  80.134  1.00  0.00    -0.393 OA
ATOM     34  H   UNL     1      95.471  93.825  79.153  1.00  0.00     0.210 HD
ENDBRANCH  13  33
TORSDOF 4
ENDMDL
MODEL 8
REMARK VINA RESULT:    -6.295      2.375      4.288
REMARK INTER + INTRA:          -7.955
REMARK INTER:                  -7.381
REMARK INTRA:                  -0.575
REMARK UNBOUND:                -0.557
REMARK SMILES C=C(C)[C@H]1CC[C@@]2(CO)CC[C@@]3(C)[C@H](CC[C@@H]4[C@@]5(C)CC[C@H](O)C(C)(C)[C@H]5CC[C@@]43C)[C@H]12
REMARK SMILES IDX 4 1 5 2 6 3 7 4 32 5 14 6 15 7 16 8 17 9 18 10 20 11 21 12
REMARK SMILES IDX 22 13 24 14 27 15 28 16 29 17 30 18 12 19 11 20 10 21 13 22
REMARK SMILES IDX 31 23 25 24 26 25 19 26 2 27 3 28 1 29 8 30 9 31 23 33
REMARK H PARENT 9 32 23 34
REMARK Flexibility Score: inf
ROOT
ATOM      1  C   UNL     1      94.228  86.253  81.011  1.00  0.00     0.018 C 
ATOM      2  C   UNL     1      92.799  85.823  81.435  1.00  0.00     0.009 C 
ATOM      3  C   UNL     1      92.806  85.734  82.979  1.00  0.00     0.010 C 
ATOM      4  C   UNL     1      94.002  86.613  83.416  1.00  0.00    -0.003 C 
ATOM      5  C   UNL     1      95.009  86.192  82.328  1.00  0.00     0.008 C 
ATOM      6  C   UNL     1      96.447  86.774  82.444  1.00  0.00    -0.000 C 
ATOM      7  C   UNL     1      96.482  88.278  82.199  1.00  0.00     0.005 C 
ATOM      8  C   UNL     1      97.896  88.795  82.222  1.00  0.00     0.005 C 
ATOM      9  C   UNL     1      98.554  88.643  83.636  1.00  0.00     0.002 C 
ATOM     10  C   UNL     1      99.973  89.417  83.661  1.00  0.00    -0.026 C 
ATOM     11  C   UNL     1     100.511  89.660  85.109  1.00  0.00     0.010 C 
ATOM     12  C   UNL     1     101.918  90.281  85.170  1.00  0.00     0.033 C 
ATOM     13  C   UNL     1     102.951  89.465  84.379  1.00  0.00     0.120 C 
ATOM     14  C   UNL     1     102.529  89.208  82.894  1.00  0.00    -0.006 C 
ATOM     15  C   UNL     1     101.047  88.612  82.822  1.00  0.00     0.003 C 
ATOM     16  C   UNL     1     101.028  87.100  83.204  1.00  0.00     0.005 C 
ATOM     17  C   UNL     1      99.652  86.416  83.179  1.00  0.00     0.008 C 
ATOM     18  C   UNL     1      98.554  87.101  84.052  1.00  0.00    -0.024 C 
ATOM     19  C   UNL     1      97.102  86.377  83.828  1.00  0.00    -0.024 C 
ATOM     20  C   UNL     1      96.072  86.739  84.979  1.00  0.00     0.008 C 
ATOM     21  C   UNL     1      94.606  86.228  84.790  1.00  0.00     0.010 C 
ATOM     22  C   UNL     1      97.304  84.816  83.846  1.00  0.00     0.012 C 
ATOM     23  C   UNL     1      98.939  86.919  85.562  1.00  0.00     0.012 C 
ATOM     24  C   UNL     1     103.552  88.212  82.269  1.00  0.00     0.014 C 
ATOM     25  C   UNL     1     102.663  90.510  82.048  1.00  0.00     0.014 C 
ATOM     26  C   UNL     1      99.725  90.846  83.063  1.00  0.00     0.012 C 
ENDROOT
BRANCH   1  27
ATOM     27  C   UNL     1      94.835  85.388  79.908  1.00  0.00    -0.077 C 
ATOM     28  C   UNL     1      95.746  86.015  78.884  1.00  0.00     0.039 C 
ATOM     29  C   UNL     1      94.597  84.068  79.833  1.00  0.00     0.008 C 
ENDBRANCH   1  27
BRANCH   4  30
ATOM     30  C   UNL     1      93.505  88.116  83.380  1.00  0.00     0.163 C 
BRANCH  30  31
ATOM     31  O   UNL     1      92.249  88.294  83.979  1.00  0.00    -0.396 OA
ATOM     32  H   UNL     1      92.409  88.773  84.833  1.00  0.00     0.210 HD
ENDBRANCH  30  31
ENDBRANCH   4  30
BRANCH  13  33
ATOM     33  O   UNL     1     104.186  90.139  84.435  1.00  0.00    -0.393 OA
ATOM     34  H   UNL     1     104.010  91.097  84.245  1.00  0.00     0.210 HD
ENDBRANCH  13  33
TORSDOF 4
ENDMDL
MODEL 9
REMARK VINA RESULT:    -6.270      1.976      7.868
REMARK INTER + INTRA:          -7.926
REMARK INTER:                  -7.711
REMARK INTRA:                  -0.215
REMARK UNBOUND:                -0.557
REMARK SMILES C=C(C)[C@H]1CC[C@@]2(CO)CC[C@@]3(C)[C@H](CC[C@@H]4[C@@]5(C)CC[C@H](O)C(C)(C)[C@H]5CC[C@@]43C)[C@H]12
REMARK SMILES IDX 4 1 5 2 6 3 7 4 32 5 14 6 15 7 16 8 17 9 18 10 20 11 21 12
REMARK SMILES IDX 22 13 24 14 27 15 28 16 29 17 30 18 12 19 11 20 10 21 13 22
REMARK SMILES IDX 31 23 25 24 26 25 19 26 2 27 3 28 1 29 8 30 9 31 23 33
REMARK H PARENT 9 32 23 34
REMARK Flexibility Score: inf
ROOT
ATOM      1  C   UNL     1     100.747  85.120  83.867  1.00  0.00     0.018 C 
ATOM      2  C   UNL     1     102.134  85.732  84.193  1.00  0.00     0.009 C 
ATOM      3  C   UNL     1     101.939  87.266  84.239  1.00  0.00     0.010 C 
ATOM      4  C   UNL     1     100.425  87.460  84.489  1.00  0.00    -0.003 C 
ATOM      5  C   UNL     1      99.892  86.354  83.557  1.00  0.00     0.008 C 
ATOM      6  C   UNL     1      98.347  86.252  83.405  1.00  0.00    -0.000 C 
ATOM      7  C   UNL     1      97.671  85.792  84.692  1.00  0.00     0.005 C 
ATOM      8  C   UNL     1      96.191  85.610  84.487  1.00  0.00     0.005 C 
ATOM      9  C   UNL     1      95.471  86.963  84.162  1.00  0.00     0.002 C 
ATOM     10  C   UNL     1      93.869  86.746  84.181  1.00  0.00    -0.026 C 
ATOM     11  C   UNL     1      93.071  88.088  84.263  1.00  0.00     0.010 C 
ATOM     12  C   UNL     1      91.543  87.928  84.156  1.00  0.00     0.033 C 
ATOM     13  C   UNL     1      91.124  87.169  82.889  1.00  0.00     0.120 C 
ATOM     14  C   UNL     1      91.832  85.782  82.737  1.00  0.00    -0.006 C 
ATOM     15  C   UNL     1      93.416  85.934  82.901  1.00  0.00     0.003 C 
ATOM     16  C   UNL     1      94.061  86.527  81.611  1.00  0.00     0.005 C 
ATOM     17  C   UNL     1      95.584  86.729  81.651  1.00  0.00     0.008 C 
ATOM     18  C   UNL     1      96.108  87.594  82.840  1.00  0.00    -0.024 C 
ATOM     19  C   UNL     1      97.746  87.611  82.864  1.00  0.00    -0.024 C 
ATOM     20  C   UNL     1      98.316  88.789  83.761  1.00  0.00     0.008 C 
ATOM     21  C   UNL     1      99.864  88.812  83.981  1.00  0.00     0.010 C 
ATOM     22  C   UNL     1      98.274  87.832  81.398  1.00  0.00     0.012 C 
ATOM     23  C   UNL     1      95.628  89.072  82.625  1.00  0.00     0.012 C 
ATOM     24  C   UNL     1      91.478  85.213  81.330  1.00  0.00     0.014 C 
ATOM     25  C   UNL     1      91.250  84.750  83.750  1.00  0.00     0.014 C 
ATOM     26  C   UNL     1      93.528  85.976  85.505  1.00  0.00     0.012 C 
ENDROOT
BRANCH   1  27
ATOM     27  C   UNL     1     100.769  84.101  82.731  1.00  0.00    -0.077 C 
ATOM     28  C   UNL     1      99.472  83.623  82.130  1.00  0.00     0.039 C 
ATOM     29  C   UNL     1     101.922  83.625  82.230  1.00  0.00     0.008 C 
ENDBRANCH   1  27
BRANCH   4  30
ATOM     30  C   UNL     1     100.185  87.256  86.040  1.00  0.00     0.163 C 
BRANCH  30  31
ATOM     31  O   UNL     1     101.193  87.827  86.832  1.00  0.00    -0.396 OA
ATOM     32  H   UNL     1     102.051  87.435  86.522  1.00  0.00     0.210 HD
ENDBRANCH  30  31
ENDBRANCH   4  30
BRANCH  13  33
ATOM     33  O   UNL     1      89.725  87.014  82.909  1.00  0.00    -0.393 OA
ATOM     34  H   UNL     1      89.330  87.827  82.499  1.00  0.00     0.210 HD
ENDBRANCH  13  33
TORSDOF 4
ENDMDL
