MODEL 1
REMARK VINA RESULT:    -4.375      0.000      0.000
REMARK INTER + INTRA:          -9.177
REMARK INTER:                  -7.444
REMARK INTRA:                  -1.734
REMARK UNBOUND:                -1.734
REMARK SMILES CCCCCCCCCCCCCC(=O)[O-]
REMARK SMILES IDX 8 1 9 2 10 3 11 4 12 5 13 6 14 7 15 8 16 9 7 10 6 11 5 12
REMARK SMILES IDX 4 13 3 14 2 15 1 16
REMARK H PARENT
REMARK Flexibility Score: inf
ROOT
ATOM      1  C   UNL     1     -47.242  25.327 -13.997  1.00  0.00     0.000 C 
ENDROOT
BRANCH   1   2
ATOM      2  C   UNL     1     -45.955  26.132 -13.754  1.00  0.00     0.000 C 
BRANCH   2   3
ATOM      3  C   UNL     1     -46.019  27.545 -14.358  1.00  0.00     0.000 C 
BRANCH   3   4
ATOM      4  C   UNL     1     -44.919  27.791 -15.403  1.00  0.00     0.000 C 
BRANCH   4   5
ATOM      5  C   UNL     1     -44.897  26.722 -16.505  1.00  0.00     0.006 C 
BRANCH   5   6
ATOM      6  C   UNL     1     -44.828  27.368 -17.893  1.00  0.00     0.053 C 
BRANCH   6   7
ATOM      7  C   UNL     1     -44.649  26.324 -18.949  1.00  0.00     0.041 C 
ATOM      8  O   UNL     1     -45.279  25.236 -18.876  1.00  0.00    -0.550 OA
ATOM      9  O   UNL     1     -43.825  26.570 -20.039  1.00  0.00    -0.550 OA
ENDBRANCH   6   7
ENDBRANCH   5   6
ENDBRANCH   4   5
ENDBRANCH   3   4
ENDBRANCH   2   3
ENDBRANCH   1   2
BRANCH   1  10
ATOM     10  C   UNL     1     -48.208  26.032 -14.966  1.00  0.00     0.000 C 
BRANCH  10  11
ATOM     11  C   UNL     1     -48.288  25.336 -16.335  1.00  0.00    -0.000 C 
BRANCH  11  12
ATOM     12  C   UNL     1     -48.547  26.326 -17.484  1.00  0.00    -0.000 C 
BRANCH  12  13
ATOM     13  C   UNL     1     -48.469  27.793 -17.028  1.00  0.00    -0.000 C 
BRANCH  13  14
ATOM     14  C   UNL     1     -49.839  28.492 -17.048  1.00  0.00    -0.000 C 
BRANCH  14  15
ATOM     15  C   UNL     1     -50.981  27.536 -17.426  1.00  0.00    -0.003 C 
ATOM     16  C   UNL     1     -51.854  27.152 -16.231  1.00  0.00     0.004 C 
ENDBRANCH  14  15
ENDBRANCH  13  14
ENDBRANCH  12  13
ENDBRANCH  11  12
ENDBRANCH  10  11
ENDBRANCH   1  10
TORSDOF 12
ENDMDL
MODEL 2
REMARK VINA RESULT:    -4.374      1.194      2.062
REMARK INTER + INTRA:          -9.177
REMARK INTER:                  -7.157
REMARK INTRA:                  -2.020
REMARK UNBOUND:                -1.734
REMARK SMILES CCCCCCCCCCCCCC(=O)[O-]
REMARK SMILES IDX 8 1 9 2 10 3 11 4 12 5 13 6 14 7 15 8 16 9 7 10 6 11 5 12
REMARK SMILES IDX 4 13 3 14 2 15 1 16
REMARK H PARENT
REMARK Flexibility Score: inf
ROOT
ATOM      1  C   UNL     1     -46.910  26.266 -13.632  1.00  0.00     0.000 C 
ENDROOT
BRANCH   1   2
ATOM      2  C   UNL     1     -45.501  26.304 -14.245  1.00  0.00     0.000 C 
BRANCH   2   3
ATOM      3  C   UNL     1     -44.966  27.737 -14.408  1.00  0.00     0.000 C 
BRANCH   3   4
ATOM      4  C   UNL     1     -44.669  28.094 -15.873  1.00  0.00     0.000 C 
BRANCH   4   5
ATOM      5  C   UNL     1     -45.008  26.951 -16.842  1.00  0.00     0.006 C 
BRANCH   5   6
ATOM      6  C   UNL     1     -45.028  27.450 -18.291  1.00  0.00     0.053 C 
BRANCH   6   7
ATOM      7  C   UNL     1     -44.562  26.376 -19.222  1.00  0.00     0.041 C 
ATOM      8  O   UNL     1     -45.037  25.213 -19.135  1.00  0.00    -0.550 OA
ATOM      9  O   UNL     1     -43.640  26.670 -20.217  1.00  0.00    -0.550 OA
ENDBRANCH   6   7
ENDBRANCH   5   6
ENDBRANCH   4   5
ENDBRANCH   3   4
ENDBRANCH   2   3
ENDBRANCH   1   2
BRANCH   1  10
ATOM     10  C   UNL     1     -47.511  27.670 -13.441  1.00  0.00     0.000 C 
BRANCH  10  11
ATOM     11  C   UNL     1     -48.794  27.883 -14.263  1.00  0.00    -0.000 C 
BRANCH  11  12
ATOM     12  C   UNL     1     -48.516  27.975 -15.774  1.00  0.00    -0.000 C 
BRANCH  12  13
ATOM     13  C   UNL     1     -49.352  26.973 -16.589  1.00  0.00    -0.000 C 
BRANCH  13  14
ATOM     14  C   UNL     1     -48.521  26.244 -17.659  1.00  0.00    -0.000 C 
BRANCH  14  15
ATOM     15  C   UNL     1     -48.016  24.874 -17.180  1.00  0.00    -0.003 C 
ATOM     16  C   UNL     1     -48.791  24.346 -15.972  1.00  0.00     0.004 C 
ENDBRANCH  14  15
ENDBRANCH  13  14
ENDBRANCH  12  13
ENDBRANCH  11  12
ENDBRANCH  10  11
ENDBRANCH   1  10
TORSDOF 12
ENDMDL
MODEL 3
REMARK VINA RESULT:    -4.341      1.390      2.052
REMARK INTER + INTRA:          -9.120
REMARK INTER:                  -7.532
REMARK INTRA:                  -1.589
REMARK UNBOUND:                -1.734
REMARK SMILES CCCCCCCCCCCCCC(=O)[O-]
REMARK SMILES IDX 8 1 9 2 10 3 11 4 12 5 13 6 14 7 15 8 16 9 7 10 6 11 5 12
REMARK SMILES IDX 4 13 3 14 2 15 1 16
REMARK H PARENT
REMARK Flexibility Score: inf
ROOT
ATOM      1  C   UNL     1     -47.250  25.929 -13.692  1.00  0.00     0.000 C 
ENDROOT
BRANCH   1   2
ATOM      2  C   UNL     1     -45.765  26.204 -13.978  1.00  0.00     0.000 C 
BRANCH   2   3
ATOM      3  C   UNL     1     -45.467  27.703 -14.160  1.00  0.00     0.000 C 
BRANCH   3   4
ATOM      4  C   UNL     1     -45.014  28.046 -15.588  1.00  0.00     0.000 C 
BRANCH   4   5
ATOM      5  C   UNL     1     -44.961  26.815 -16.505  1.00  0.00     0.006 C 
BRANCH   5   6
ATOM      6  C   UNL     1     -45.788  27.043 -17.775  1.00  0.00     0.053 C 
BRANCH   6   7
ATOM      7  C   UNL     1     -45.294  26.170 -18.886  1.00  0.00     0.041 C 
ATOM      8  O   UNL     1     -44.514  26.635 -19.758  1.00  0.00    -0.550 OA
ATOM      9  O   UNL     1     -45.656  24.831 -18.930  1.00  0.00    -0.550 OA
ENDBRANCH   6   7
ENDBRANCH   5   6
ENDBRANCH   4   5
ENDBRANCH   3   4
ENDBRANCH   2   3
ENDBRANCH   1   2
BRANCH   1  10
ATOM     10  C   UNL     1     -47.922  25.096 -14.799  1.00  0.00     0.000 C 
BRANCH  10  11
ATOM     11  C   UNL     1     -48.726  25.959 -15.785  1.00  0.00    -0.000 C 
BRANCH  11  12
ATOM     12  C   UNL     1     -49.127  27.319 -15.186  1.00  0.00    -0.000 C 
BRANCH  12  13
ATOM     13  C   UNL     1     -50.618  27.381 -14.809  1.00  0.00    -0.000 C 
BRANCH  13  14
ATOM     14  C   UNL     1     -51.466  26.356 -15.582  1.00  0.00    -0.000 C 
BRANCH  14  15
ATOM     15  C   UNL     1     -52.196  25.376 -14.652  1.00  0.00    -0.003 C 
ATOM     16  C   UNL     1     -51.639  23.955 -14.732  1.00  0.00     0.004 C 
ENDBRANCH  14  15
ENDBRANCH  13  14
ENDBRANCH  12  13
ENDBRANCH  11  12
ENDBRANCH  10  11
ENDBRANCH   1  10
TORSDOF 12
ENDMDL
MODEL 4
REMARK VINA RESULT:    -4.321      1.711      3.898
REMARK INTER + INTRA:          -9.086
REMARK INTER:                  -7.370
REMARK INTRA:                  -1.716
REMARK UNBOUND:                -1.734
REMARK SMILES CCCCCCCCCCCCCC(=O)[O-]
REMARK SMILES IDX 8 1 9 2 10 3 11 4 12 5 13 6 14 7 15 8 16 9 7 10 6 11 5 12
REMARK SMILES IDX 4 13 3 14 2 15 1 16
REMARK H PARENT
REMARK Flexibility Score: inf
ROOT
ATOM      1  C   UNL     1     -48.005  24.987 -17.384  1.00  0.00     0.000 C 
ENDROOT
BRANCH   1   2
ATOM      2  C   UNL     1     -48.359  26.428 -17.786  1.00  0.00     0.000 C 
BRANCH   2   3
ATOM      3  C   UNL     1     -47.132  27.231 -18.250  1.00  0.00     0.000 C 
BRANCH   3   4
ATOM      4  C   UNL     1     -46.114  27.460 -17.121  1.00  0.00     0.000 C 
BRANCH   4   5
ATOM      5  C   UNL     1     -44.827  26.643 -17.308  1.00  0.00     0.006 C 
BRANCH   5   6
ATOM      6  C   UNL     1     -44.585  26.333 -18.789  1.00  0.00     0.053 C 
BRANCH   6   7
ATOM      7  C   UNL     1     -43.519  27.224 -19.343  1.00  0.00     0.041 C 
ATOM      8  O   UNL     1     -43.070  27.029 -20.503  1.00  0.00    -0.550 OA
ATOM      9  O   UNL     1     -43.054  28.300 -18.598  1.00  0.00    -0.550 OA
ENDBRANCH   6   7
ENDBRANCH   5   6
ENDBRANCH   4   5
ENDBRANCH   3   4
ENDBRANCH   2   3
ENDBRANCH   1   2
BRANCH   1  10
ATOM     10  C   UNL     1     -48.531  24.615 -15.986  1.00  0.00     0.000 C 
BRANCH  10  11
ATOM     11  C   UNL     1     -49.177  25.807 -15.260  1.00  0.00    -0.000 C 
BRANCH  11  12
ATOM     12  C   UNL     1     -48.207  26.497 -14.283  1.00  0.00    -0.000 C 
BRANCH  12  13
ATOM     13  C   UNL     1     -47.085  25.559 -13.806  1.00  0.00    -0.000 C 
BRANCH  13  14
ATOM     14  C   UNL     1     -45.749  26.293 -13.600  1.00  0.00    -0.000 C 
BRANCH  14  15
ATOM     15  C   UNL     1     -45.937  27.796 -13.343  1.00  0.00    -0.003 C 
ATOM     16  C   UNL     1     -44.771  28.637 -13.862  1.00  0.00     0.004 C 
ENDBRANCH  14  15
ENDBRANCH  13  14
ENDBRANCH  12  13
ENDBRANCH  11  12
ENDBRANCH  10  11
ENDBRANCH   1  10
TORSDOF 12
ENDMDL
MODEL 5
REMARK VINA RESULT:    -4.309      3.186      5.638
REMARK INTER + INTRA:          -9.065
REMARK INTER:                  -7.478
REMARK INTRA:                  -1.587
REMARK UNBOUND:                -1.734
REMARK SMILES CCCCCCCCCCCCCC(=O)[O-]
REMARK SMILES IDX 8 1 9 2 10 3 11 4 12 5 13 6 14 7 15 8 16 9 7 10 6 11 5 12
REMARK SMILES IDX 4 13 3 14 2 15 1 16
REMARK H PARENT
REMARK Flexibility Score: inf
ROOT
ATOM      1  C   UNL     1     -47.025  25.364 -13.795  1.00  0.00     0.000 C 
ENDROOT
BRANCH   1   2
ATOM      2  C   UNL     1     -48.145  25.705 -14.791  1.00  0.00     0.000 C 
BRANCH   2   3
ATOM      3  C   UNL     1     -48.610  27.167 -14.680  1.00  0.00     0.000 C 
BRANCH   3   4
ATOM      4  C   UNL     1     -49.893  27.441 -15.481  1.00  0.00     0.000 C 
BRANCH   4   5
ATOM      5  C   UNL     1     -51.157  26.945 -14.763  1.00  0.00     0.006 C 
BRANCH   5   6
ATOM      6  C   UNL     1     -51.828  25.817 -15.555  1.00  0.00     0.053 C 
BRANCH   6   7
ATOM      7  C   UNL     1     -51.870  24.561 -14.744  1.00  0.00     0.041 C 
ATOM      8  O   UNL     1     -52.701  24.442 -13.805  1.00  0.00    -0.550 OA
ATOM      9  O   UNL     1     -51.027  23.503 -15.055  1.00  0.00    -0.550 OA
ENDBRANCH   6   7
ENDBRANCH   5   6
ENDBRANCH   4   5
ENDBRANCH   3   4
ENDBRANCH   2   3
ENDBRANCH   1   2
BRANCH   1  10
ATOM     10  C   UNL     1     -45.988  26.494 -13.660  1.00  0.00     0.000 C 
BRANCH  10  11
ATOM     11  C   UNL     1     -44.937  26.471 -14.781  1.00  0.00    -0.000 C 
BRANCH  11  12
ATOM     12  C   UNL     1     -44.691  27.865 -15.387  1.00  0.00    -0.000 C 
BRANCH  12  13
ATOM     13  C   UNL     1     -44.980  27.910 -16.898  1.00  0.00    -0.000 C 
BRANCH  13  14
ATOM     14  C   UNL     1     -44.997  26.511 -17.538  1.00  0.00    -0.000 C 
BRANCH  14  15
ATOM     15  C   UNL     1     -46.382  26.131 -18.083  1.00  0.00    -0.003 C 
ATOM     16  C   UNL     1     -47.331  27.326 -18.178  1.00  0.00     0.004 C 
ENDBRANCH  14  15
ENDBRANCH  13  14
ENDBRANCH  12  13
ENDBRANCH  11  12
ENDBRANCH  10  11
ENDBRANCH   1  10
TORSDOF 12
ENDMDL
MODEL 6
REMARK VINA RESULT:    -4.307      3.408      6.189
REMARK INTER + INTRA:          -9.063
REMARK INTER:                  -7.477
REMARK INTRA:                  -1.586
REMARK UNBOUND:                -1.734
REMARK SMILES CCCCCCCCCCCCCC(=O)[O-]
REMARK SMILES IDX 8 1 9 2 10 3 11 4 12 5 13 6 14 7 15 8 16 9 7 10 6 11 5 12
REMARK SMILES IDX 4 13 3 14 2 15 1 16
REMARK H PARENT
REMARK Flexibility Score: inf
ROOT
ATOM      1  C   UNL     1     -48.247  25.328 -16.530  1.00  0.00     0.000 C 
ENDROOT
BRANCH   1   2
ATOM      2  C   UNL     1     -49.009  25.543 -15.213  1.00  0.00     0.000 C 
BRANCH   2   3
ATOM      3  C   UNL     1     -49.616  26.952 -15.105  1.00  0.00     0.000 C 
BRANCH   3   4
ATOM      4  C   UNL     1     -51.128  26.925 -14.830  1.00  0.00     0.000 C 
BRANCH   4   5
ATOM      5  C   UNL     1     -51.810  25.668 -15.390  1.00  0.00     0.006 C 
BRANCH   5   6
ATOM      6  C   UNL     1     -52.580  24.927 -14.292  1.00  0.00     0.053 C 
BRANCH   6   7
ATOM      7  C   UNL     1     -51.975  23.582 -14.044  1.00  0.00     0.041 C 
ATOM      8  O   UNL     1     -52.061  23.048 -12.907  1.00  0.00    -0.550 OA
ATOM      9  O   UNL     1     -51.358  22.895 -15.081  1.00  0.00    -0.550 OA
ENDBRANCH   6   7
ENDBRANCH   5   6
ENDBRANCH   4   5
ENDBRANCH   3   4
ENDBRANCH   2   3
ENDBRANCH   1   2
BRANCH   1  10
ATOM     10  C   UNL     1     -48.529  26.432 -17.565  1.00  0.00     0.000 C 
BRANCH  10  11
ATOM     11  C   UNL     1     -47.244  27.084 -18.102  1.00  0.00    -0.000 C 
BRANCH  11  12
ATOM     12  C   UNL     1     -46.009  26.738 -17.252  1.00  0.00    -0.000 C 
BRANCH  12  13
ATOM     13  C   UNL     1     -45.469  27.953 -16.476  1.00  0.00    -0.000 C 
BRANCH  13  14
ATOM     14  C   UNL     1     -44.796  27.556 -15.151  1.00  0.00    -0.000 C 
BRANCH  14  15
ATOM     15  C   UNL     1     -45.815  27.208 -14.055  1.00  0.00    -0.003 C 
ATOM     16  C   UNL     1     -45.738  25.746 -13.616  1.00  0.00     0.004 C 
ENDBRANCH  14  15
ENDBRANCH  13  14
ENDBRANCH  12  13
ENDBRANCH  11  12
ENDBRANCH  10  11
ENDBRANCH   1  10
TORSDOF 12
ENDMDL
MODEL 7
REMARK VINA RESULT:    -4.270      3.373      5.819
REMARK INTER + INTRA:          -9.000
REMARK INTER:                  -7.270
REMARK INTRA:                  -1.729
REMARK UNBOUND:                -1.734
REMARK SMILES CCCCCCCCCCCCCC(=O)[O-]
REMARK SMILES IDX 8 1 9 2 10 3 11 4 12 5 13 6 14 7 15 8 16 9 7 10 6 11 5 12
REMARK SMILES IDX 4 13 3 14 2 15 1 16
REMARK H PARENT
REMARK Flexibility Score: inf
ROOT
ATOM      1  C   UNL     1     -46.024  26.139 -17.910  1.00  0.00     0.000 C 
ENDROOT
BRANCH   1   2
ATOM      2  C   UNL     1     -46.918  27.355 -18.197  1.00  0.00     0.000 C 
BRANCH   2   3
ATOM      3  C   UNL     1     -48.243  27.312 -17.416  1.00  0.00     0.000 C 
BRANCH   3   4
ATOM      4  C   UNL     1     -48.594  25.898 -16.926  1.00  0.00     0.000 C 
BRANCH   4   5
ATOM      5  C   UNL     1     -49.419  25.907 -15.631  1.00  0.00     0.006 C 
BRANCH   5   6
ATOM      6  C   UNL     1     -49.508  24.501 -15.029  1.00  0.00     0.053 C 
BRANCH   6   7
ATOM      7  C   UNL     1     -50.936  24.067 -14.920  1.00  0.00     0.041 C 
ATOM      8  O   UNL     1     -51.834  24.908 -14.654  1.00  0.00    -0.550 OA
ATOM      9  O   UNL     1     -51.281  22.744 -15.160  1.00  0.00    -0.550 OA
ENDBRANCH   6   7
ENDBRANCH   5   6
ENDBRANCH   4   5
ENDBRANCH   3   4
ENDBRANCH   2   3
ENDBRANCH   1   2
BRANCH   1  10
ATOM     10  C   UNL     1     -44.622  26.538 -17.416  1.00  0.00     0.000 C 
BRANCH  10  11
ATOM     11  C   UNL     1     -44.465  28.058 -17.241  1.00  0.00    -0.000 C 
BRANCH  11  12
ATOM     12  C   UNL     1     -44.252  28.463 -15.772  1.00  0.00    -0.000 C 
BRANCH  12  13
ATOM     13  C   UNL     1     -45.577  28.678 -15.021  1.00  0.00    -0.000 C 
BRANCH  13  14
ATOM     14  C   UNL     1     -45.567  28.057 -13.614  1.00  0.00    -0.000 C 
BRANCH  14  15
ATOM     15  C   UNL     1     -46.527  26.864 -13.490  1.00  0.00    -0.003 C 
ATOM     16  C   UNL     1     -45.831  25.518 -13.695  1.00  0.00     0.004 C 
ENDBRANCH  14  15
ENDBRANCH  13  14
ENDBRANCH  12  13
ENDBRANCH  11  12
ENDBRANCH  10  11
ENDBRANCH   1  10
TORSDOF 12
ENDMDL
MODEL 8
REMARK VINA RESULT:    -4.257      3.006      5.537
REMARK INTER + INTRA:          -8.977
REMARK INTER:                  -7.111
REMARK INTRA:                  -1.865
REMARK UNBOUND:                -1.734
REMARK SMILES CCCCCCCCCCCCCC(=O)[O-]
REMARK SMILES IDX 8 1 9 2 10 3 11 4 12 5 13 6 14 7 15 8 16 9 7 10 6 11 5 12
REMARK SMILES IDX 4 13 3 14 2 15 1 16
REMARK H PARENT
REMARK Flexibility Score: inf
ROOT
ATOM      1  C   UNL     1     -47.130  25.215 -13.995  1.00  0.00     0.000 C 
ENDROOT
BRANCH   1   2
ATOM      2  C   UNL     1     -48.133  26.032 -14.825  1.00  0.00     0.000 C 
BRANCH   2   3
ATOM      3  C   UNL     1     -48.383  25.423 -16.216  1.00  0.00     0.000 C 
BRANCH   3   4
ATOM      4  C   UNL     1     -48.752  26.482 -17.267  1.00  0.00     0.000 C 
BRANCH   4   5
ATOM      5  C   UNL     1     -49.582  27.634 -16.683  1.00  0.00     0.006 C 
BRANCH   5   6
ATOM      6  C   UNL     1     -51.049  27.525 -17.113  1.00  0.00     0.053 C 
BRANCH   6   7
ATOM      7  C   UNL     1     -51.900  27.081 -15.965  1.00  0.00     0.041 C 
ATOM      8  O   UNL     1     -51.847  25.890 -15.561  1.00  0.00    -0.550 OA
ATOM      9  O   UNL     1     -52.715  27.994 -15.310  1.00  0.00    -0.550 OA
ENDBRANCH   6   7
ENDBRANCH   5   6
ENDBRANCH   4   5
ENDBRANCH   3   4
ENDBRANCH   2   3
ENDBRANCH   1   2
BRANCH   1  10
ATOM     10  C   UNL     1     -45.839  25.996 -13.689  1.00  0.00     0.000 C 
BRANCH  10  11
ATOM     11  C   UNL     1     -45.966  27.497 -14.002  1.00  0.00    -0.000 C 
BRANCH  11  12
ATOM     12  C   UNL     1     -44.973  27.958 -15.084  1.00  0.00    -0.000 C 
BRANCH  12  13
ATOM     13  C   UNL     1     -45.679  28.500 -16.339  1.00  0.00    -0.000 C 
BRANCH  13  14
ATOM     14  C   UNL     1     -45.144  27.871 -17.637  1.00  0.00    -0.000 C 
BRANCH  14  15
ATOM     15  C   UNL     1     -45.030  26.342 -17.545  1.00  0.00    -0.003 C 
ATOM     16  C   UNL     1     -44.980  25.667 -18.916  1.00  0.00     0.004 C 
ENDBRANCH  14  15
ENDBRANCH  13  14
ENDBRANCH  12  13
ENDBRANCH  11  12
ENDBRANCH  10  11
ENDBRANCH   1  10
TORSDOF 12
ENDMDL
MODEL 9
REMARK VINA RESULT:    -4.209      2.973      6.250
REMARK INTER + INTRA:          -8.896
REMARK INTER:                  -7.586
REMARK INTRA:                  -1.310
REMARK UNBOUND:                -1.734
REMARK SMILES CCCCCCCCCCCCCC(=O)[O-]
REMARK SMILES IDX 8 1 9 2 10 3 11 4 12 5 13 6 14 7 15 8 16 9 7 10 6 11 5 12
REMARK SMILES IDX 4 13 3 14 2 15 1 16
REMARK H PARENT
REMARK Flexibility Score: inf
ROOT
ATOM      1  C   UNL     1     -48.548  27.195 -17.990  1.00  0.00     0.000 C 
ENDROOT
BRANCH   1   2
ATOM      2  C   UNL     1     -49.539  27.903 -17.052  1.00  0.00     0.000 C 
BRANCH   2   3
ATOM      3  C   UNL     1     -51.006  27.607 -17.410  1.00  0.00     0.000 C 
BRANCH   3   4
ATOM      4  C   UNL     1     -51.875  27.343 -16.170  1.00  0.00     0.000 C 
BRANCH   4   5
ATOM      5  C   UNL     1     -51.201  26.400 -15.162  1.00  0.00     0.006 C 
BRANCH   5   6
ATOM      6  C   UNL     1     -52.112  25.214 -14.828  1.00  0.00     0.053 C 
BRANCH   6   7
ATOM      7  C   UNL     1     -51.301  23.979 -14.597  1.00  0.00     0.041 C 
ATOM      8  O   UNL     1     -50.212  23.813 -15.208  1.00  0.00    -0.550 OA
ATOM      9  O   UNL     1     -51.720  23.034 -13.671  1.00  0.00    -0.550 OA
ENDBRANCH   6   7
ENDBRANCH   5   6
ENDBRANCH   4   5
ENDBRANCH   3   4
ENDBRANCH   2   3
ENDBRANCH   1   2
BRANCH   1  10
ATOM     10  C   UNL     1     -47.873  25.979 -17.330  1.00  0.00     0.000 C 
BRANCH  10  11
ATOM     11  C   UNL     1     -47.535  26.220 -15.849  1.00  0.00    -0.000 C 
BRANCH  11  12
ATOM     12  C   UNL     1     -46.403  27.246 -15.663  1.00  0.00    -0.000 C 
BRANCH  12  13
ATOM     13  C   UNL     1     -45.119  26.849 -16.411  1.00  0.00    -0.000 C 
BRANCH  13  14
ATOM     14  C   UNL     1     -44.614  27.960 -17.349  1.00  0.00    -0.000 C 
BRANCH  14  15
ATOM     15  C   UNL     1     -44.476  27.484 -18.803  1.00  0.00    -0.003 C 
ATOM     16  C   UNL     1     -44.658  25.973 -18.953  1.00  0.00     0.004 C 
ENDBRANCH  14  15
ENDBRANCH  13  14
ENDBRANCH  12  13
ENDBRANCH  11  12
ENDBRANCH  10  11
ENDBRANCH   1  10
TORSDOF 12
ENDMDL
