MODEL 1
REMARK VINA RESULT:    -6.721      0.000      0.000
REMARK INTER + INTRA:          -6.721
REMARK INTER:                  -6.721
REMARK INTRA:                   0.000
REMARK UNBOUND:                 0.000
REMARK SMILES C=C1CCC[C@]2(C)CC(=O)C(=C(C)C)C[C@H]12
REMARK SMILES IDX 13 1 12 2 11 3 15 4 16 5 2 6 1 7 3 8 4 9 5 10 6 11 8 12 9 13
REMARK SMILES IDX 10 14 7 15 14 16
REMARK H PARENT
REMARK Flexibility Score: inf
ROOT
ATOM      1  C   UNL     1     105.335 131.670  54.568  1.00  0.00     0.039 C 
ATOM      2  C   UNL     1     103.990 131.325  53.972  1.00  0.00    -0.070 C 
ATOM      3  C   UNL     1     103.226 132.272  53.356  1.00  0.00    -0.006 C 
ATOM      4  C   UNL     1     103.673 133.710  53.181  1.00  0.00     0.047 C 
ATOM      5  C   UNL     1     103.657 134.154  51.691  1.00  0.00     0.025 C 
ATOM      6  C   UNL     1     103.566 135.672  51.639  1.00  0.00    -0.073 C 
ATOM      7  C   UNL     1     104.664 136.426  51.814  1.00  0.00     0.008 C 
ATOM      8  C   UNL     1     102.208 136.317  51.512  1.00  0.00     0.031 C 
ATOM      9  C   UNL     1     101.388 135.735  50.346  1.00  0.00     0.005 C 
ATOM     10  C   UNL     1     101.973 134.443  49.749  1.00  0.00     0.008 C 
ATOM     11  C   UNL     1     102.537 133.457  50.812  1.00  0.00    -0.018 C 
ATOM     12  C   UNL     1     101.375 132.916  51.697  1.00  0.00     0.088 C 
ATOM     13  C   UNL     1     101.892 131.994  52.764  1.00  0.00     0.159 C 
ATOM     14  O   UNL     1     101.154 131.063  53.186  1.00  0.00    -0.295 OA
ATOM     15  C   UNL     1     103.160 132.266  50.034  1.00  0.00     0.012 C 
ATOM     16  C   UNL     1     103.549 129.882  54.050  1.00  0.00     0.039 C 
ENDROOT
TORSDOF 0
ENDMDL
MODEL 2
REMARK VINA RESULT:    -6.719      2.060      5.051
REMARK INTER + INTRA:          -6.719
REMARK INTER:                  -6.719
REMARK INTRA:                   0.000
REMARK UNBOUND:                 0.000
REMARK SMILES C=C1CCC[C@]2(C)CC(=O)C(=C(C)C)C[C@H]12
REMARK SMILES IDX 13 1 12 2 11 3 15 4 16 5 2 6 1 7 3 8 4 9 5 10 6 11 8 12 9 13
REMARK SMILES IDX 10 14 7 15 14 16
REMARK H PARENT
REMARK Flexibility Score: inf
ROOT
ATOM      1  C   UNL     1     101.042 136.580  49.905  1.00  0.00     0.039 C 
ATOM      2  C   UNL     1     102.408 136.073  50.305  1.00  0.00    -0.070 C 
ATOM      3  C   UNL     1     102.549 135.042  51.187  1.00  0.00    -0.006 C 
ATOM      4  C   UNL     1     101.372 134.305  51.793  1.00  0.00     0.047 C 
ATOM      5  C   UNL     1     101.436 132.774  51.526  1.00  0.00     0.025 C 
ATOM      6  C   UNL     1     100.595 132.064  52.576  1.00  0.00    -0.073 C 
ATOM      7  C   UNL     1      99.259 131.994  52.445  1.00  0.00     0.008 C 
ATOM      8  C   UNL     1     101.268 131.550  53.824  1.00  0.00     0.031 C 
ATOM      9  C   UNL     1     102.500 130.681  53.511  1.00  0.00     0.005 C 
ATOM     10  C   UNL     1     102.967 130.755  52.047  1.00  0.00     0.008 C 
ATOM     11  C   UNL     1     102.905 132.186  51.438  1.00  0.00    -0.018 C 
ATOM     12  C   UNL     1     103.931 133.109  52.160  1.00  0.00     0.088 C 
ATOM     13  C   UNL     1     103.866 134.511  51.626  1.00  0.00     0.159 C 
ATOM     14  O   UNL     1     104.905 135.225  51.638  1.00  0.00    -0.295 OA
ATOM     15  C   UNL     1     103.320 132.057  49.948  1.00  0.00     0.012 C 
ATOM     16  C   UNL     1     103.606 136.726  49.654  1.00  0.00     0.039 C 
ENDROOT
TORSDOF 0
ENDMDL
MODEL 3
REMARK VINA RESULT:    -6.718      2.213      4.346
REMARK INTER + INTRA:          -6.718
REMARK INTER:                  -6.718
REMARK INTRA:                   0.000
REMARK UNBOUND:                 0.000
REMARK SMILES C=C1CCC[C@]2(C)CC(=O)C(=C(C)C)C[C@H]12
REMARK SMILES IDX 13 1 12 2 11 3 15 4 16 5 2 6 1 7 3 8 4 9 5 10 6 11 8 12 9 13
REMARK SMILES IDX 10 14 7 15 14 16
REMARK H PARENT
REMARK Flexibility Score: inf
ROOT
ATOM      1  C   UNL     1     106.199 134.310  53.117  1.00  0.00     0.039 C 
ATOM      2  C   UNL     1     105.178 135.138  52.371  1.00  0.00    -0.070 C 
ATOM      3  C   UNL     1     104.020 134.584  51.912  1.00  0.00    -0.006 C 
ATOM      4  C   UNL     1     103.646 133.134  52.146  1.00  0.00     0.047 C 
ATOM      5  C   UNL     1     102.270 132.988  52.855  1.00  0.00     0.025 C 
ATOM      6  C   UNL     1     101.720 131.599  52.564  1.00  0.00    -0.073 C 
ATOM      7  C   UNL     1     102.151 130.536  53.262  1.00  0.00     0.008 C 
ATOM      8  C   UNL     1     100.778 131.418  51.399  1.00  0.00     0.031 C 
ATOM      9  C   UNL     1      99.605 132.414  51.431  1.00  0.00     0.005 C 
ATOM     10  C   UNL     1      99.781 133.561  52.442  1.00  0.00     0.008 C 
ATOM     11  C   UNL     1     101.228 134.130  52.503  1.00  0.00    -0.018 C 
ATOM     12  C   UNL     1     101.578 134.822  51.153  1.00  0.00     0.088 C 
ATOM     13  C   UNL     1     102.986 135.345  51.162  1.00  0.00     0.159 C 
ATOM     14  O   UNL     1     103.272 136.361  50.475  1.00  0.00    -0.295 OA
ATOM     15  C   UNL     1     101.241 135.202  53.626  1.00  0.00     0.012 C 
ATOM     16  C   UNL     1     105.476 136.609  52.195  1.00  0.00     0.039 C 
ENDROOT
TORSDOF 0
ENDMDL
MODEL 4
REMARK VINA RESULT:    -6.718      1.643      2.805
REMARK INTER + INTRA:          -6.718
REMARK INTER:                  -6.718
REMARK INTRA:                   0.000
REMARK UNBOUND:                 0.000
REMARK SMILES C=C1CCC[C@]2(C)CC(=O)C(=C(C)C)C[C@H]12
REMARK SMILES IDX 13 1 12 2 11 3 15 4 16 5 2 6 1 7 3 8 4 9 5 10 6 11 8 12 9 13
REMARK SMILES IDX 10 14 7 15 14 16
REMARK H PARENT
REMARK Flexibility Score: inf
ROOT
ATOM      1  C   UNL     1     106.179 134.407  52.704  1.00  0.00     0.039 C 
ATOM      2  C   UNL     1     105.379 133.391  53.485  1.00  0.00    -0.070 C 
ATOM      3  C   UNL     1     104.024 133.311  53.359  1.00  0.00    -0.006 C 
ATOM      4  C   UNL     1     103.227 134.186  52.413  1.00  0.00     0.047 C 
ATOM      5  C   UNL     1     102.372 133.351  51.417  1.00  0.00     0.025 C 
ATOM      6  C   UNL     1     101.232 134.221  50.909  1.00  0.00    -0.073 C 
ATOM      7  C   UNL     1     101.443 135.112  49.925  1.00  0.00     0.008 C 
ATOM      8  C   UNL     1      99.898 134.158  51.610  1.00  0.00     0.031 C 
ATOM      9  C   UNL     1      99.384 132.714  51.763  1.00  0.00     0.005 C 
ATOM     10  C   UNL     1     100.437 131.635  51.456  1.00  0.00     0.008 C 
ATOM     11  C   UNL     1     101.857 131.969  51.997  1.00  0.00    -0.018 C 
ATOM     12  C   UNL     1     101.837 131.978  53.554  1.00  0.00     0.088 C 
ATOM     13  C   UNL     1     103.184 132.341  54.111  1.00  0.00     0.159 C 
ATOM     14  O   UNL     1     103.534 131.881  55.231  1.00  0.00    -0.295 OA
ATOM     15  C   UNL     1     102.797 130.829  51.522  1.00  0.00     0.012 C 
ATOM     16  C   UNL     1     106.147 132.441  54.375  1.00  0.00     0.039 C 
ENDROOT
TORSDOF 0
ENDMDL
MODEL 5
REMARK VINA RESULT:    -6.691      2.432      4.358
REMARK INTER + INTRA:          -6.691
REMARK INTER:                  -6.691
REMARK INTRA:                   0.000
REMARK UNBOUND:                 0.000
REMARK SMILES C=C1CCC[C@]2(C)CC(=O)C(=C(C)C)C[C@H]12
REMARK SMILES IDX 13 1 12 2 11 3 15 4 16 5 2 6 1 7 3 8 4 9 5 10 6 11 8 12 9 13
REMARK SMILES IDX 10 14 7 15 14 16
REMARK H PARENT
REMARK Flexibility Score: inf
ROOT
ATOM      1  C   UNL     1     101.312 136.624  54.937  1.00  0.00     0.039 C 
ATOM      2  C   UNL     1     102.682 136.223  54.442  1.00  0.00    -0.070 C 
ATOM      3  C   UNL     1     102.862 135.092  53.700  1.00  0.00    -0.006 C 
ATOM      4  C   UNL     1     101.722 134.186  53.283  1.00  0.00     0.047 C 
ATOM      5  C   UNL     1     101.658 133.992  51.741  1.00  0.00     0.025 C 
ATOM      6  C   UNL     1     100.904 132.704  51.446  1.00  0.00    -0.073 C 
ATOM      7  C   UNL     1      99.561 132.681  51.467  1.00  0.00     0.008 C 
ATOM      8  C   UNL     1     101.687 131.429  51.252  1.00  0.00     0.031 C 
ATOM      9  C   UNL     1     102.817 131.585  50.218  1.00  0.00     0.005 C 
ATOM     10  C   UNL     1     103.112 133.043  49.823  1.00  0.00     0.008 C 
ATOM     11  C   UNL     1     103.068 134.040  51.017  1.00  0.00    -0.018 C 
ATOM     12  C   UNL     1     104.226 133.724  52.009  1.00  0.00     0.088 C 
ATOM     13  C   UNL     1     104.186 134.642  53.197  1.00  0.00     0.159 C 
ATOM     14  O   UNL     1     105.261 134.940  53.783  1.00  0.00    -0.295 OA
ATOM     15  C   UNL     1     103.295 135.457  50.426  1.00  0.00     0.012 C 
ATOM     16  C   UNL     1     103.833 137.148  54.764  1.00  0.00     0.039 C 
ENDROOT
TORSDOF 0
ENDMDL
MODEL 6
REMARK VINA RESULT:    -6.612      1.826      3.317
REMARK INTER + INTRA:          -6.612
REMARK INTER:                  -6.612
REMARK INTRA:                   0.000
REMARK UNBOUND:                 0.000
REMARK SMILES C=C1CCC[C@]2(C)CC(=O)C(=C(C)C)C[C@H]12
REMARK SMILES IDX 13 1 12 2 11 3 15 4 16 5 2 6 1 7 3 8 4 9 5 10 6 11 8 12 9 13
REMARK SMILES IDX 10 14 7 15 14 16
REMARK H PARENT
REMARK Flexibility Score: inf
ROOT
ATOM      1  C   UNL     1     103.462 130.877  54.252  1.00  0.00     0.039 C 
ATOM      2  C   UNL     1     104.277 132.060  53.782  1.00  0.00    -0.070 C 
ATOM      3  C   UNL     1     103.826 132.879  52.789  1.00  0.00    -0.006 C 
ATOM      4  C   UNL     1     102.479 132.702  52.118  1.00  0.00     0.047 C 
ATOM      5  C   UNL     1     101.602 133.983  52.212  1.00  0.00     0.025 C 
ATOM      6  C   UNL     1     100.565 133.943  51.099  1.00  0.00    -0.073 C 
ATOM      7  C   UNL     1      99.447 133.211  51.237  1.00  0.00     0.008 C 
ATOM      8  C   UNL     1     100.869 134.635  49.794  1.00  0.00     0.031 C 
ATOM      9  C   UNL     1     101.320 136.094  49.994  1.00  0.00     0.005 C 
ATOM     10  C   UNL     1     101.654 136.455  51.452  1.00  0.00     0.008 C 
ATOM     11  C   UNL     1     102.422 135.339  52.217  1.00  0.00    -0.018 C 
ATOM     12  C   UNL     1     103.836 135.150  51.590  1.00  0.00     0.088 C 
ATOM     13  C   UNL     1     104.589 134.047  52.278  1.00  0.00     0.159 C 
ATOM     14  O   UNL     1     105.847 134.101  52.334  1.00  0.00    -0.295 OA
ATOM     15  C   UNL     1     102.592 135.833  53.679  1.00  0.00     0.012 C 
ATOM     16  C   UNL     1     105.587 132.320  54.487  1.00  0.00     0.039 C 
ENDROOT
TORSDOF 0
ENDMDL
MODEL 7
REMARK VINA RESULT:    -6.563      2.102      3.734
REMARK INTER + INTRA:          -6.563
REMARK INTER:                  -6.563
REMARK INTRA:                   0.000
REMARK UNBOUND:                 0.000
REMARK SMILES C=C1CCC[C@]2(C)CC(=O)C(=C(C)C)C[C@H]12
REMARK SMILES IDX 13 1 12 2 11 3 15 4 16 5 2 6 1 7 3 8 4 9 5 10 6 11 8 12 9 13
REMARK SMILES IDX 10 14 7 15 14 16
REMARK H PARENT
REMARK Flexibility Score: inf
ROOT
ATOM      1  C   UNL     1     107.104 134.375  53.046  1.00  0.00     0.039 C 
ATOM      2  C   UNL     1     106.000 134.336  54.077  1.00  0.00    -0.070 C 
ATOM      3  C   UNL     1     104.704 134.114  53.715  1.00  0.00    -0.006 C 
ATOM      4  C   UNL     1     104.277 133.849  52.286  1.00  0.00     0.047 C 
ATOM      5  C   UNL     1     103.506 132.507  52.141  1.00  0.00     0.025 C 
ATOM      6  C   UNL     1     102.659 132.569  50.877  1.00  0.00    -0.073 C 
ATOM      7  C   UNL     1     103.213 132.338  49.675  1.00  0.00     0.008 C 
ATOM      8  C   UNL     1     101.222 133.014  50.984  1.00  0.00     0.031 C 
ATOM      9  C   UNL     1     100.443 132.234  52.059  1.00  0.00     0.005 C 
ATOM     10  C   UNL     1     101.332 131.393  52.993  1.00  0.00     0.008 C 
ATOM     11  C   UNL     1     102.652 132.102  53.413  1.00  0.00    -0.018 C 
ATOM     12  C   UNL     1     102.324 133.343  54.296  1.00  0.00     0.088 C 
ATOM     13  C   UNL     1     103.576 134.077  54.683  1.00  0.00     0.159 C 
ATOM     14  O   UNL     1     103.610 134.707  55.774  1.00  0.00    -0.295 OA
ATOM     15  C   UNL     1     103.454 131.086  54.269  1.00  0.00     0.012 C 
ATOM     16  C   UNL     1     106.398 134.509  55.525  1.00  0.00     0.039 C 
ENDROOT
TORSDOF 0
ENDMDL
MODEL 8
REMARK VINA RESULT:    -6.535      1.937      4.304
REMARK INTER + INTRA:          -6.535
REMARK INTER:                  -6.535
REMARK INTRA:                   0.000
REMARK UNBOUND:                 0.000
REMARK SMILES C=C1CCC[C@]2(C)CC(=O)C(=C(C)C)C[C@H]12
REMARK SMILES IDX 13 1 12 2 11 3 15 4 16 5 2 6 1 7 3 8 4 9 5 10 6 11 8 12 9 13
REMARK SMILES IDX 10 14 7 15 14 16
REMARK H PARENT
REMARK Flexibility Score: inf
ROOT
ATOM      1  C   UNL     1      99.633 131.395  52.741  1.00  0.00     0.039 C 
ATOM      2  C   UNL     1     100.100 132.757  52.282  1.00  0.00    -0.070 C 
ATOM      3  C   UNL     1     101.259 133.301  52.751  1.00  0.00    -0.006 C 
ATOM      4  C   UNL     1     102.179 132.583  53.718  1.00  0.00     0.047 C 
ATOM      5  C   UNL     1     103.628 132.455  53.168  1.00  0.00     0.025 C 
ATOM      6  C   UNL     1     104.576 132.254  54.341  1.00  0.00    -0.073 C 
ATOM      7  C   UNL     1     104.719 131.040  54.899  1.00  0.00     0.008 C 
ATOM      8  C   UNL     1     105.254 133.458  54.945  1.00  0.00     0.031 C 
ATOM      9  C   UNL     1     105.959 134.327  53.887  1.00  0.00     0.005 C 
ATOM     10  C   UNL     1     105.588 133.975  52.436  1.00  0.00     0.008 C 
ATOM     11  C   UNL     1     104.080 133.651  52.232  1.00  0.00    -0.018 C 
ATOM     12  C   UNL     1     103.228 134.929  52.491  1.00  0.00     0.088 C 
ATOM     13  C   UNL     1     101.761 134.640  52.346  1.00  0.00     0.159 C 
ATOM     14  O   UNL     1     100.986 135.557  51.963  1.00  0.00    -0.295 OA
ATOM     15  C   UNL     1     103.908 133.236  50.746  1.00  0.00     0.012 C 
ATOM     16  C   UNL     1      99.254 133.467  51.251  1.00  0.00     0.039 C 
ENDROOT
TORSDOF 0
ENDMDL
MODEL 9
REMARK VINA RESULT:    -6.380      1.552      4.409
REMARK INTER + INTRA:          -6.380
REMARK INTER:                  -6.380
REMARK INTRA:                   0.000
REMARK UNBOUND:                 0.000
REMARK SMILES C=C1CCC[C@]2(C)CC(=O)C(=C(C)C)C[C@H]12
REMARK SMILES IDX 13 1 12 2 11 3 15 4 16 5 2 6 1 7 3 8 4 9 5 10 6 11 8 12 9 13
REMARK SMILES IDX 10 14 7 15 14 16
REMARK H PARENT
REMARK Flexibility Score: inf
ROOT
ATOM      1  C   UNL     1     101.225 136.290  49.746  1.00  0.00     0.039 C 
ATOM      2  C   UNL     1     100.947 134.944  50.374  1.00  0.00    -0.070 C 
ATOM      3  C   UNL     1     101.913 134.271  51.061  1.00  0.00    -0.006 C 
ATOM      4  C   UNL     1     103.306 134.825  51.287  1.00  0.00     0.047 C 
ATOM      5  C   UNL     1     103.676 134.891  52.796  1.00  0.00     0.025 C 
ATOM      6  C   UNL     1     105.192 134.910  52.922  1.00  0.00    -0.073 C 
ATOM      7  C   UNL     1     105.876 136.053  52.742  1.00  0.00     0.008 C 
ATOM      8  C   UNL     1     105.924 133.606  53.128  1.00  0.00     0.031 C 
ATOM      9  C   UNL     1     105.344 132.786  54.295  1.00  0.00     0.005 C 
ATOM     10  C   UNL     1     103.986 133.297  54.809  1.00  0.00     0.008 C 
ATOM     11  C   UNL     1     103.016 133.753  53.681  1.00  0.00    -0.018 C 
ATOM     12  C   UNL     1     102.603 132.527  52.815  1.00  0.00     0.088 C 
ATOM     13  C   UNL     1     101.701 132.940  51.688  1.00  0.00     0.159 C 
ATOM     14  O   UNL     1     100.845 132.125  51.251  1.00  0.00    -0.295 OA
ATOM     15  C   UNL     1     101.749 134.315  54.379  1.00  0.00     0.012 C 
ATOM     16  C   UNL     1      99.543 134.398  50.245  1.00  0.00     0.039 C 
ENDROOT
TORSDOF 0
ENDMDL
