MODEL 1
REMARK VINA RESULT:    -4.028      0.000      0.000
REMARK INTER + INTRA:         -16.481
REMARK INTER:                 -10.620
REMARK INTRA:                  -5.861
REMARK UNBOUND:                -5.861
REMARK SMILES CCCCCCCCCCCCCCCCCCCCCCCCCCCCCC(=O)[O-]
REMARK SMILES IDX 16 1 17 2 18 3 19 4 20 5 21 6 22 7 23 8 24 9 25 10 26 11
REMARK SMILES IDX 27 12 28 13 29 14 30 15 31 16 32 17 15 18 14 19 13 20 12 21
REMARK SMILES IDX 11 22 10 23 9 24 8 25 7 26 6 27 5 28 4 29 3 30 2 31 1 32
REMARK H PARENT
REMARK Flexibility Score: inf
ROOT
ATOM      1  C   UNL     1      19.904  -0.683  16.671  1.00  0.00     0.000 C 
ENDROOT
BRANCH   1   2
ATOM      2  C   UNL     1      20.160  -2.168  16.979  1.00  0.00     0.000 C 
BRANCH   2   3
ATOM      3  C   UNL     1      20.052  -2.498  18.477  1.00  0.00     0.000 C 
BRANCH   3   4
ATOM      4  C   UNL     1      20.952  -3.674  18.888  1.00  0.00     0.000 C 
BRANCH   4   5
ATOM      5  C   UNL     1      21.554  -4.412  17.678  1.00  0.00     0.000 C 
BRANCH   5   6
ATOM      6  C   UNL     1      23.090  -4.444  17.708  1.00  0.00     0.000 C 
BRANCH   6   7
ATOM      7  C   UNL     1      23.711  -3.045  17.873  1.00  0.00     0.000 C 
BRANCH   7   8
ATOM      8  C   UNL     1      23.843  -2.303  16.527  1.00  0.00     0.000 C 
BRANCH   8   9
ATOM      9  C   UNL     1      24.048  -3.237  15.321  1.00  0.00     0.000 C 
BRANCH   9  10
ATOM     10  C   UNL     1      23.011  -3.011  14.210  1.00  0.00     0.000 C 
BRANCH  10  11
ATOM     11  C   UNL     1      22.651  -1.528  14.005  1.00  0.00     0.000 C 
BRANCH  11  12
ATOM     12  C   UNL     1      21.787  -1.222  12.767  1.00  0.00     0.000 C 
BRANCH  12  13
ATOM     13  C   UNL     1      20.358  -0.778  13.119  1.00  0.00     0.006 C 
BRANCH  13  14
ATOM     14  C   UNL     1      19.393  -1.967  13.105  1.00  0.00     0.053 C 
BRANCH  14  15
ATOM     15  C   UNL     1      18.828  -2.170  11.733  1.00  0.00     0.041 C 
ATOM     16  O   UNL     1      19.049  -3.241  11.108  1.00  0.00    -0.550 OA
ATOM     17  O   UNL     1      18.017  -1.193  11.166  1.00  0.00    -0.550 OA
ENDBRANCH  14  15
ENDBRANCH  13  14
ENDBRANCH  12  13
ENDBRANCH  11  12
ENDBRANCH  10  11
ENDBRANCH   9  10
ENDBRANCH   8   9
ENDBRANCH   7   8
ENDBRANCH   6   7
ENDBRANCH   5   6
ENDBRANCH   4   5
ENDBRANCH   3   4
ENDBRANCH   2   3
ENDBRANCH   1   2
BRANCH   1  18
ATOM     18  C   UNL     1      21.161   0.204  16.789  1.00  0.00     0.000 C 
BRANCH  18  19
ATOM     19  C   UNL     1      20.888   1.493  17.578  1.00  0.00     0.000 C 
BRANCH  19  20
ATOM     20  C   UNL     1      21.782   1.577  18.825  1.00  0.00     0.000 C 
BRANCH  20  21
ATOM     21  C   UNL     1      22.813   0.435  18.889  1.00  0.00     0.000 C 
BRANCH  21  22
ATOM     22  C   UNL     1      24.259   0.941  18.739  1.00  0.00     0.000 C 
BRANCH  22  23
ATOM     23  C   UNL     1      24.331   2.324  18.072  1.00  0.00     0.000 C 
BRANCH  23  24
ATOM     24  C   UNL     1      25.618   2.522  17.250  1.00  0.00    -0.000 C 
BRANCH  24  25
ATOM     25  C   UNL     1      25.352   2.494  15.736  1.00  0.00    -0.000 C 
BRANCH  25  26
ATOM     26  C   UNL     1      24.250   1.490  15.351  1.00  0.00    -0.000 C 
BRANCH  26  27
ATOM     27  C   UNL     1      23.264   2.066  14.324  1.00  0.00    -0.000 C 
BRANCH  27  28
ATOM     28  C   UNL     1      22.476   3.265  14.878  1.00  0.00    -0.000 C 
BRANCH  28  29
ATOM     29  C   UNL     1      22.438   4.453  13.901  1.00  0.00    -0.000 C 
BRANCH  29  30
ATOM     30  C   UNL     1      23.114   5.739  14.415  1.00  0.00    -0.000 C 
BRANCH  30  31
ATOM     31  C   UNL     1      24.646   5.768  14.276  1.00  0.00    -0.003 C 
ATOM     32  C   UNL     1      25.136   5.199  12.944  1.00  0.00     0.004 C 
ENDBRANCH  30  31
ENDBRANCH  29  30
ENDBRANCH  28  29
ENDBRANCH  27  28
ENDBRANCH  26  27
ENDBRANCH  25  26
ENDBRANCH  24  25
ENDBRANCH  23  24
ENDBRANCH  22  23
ENDBRANCH  21  22
ENDBRANCH  20  21
ENDBRANCH  19  20
ENDBRANCH  18  19
ENDBRANCH   1  18
TORSDOF 28
ENDMDL
MODEL 2
REMARK VINA RESULT:    -3.966      4.187      8.567
REMARK INTER + INTRA:         -16.320
REMARK INTER:                 -11.530
REMARK INTRA:                  -4.790
REMARK UNBOUND:                -5.861
REMARK SMILES CCCCCCCCCCCCCCCCCCCCCCCCCCCCCC(=O)[O-]
REMARK SMILES IDX 16 1 17 2 18 3 19 4 20 5 21 6 22 7 23 8 24 9 25 10 26 11
REMARK SMILES IDX 27 12 28 13 29 14 30 15 31 16 32 17 15 18 14 19 13 20 12 21
REMARK SMILES IDX 11 22 10 23 9 24 8 25 7 26 6 27 5 28 4 29 3 30 2 31 1 32
REMARK H PARENT
REMARK Flexibility Score: inf
ROOT
ATOM      1  C   UNL     1      19.803  -1.621  11.602  1.00  0.00     0.000 C 
ENDROOT
BRANCH   1   2
ATOM      2  C   UNL     1      21.250  -1.118  11.740  1.00  0.00     0.000 C 
BRANCH   2   3
ATOM      3  C   UNL     1      21.466  -0.243  12.986  1.00  0.00     0.000 C 
BRANCH   3   4
ATOM      4  C   UNL     1      22.646  -0.723  13.846  1.00  0.00     0.000 C 
BRANCH   4   5
ATOM      5  C   UNL     1      22.733  -2.257  13.933  1.00  0.00     0.000 C 
BRANCH   5   6
ATOM      6  C   UNL     1      23.500  -2.738  15.175  1.00  0.00     0.000 C 
BRANCH   6   7
ATOM      7  C   UNL     1      22.582  -3.391  16.224  1.00  0.00     0.000 C 
BRANCH   7   8
ATOM      8  C   UNL     1      21.100  -3.380  15.792  1.00  0.00     0.000 C 
BRANCH   8   9
ATOM      9  C   UNL     1      20.119  -3.124  16.949  1.00  0.00     0.000 C 
BRANCH   9  10
ATOM     10  C   UNL     1      20.257  -1.714  17.545  1.00  0.00     0.000 C 
BRANCH  10  11
ATOM     11  C   UNL     1      20.023  -0.593  16.516  1.00  0.00     0.000 C 
BRANCH  11  12
ATOM     12  C   UNL     1      20.963   0.623  16.638  1.00  0.00     0.000 C 
BRANCH  12  13
ATOM     13  C   UNL     1      21.985   0.486  17.777  1.00  0.00     0.006 C 
BRANCH  13  14
ATOM     14  C   UNL     1      23.410   0.369  17.227  1.00  0.00     0.053 C 
BRANCH  14  15
ATOM     15  C   UNL     1      23.869   1.682  16.671  1.00  0.00     0.041 C 
ATOM     16  O   UNL     1      23.668   2.747  17.312  1.00  0.00    -0.550 OA
ATOM     17  O   UNL     1      24.562   1.720  15.467  1.00  0.00    -0.550 OA
ENDBRANCH  14  15
ENDBRANCH  13  14
ENDBRANCH  12  13
ENDBRANCH  11  12
ENDBRANCH  10  11
ENDBRANCH   9  10
ENDBRANCH   8   9
ENDBRANCH   7   8
ENDBRANCH   6   7
ENDBRANCH   5   6
ENDBRANCH   4   5
ENDBRANCH   3   4
ENDBRANCH   2   3
ENDBRANCH   1   2
BRANCH   1  18
ATOM     18  C   UNL     1      19.114  -1.913  12.952  1.00  0.00     0.000 C 
BRANCH  18  19
ATOM     19  C   UNL     1      18.557  -3.344  13.020  1.00  0.00     0.000 C 
BRANCH  19  20
ATOM     20  C   UNL     1      17.233  -3.458  12.250  1.00  0.00     0.000 C 
BRANCH  20  21
ATOM     21  C   UNL     1      16.269  -2.298  12.559  1.00  0.00     0.000 C 
BRANCH  21  22
ATOM     22  C   UNL     1      15.637  -1.705  11.287  1.00  0.00     0.000 C 
BRANCH  22  23
ATOM     23  C   UNL     1      16.425  -0.501  10.745  1.00  0.00     0.000 C 
BRANCH  23  24
ATOM     24  C   UNL     1      16.933  -0.720   9.309  1.00  0.00    -0.000 C 
BRANCH  24  25
ATOM     25  C   UNL     1      16.581  -2.117   8.773  1.00  0.00    -0.000 C 
BRANCH  25  26
ATOM     26  C   UNL     1      15.526  -2.070   7.654  1.00  0.00    -0.000 C 
BRANCH  26  27
ATOM     27  C   UNL     1      14.807  -0.713   7.582  1.00  0.00    -0.000 C 
BRANCH  27  28
ATOM     28  C   UNL     1      13.512  -0.692   8.411  1.00  0.00    -0.000 C 
BRANCH  28  29
ATOM     29  C   UNL     1      12.714   0.610   8.232  1.00  0.00    -0.000 C 
BRANCH  29  30
ATOM     30  C   UNL     1      13.514   1.786   7.637  1.00  0.00    -0.000 C 
BRANCH  30  31
ATOM     31  C   UNL     1      14.068   2.784   8.670  1.00  0.00    -0.003 C 
ATOM     32  C   UNL     1      13.961   2.276  10.108  1.00  0.00     0.004 C 
ENDBRANCH  30  31
ENDBRANCH  29  30
ENDBRANCH  28  29
ENDBRANCH  27  28
ENDBRANCH  26  27
ENDBRANCH  25  26
ENDBRANCH  24  25
ENDBRANCH  23  24
ENDBRANCH  22  23
ENDBRANCH  21  22
ENDBRANCH  20  21
ENDBRANCH  19  20
ENDBRANCH  18  19
ENDBRANCH   1  18
TORSDOF 28
ENDMDL
MODEL 3
REMARK VINA RESULT:    -3.927      3.238      7.108
REMARK INTER + INTRA:         -16.214
REMARK INTER:                 -11.563
REMARK INTRA:                  -4.652
REMARK UNBOUND:                -5.861
REMARK SMILES CCCCCCCCCCCCCCCCCCCCCCCCCCCCCC(=O)[O-]
REMARK SMILES IDX 16 1 17 2 18 3 19 4 20 5 21 6 22 7 23 8 24 9 25 10 26 11
REMARK SMILES IDX 27 12 28 13 29 14 30 15 31 16 32 17 15 18 14 19 13 20 12 21
REMARK SMILES IDX 11 22 10 23 9 24 8 25 7 26 6 27 5 28 4 29 3 30 2 31 1 32
REMARK H PARENT
REMARK Flexibility Score: inf
ROOT
ATOM      1  C   UNL     1      19.878  -0.653  17.834  1.00  0.00     0.000 C 
ENDROOT
BRANCH   1   2
ATOM      2  C   UNL     1      20.301   0.421  16.819  1.00  0.00     0.000 C 
BRANCH   2   3
ATOM      3  C   UNL     1      21.423   1.334  17.342  1.00  0.00     0.000 C 
BRANCH   3   4
ATOM      4  C   UNL     1      22.338   0.624  18.352  1.00  0.00     0.000 C 
BRANCH   4   5
ATOM      5  C   UNL     1      23.833   0.844  18.057  1.00  0.00     0.000 C 
BRANCH   5   6
ATOM      6  C   UNL     1      24.164   2.311  17.741  1.00  0.00     0.000 C 
BRANCH   6   7
ATOM      7  C   UNL     1      25.242   2.455  16.652  1.00  0.00     0.000 C 
BRANCH   7   8
ATOM      8  C   UNL     1      24.676   2.221  15.235  1.00  0.00     0.000 C 
BRANCH   8   9
ATOM      9  C   UNL     1      23.347   2.951  14.970  1.00  0.00     0.000 C 
BRANCH   9  10
ATOM     10  C   UNL     1      22.610   2.415  13.733  1.00  0.00     0.000 C 
BRANCH  10  11
ATOM     11  C   UNL     1      22.167   3.524  12.760  1.00  0.00     0.000 C 
BRANCH  11  12
ATOM     12  C   UNL     1      22.459   4.965  13.223  1.00  0.00     0.000 C 
BRANCH  12  13
ATOM     13  C   UNL     1      23.523   5.671  12.369  1.00  0.00     0.006 C 
BRANCH  13  14
ATOM     14  C   UNL     1      24.934   5.366  12.881  1.00  0.00     0.053 C 
BRANCH  14  15
ATOM     15  C   UNL     1      25.318   6.324  13.966  1.00  0.00     0.041 C 
ATOM     16  O   UNL     1      25.737   7.476  13.676  1.00  0.00    -0.550 OA
ATOM     17  O   UNL     1      25.165   5.960  15.299  1.00  0.00    -0.550 OA
ENDBRANCH  14  15
ENDBRANCH  13  14
ENDBRANCH  12  13
ENDBRANCH  11  12
ENDBRANCH  10  11
ENDBRANCH   9  10
ENDBRANCH   8   9
ENDBRANCH   7   8
ENDBRANCH   6   7
ENDBRANCH   5   6
ENDBRANCH   4   5
ENDBRANCH   3   4
ENDBRANCH   2   3
ENDBRANCH   1   2
BRANCH   1  18
ATOM     18  C   UNL     1      20.145  -2.098  17.361  1.00  0.00     0.000 C 
BRANCH  18  19
ATOM     19  C   UNL     1      21.192  -2.808  18.233  1.00  0.00     0.000 C 
BRANCH  19  20
ATOM     20  C   UNL     1      22.097  -3.711  17.381  1.00  0.00     0.000 C 
BRANCH  20  21
ATOM     21  C   UNL     1      22.296  -3.170  15.954  1.00  0.00     0.000 C 
BRANCH  21  22
ATOM     22  C   UNL     1      23.414  -2.115  15.876  1.00  0.00     0.000 C 
BRANCH  22  23
ATOM     23  C   UNL     1      23.135  -1.040  14.813  1.00  0.00     0.000 C 
BRANCH  23  24
ATOM     24  C   UNL     1      22.268  -1.561  13.653  1.00  0.00    -0.000 C 
BRANCH  24  25
ATOM     25  C   UNL     1      21.005  -0.709  13.442  1.00  0.00    -0.000 C 
BRANCH  25  26
ATOM     26  C   UNL     1      19.712  -1.495  13.724  1.00  0.00    -0.000 C 
BRANCH  26  27
ATOM     27  C   UNL     1      19.256  -2.327  12.516  1.00  0.00    -0.000 C 
BRANCH  27  28
ATOM     28  C   UNL     1      17.725  -2.351  12.367  1.00  0.00    -0.000 C 
BRANCH  28  29
ATOM     29  C   UNL     1      17.267  -2.126  10.916  1.00  0.00    -0.000 C 
BRANCH  29  30
ATOM     30  C   UNL     1      17.169  -0.649  10.487  1.00  0.00    -0.000 C 
BRANCH  30  31
ATOM     31  C   UNL     1      15.828   0.034  10.810  1.00  0.00    -0.003 C 
ATOM     32  C   UNL     1      14.986   0.318   9.566  1.00  0.00     0.004 C 
ENDBRANCH  30  31
ENDBRANCH  29  30
ENDBRANCH  28  29
ENDBRANCH  27  28
ENDBRANCH  26  27
ENDBRANCH  25  26
ENDBRANCH  24  25
ENDBRANCH  23  24
ENDBRANCH  22  23
ENDBRANCH  21  22
ENDBRANCH  20  21
ENDBRANCH  19  20
ENDBRANCH  18  19
ENDBRANCH   1  18
TORSDOF 28
ENDMDL
MODEL 4
REMARK VINA RESULT:    -3.917      2.711      5.739
REMARK INTER + INTRA:         -16.189
REMARK INTER:                 -10.954
REMARK INTRA:                  -5.235
REMARK UNBOUND:                -5.861
REMARK SMILES CCCCCCCCCCCCCCCCCCCCCCCCCCCCCC(=O)[O-]
REMARK SMILES IDX 16 1 17 2 18 3 19 4 20 5 21 6 22 7 23 8 24 9 25 10 26 11
REMARK SMILES IDX 27 12 28 13 29 14 30 15 31 16 32 17 15 18 14 19 13 20 12 21
REMARK SMILES IDX 11 22 10 23 9 24 8 25 7 26 6 27 5 28 4 29 3 30 2 31 1 32
REMARK H PARENT
REMARK Flexibility Score: inf
ROOT
ATOM      1  C   UNL     1      21.312  -0.314  13.961  1.00  0.00     0.000 C 
ENDROOT
BRANCH   1   2
ATOM      2  C   UNL     1      22.347  -1.447  13.866  1.00  0.00     0.000 C 
BRANCH   2   3
ATOM      3  C   UNL     1      21.862  -2.758  14.507  1.00  0.00     0.000 C 
BRANCH   3   4
ATOM      4  C   UNL     1      20.584  -2.571  15.340  1.00  0.00     0.000 C 
BRANCH   4   5
ATOM      5  C   UNL     1      20.530  -3.504  16.563  1.00  0.00     0.000 C 
BRANCH   5   6
ATOM      6  C   UNL     1      20.370  -2.740  17.886  1.00  0.00     0.000 C 
BRANCH   6   7
ATOM      7  C   UNL     1      19.985  -1.264  17.677  1.00  0.00     0.000 C 
BRANCH   7   8
ATOM      8  C   UNL     1      20.937  -0.301  18.417  1.00  0.00     0.000 C 
BRANCH   8   9
ATOM      9  C   UNL     1      21.728   0.630  17.480  1.00  0.00     0.000 C 
BRANCH   9  10
ATOM     10  C   UNL     1      23.107   0.066  17.105  1.00  0.00     0.000 C 
BRANCH  10  11
ATOM     11  C   UNL     1      23.592  -1.040  18.060  1.00  0.00     0.000 C 
BRANCH  11  12
ATOM     12  C   UNL     1      24.082  -2.333  17.379  1.00  0.00     0.000 C 
BRANCH  12  13
ATOM     13  C   UNL     1      24.145  -3.534  18.336  1.00  0.00     0.006 C 
BRANCH  13  14
ATOM     14  C   UNL     1      23.965  -4.853  17.578  1.00  0.00     0.053 C 
BRANCH  14  15
ATOM     15  C   UNL     1      23.294  -5.872  18.446  1.00  0.00     0.041 C 
ATOM     16  O   UNL     1      22.178  -6.351  18.115  1.00  0.00    -0.550 OA
ATOM     17  O   UNL     1      23.928  -6.327  19.597  1.00  0.00    -0.550 OA
ENDBRANCH  14  15
ENDBRANCH  13  14
ENDBRANCH  12  13
ENDBRANCH  11  12
ENDBRANCH  10  11
ENDBRANCH   9  10
ENDBRANCH   8   9
ENDBRANCH   7   8
ENDBRANCH   6   7
ENDBRANCH   5   6
ENDBRANCH   4   5
ENDBRANCH   3   4
ENDBRANCH   2   3
ENDBRANCH   1   2
BRANCH   1  18
ATOM     18  C   UNL     1      21.632   0.900  13.063  1.00  0.00     0.000 C 
BRANCH  18  19
ATOM     19  C   UNL     1      22.499   1.942  13.785  1.00  0.00     0.000 C 
BRANCH  19  20
ATOM     20  C   UNL     1      22.018   3.368  13.478  1.00  0.00     0.000 C 
BRANCH  20  21
ATOM     21  C   UNL     1      22.911   4.084  12.449  1.00  0.00     0.000 C 
BRANCH  21  22
ATOM     22  C   UNL     1      22.432   5.516  12.150  1.00  0.00     0.000 C 
BRANCH  22  23
ATOM     23  C   UNL     1      23.124   6.563  13.037  1.00  0.00     0.000 C 
BRANCH  23  24
ATOM     24  C   UNL     1      24.649   6.368  13.110  1.00  0.00    -0.000 C 
BRANCH  24  25
ATOM     25  C   UNL     1      25.224   6.783  14.475  1.00  0.00    -0.000 C 
BRANCH  25  26
ATOM     26  C   UNL     1      24.705   5.901  15.624  1.00  0.00    -0.000 C 
BRANCH  26  27
ATOM     27  C   UNL     1      25.004   4.410  15.403  1.00  0.00    -0.000 C 
BRANCH  27  28
ATOM     28  C   UNL     1      24.643   3.553  16.627  1.00  0.00    -0.000 C 
BRANCH  28  29
ATOM     29  C   UNL     1      25.634   2.399  16.857  1.00  0.00    -0.000 C 
BRANCH  29  30
ATOM     30  C   UNL     1      26.474   2.510  18.145  1.00  0.00    -0.000 C 
BRANCH  30  31
ATOM     31  C   UNL     1      26.030   1.585  19.292  1.00  0.00    -0.003 C 
ATOM     32  C   UNL     1      24.704   2.009  19.923  1.00  0.00     0.004 C 
ENDBRANCH  30  31
ENDBRANCH  29  30
ENDBRANCH  28  29
ENDBRANCH  27  28
ENDBRANCH  26  27
ENDBRANCH  25  26
ENDBRANCH  24  25
ENDBRANCH  23  24
ENDBRANCH  22  23
ENDBRANCH  21  22
ENDBRANCH  20  21
ENDBRANCH  19  20
ENDBRANCH  18  19
ENDBRANCH   1  18
TORSDOF 28
ENDMDL
MODEL 5
REMARK VINA RESULT:    -3.900      1.821      3.405
REMARK INTER + INTRA:         -16.144
REMARK INTER:                 -11.119
REMARK INTRA:                  -5.025
REMARK UNBOUND:                -5.861
REMARK SMILES CCCCCCCCCCCCCCCCCCCCCCCCCCCCCC(=O)[O-]
REMARK SMILES IDX 16 1 17 2 18 3 19 4 20 5 21 6 22 7 23 8 24 9 25 10 26 11
REMARK SMILES IDX 27 12 28 13 29 14 30 15 31 16 32 17 15 18 14 19 13 20 12 21
REMARK SMILES IDX 11 22 10 23 9 24 8 25 7 26 6 27 5 28 4 29 3 30 2 31 1 32
REMARK H PARENT
REMARK Flexibility Score: inf
ROOT
ATOM      1  C   UNL     1      20.741  -2.699  18.225  1.00  0.00     0.000 C 
ENDROOT
BRANCH   1   2
ATOM      2  C   UNL     1      20.833  -3.953  17.340  1.00  0.00     0.000 C 
BRANCH   2   3
ATOM      3  C   UNL     1      22.276  -4.306  16.945  1.00  0.00     0.000 C 
BRANCH   3   4
ATOM      4  C   UNL     1      23.266  -3.171  17.253  1.00  0.00     0.000 C 
BRANCH   4   5
ATOM      5  C   UNL     1      23.936  -2.607  15.987  1.00  0.00     0.000 C 
BRANCH   5   6
ATOM      6  C   UNL     1      23.018  -2.665  14.755  1.00  0.00     0.000 C 
BRANCH   6   7
ATOM      7  C   UNL     1      22.713  -1.272  14.175  1.00  0.00     0.000 C 
BRANCH   7   8
ATOM      8  C   UNL     1      21.206  -1.066  13.913  1.00  0.00     0.000 C 
BRANCH   8   9
ATOM      9  C   UNL     1      20.371  -2.351  14.053  1.00  0.00     0.000 C 
BRANCH   9  10
ATOM     10  C   UNL     1      19.011  -2.258  13.343  1.00  0.00     0.000 C 
BRANCH  10  11
ATOM     11  C   UNL     1      19.100  -2.497  11.825  1.00  0.00     0.000 C 
BRANCH  11  12
ATOM     12  C   UNL     1      17.769  -2.378  11.058  1.00  0.00     0.000 C 
BRANCH  12  13
ATOM     13  C   UNL     1      17.434  -0.936  10.647  1.00  0.00     0.006 C 
BRANCH  13  14
ATOM     14  C   UNL     1      15.949  -0.630  10.867  1.00  0.00     0.053 C 
BRANCH  14  15
ATOM     15  C   UNL     1      15.573   0.658  10.204  1.00  0.00     0.041 C 
ATOM     16  O   UNL     1      15.391   1.697  10.892  1.00  0.00    -0.550 OA
ATOM     17  O   UNL     1      15.472   0.721   8.818  1.00  0.00    -0.550 OA
ENDBRANCH  14  15
ENDBRANCH  13  14
ENDBRANCH  12  13
ENDBRANCH  11  12
ENDBRANCH  10  11
ENDBRANCH   9  10
ENDBRANCH   8   9
ENDBRANCH   7   8
ENDBRANCH   6   7
ENDBRANCH   5   6
ENDBRANCH   4   5
ENDBRANCH   3   4
ENDBRANCH   2   3
ENDBRANCH   1   2
BRANCH   1  18
ATOM     18  C   UNL     1      19.889  -1.566  17.615  1.00  0.00     0.000 C 
BRANCH  18  19
ATOM     19  C   UNL     1      20.677  -0.253  17.488  1.00  0.00     0.000 C 
BRANCH  19  20
ATOM     20  C   UNL     1      21.731  -0.133  18.598  1.00  0.00     0.000 C 
BRANCH  20  21
ATOM     21  C   UNL     1      23.036   0.518  18.105  1.00  0.00     0.000 C 
BRANCH  21  22
ATOM     22  C   UNL     1      22.838   1.319  16.805  1.00  0.00     0.000 C 
BRANCH  22  23
ATOM     23  C   UNL     1      24.145   1.486  16.014  1.00  0.00     0.000 C 
BRANCH  23  24
ATOM     24  C   UNL     1      23.927   2.133  14.635  1.00  0.00    -0.000 C 
BRANCH  24  25
ATOM     25  C   UNL     1      22.485   2.632  14.447  1.00  0.00    -0.000 C 
BRANCH  25  26
ATOM     26  C   UNL     1      22.167   2.976  12.981  1.00  0.00    -0.000 C 
BRANCH  26  27
ATOM     27  C   UNL     1      22.330   4.475  12.681  1.00  0.00    -0.000 C 
BRANCH  27  28
ATOM     28  C   UNL     1      23.788   4.855  12.376  1.00  0.00    -0.000 C 
BRANCH  28  29
ATOM     29  C   UNL     1      24.286   6.032  13.233  1.00  0.00    -0.000 C 
BRANCH  29  30
ATOM     30  C   UNL     1      24.833   5.641  14.620  1.00  0.00    -0.000 C 
BRANCH  30  31
ATOM     31  C   UNL     1      23.838   5.808  15.782  1.00  0.00    -0.003 C 
ATOM     32  C   UNL     1      24.259   5.054  17.043  1.00  0.00     0.004 C 
ENDBRANCH  30  31
ENDBRANCH  29  30
ENDBRANCH  28  29
ENDBRANCH  27  28
ENDBRANCH  26  27
ENDBRANCH  25  26
ENDBRANCH  24  25
ENDBRANCH  23  24
ENDBRANCH  22  23
ENDBRANCH  21  22
ENDBRANCH  20  21
ENDBRANCH  19  20
ENDBRANCH  18  19
ENDBRANCH   1  18
TORSDOF 28
ENDMDL
MODEL 6
REMARK VINA RESULT:    -3.896      3.067      4.912
REMARK INTER + INTRA:         -16.133
REMARK INTER:                 -10.338
REMARK INTRA:                  -5.795
REMARK UNBOUND:                -5.861
REMARK SMILES CCCCCCCCCCCCCCCCCCCCCCCCCCCCCC(=O)[O-]
REMARK SMILES IDX 16 1 17 2 18 3 19 4 20 5 21 6 22 7 23 8 24 9 25 10 26 11
REMARK SMILES IDX 27 12 28 13 29 14 30 15 31 16 32 17 15 18 14 19 13 20 12 21
REMARK SMILES IDX 11 22 10 23 9 24 8 25 7 26 6 27 5 28 4 29 3 30 2 31 1 32
REMARK H PARENT
REMARK Flexibility Score: inf
ROOT
ATOM      1  C   UNL     1      21.938   2.220  18.699  1.00  0.00     0.000 C 
ENDROOT
BRANCH   1   2
ATOM      2  C   UNL     1      22.981   1.107  18.893  1.00  0.00     0.000 C 
BRANCH   2   3
ATOM      3  C   UNL     1      22.605  -0.201  18.177  1.00  0.00     0.000 C 
BRANCH   3   4
ATOM      4  C   UNL     1      21.231  -0.735  18.608  1.00  0.00     0.000 C 
BRANCH   4   5
ATOM      5  C   UNL     1      20.493  -1.464  17.471  1.00  0.00     0.000 C 
BRANCH   5   6
ATOM      6  C   UNL     1      20.085  -0.521  16.329  1.00  0.00     0.000 C 
BRANCH   6   7
ATOM      7  C   UNL     1      20.531  -1.033  14.947  1.00  0.00     0.000 C 
BRANCH   7   8
ATOM      8  C   UNL     1      21.007  -2.500  14.994  1.00  0.00     0.000 C 
BRANCH   8   9
ATOM      9  C   UNL     1      22.425  -2.710  14.434  1.00  0.00     0.000 C 
BRANCH   9  10
ATOM     10  C   UNL     1      23.510  -2.644  15.521  1.00  0.00     0.000 C 
BRANCH  10  11
ATOM     11  C   UNL     1      23.409  -3.784  16.550  1.00  0.00     0.000 C 
BRANCH  11  12
ATOM     12  C   UNL     1      24.532  -3.823  17.605  1.00  0.00     0.000 C 
BRANCH  12  13
ATOM     13  C   UNL     1      24.030  -3.562  19.034  1.00  0.00     0.006 C 
BRANCH  13  14
ATOM     14  C   UNL     1      22.638  -4.164  19.248  1.00  0.00     0.053 C 
BRANCH  14  15
ATOM     15  C   UNL     1      22.733  -5.461  19.989  1.00  0.00     0.041 C 
ATOM     16  O   UNL     1      23.847  -6.029  20.132  1.00  0.00    -0.550 OA
ATOM     17  O   UNL     1      21.595  -6.016  20.564  1.00  0.00    -0.550 OA
ENDBRANCH  14  15
ENDBRANCH  13  14
ENDBRANCH  12  13
ENDBRANCH  11  12
ENDBRANCH  10  11
ENDBRANCH   9  10
ENDBRANCH   8   9
ENDBRANCH   7   8
ENDBRANCH   6   7
ENDBRANCH   5   6
ENDBRANCH   4   5
ENDBRANCH   3   4
ENDBRANCH   2   3
ENDBRANCH   1   2
BRANCH   1  18
ATOM     18  C   UNL     1      22.539   3.641  18.678  1.00  0.00     0.000 C 
BRANCH  18  19
ATOM     19  C   UNL     1      22.308   4.347  17.333  1.00  0.00     0.000 C 
BRANCH  19  20
ATOM     20  C   UNL     1      23.590   5.040  16.847  1.00  0.00     0.000 C 
BRANCH  20  21
ATOM     21  C   UNL     1      24.785   4.075  16.758  1.00  0.00     0.000 C 
BRANCH  21  22
ATOM     22  C   UNL     1      24.781   3.254  15.456  1.00  0.00     0.000 C 
BRANCH  22  23
ATOM     23  C   UNL     1      24.701   1.741  15.715  1.00  0.00     0.000 C 
BRANCH  23  24
ATOM     24  C   UNL     1      23.579   1.058  14.913  1.00  0.00    -0.000 C 
BRANCH  24  25
ATOM     25  C   UNL     1      22.431   2.024  14.579  1.00  0.00    -0.000 C 
BRANCH  25  26
ATOM     26  C   UNL     1      22.083   2.027  13.080  1.00  0.00    -0.000 C 
BRANCH  26  27
ATOM     27  C   UNL     1      21.651   3.414  12.580  1.00  0.00    -0.000 C 
BRANCH  27  28
ATOM     28  C   UNL     1      22.230   4.551  13.437  1.00  0.00    -0.000 C 
BRANCH  28  29
ATOM     29  C   UNL     1      23.341   5.333  12.715  1.00  0.00    -0.000 C 
BRANCH  29  30
ATOM     30  C   UNL     1      23.259   6.865  12.861  1.00  0.00    -0.000 C 
BRANCH  30  31
ATOM     31  C   UNL     1      24.435   7.510  13.614  1.00  0.00    -0.003 C 
ATOM     32  C   UNL     1      25.652   6.592  13.722  1.00  0.00     0.004 C 
ENDBRANCH  30  31
ENDBRANCH  29  30
ENDBRANCH  28  29
ENDBRANCH  27  28
ENDBRANCH  26  27
ENDBRANCH  25  26
ENDBRANCH  24  25
ENDBRANCH  23  24
ENDBRANCH  22  23
ENDBRANCH  21  22
ENDBRANCH  20  21
ENDBRANCH  19  20
ENDBRANCH  18  19
ENDBRANCH   1  18
TORSDOF 28
ENDMDL
MODEL 7
REMARK VINA RESULT:    -3.879      2.661      7.465
REMARK INTER + INTRA:         -16.089
REMARK INTER:                 -10.226
REMARK INTRA:                  -5.863
REMARK UNBOUND:                -5.861
REMARK SMILES CCCCCCCCCCCCCCCCCCCCCCCCCCCCCC(=O)[O-]
REMARK SMILES IDX 16 1 17 2 18 3 19 4 20 5 21 6 22 7 23 8 24 9 25 10 26 11
REMARK SMILES IDX 27 12 28 13 29 14 30 15 31 16 32 17 15 18 14 19 13 20 12 21
REMARK SMILES IDX 11 22 10 23 9 24 8 25 7 26 6 27 5 28 4 29 3 30 2 31 1 32
REMARK H PARENT
REMARK Flexibility Score: inf
ROOT
ATOM      1  C   UNL     1      21.508   0.797  18.198  1.00  0.00     0.000 C 
ENDROOT
BRANCH   1   2
ATOM      2  C   UNL     1      20.511   0.745  17.028  1.00  0.00     0.000 C 
BRANCH   2   3
ATOM      3  C   UNL     1      19.940  -0.663  16.787  1.00  0.00     0.000 C 
BRANCH   3   4
ATOM      4  C   UNL     1      20.317  -1.225  15.408  1.00  0.00     0.000 C 
BRANCH   4   5
ATOM      5  C   UNL     1      21.207  -0.264  14.598  1.00  0.00     0.000 C 
BRANCH   5   6
ATOM      6  C   UNL     1      22.689  -0.669  14.619  1.00  0.00     0.000 C 
BRANCH   6   7
ATOM      7  C   UNL     1      23.611   0.476  15.074  1.00  0.00     0.000 C 
BRANCH   7   8
ATOM      8  C   UNL     1      23.252   1.818  14.402  1.00  0.00     0.000 C 
BRANCH   8   9
ATOM      9  C   UNL     1      23.234   3.012  15.372  1.00  0.00     0.000 C 
BRANCH   9  10
ATOM     10  C   UNL     1      24.600   3.708  15.485  1.00  0.00     0.000 C 
BRANCH  10  11
ATOM     11  C   UNL     1      24.670   5.039  14.716  1.00  0.00     0.000 C 
BRANCH  11  12
ATOM     12  C   UNL     1      24.903   4.915  13.198  1.00  0.00     0.000 C 
BRANCH  12  13
ATOM     13  C   UNL     1      23.707   5.395  12.360  1.00  0.00     0.006 C 
BRANCH  13  14
ATOM     14  C   UNL     1      22.930   6.495  13.089  1.00  0.00     0.053 C 
BRANCH  14  15
ATOM     15  C   UNL     1      21.466   6.185  13.103  1.00  0.00     0.041 C 
ATOM     16  O   UNL     1      20.674   6.826  12.364  1.00  0.00    -0.550 OA
ATOM     17  O   UNL     1      20.984   5.151  13.898  1.00  0.00    -0.550 OA
ENDBRANCH  14  15
ENDBRANCH  13  14
ENDBRANCH  12  13
ENDBRANCH  11  12
ENDBRANCH  10  11
ENDBRANCH   9  10
ENDBRANCH   8   9
ENDBRANCH   7   8
ENDBRANCH   6   7
ENDBRANCH   5   6
ENDBRANCH   4   5
ENDBRANCH   3   4
ENDBRANCH   2   3
ENDBRANCH   1   2
BRANCH   1  18
ATOM     18  C   UNL     1      21.978  -0.592  18.679  1.00  0.00     0.000 C 
BRANCH  18  19
ATOM     19  C   UNL     1      23.506  -0.672  18.811  1.00  0.00     0.000 C 
BRANCH  19  20
ATOM     20  C   UNL     1      24.048  -1.961  18.174  1.00  0.00     0.000 C 
BRANCH  20  21
ATOM     21  C   UNL     1      22.958  -2.756  17.432  1.00  0.00     0.000 C 
BRANCH  21  22
ATOM     22  C   UNL     1      23.493  -4.068  16.831  1.00  0.00     0.000 C 
BRANCH  22  23
ATOM     23  C   UNL     1      24.366  -4.855  17.822  1.00  0.00     0.000 C 
BRANCH  23  24
ATOM     24  C   UNL     1      23.693  -6.149  18.310  1.00  0.00    -0.000 C 
BRANCH  24  25
ATOM     25  C   UNL     1      23.563  -6.196  19.842  1.00  0.00    -0.000 C 
BRANCH  25  26
ATOM     26  C   UNL     1      24.008  -4.884  20.510  1.00  0.00    -0.000 C 
BRANCH  26  27
ATOM     27  C   UNL     1      23.020  -4.409  21.587  1.00  0.00    -0.000 C 
BRANCH  27  28
ATOM     28  C   UNL     1      22.017  -3.376  21.046  1.00  0.00    -0.000 C 
BRANCH  28  29
ATOM     29  C   UNL     1      20.627  -3.980  20.783  1.00  0.00    -0.000 C 
BRANCH  29  30
ATOM     30  C   UNL     1      20.073  -3.744  19.363  1.00  0.00    -0.000 C 
BRANCH  30  31
ATOM     31  C   UNL     1      20.078  -4.982  18.450  1.00  0.00    -0.003 C 
ATOM     32  C   UNL     1      19.763  -4.650  16.991  1.00  0.00     0.004 C 
ENDBRANCH  30  31
ENDBRANCH  29  30
ENDBRANCH  28  29
ENDBRANCH  27  28
ENDBRANCH  26  27
ENDBRANCH  25  26
ENDBRANCH  24  25
ENDBRANCH  23  24
ENDBRANCH  22  23
ENDBRANCH  21  22
ENDBRANCH  20  21
ENDBRANCH  19  20
ENDBRANCH  18  19
ENDBRANCH   1  18
TORSDOF 28
ENDMDL
MODEL 8
REMARK VINA RESULT:    -3.878      3.046      7.440
REMARK INTER + INTRA:         -16.087
REMARK INTER:                 -10.189
REMARK INTRA:                  -5.898
REMARK UNBOUND:                -5.861
REMARK SMILES CCCCCCCCCCCCCCCCCCCCCCCCCCCCCC(=O)[O-]
REMARK SMILES IDX 16 1 17 2 18 3 19 4 20 5 21 6 22 7 23 8 24 9 25 10 26 11
REMARK SMILES IDX 27 12 28 13 29 14 30 15 31 16 32 17 15 18 14 19 13 20 12 21
REMARK SMILES IDX 11 22 10 23 9 24 8 25 7 26 6 27 5 28 4 29 3 30 2 31 1 32
REMARK H PARENT
REMARK Flexibility Score: inf
ROOT
ATOM      1  C   UNL     1      20.185  -1.254  14.078  1.00  0.00     0.000 C 
ENDROOT
BRANCH   1   2
ATOM      2  C   UNL     1      21.124  -1.014  12.885  1.00  0.00     0.000 C 
BRANCH   2   3
ATOM      3  C   UNL     1      21.580   0.450  12.765  1.00  0.00     0.000 C 
BRANCH   3   4
ATOM      4  C   UNL     1      21.877   1.089  14.131  1.00  0.00     0.000 C 
BRANCH   4   5
ATOM      5  C   UNL     1      23.219   0.626  14.725  1.00  0.00     0.000 C 
BRANCH   5   6
ATOM      6  C   UNL     1      23.225   0.643  16.261  1.00  0.00     0.000 C 
BRANCH   6   7
ATOM      7  C   UNL     1      21.906   1.170  16.854  1.00  0.00     0.000 C 
BRANCH   7   8
ATOM      8  C   UNL     1      22.096   2.505  17.606  1.00  0.00     0.000 C 
BRANCH   8   9
ATOM      9  C   UNL     1      21.387   3.698  16.940  1.00  0.00     0.000 C 
BRANCH   9  10
ATOM     10  C   UNL     1      22.225   4.339  15.822  1.00  0.00     0.000 C 
BRANCH  10  11
ATOM     11  C   UNL     1      23.739   4.299  16.098  1.00  0.00     0.000 C 
BRANCH  11  12
ATOM     12  C   UNL     1      24.635   4.181  14.849  1.00  0.00     0.000 C 
BRANCH  12  13
ATOM     13  C   UNL     1      23.839   4.112  13.537  1.00  0.00     0.006 C 
BRANCH  13  14
ATOM     14  C   UNL     1      24.312   5.181  12.547  1.00  0.00     0.053 C 
BRANCH  14  15
ATOM     15  C   UNL     1      23.586   6.470  12.778  1.00  0.00     0.041 C 
ATOM     16  O   UNL     1      22.394   6.603  12.397  1.00  0.00    -0.550 OA
ATOM     17  O   UNL     1      24.214   7.506  13.460  1.00  0.00    -0.550 OA
ENDBRANCH  14  15
ENDBRANCH  13  14
ENDBRANCH  12  13
ENDBRANCH  11  12
ENDBRANCH  10  11
ENDBRANCH   9  10
ENDBRANCH   8   9
ENDBRANCH   7   8
ENDBRANCH   6   7
ENDBRANCH   5   6
ENDBRANCH   4   5
ENDBRANCH   3   4
ENDBRANCH   2   3
ENDBRANCH   1   2
BRANCH   1  18
ATOM     18  C   UNL     1      20.470  -2.565  14.842  1.00  0.00     0.000 C 
BRANCH  18  19
ATOM     19  C   UNL     1      21.956  -2.950  14.796  1.00  0.00     0.000 C 
BRANCH  19  20
ATOM     20  C   UNL     1      22.593  -2.857  16.191  1.00  0.00     0.000 C 
BRANCH  20  21
ATOM     21  C   UNL     1      24.052  -3.347  16.208  1.00  0.00     0.000 C 
BRANCH  21  22
ATOM     22  C   UNL     1      24.276  -4.492  17.211  1.00  0.00     0.000 C 
BRANCH  22  23
ATOM     23  C   UNL     1      22.961  -5.009  17.816  1.00  0.00     0.000 C 
BRANCH  23  24
ATOM     24  C   UNL     1      23.186  -5.996  18.976  1.00  0.00    -0.000 C 
BRANCH  24  25
ATOM     25  C   UNL     1      22.926  -5.351  20.347  1.00  0.00    -0.000 C 
BRANCH  25  26
ATOM     26  C   UNL     1      24.125  -4.523  20.844  1.00  0.00    -0.000 C 
BRANCH  26  27
ATOM     27  C   UNL     1      23.775  -3.039  21.033  1.00  0.00    -0.000 C 
BRANCH  27  28
ATOM     28  C   UNL     1      24.262  -2.169  19.861  1.00  0.00    -0.000 C 
BRANCH  28  29
ATOM     29  C   UNL     1      23.330  -0.979  19.578  1.00  0.00    -0.000 C 
BRANCH  29  30
ATOM     30  C   UNL     1      21.892  -1.138  20.109  1.00  0.00    -0.000 C 
BRANCH  30  31
ATOM     31  C   UNL     1      20.842  -1.497  19.042  1.00  0.00    -0.003 C 
ATOM     32  C   UNL     1      20.310  -2.923  19.184  1.00  0.00     0.004 C 
ENDBRANCH  30  31
ENDBRANCH  29  30
ENDBRANCH  28  29
ENDBRANCH  27  28
ENDBRANCH  26  27
ENDBRANCH  25  26
ENDBRANCH  24  25
ENDBRANCH  23  24
ENDBRANCH  22  23
ENDBRANCH  21  22
ENDBRANCH  20  21
ENDBRANCH  19  20
ENDBRANCH  18  19
ENDBRANCH   1  18
TORSDOF 28
ENDMDL
MODEL 9
REMARK VINA RESULT:    -3.876      2.608      4.572
REMARK INTER + INTRA:         -16.082
REMARK INTER:                 -10.449
REMARK INTRA:                  -5.633
REMARK UNBOUND:                -5.861
REMARK SMILES CCCCCCCCCCCCCCCCCCCCCCCCCCCCCC(=O)[O-]
REMARK SMILES IDX 16 1 17 2 18 3 19 4 20 5 21 6 22 7 23 8 24 9 25 10 26 11
REMARK SMILES IDX 27 12 28 13 29 14 30 15 31 16 32 17 15 18 14 19 13 20 12 21
REMARK SMILES IDX 11 22 10 23 9 24 8 25 7 26 6 27 5 28 4 29 3 30 2 31 1 32
REMARK H PARENT
REMARK Flexibility Score: inf
ROOT
ATOM      1  C   UNL     1      22.466  -0.260  19.881  1.00  0.00     0.000 C 
ENDROOT
BRANCH   1   2
ATOM      2  C   UNL     1      21.420  -0.346  18.757  1.00  0.00     0.000 C 
BRANCH   2   3
ATOM      3  C   UNL     1      21.236   0.983  18.005  1.00  0.00     0.000 C 
BRANCH   3   4
ATOM      4  C   UNL     1      21.289   0.809  16.479  1.00  0.00     0.000 C 
BRANCH   4   5
ATOM      5  C   UNL     1      22.638   0.250  15.991  1.00  0.00     0.000 C 
BRANCH   5   6
ATOM      6  C   UNL     1      22.882   0.513  14.497  1.00  0.00     0.000 C 
BRANCH   6   7
ATOM      7  C   UNL     1      21.580   0.543  13.678  1.00  0.00     0.000 C 
BRANCH   7   8
ATOM      8  C   UNL     1      21.573  -0.512  12.551  1.00  0.00     0.000 C 
BRANCH   8   9
ATOM      9  C   UNL     1      20.373  -1.474  12.609  1.00  0.00     0.000 C 
BRANCH   9  10
ATOM     10  C   UNL     1      19.790  -1.613  14.024  1.00  0.00     0.000 C 
BRANCH  10  11
ATOM     11  C   UNL     1      20.177  -2.934  14.715  1.00  0.00     0.000 C 
BRANCH  11  12
ATOM     12  C   UNL     1      21.328  -2.835  15.734  1.00  0.00     0.000 C 
BRANCH  12  13
ATOM     13  C   UNL     1      21.153  -3.773  16.939  1.00  0.00     0.006 C 
BRANCH  13  14
ATOM     14  C   UNL     1      22.455  -4.514  17.255  1.00  0.00     0.053 C 
BRANCH  14  15
ATOM     15  C   UNL     1      23.330  -3.686  18.144  1.00  0.00     0.041 C 
ATOM     16  O   UNL     1      23.374  -3.913  19.381  1.00  0.00    -0.550 OA
ATOM     17  O   UNL     1      24.135  -2.694  17.595  1.00  0.00    -0.550 OA
ENDBRANCH  14  15
ENDBRANCH  13  14
ENDBRANCH  12  13
ENDBRANCH  11  12
ENDBRANCH  10  11
ENDBRANCH   9  10
ENDBRANCH   8   9
ENDBRANCH   7   8
ENDBRANCH   6   7
ENDBRANCH   5   6
ENDBRANCH   4   5
ENDBRANCH   3   4
ENDBRANCH   2   3
ENDBRANCH   1   2
BRANCH   1  18
ATOM     18  C   UNL     1      23.337   1.013  19.827  1.00  0.00     0.000 C 
BRANCH  18  19
ATOM     19  C   UNL     1      24.689   0.760  19.142  1.00  0.00     0.000 C 
BRANCH  19  20
ATOM     20  C   UNL     1      25.721   1.823  19.550  1.00  0.00     0.000 C 
BRANCH  20  21
ATOM     21  C   UNL     1      25.866   2.938  18.498  1.00  0.00     0.000 C 
BRANCH  21  22
ATOM     22  C   UNL     1      25.984   2.383  17.067  1.00  0.00     0.000 C 
BRANCH  22  23
ATOM     23  C   UNL     1      25.000   3.052  16.095  1.00  0.00     0.000 C 
BRANCH  23  24
ATOM     24  C   UNL     1      23.789   3.677  16.810  1.00  0.00    -0.000 C 
BRANCH  24  25
ATOM     25  C   UNL     1      23.112   4.768  15.964  1.00  0.00    -0.000 C 
BRANCH  25  26
ATOM     26  C   UNL     1      21.810   4.279  15.305  1.00  0.00    -0.000 C 
BRANCH  26  27
ATOM     27  C   UNL     1      21.801   4.502  13.785  1.00  0.00    -0.000 C 
BRANCH  27  28
ATOM     28  C   UNL     1      23.043   3.908  13.099  1.00  0.00    -0.000 C 
BRANCH  28  29
ATOM     29  C   UNL     1      23.903   4.975  12.400  1.00  0.00    -0.000 C 
BRANCH  29  30
ATOM     30  C   UNL     1      25.237   5.298  13.102  1.00  0.00    -0.000 C 
BRANCH  30  31
ATOM     31  C   UNL     1      25.411   6.768  13.521  1.00  0.00    -0.003 C 
ATOM     32  C   UNL     1      24.094   7.544  13.543  1.00  0.00     0.004 C 
ENDBRANCH  30  31
ENDBRANCH  29  30
ENDBRANCH  28  29
ENDBRANCH  27  28
ENDBRANCH  26  27
ENDBRANCH  25  26
ENDBRANCH  24  25
ENDBRANCH  23  24
ENDBRANCH  22  23
ENDBRANCH  21  22
ENDBRANCH  20  21
ENDBRANCH  19  20
ENDBRANCH  18  19
ENDBRANCH   1  18
TORSDOF 28
ENDMDL
