MODEL 1
REMARK VINA RESULT:    -2.837      0.000      0.000
REMARK INTER + INTRA:          -3.887
REMARK INTER:                  -3.666
REMARK INTRA:                  -0.220
REMARK UNBOUND:                -0.220
REMARK SMILES CCCCCCC(=O)[O-]
REMARK SMILES IDX 5 1 6 2 7 3 8 4 9 5 4 6 3 7 2 8 1 9
REMARK H PARENT
REMARK Flexibility Score: inf
ROOT
ATOM      1  C   UNL     1      38.036  39.700  19.198  1.00  0.00     0.006 C 
ENDROOT
BRANCH   1   2
ATOM      2  C   UNL     1      39.434  40.231  18.832  1.00  0.00     0.053 C 
BRANCH   2   3
ATOM      3  C   UNL     1      40.080  39.447  17.731  1.00  0.00     0.041 C 
ATOM      4  O   UNL     1      39.911  39.781  16.528  1.00  0.00    -0.550 OA
ATOM      5  O   UNL     1      40.846  38.327  18.031  1.00  0.00    -0.550 OA
ENDBRANCH   2   3
ENDBRANCH   1   2
BRANCH   1   6
ATOM      6  C   UNL     1      37.997  38.903  20.515  1.00  0.00     0.000 C 
BRANCH   6   7
ATOM      7  C   UNL     1      37.416  37.489  20.346  1.00  0.00    -0.000 C 
BRANCH   7   8
ATOM      8  C   UNL     1      38.202  36.648  19.327  1.00  0.00    -0.003 C 
ATOM      9  C   UNL     1      38.600  35.278  19.876  1.00  0.00     0.004 C 
ENDBRANCH   7   8
ENDBRANCH   6   7
ENDBRANCH   1   6
TORSDOF 5
ENDMDL
MODEL 2
REMARK VINA RESULT:    -2.822      1.248      2.484
REMARK INTER + INTRA:          -3.867
REMARK INTER:                  -3.555
REMARK INTRA:                  -0.312
REMARK UNBOUND:                -0.220
REMARK SMILES CCCCCCC(=O)[O-]
REMARK SMILES IDX 5 1 6 2 7 3 8 4 9 5 4 6 3 7 2 8 1 9
REMARK H PARENT
REMARK Flexibility Score: inf
ROOT
ATOM      1  C   UNL     1      39.696  37.395  18.879  1.00  0.00     0.006 C 
ENDROOT
BRANCH   1   2
ATOM      2  C   UNL     1      39.980  37.839  17.433  1.00  0.00     0.053 C 
BRANCH   2   3
ATOM      3  C   UNL     1      39.994  39.329  17.277  1.00  0.00     0.041 C 
ATOM      4  O   UNL     1      40.057  39.849  16.132  1.00  0.00    -0.550 OA
ATOM      5  O   UNL     1      39.969  40.146  18.401  1.00  0.00    -0.550 OA
ENDBRANCH   2   3
ENDBRANCH   1   2
BRANCH   1   6
ATOM      6  C   UNL     1      38.331  36.708  19.065  1.00  0.00     0.000 C 
BRANCH   6   7
ATOM      7  C   UNL     1      37.603  37.150  20.345  1.00  0.00    -0.000 C 
BRANCH   7   8
ATOM      8  C   UNL     1      37.819  38.639  20.660  1.00  0.00    -0.003 C 
ATOM      9  C   UNL     1      36.691  39.523  20.127  1.00  0.00     0.004 C 
ENDBRANCH   7   8
ENDBRANCH   6   7
ENDBRANCH   1   6
TORSDOF 5
ENDMDL
MODEL 3
REMARK VINA RESULT:    -2.726      2.766      3.649
REMARK INTER + INTRA:          -3.743
REMARK INTER:                  -3.583
REMARK INTRA:                  -0.160
REMARK UNBOUND:                -0.220
REMARK SMILES CCCCCCC(=O)[O-]
REMARK SMILES IDX 5 1 6 2 7 3 8 4 9 5 4 6 3 7 2 8 1 9
REMARK H PARENT
REMARK Flexibility Score: inf
ROOT
ATOM      1  C   UNL     1      38.542  37.182  19.286  1.00  0.00     0.006 C 
ENDROOT
BRANCH   1   2
ATOM      2  C   UNL     1      37.611  37.812  20.338  1.00  0.00     0.053 C 
BRANCH   2   3
ATOM      3  C   UNL     1      37.292  39.246  20.043  1.00  0.00     0.041 C 
ATOM      4  O   UNL     1      36.184  39.735  20.387  1.00  0.00    -0.550 OA
ATOM      5  O   UNL     1      38.208  40.036  19.360  1.00  0.00    -0.550 OA
ENDBRANCH   2   3
ENDBRANCH   1   2
BRANCH   1   6
ATOM      6  C   UNL     1      38.409  35.652  19.172  1.00  0.00     0.000 C 
BRANCH   6   7
ATOM      7  C   UNL     1      38.414  35.153  17.718  1.00  0.00    -0.000 C 
BRANCH   7   8
ATOM      8  C   UNL     1      39.356  35.970  16.819  1.00  0.00    -0.003 C 
ATOM      9  C   UNL     1      40.779  35.413  16.797  1.00  0.00     0.004 C 
ENDBRANCH   7   8
ENDBRANCH   6   7
ENDBRANCH   1   6
TORSDOF 5
ENDMDL
MODEL 4
REMARK VINA RESULT:    -2.724      2.354      3.466
REMARK INTER + INTRA:          -3.740
REMARK INTER:                  -3.419
REMARK INTRA:                  -0.321
REMARK UNBOUND:                -0.220
REMARK SMILES CCCCCCC(=O)[O-]
REMARK SMILES IDX 5 1 6 2 7 3 8 4 9 5 4 6 3 7 2 8 1 9
REMARK H PARENT
REMARK Flexibility Score: inf
ROOT
ATOM      1  C   UNL     1      37.416  36.958  20.372  1.00  0.00     0.006 C 
ENDROOT
BRANCH   1   2
ATOM      2  C   UNL     1      38.125  38.297  20.641  1.00  0.00     0.053 C 
BRANCH   2   3
ATOM      3  C   UNL     1      37.411  39.463  20.028  1.00  0.00     0.041 C 
ATOM      4  O   UNL     1      36.181  39.635  20.232  1.00  0.00    -0.550 OA
ATOM      5  O   UNL     1      38.100  40.345  19.203  1.00  0.00    -0.550 OA
ENDBRANCH   2   3
ENDBRANCH   1   2
BRANCH   1   6
ATOM      6  C   UNL     1      38.351  35.850  19.854  1.00  0.00     0.000 C 
BRANCH   6   7
ATOM      7  C   UNL     1      38.556  35.899  18.330  1.00  0.00    -0.000 C 
BRANCH   7   8
ATOM      8  C   UNL     1      39.969  36.363  17.942  1.00  0.00    -0.003 C 
ATOM      9  C   UNL     1      40.004  37.821  17.484  1.00  0.00     0.004 C 
ENDBRANCH   7   8
ENDBRANCH   6   7
ENDBRANCH   1   6
TORSDOF 5
ENDMDL
MODEL 5
REMARK VINA RESULT:    -2.671      1.278      3.309
REMARK INTER + INTRA:          -3.672
REMARK INTER:                  -3.282
REMARK INTRA:                  -0.390
REMARK UNBOUND:                -0.220
REMARK SMILES CCCCCCC(=O)[O-]
REMARK SMILES IDX 5 1 6 2 7 3 8 4 9 5 4 6 3 7 2 8 1 9
REMARK H PARENT
REMARK Flexibility Score: inf
ROOT
ATOM      1  C   UNL     1      38.250  36.167  20.015  1.00  0.00     0.006 C 
ENDROOT
BRANCH   1   2
ATOM      2  C   UNL     1      38.535  36.004  18.511  1.00  0.00     0.053 C 
BRANCH   2   3
ATOM      3  C   UNL     1      39.829  36.634  18.096  1.00  0.00     0.041 C 
ATOM      4  O   UNL     1      40.820  36.624  18.873  1.00  0.00    -0.550 OA
ATOM      5  O   UNL     1      39.933  37.261  16.860  1.00  0.00    -0.550 OA
ENDBRANCH   2   3
ENDBRANCH   1   2
BRANCH   1   6
ATOM      6  C   UNL     1      37.278  37.314  20.346  1.00  0.00     0.000 C 
BRANCH   6   7
ATOM      7  C   UNL     1      37.995  38.635  20.674  1.00  0.00    -0.000 C 
BRANCH   7   8
ATOM      8  C   UNL     1      37.787  39.702  19.589  1.00  0.00    -0.003 C 
ATOM      9  C   UNL     1      39.089  40.098  18.895  1.00  0.00     0.004 C 
ENDBRANCH   7   8
ENDBRANCH   6   7
ENDBRANCH   1   6
TORSDOF 5
ENDMDL
MODEL 6
REMARK VINA RESULT:    -2.660     13.227     14.253
REMARK INTER + INTRA:          -3.658
REMARK INTER:                  -3.550
REMARK INTRA:                  -0.109
REMARK UNBOUND:                -0.220
REMARK SMILES CCCCCCC(=O)[O-]
REMARK SMILES IDX 5 1 6 2 7 3 8 4 9 5 4 6 3 7 2 8 1 9
REMARK H PARENT
REMARK Flexibility Score: inf
ROOT
ATOM      1  C   UNL     1      26.108  35.630  17.968  1.00  0.00     0.006 C 
ENDROOT
BRANCH   1   2
ATOM      2  C   UNL     1      26.298  34.879  19.299  1.00  0.00     0.053 C 
BRANCH   2   3
ATOM      3  C   UNL     1      27.575  35.242  19.992  1.00  0.00     0.041 C 
ATOM      4  O   UNL     1      28.672  35.183  19.377  1.00  0.00    -0.550 OA
ATOM      5  O   UNL     1      27.557  35.618  21.329  1.00  0.00    -0.550 OA
ENDBRANCH   2   3
ENDBRANCH   1   2
BRANCH   1   6
ATOM      6  C   UNL     1      24.915  35.130  17.134  1.00  0.00     0.000 C 
BRANCH   6   7
ATOM      7  C   UNL     1      23.554  35.462  17.768  1.00  0.00    -0.000 C 
BRANCH   7   8
ATOM      8  C   UNL     1      22.831  36.608  17.043  1.00  0.00    -0.003 C 
ATOM      9  C   UNL     1      21.622  37.127  17.820  1.00  0.00     0.004 C 
ENDBRANCH   7   8
ENDBRANCH   6   7
ENDBRANCH   1   6
TORSDOF 5
ENDMDL
MODEL 7
REMARK VINA RESULT:    -2.624      2.649      3.384
REMARK INTER + INTRA:          -3.611
REMARK INTER:                  -3.295
REMARK INTRA:                  -0.315
REMARK UNBOUND:                -0.220
REMARK SMILES CCCCCCC(=O)[O-]
REMARK SMILES IDX 5 1 6 2 7 3 8 4 9 5 4 6 3 7 2 8 1 9
REMARK H PARENT
REMARK Flexibility Score: inf
ROOT
ATOM      1  C   UNL     1      39.508  38.864  18.977  1.00  0.00     0.006 C 
ENDROOT
BRANCH   1   2
ATOM      2  C   UNL     1      38.261  39.737  19.203  1.00  0.00     0.053 C 
BRANCH   2   3
ATOM      3  C   UNL     1      37.227  39.060  20.050  1.00  0.00     0.041 C 
ATOM      4  O   UNL     1      36.224  39.700  20.464  1.00  0.00    -0.550 OA
ATOM      5  O   UNL     1      37.386  37.727  20.409  1.00  0.00    -0.550 OA
ENDBRANCH   2   3
ENDBRANCH   1   2
BRANCH   1   6
ATOM      6  C   UNL     1      39.879  38.679  17.494  1.00  0.00     0.000 C 
BRANCH   6   7
ATOM      7  C   UNL     1      40.034  37.203  17.091  1.00  0.00    -0.000 C 
BRANCH   7   8
ATOM      8  C   UNL     1      39.679  36.241  18.235  1.00  0.00    -0.003 C 
ATOM      9  C   UNL     1      38.454  35.382  17.923  1.00  0.00     0.004 C 
ENDBRANCH   7   8
ENDBRANCH   6   7
ENDBRANCH   1   6
TORSDOF 5
ENDMDL
MODEL 8
REMARK VINA RESULT:    -2.555      1.932      3.907
REMARK INTER + INTRA:          -3.522
REMARK INTER:                  -3.302
REMARK INTRA:                  -0.220
REMARK UNBOUND:                -0.220
REMARK SMILES CCCCCCC(=O)[O-]
REMARK SMILES IDX 5 1 6 2 7 3 8 4 9 5 4 6 3 7 2 8 1 9
REMARK H PARENT
REMARK Flexibility Score: inf
ROOT
ATOM      1  C   UNL     1      38.057  38.502  20.625  1.00  0.00     0.006 C 
ENDROOT
BRANCH   1   2
ATOM      2  C   UNL     1      37.333  37.170  20.361  1.00  0.00     0.053 C 
BRANCH   2   3
ATOM      3  C   UNL     1      38.211  36.155  19.694  1.00  0.00     0.041 C 
ATOM      4  O   UNL     1      38.539  36.293  18.486  1.00  0.00    -0.550 OA
ATOM      5  O   UNL     1      38.642  35.038  20.398  1.00  0.00    -0.550 OA
ENDBRANCH   2   3
ENDBRANCH   1   2
BRANCH   1   6
ATOM      6  C   UNL     1      37.755  39.594  19.583  1.00  0.00     0.000 C 
BRANCH   6   7
ATOM      7  C   UNL     1      39.021  40.273  19.037  1.00  0.00    -0.000 C 
BRANCH   7   8
ATOM      8  C   UNL     1      39.645  39.498  17.865  1.00  0.00    -0.003 C 
ATOM      9  C   UNL     1      40.994  40.071  17.431  1.00  0.00     0.004 C 
ENDBRANCH   7   8
ENDBRANCH   6   7
ENDBRANCH   1   6
TORSDOF 5
ENDMDL
