MODEL 1
REMARK VINA RESULT:    -7.383      0.000      0.000
REMARK INTER + INTRA:         -11.765
REMARK INTER:                 -10.404
REMARK INTRA:                  -1.361
REMARK UNBOUND:                -1.361
REMARK SMILES COc1c(O[C@@H]2O[C@H](C(=O)[O-])[C@@H](O)[C@H](O)[C@H]2O)cc(O)c2c(=O)cc(-c3ccccc3)oc12
REMARK SMILES IDX 5 1 6 2 8 3 12 4 7 5 14 6 16 7 9 8 10 9 11 10 13 11 15 13
REMARK SMILES IDX 17 15 4 17 3 18 18 19 33 20 19 21 21 22 32 23 22 24 25 25
REMARK SMILES IDX 24 26 23 27 2 28 1 29 20 30 26 32 27 33 31 34 28 35 30 36
REMARK SMILES IDX 29 37
REMARK H PARENT 13 12 15 14 17 16 20 31
REMARK Flexibility Score: inf
ROOT
ATOM      1  O   UNL     1     -11.226   1.312 -22.198  1.00  0.00    -0.458 OA
ENDROOT
BRANCH   1   2
ATOM      2  C   UNL     1     -11.932   2.416 -22.777  1.00  0.00     0.339 C 
ATOM      3  C   UNL     1     -14.089   3.412 -22.976  1.00  0.00     0.199 C 
ATOM      4  C   UNL     1     -13.370   4.429 -23.918  1.00  0.00     0.180 C 
ATOM      5  O   UNL     1     -13.311   2.322 -22.480  1.00  0.00    -0.328 OA
ATOM      6  C   UNL     1     -12.366   3.751 -24.892  1.00  0.00     0.181 C 
ATOM      7  C   UNL     1     -11.689   2.490 -24.293  1.00  0.00     0.214 C 
BRANCH   3   8
ATOM      8  C   UNL     1     -15.330   2.871 -23.631  1.00  0.00     0.073 C 
ATOM      9  O   UNL     1     -15.809   3.422 -24.661  1.00  0.00    -0.547 OA
ATOM     10  O   UNL     1     -15.980   1.771 -23.079  1.00  0.00    -0.547 OA
ENDBRANCH   3   8
BRANCH   4  11
ATOM     11  O   UNL     1     -12.694   5.373 -23.124  1.00  0.00    -0.387 OA
ATOM     12  H   UNL     1     -13.340   6.101 -22.920  1.00  0.00     0.211 HD
ENDBRANCH   4  11
BRANCH   6  13
ATOM     13  O   UNL     1     -12.979   3.451 -26.125  1.00  0.00    -0.387 OA
ATOM     14  H   UNL     1     -12.444   3.881 -26.843  1.00  0.00     0.211 HD
ENDBRANCH   6  13
BRANCH   7  15
ATOM     15  O   UNL     1     -10.305   2.518 -24.539  1.00  0.00    -0.384 OA
ATOM     16  H   UNL     1     -10.192   2.652 -25.517  1.00  0.00     0.211 HD
ENDBRANCH   7  15
ENDBRANCH   1   2
BRANCH   1  17
ATOM     17  C   UNL     1     -11.336  -0.052 -22.533  1.00  0.00     0.172 A 
ATOM     18  C   UNL     1     -10.194  -0.693 -23.026  1.00  0.00     0.205 A 
ATOM     19  C   UNL     1     -12.530  -0.782 -22.394  1.00  0.00     0.097 A 
ATOM     20  C   UNL     1     -10.231  -2.059 -23.360  1.00  0.00     0.188 A 
ATOM     21  C   UNL     1     -12.591  -2.137 -22.747  1.00  0.00     0.134 A 
ATOM     22  C   UNL     1     -11.436  -2.789 -23.231  1.00  0.00     0.111 A 
ATOM     23  O   UNL     1      -9.121  -2.664 -23.779  1.00  0.00    -0.452 OA
ATOM     24  C   UNL     1     -11.420  -4.152 -23.591  1.00  0.00     0.197 A 
ATOM     25  C   UNL     1      -9.067  -3.954 -24.104  1.00  0.00     0.138 A 
ATOM     26  C   UNL     1     -10.232  -4.734 -24.030  1.00  0.00     0.100 A 
ATOM     27  O   UNL     1     -12.459  -4.862 -23.526  1.00  0.00    -0.289 OA
BRANCH  18  28
ATOM     28  O   UNL     1      -9.015   0.047 -23.165  1.00  0.00    -0.490 OA
ATOM     29  C   UNL     1      -8.030   0.099 -22.140  1.00  0.00     0.278 C 
ENDBRANCH  18  28
BRANCH  21  30
ATOM     30  O   UNL     1     -13.798  -2.825 -22.605  1.00  0.00    -0.507 OA
ATOM     31  H   UNL     1     -14.692  -2.364 -22.719  1.00  0.00     0.293 HD
ENDBRANCH  21  30
BRANCH  25  32
ATOM     32  C   UNL     1      -7.772  -4.531 -24.546  1.00  0.00     0.017 A 
ATOM     33  C   UNL     1      -7.259  -5.670 -23.898  1.00  0.00     0.012 A 
ATOM     34  C   UNL     1      -7.049  -3.981 -25.625  1.00  0.00     0.012 A 
ATOM     35  C   UNL     1      -6.045  -6.232 -24.304  1.00  0.00     0.001 A 
ATOM     36  C   UNL     1      -5.836  -4.549 -26.028  1.00  0.00     0.001 A 
ATOM     37  C   UNL     1      -5.333  -5.671 -25.366  1.00  0.00     0.000 A 
ENDBRANCH  25  32
ENDBRANCH   1  17
TORSDOF 9
ENDMDL
MODEL 2
REMARK VINA RESULT:    -6.911      3.011      8.396
REMARK INTER + INTRA:         -11.100
REMARK INTER:                 -11.195
REMARK INTRA:                   0.095
REMARK UNBOUND:                -1.361
REMARK SMILES COc1c(O[C@@H]2O[C@H](C(=O)[O-])[C@@H](O)[C@H](O)[C@H]2O)cc(O)c2c(=O)cc(-c3ccccc3)oc12
REMARK SMILES IDX 5 1 6 2 8 3 12 4 7 5 14 6 16 7 9 8 10 9 11 10 13 11 15 13
REMARK SMILES IDX 17 15 4 17 3 18 18 19 33 20 19 21 21 22 32 23 22 24 25 25
REMARK SMILES IDX 24 26 23 27 2 28 1 29 20 30 26 32 27 33 31 34 28 35 30 36
REMARK SMILES IDX 29 37
REMARK H PARENT 13 12 15 14 17 16 20 31
REMARK Flexibility Score: inf
ROOT
ATOM      1  O   UNL     1     -11.692  -0.691 -25.887  1.00  0.00    -0.458 OA
ENDROOT
BRANCH   1   2
ATOM      2  C   UNL     1     -10.605  -1.553 -25.532  1.00  0.00     0.339 C 
ATOM      3  C   UNL     1      -9.928  -3.838 -25.444  1.00  0.00     0.199 C 
ATOM      4  C   UNL     1      -8.626  -3.273 -24.793  1.00  0.00     0.180 C 
ATOM      5  O   UNL     1     -10.972  -2.904 -25.725  1.00  0.00    -0.328 OA
ATOM      6  C   UNL     1      -8.903  -2.156 -23.748  1.00  0.00     0.181 C 
ATOM      7  C   UNL     1     -10.149  -1.297 -24.087  1.00  0.00     0.214 C 
BRANCH   3   8
ATOM      8  C   UNL     1     -10.487  -4.964 -24.618  1.00  0.00     0.073 C 
ATOM      9  O   UNL     1     -11.208  -4.728 -23.609  1.00  0.00    -0.547 OA
ATOM     10  O   UNL     1     -10.181  -6.281 -24.948  1.00  0.00    -0.547 OA
ENDBRANCH   3   8
BRANCH   4  11
ATOM     11  O   UNL     1      -7.797  -2.772 -25.813  1.00  0.00    -0.387 OA
ATOM     12  H   UNL     1      -8.235  -1.955 -26.172  1.00  0.00     0.211 HD
ENDBRANCH   4  11
BRANCH   6  13
ATOM     13  O   UNL     1      -9.001  -2.690 -22.448  1.00  0.00    -0.387 OA
ATOM     14  H   UNL     1      -9.607  -2.104 -21.923  1.00  0.00     0.211 HD
ENDBRANCH   6  13
BRANCH   7  15
ATOM     15  O   UNL     1      -9.857   0.069 -23.928  1.00  0.00    -0.384 OA
ATOM     16  H   UNL     1     -10.722   0.554 -23.981  1.00  0.00     0.211 HD
ENDBRANCH   7  15
ENDBRANCH   1   2
BRANCH   1  17
ATOM     17  C   UNL     1     -12.432   0.157 -25.040  1.00  0.00     0.172 A 
ATOM     18  C   UNL     1     -13.439  -0.423 -24.259  1.00  0.00     0.205 A 
ATOM     19  C   UNL     1     -12.204   1.542 -24.950  1.00  0.00     0.097 A 
ATOM     20  C   UNL     1     -14.201   0.365 -23.379  1.00  0.00     0.188 A 
ATOM     21  C   UNL     1     -12.971   2.345 -24.097  1.00  0.00     0.134 A 
ATOM     22  C   UNL     1     -13.978   1.760 -23.299  1.00  0.00     0.111 A 
ATOM     23  O   UNL     1     -15.120  -0.212 -22.607  1.00  0.00    -0.452 OA
ATOM     24  C   UNL     1     -14.779   2.504 -22.407  1.00  0.00     0.197 A 
ATOM     25  C   UNL     1     -15.876   0.458 -21.739  1.00  0.00     0.138 A 
ATOM     26  C   UNL     1     -15.730   1.849 -21.628  1.00  0.00     0.100 A 
ATOM     27  O   UNL     1     -14.654   3.753 -22.298  1.00  0.00    -0.289 OA
BRANCH  18  28
ATOM     28  O   UNL     1     -13.660  -1.800 -24.364  1.00  0.00    -0.490 OA
ATOM     29  C   UNL     1     -13.526  -2.673 -23.249  1.00  0.00     0.278 C 
ENDBRANCH  18  28
BRANCH  21  30
ATOM     30  O   UNL     1     -12.721   3.718 -24.044  1.00  0.00    -0.507 OA
ATOM     31  H   UNL     1     -13.191   4.371 -24.660  1.00  0.00     0.293 HD
ENDBRANCH  21  30
BRANCH  25  32
ATOM     32  C   UNL     1     -16.861  -0.289 -20.916  1.00  0.00     0.017 A 
ATOM     33  C   UNL     1     -16.421  -1.029 -19.803  1.00  0.00     0.012 A 
ATOM     34  C   UNL     1     -18.241  -0.253 -21.205  1.00  0.00     0.012 A 
ATOM     35  C   UNL     1     -17.334  -1.734 -19.012  1.00  0.00     0.001 A 
ATOM     36  C   UNL     1     -19.149  -0.958 -20.408  1.00  0.00     0.001 A 
ATOM     37  C   UNL     1     -18.697  -1.700 -19.315  1.00  0.00     0.000 A 
ENDBRANCH  25  32
ENDBRANCH   1  17
TORSDOF 9
ENDMDL
MODEL 3
REMARK VINA RESULT:    -6.735      2.303      9.485
REMARK INTER + INTRA:         -10.852
REMARK INTER:                  -9.740
REMARK INTRA:                  -1.113
REMARK UNBOUND:                -1.361
REMARK SMILES COc1c(O[C@@H]2O[C@H](C(=O)[O-])[C@@H](O)[C@H](O)[C@H]2O)cc(O)c2c(=O)cc(-c3ccccc3)oc12
REMARK SMILES IDX 5 1 6 2 8 3 12 4 7 5 14 6 16 7 9 8 10 9 11 10 13 11 15 13
REMARK SMILES IDX 17 15 4 17 3 18 18 19 33 20 19 21 21 22 32 23 22 24 25 25
REMARK SMILES IDX 24 26 23 27 2 28 1 29 20 30 26 32 27 33 31 34 28 35 30 36
REMARK SMILES IDX 29 37
REMARK H PARENT 13 12 15 14 17 16 20 31
REMARK Flexibility Score: inf
ROOT
ATOM      1  O   UNL     1     -13.571  -1.222 -22.415  1.00  0.00    -0.458 OA
ENDROOT
BRANCH   1   2
ATOM      2  C   UNL     1     -12.802  -2.316 -22.926  1.00  0.00     0.339 C 
ATOM      3  C   UNL     1     -10.667  -3.374 -22.804  1.00  0.00     0.199 C 
ATOM      4  C   UNL     1     -11.234  -4.313 -23.915  1.00  0.00     0.180 C 
ATOM      5  O   UNL     1     -11.494  -2.286 -22.389  1.00  0.00    -0.328 OA
ATOM      6  C   UNL     1     -12.035  -3.550 -25.008  1.00  0.00     0.181 C 
ATOM      7  C   UNL     1     -12.777  -2.302 -24.463  1.00  0.00     0.214 C 
BRANCH   3   8
ATOM      8  C   UNL     1      -9.318  -2.840 -23.200  1.00  0.00     0.073 C 
ATOM      9  O   UNL     1      -8.802  -1.867 -22.583  1.00  0.00    -0.547 OA
ATOM     10  O   UNL     1      -8.642  -3.401 -24.279  1.00  0.00    -0.547 OA
ENDBRANCH   3   8
BRANCH   4  11
ATOM     11  O   UNL     1     -12.061  -5.276 -23.308  1.00  0.00    -0.387 OA
ATOM     12  H   UNL     1     -12.473  -4.847 -22.511  1.00  0.00     0.211 HD
ENDBRANCH   4  11
BRANCH   6  13
ATOM     13  O   UNL     1     -11.208  -3.207 -26.095  1.00  0.00    -0.387 OA
ATOM     14  H   UNL     1     -10.264  -3.313 -25.805  1.00  0.00     0.211 HD
ENDBRANCH   6  13
BRANCH   7  15
ATOM     15  O   UNL     1     -14.096  -2.269 -24.947  1.00  0.00    -0.384 OA
ATOM     16  H   UNL     1     -14.599  -2.969 -24.453  1.00  0.00     0.211 HD
ENDBRANCH   7  15
ENDBRANCH   1   2
BRANCH   1  17
ATOM     17  C   UNL     1     -13.413   0.149 -22.697  1.00  0.00     0.172 A 
ATOM     18  C   UNL     1     -14.555   0.872 -23.062  1.00  0.00     0.205 A 
ATOM     19  C   UNL     1     -12.173   0.808 -22.630  1.00  0.00     0.097 A 
ATOM     20  C   UNL     1     -14.469   2.248 -23.338  1.00  0.00     0.188 A 
ATOM     21  C   UNL     1     -12.066   2.173 -22.927  1.00  0.00     0.134 A 
ATOM     22  C   UNL     1     -13.218   2.907 -23.282  1.00  0.00     0.111 A 
ATOM     23  O   UNL     1     -15.574   2.930 -23.633  1.00  0.00    -0.452 OA
ATOM     24  C   UNL     1     -13.188   4.285 -23.579  1.00  0.00     0.197 A 
ATOM     25  C   UNL     1     -15.583   4.236 -23.896  1.00  0.00     0.138 A 
ATOM     26  C   UNL     1     -14.374   4.949 -23.888  1.00  0.00     0.100 A 
ATOM     27  O   UNL     1     -12.108   4.936 -23.572  1.00  0.00    -0.289 OA
BRANCH  18  28
ATOM     28  O   UNL     1     -15.781   0.202 -23.131  1.00  0.00    -0.490 OA
ATOM     29  C   UNL     1     -16.650   0.099 -22.010  1.00  0.00     0.278 C 
ENDBRANCH  18  28
BRANCH  21  30
ATOM     30  O   UNL     1     -10.814   2.790 -22.860  1.00  0.00    -0.507 OA
ATOM     31  H   UNL     1     -10.415   3.092 -21.979  1.00  0.00     0.293 HD
ENDBRANCH  21  30
BRANCH  25  32
ATOM     32  C   UNL     1     -16.875   4.900 -24.199  1.00  0.00     0.017 A 
ATOM     33  C   UNL     1     -17.238   6.069 -23.505  1.00  0.00     0.012 A 
ATOM     34  C   UNL     1     -17.745   4.404 -25.192  1.00  0.00     0.012 A 
ATOM     35  C   UNL     1     -18.448   6.714 -23.781  1.00  0.00     0.001 A 
ATOM     36  C   UNL     1     -18.953   5.054 -25.465  1.00  0.00     0.001 A 
ATOM     37  C   UNL     1     -19.306   6.205 -24.758  1.00  0.00     0.000 A 
ENDBRANCH  25  32
ENDBRANCH   1  17
TORSDOF 9
ENDMDL
MODEL 4
REMARK VINA RESULT:    -6.670      2.182      8.482
REMARK INTER + INTRA:         -10.760
REMARK INTER:                  -9.450
REMARK INTRA:                  -1.310
REMARK UNBOUND:                -1.361
REMARK SMILES COc1c(O[C@@H]2O[C@H](C(=O)[O-])[C@@H](O)[C@H](O)[C@H]2O)cc(O)c2c(=O)cc(-c3ccccc3)oc12
REMARK SMILES IDX 5 1 6 2 8 3 12 4 7 5 14 6 16 7 9 8 10 9 11 10 13 11 15 13
REMARK SMILES IDX 17 15 4 17 3 18 18 19 33 20 19 21 21 22 32 23 22 24 25 25
REMARK SMILES IDX 24 26 23 27 2 28 1 29 20 30 26 32 27 33 31 34 28 35 30 36
REMARK SMILES IDX 29 37
REMARK H PARENT 13 12 15 14 17 16 20 31
REMARK Flexibility Score: inf
ROOT
ATOM      1  O   UNL     1     -10.807  -0.531 -22.269  1.00  0.00    -0.458 OA
ENDROOT
BRANCH   1   2
ATOM      2  C   UNL     1     -10.075  -1.370 -23.170  1.00  0.00     0.339 C 
ATOM      3  C   UNL     1     -10.148  -2.375 -25.332  1.00  0.00     0.199 C 
ATOM      4  C   UNL     1      -8.797  -3.034 -24.908  1.00  0.00     0.180 C 
ATOM      5  O   UNL     1     -10.823  -1.587 -24.350  1.00  0.00    -0.328 OA
ATOM      6  C   UNL     1      -8.806  -3.552 -23.442  1.00  0.00     0.181 C 
ATOM      7  C   UNL     1      -9.691  -2.698 -22.497  1.00  0.00     0.214 C 
BRANCH   3   8
ATOM      8  C   UNL     1     -11.097  -3.410 -25.868  1.00  0.00     0.073 C 
ATOM      9  O   UNL     1     -10.700  -4.583 -26.116  1.00  0.00    -0.547 OA
ATOM     10  O   UNL     1     -12.421  -3.068 -26.125  1.00  0.00    -0.547 OA
ENDBRANCH   3   8
BRANCH   4  11
ATOM     11  O   UNL     1      -7.768  -2.089 -25.070  1.00  0.00    -0.387 OA
ATOM     12  H   UNL     1      -7.111  -2.244 -24.340  1.00  0.00     0.211 HD
ENDBRANCH   4  11
BRANCH   6  13
ATOM     13  O   UNL     1      -9.179  -4.909 -23.386  1.00  0.00    -0.387 OA
ATOM     14  H   UNL     1      -8.348  -5.451 -23.336  1.00  0.00     0.211 HD
ENDBRANCH   6  13
BRANCH   7  15
ATOM     15  O   UNL     1      -9.007  -2.429 -21.299  1.00  0.00    -0.384 OA
ATOM     16  H   UNL     1      -8.041  -2.560 -21.488  1.00  0.00     0.211 HD
ENDBRANCH   7  15
ENDBRANCH   1   2
BRANCH   1  17
ATOM     17  C   UNL     1     -12.160  -0.150 -22.352  1.00  0.00     0.172 A 
ATOM     18  C   UNL     1     -12.445   1.132 -22.835  1.00  0.00     0.205 A 
ATOM     19  C   UNL     1     -13.220  -0.994 -21.974  1.00  0.00     0.097 A 
ATOM     20  C   UNL     1     -13.776   1.567 -22.962  1.00  0.00     0.188 A 
ATOM     21  C   UNL     1     -14.551  -0.567 -22.069  1.00  0.00     0.134 A 
ATOM     22  C   UNL     1     -14.841   0.721 -22.569  1.00  0.00     0.111 A 
ATOM     23  O   UNL     1     -14.030   2.771 -23.471  1.00  0.00    -0.452 OA
ATOM     24  C   UNL     1     -16.155   1.212 -22.707  1.00  0.00     0.197 A 
ATOM     25  C   UNL     1     -15.260   3.255 -23.636  1.00  0.00     0.138 A 
ATOM     26  C   UNL     1     -16.363   2.483 -23.239  1.00  0.00     0.100 A 
ATOM     27  O   UNL     1     -17.153   0.526 -22.357  1.00  0.00    -0.289 OA
BRANCH  18  28
ATOM     28  O   UNL     1     -11.381   1.964 -23.202  1.00  0.00    -0.490 OA
ATOM     29  C   UNL     1     -10.957   2.096 -24.553  1.00  0.00     0.278 C 
ENDBRANCH  18  28
BRANCH  21  30
ATOM     30  O   UNL     1     -15.575  -1.430 -21.674  1.00  0.00    -0.507 OA
ATOM     31  H   UNL     1     -16.332  -1.682 -22.298  1.00  0.00     0.293 HD
ENDBRANCH  21  30
BRANCH  25  32
ATOM     32  C   UNL     1     -15.428   4.606 -24.227  1.00  0.00     0.017 A 
ATOM     33  C   UNL     1     -16.406   5.477 -23.711  1.00  0.00     0.012 A 
ATOM     34  C   UNL     1     -14.609   5.056 -25.283  1.00  0.00     0.012 A 
ATOM     35  C   UNL     1     -16.575   6.755 -24.250  1.00  0.00     0.001 A 
ATOM     36  C   UNL     1     -14.782   6.337 -25.817  1.00  0.00     0.001 A 
ATOM     37  C   UNL     1     -15.766   7.185 -25.304  1.00  0.00     0.000 A 
ENDBRANCH  25  32
ENDBRANCH   1  17
TORSDOF 9
ENDMDL
MODEL 5
REMARK VINA RESULT:    -6.510      1.875      3.515
REMARK INTER + INTRA:         -10.536
REMARK INTER:                 -10.194
REMARK INTRA:                  -0.341
REMARK UNBOUND:                -1.361
REMARK SMILES COc1c(O[C@@H]2O[C@H](C(=O)[O-])[C@@H](O)[C@H](O)[C@H]2O)cc(O)c2c(=O)cc(-c3ccccc3)oc12
REMARK SMILES IDX 5 1 6 2 8 3 12 4 7 5 14 6 16 7 9 8 10 9 11 10 13 11 15 13
REMARK SMILES IDX 17 15 4 17 3 18 18 19 33 20 19 21 21 22 32 23 22 24 25 25
REMARK SMILES IDX 24 26 23 27 2 28 1 29 20 30 26 32 27 33 31 34 28 35 30 36
REMARK SMILES IDX 29 37
REMARK H PARENT 13 12 15 14 17 16 20 31
REMARK Flexibility Score: inf
ROOT
ATOM      1  O   UNL     1     -12.978   0.916 -25.489  1.00  0.00    -0.458 OA
ENDROOT
BRANCH   1   2
ATOM      2  C   UNL     1     -13.997   1.882 -25.206  1.00  0.00     0.339 C 
ATOM      3  C   UNL     1     -14.444   4.224 -25.131  1.00  0.00     0.199 C 
ATOM      4  C   UNL     1     -15.846   3.789 -24.596  1.00  0.00     0.180 C 
ATOM      5  O   UNL     1     -13.481   3.191 -25.345  1.00  0.00    -0.328 OA
ATOM      6  C   UNL     1     -15.769   2.638 -23.553  1.00  0.00     0.181 C 
ATOM      7  C   UNL     1     -14.593   1.660 -23.806  1.00  0.00     0.214 C 
BRANCH   3   8
ATOM      8  C   UNL     1     -13.843   5.278 -24.244  1.00  0.00     0.073 C 
ATOM      9  O   UNL     1     -14.276   6.464 -24.266  1.00  0.00    -0.547 OA
ATOM     10  O   UNL     1     -12.776   4.956 -23.411  1.00  0.00    -0.547 OA
ENDBRANCH   3   8
BRANCH   4  11
ATOM     11  O   UNL     1     -16.635   3.385 -25.688  1.00  0.00    -0.387 OA
ATOM     12  H   UNL     1     -16.557   2.397 -25.757  1.00  0.00     0.211 HD
ENDBRANCH   4  11
BRANCH   6  13
ATOM     13  O   UNL     1     -15.723   3.148 -22.240  1.00  0.00    -0.387 OA
ATOM     14  H   UNL     1     -15.734   2.377 -21.614  1.00  0.00     0.211 HD
ENDBRANCH   6  13
BRANCH   7  15
ATOM     15  O   UNL     1     -15.034   0.330 -23.696  1.00  0.00    -0.384 OA
ATOM     16  H   UNL     1     -16.018   0.344 -23.824  1.00  0.00     0.211 HD
ENDBRANCH   7  15
ENDBRANCH   1   2
BRANCH   1  17
ATOM     17  C   UNL     1     -12.098   0.300 -24.578  1.00  0.00     0.172 A 
ATOM     18  C   UNL     1     -11.617  -0.974 -24.901  1.00  0.00     0.205 A 
ATOM     19  C   UNL     1     -11.691   0.905 -23.375  1.00  0.00     0.097 A 
ATOM     20  C   UNL     1     -10.720  -1.636 -24.044  1.00  0.00     0.188 A 
ATOM     21  C   UNL     1     -10.819   0.248 -22.498  1.00  0.00     0.134 A 
ATOM     22  C   UNL     1     -10.322  -1.031 -22.828  1.00  0.00     0.111 A 
ATOM     23  O   UNL     1     -10.234  -2.826 -24.393  1.00  0.00    -0.452 OA
ATOM     24  C   UNL     1      -9.429  -1.745 -22.002  1.00  0.00     0.197 A 
ATOM     25  C   UNL     1      -9.372  -3.514 -23.646  1.00  0.00     0.138 A 
ATOM     26  C   UNL     1      -8.956  -2.989 -22.412  1.00  0.00     0.100 A 
ATOM     27  O   UNL     1      -9.047  -1.282 -20.893  1.00  0.00    -0.289 OA
BRANCH  18  28
ATOM     28  O   UNL     1     -12.035  -1.566 -26.097  1.00  0.00    -0.490 OA
ATOM     29  C   UNL     1     -12.978  -2.631 -26.124  1.00  0.00     0.278 C 
ENDBRANCH  18  28
BRANCH  21  30
ATOM     30  O   UNL     1     -10.446   0.877 -21.308  1.00  0.00    -0.507 OA
ATOM     31  H   UNL     1     -11.048   0.877 -20.493  1.00  0.00     0.293 HD
ENDBRANCH  21  30
BRANCH  25  32
ATOM     32  C   UNL     1      -8.882  -4.826 -24.138  1.00  0.00     0.017 A 
ATOM     33  C   UNL     1      -9.744  -5.663 -24.870  1.00  0.00     0.012 A 
ATOM     34  C   UNL     1      -7.555  -5.248 -23.915  1.00  0.00     0.012 A 
ATOM     35  C   UNL     1      -9.299  -6.899 -25.348  1.00  0.00     0.001 A 
ATOM     36  C   UNL     1      -7.114  -6.485 -24.397  1.00  0.00     0.001 A 
ATOM     37  C   UNL     1      -7.986  -7.311 -25.110  1.00  0.00     0.000 A 
ENDBRANCH  25  32
ENDBRANCH   1  17
TORSDOF 9
ENDMDL
MODEL 6
REMARK VINA RESULT:    -6.489      2.801      5.102
REMARK INTER + INTRA:         -10.506
REMARK INTER:                  -9.707
REMARK INTRA:                  -0.800
REMARK UNBOUND:                -1.361
REMARK SMILES COc1c(O[C@@H]2O[C@H](C(=O)[O-])[C@@H](O)[C@H](O)[C@H]2O)cc(O)c2c(=O)cc(-c3ccccc3)oc12
REMARK SMILES IDX 5 1 6 2 8 3 12 4 7 5 14 6 16 7 9 8 10 9 11 10 13 11 15 13
REMARK SMILES IDX 17 15 4 17 3 18 18 19 33 20 19 21 21 22 32 23 22 24 25 25
REMARK SMILES IDX 24 26 23 27 2 28 1 29 20 30 26 32 27 33 31 34 28 35 30 36
REMARK SMILES IDX 29 37
REMARK H PARENT 13 12 15 14 17 16 20 31
REMARK Flexibility Score: inf
ROOT
ATOM      1  O   UNL     1     -14.779   4.246 -23.523  1.00  0.00    -0.458 OA
ENDROOT
BRANCH   1   2
ATOM      2  C   UNL     1     -15.699   5.075 -24.241  1.00  0.00     0.339 C 
ATOM      3  C   UNL     1     -17.392   6.734 -23.966  1.00  0.00     0.199 C 
ATOM      4  C   UNL     1     -17.547   6.619 -25.516  1.00  0.00     0.180 C 
ATOM      5  O   UNL     1     -16.477   5.835 -23.337  1.00  0.00    -0.328 OA
ATOM      6  C   UNL     1     -17.503   5.150 -26.026  1.00  0.00     0.181 C 
ATOM      7  C   UNL     1     -16.586   4.235 -25.173  1.00  0.00     0.214 C 
BRANCH   3   8
ATOM      8  C   UNL     1     -18.731   6.623 -23.291  1.00  0.00     0.073 C 
ATOM      9  O   UNL     1     -19.699   6.053 -23.866  1.00  0.00    -0.547 OA
ATOM     10  O   UNL     1     -18.918   7.184 -22.031  1.00  0.00    -0.547 OA
ENDBRANCH   3   8
BRANCH   4  11
ATOM     11  O   UNL     1     -16.519   7.362 -26.125  1.00  0.00    -0.387 OA
ATOM     12  H   UNL     1     -15.798   6.722 -26.366  1.00  0.00     0.211 HD
ENDBRANCH   4  11
BRANCH   6  13
ATOM     13  O   UNL     1     -18.800   4.609 -26.124  1.00  0.00    -0.387 OA
ATOM     14  H   UNL     1     -19.384   5.102 -25.489  1.00  0.00     0.211 HD
ENDBRANCH   6  13
BRANCH   7  15
ATOM     15  O   UNL     1     -15.770   3.451 -26.007  1.00  0.00    -0.384 OA
ATOM     16  H   UNL     1     -15.816   2.522 -25.660  1.00  0.00     0.211 HD
ENDBRANCH   7  15
ENDBRANCH   1   2
BRANCH   1  17
ATOM     17  C   UNL     1     -14.974   2.923 -23.081  1.00  0.00     0.172 A 
ATOM     18  C   UNL     1     -13.983   1.983 -23.386  1.00  0.00     0.205 A 
ATOM     19  C   UNL     1     -16.110   2.515 -22.359  1.00  0.00     0.097 A 
ATOM     20  C   UNL     1     -14.108   0.650 -22.958  1.00  0.00     0.188 A 
ATOM     21  C   UNL     1     -16.262   1.185 -21.946  1.00  0.00     0.134 A 
ATOM     22  C   UNL     1     -15.257   0.239 -22.241  1.00  0.00     0.111 A 
ATOM     23  O   UNL     1     -13.131  -0.218 -23.213  1.00  0.00    -0.452 OA
ATOM     24  C   UNL     1     -15.335  -1.113 -21.846  1.00  0.00     0.197 A 
ATOM     25  C   UNL     1     -13.164  -1.494 -22.833  1.00  0.00     0.138 A 
ATOM     26  C   UNL     1     -14.287  -1.980 -22.145  1.00  0.00     0.100 A 
ATOM     27  O   UNL     1     -16.338  -1.558 -21.224  1.00  0.00    -0.289 OA
BRANCH  18  28
ATOM     28  O   UNL     1     -12.862   2.401 -24.112  1.00  0.00    -0.490 OA
ATOM     29  C   UNL     1     -11.675   2.855 -23.474  1.00  0.00     0.278 C 
ENDBRANCH  18  28
BRANCH  21  30
ATOM     30  O   UNL     1     -17.409   0.817 -21.239  1.00  0.00    -0.507 OA
ATOM     31  H   UNL     1     -17.435  -0.014 -20.659  1.00  0.00     0.293 HD
ENDBRANCH  21  30
BRANCH  25  32
ATOM     32  C   UNL     1     -12.012  -2.372 -23.158  1.00  0.00     0.017 A 
ATOM     33  C   UNL     1     -12.233  -3.725 -23.476  1.00  0.00     0.012 A 
ATOM     34  C   UNL     1     -10.692  -1.877 -23.186  1.00  0.00     0.012 A 
ATOM     35  C   UNL     1     -11.162  -4.566 -23.792  1.00  0.00     0.001 A 
ATOM     36  C   UNL     1      -9.624  -2.722 -23.505  1.00  0.00     0.001 A 
ATOM     37  C   UNL     1      -9.858  -4.066 -23.804  1.00  0.00     0.000 A 
ENDBRANCH  25  32
ENDBRANCH   1  17
TORSDOF 9
ENDMDL
MODEL 7
REMARK VINA RESULT:    -6.296      2.265      8.917
REMARK INTER + INTRA:         -10.233
REMARK INTER:                  -9.657
REMARK INTRA:                  -0.575
REMARK UNBOUND:                -1.361
REMARK SMILES COc1c(O[C@@H]2O[C@H](C(=O)[O-])[C@@H](O)[C@H](O)[C@H]2O)cc(O)c2c(=O)cc(-c3ccccc3)oc12
REMARK SMILES IDX 5 1 6 2 8 3 12 4 7 5 14 6 16 7 9 8 10 9 11 10 13 11 15 13
REMARK SMILES IDX 17 15 4 17 3 18 18 19 33 20 19 21 21 22 32 23 22 24 25 25
REMARK SMILES IDX 24 26 23 27 2 28 1 29 20 30 26 32 27 33 31 34 28 35 30 36
REMARK SMILES IDX 29 37
REMARK H PARENT 13 12 15 14 17 16 20 31
REMARK Flexibility Score: inf
ROOT
ATOM      1  O   UNL     1     -11.826  -0.900 -25.741  1.00  0.00    -0.458 OA
ENDROOT
BRANCH   1   2
ATOM      2  C   UNL     1     -10.736  -1.795 -25.492  1.00  0.00     0.339 C 
ATOM      3  C   UNL     1     -10.124  -4.100 -25.464  1.00  0.00     0.199 C 
ATOM      4  C   UNL     1      -8.748  -3.576 -24.945  1.00  0.00     0.180 C 
ATOM      5  O   UNL     1     -11.161  -3.135 -25.644  1.00  0.00    -0.328 OA
ATOM      6  C   UNL     1      -8.887  -2.451 -23.881  1.00  0.00     0.181 C 
ATOM      7  C   UNL     1     -10.133  -1.554 -24.098  1.00  0.00     0.214 C 
BRANCH   3   8
ATOM      8  C   UNL     1     -10.634  -5.209 -24.585  1.00  0.00     0.073 C 
ATOM      9  O   UNL     1     -11.616  -5.022 -23.814  1.00  0.00    -0.547 OA
ATOM     10  O   UNL     1      -9.998  -6.447 -24.594  1.00  0.00    -0.547 OA
ENDBRANCH   3   8
BRANCH   4  11
ATOM     11  O   UNL     1      -8.008  -3.100 -26.043  1.00  0.00    -0.387 OA
ATOM     12  H   UNL     1      -7.241  -2.584 -25.678  1.00  0.00     0.211 HD
ENDBRANCH   4  11
BRANCH   6  13
ATOM     13  O   UNL     1      -8.873  -2.983 -22.577  1.00  0.00    -0.387 OA
ATOM     14  H   UNL     1      -8.219  -2.461 -22.042  1.00  0.00     0.211 HD
ENDBRANCH   6  13
BRANCH   7  15
ATOM     15  O   UNL     1      -9.785  -0.198 -23.973  1.00  0.00    -0.384 OA
ATOM     16  H   UNL     1      -8.989  -0.053 -24.548  1.00  0.00     0.211 HD
ENDBRANCH   7  15
ENDBRANCH   1   2
BRANCH   1  17
ATOM     17  C   UNL     1     -12.705  -0.329 -24.800  1.00  0.00     0.172 A 
ATOM     18  C   UNL     1     -13.107   0.996 -25.008  1.00  0.00     0.205 A 
ATOM     19  C   UNL     1     -13.185  -1.026 -23.677  1.00  0.00     0.097 A 
ATOM     20  C   UNL     1     -13.998   1.618 -24.116  1.00  0.00     0.188 A 
ATOM     21  C   UNL     1     -14.054  -0.412 -22.765  1.00  0.00     0.134 A 
ATOM     22  C   UNL     1     -14.471   0.919 -22.980  1.00  0.00     0.111 A 
ATOM     23  O   UNL     1     -14.410   2.862 -24.358  1.00  0.00    -0.452 OA
ATOM     24  C   UNL     1     -15.355   1.596 -22.114  1.00  0.00     0.197 A 
ATOM     25  C   UNL     1     -15.261   3.519 -23.572  1.00  0.00     0.138 A 
ATOM     26  C   UNL     1     -15.747   2.899 -22.411  1.00  0.00     0.100 A 
ATOM     27  O   UNL     1     -15.800   1.047 -21.070  1.00  0.00    -0.289 OA
BRANCH  18  28
ATOM     28  O   UNL     1     -12.616   1.679 -26.125  1.00  0.00    -0.490 OA
ATOM     29  C   UNL     1     -11.379   2.381 -26.097  1.00  0.00     0.278 C 
ENDBRANCH  18  28
BRANCH  21  30
ATOM     30  O   UNL     1     -14.501  -1.134 -21.656  1.00  0.00    -0.507 OA
ATOM     31  H   UNL     1     -14.614  -0.701 -20.747  1.00  0.00     0.293 HD
ENDBRANCH  21  30
BRANCH  25  32
ATOM     32  C   UNL     1     -15.665   4.898 -23.945  1.00  0.00     0.017 A 
ATOM     33  C   UNL     1     -14.835   5.666 -24.783  1.00  0.00     0.012 A 
ATOM     34  C   UNL     1     -16.881   5.456 -23.501  1.00  0.00     0.012 A 
ATOM     35  C   UNL     1     -15.201   6.964 -25.150  1.00  0.00     0.001 A 
ATOM     36  C   UNL     1     -17.243   6.755 -23.874  1.00  0.00     0.001 A 
ATOM     37  C   UNL     1     -16.403   7.509 -24.695  1.00  0.00     0.000 A 
ENDBRANCH  25  32
ENDBRANCH   1  17
TORSDOF 9
ENDMDL
MODEL 8
REMARK VINA RESULT:    -6.053      2.725      5.571
REMARK INTER + INTRA:          -9.891
REMARK INTER:                  -8.780
REMARK INTRA:                  -1.111
REMARK UNBOUND:                -1.361
REMARK SMILES COc1c(O[C@@H]2O[C@H](C(=O)[O-])[C@@H](O)[C@H](O)[C@H]2O)cc(O)c2c(=O)cc(-c3ccccc3)oc12
REMARK SMILES IDX 5 1 6 2 8 3 12 4 7 5 14 6 16 7 9 8 10 9 11 10 13 11 15 13
REMARK SMILES IDX 17 15 4 17 3 18 18 19 33 20 19 21 21 22 32 23 22 24 25 25
REMARK SMILES IDX 24 26 23 27 2 28 1 29 20 30 26 32 27 33 31 34 28 35 30 36
REMARK SMILES IDX 29 37
REMARK H PARENT 13 12 15 14 17 16 20 31
REMARK Flexibility Score: inf
ROOT
ATOM      1  O   UNL     1     -15.690   3.492 -23.294  1.00  0.00    -0.458 OA
ENDROOT
BRANCH   1   2
ATOM      2  C   UNL     1     -16.280   4.534 -24.078  1.00  0.00     0.339 C 
ATOM      3  C   UNL     1     -17.400   6.636 -23.933  1.00  0.00     0.199 C 
ATOM      4  C   UNL     1     -17.508   6.517 -25.487  1.00  0.00     0.180 C 
ATOM      5  O   UNL     1     -16.832   5.526 -23.235  1.00  0.00    -0.328 OA
ATOM      6  C   UNL     1     -17.888   5.087 -25.964  1.00  0.00     0.181 C 
ATOM      7  C   UNL     1     -17.335   3.968 -25.043  1.00  0.00     0.214 C 
BRANCH   3   8
ATOM      8  C   UNL     1     -18.740   6.959 -23.332  1.00  0.00     0.073 C 
ATOM      9  O   UNL     1     -19.764   6.286 -23.637  1.00  0.00    -0.547 OA
ATOM     10  O   UNL     1     -18.863   8.032 -22.455  1.00  0.00    -0.547 OA
ENDBRANCH   3   8
BRANCH   4  11
ATOM     11  O   UNL     1     -16.276   6.893 -26.051  1.00  0.00    -0.387 OA
ATOM     12  H   UNL     1     -16.363   6.797 -27.036  1.00  0.00     0.211 HD
ENDBRANCH   4  11
BRANCH   6  13
ATOM     13  O   UNL     1     -19.282   4.960 -26.124  1.00  0.00    -0.387 OA
ATOM     14  H   UNL     1     -19.461   4.762 -27.081  1.00  0.00     0.211 HD
ENDBRANCH   6  13
BRANCH   7  15
ATOM     15  O   UNL     1     -16.756   2.946 -25.814  1.00  0.00    -0.384 OA
ATOM     16  H   UNL     1     -16.770   3.257 -26.757  1.00  0.00     0.211 HD
ENDBRANCH   7  15
ENDBRANCH   1   2
BRANCH   1  17
ATOM     17  C   UNL     1     -14.364   3.019 -23.345  1.00  0.00     0.172 A 
ATOM     18  C   UNL     1     -14.171   1.634 -23.397  1.00  0.00     0.205 A 
ATOM     19  C   UNL     1     -13.245   3.871 -23.344  1.00  0.00     0.097 A 
ATOM     20  C   UNL     1     -12.873   1.098 -23.469  1.00  0.00     0.188 A 
ATOM     21  C   UNL     1     -11.945   3.353 -23.389  1.00  0.00     0.134 A 
ATOM     22  C   UNL     1     -11.747   1.956 -23.456  1.00  0.00     0.111 A 
ATOM     23  O   UNL     1     -12.710  -0.220 -23.570  1.00  0.00    -0.452 OA
ATOM     24  C   UNL     1     -10.469   1.364 -23.519  1.00  0.00     0.197 A 
ATOM     25  C   UNL     1     -11.517  -0.808 -23.654  1.00  0.00     0.138 A 
ATOM     26  C   UNL     1     -10.356  -0.021 -23.616  1.00  0.00     0.100 A 
ATOM     27  O   UNL     1      -9.420   2.062 -23.488  1.00  0.00    -0.289 OA
BRANCH  18  28
ATOM     28  O   UNL     1     -15.292   0.798 -23.391  1.00  0.00    -0.490 OA
ATOM     29  C   UNL     1     -15.920   0.386 -22.183  1.00  0.00     0.278 C 
ENDBRANCH  18  28
BRANCH  21  30
ATOM     30  O   UNL     1     -10.859   4.231 -23.375  1.00  0.00    -0.507 OA
ATOM     31  H   UNL     1     -10.292   4.391 -24.199  1.00  0.00     0.293 HD
ENDBRANCH  21  30
BRANCH  25  32
ATOM     32  C   UNL     1     -11.452  -2.286 -23.778  1.00  0.00     0.017 A 
ATOM     33  C   UNL     1     -10.674  -2.867 -24.797  1.00  0.00     0.012 A 
ATOM     34  C   UNL     1     -12.130  -3.133 -22.878  1.00  0.00     0.012 A 
ATOM     35  C   UNL     1     -10.593  -4.257 -24.926  1.00  0.00     0.001 A 
ATOM     36  C   UNL     1     -12.044  -4.523 -23.010  1.00  0.00     0.001 A 
ATOM     37  C   UNL     1     -11.279  -5.084 -24.035  1.00  0.00     0.000 A 
ENDBRANCH  25  32
ENDBRANCH   1  17
TORSDOF 9
ENDMDL
