MODEL 1
REMARK VINA RESULT:    -5.094      0.000      0.000
REMARK INTER + INTRA:          -7.624
REMARK INTER:                  -7.774
REMARK INTRA:                   0.149
REMARK UNBOUND:                 0.149
REMARK SMILES CC1=CCC[C@@H](C)C(=O)C[C@@H](C(C)C)C(=O)C1
REMARK SMILES IDX 8 1 9 2 6 3 7 4 5 5 4 6 3 7 2 8 1 9 10 11 11 12 15 13 16 14
REMARK SMILES IDX 17 15 12 17 13 18 14 19
REMARK H PARENT
REMARK Flexibility Score: 70.00
ROOT
ATOM      1  C   UNL     1      -0.579  11.454  46.229  1.00  0.00     0.136 C 
ATOM      2  O   UNL     1      -0.744  10.401  46.827  1.00  0.00    -0.299 OA
ENDROOT
BRANCH   1   3
ATOM      3  C   UNL     1      -1.731  12.428  46.086  1.00  0.00     0.053 C 
ATOM      4  C   UNL     1      -3.055  11.680  46.267  1.00  0.00     0.016 C 
BRANCH   3   5
ATOM      5  C   UNL     1      -1.715  13.162  44.724  1.00  0.00     0.015 C 
BRANCH   5   6
ATOM      6  C   UNL     1      -1.876  14.685  44.838  1.00  0.00     0.028 C 
BRANCH   6   7
ATOM      7  C   UNL     1      -1.384  15.193  46.171  1.00  0.00    -0.028 C 
ATOM      8  C   UNL     1      -0.087  15.250  46.550  1.00  0.00    -0.070 CG0
ATOM      9  C   UNL     1       0.229  15.793  47.921  1.00  0.00     0.039 C 
ATOM     10  G   UNL     1       1.054  14.806  45.653  1.00  0.00     0.000 G0
ENDBRANCH   6   7
ENDBRANCH   5   6
ENDBRANCH   3   5
ENDBRANCH   1   3
BRANCH   1  11
ATOM     11  C   UNL     1       0.792  11.791  45.694  1.00  0.00     0.087 C 
BRANCH  11  12
ATOM     12  C   UNL     1       1.734  12.443  46.742  1.00  0.00     0.066 C 
BRANCH  12  13
ATOM     13  C   UNL     1       2.052  13.882  46.347  1.00  0.00     0.140 C 
ATOM     14  O   UNL     1       3.132  14.355  46.670  1.00  0.00    -0.299 OA
BRANCH  13  15
ATOM     15  C   UNL     1       1.056  14.793  45.656  1.00  0.00     0.106 CG0
ATOM     16  G   UNL     1      -0.078  15.269  46.545  1.00  0.00     0.000 G0
ENDBRANCH  13  15
ENDBRANCH  12  13
BRANCH  12  17
ATOM     17  C   UNL     1       3.054  11.623  46.912  1.00  0.00    -0.006 C 
ATOM     18  C   UNL     1       3.178  10.497  45.869  1.00  0.00     0.008 C 
ATOM     19  C   UNL     1       3.162  11.010  48.319  1.00  0.00     0.008 C 
ENDBRANCH  12  17
ENDBRANCH  11  12
ENDBRANCH   1  11
TORSDOF 1
ENDMDL
MODEL 2
REMARK VINA RESULT:    -4.580      1.763      3.555
REMARK INTER + INTRA:          -6.840
REMARK INTER:                  -7.152
REMARK INTRA:                   0.311
REMARK UNBOUND:                 0.149
REMARK SMILES CC1=CCC[C@@H](C)C(=O)C[C@@H](C(C)C)C(=O)C1
REMARK SMILES IDX 8 1 9 2 6 3 7 4 5 5 4 6 3 7 2 8 1 9 10 11 11 12 15 13 16 14
REMARK SMILES IDX 17 15 12 17 13 18 14 19
REMARK H PARENT
REMARK Flexibility Score: 70.00
ROOT
ATOM      1  C   UNL     1       1.035  14.646  45.949  1.00  0.00     0.136 C 
ATOM      2  O   UNL     1       1.405  14.556  44.787  1.00  0.00    -0.299 OA
ENDROOT
BRANCH   1   3
ATOM      3  C   UNL     1      -0.103  15.580  46.307  1.00  0.00     0.053 C 
ATOM      4  C   UNL     1      -0.110  15.818  47.820  1.00  0.00     0.016 C 
BRANCH   3   5
ATOM      5  C   UNL     1      -1.477  15.037  45.847  1.00  0.00     0.015 C 
BRANCH   5   6
ATOM      6  C   UNL     1      -1.400  13.686  45.121  1.00  0.00     0.028 C 
BRANCH   6   7
ATOM      7  C   UNL     1      -1.926  12.566  45.986  1.00  0.00    -0.028 C 
ATOM      8  C   UNL     1      -1.278  11.405  46.231  1.00  0.00    -0.070 CG0
ATOM      9  C   UNL     1      -1.948  10.393  47.125  1.00  0.00     0.039 C 
ATOM     10  G   UNL     1       0.092  11.089  45.658  1.00  0.00     0.000 G0
ENDBRANCH   6   7
ENDBRANCH   5   6
ENDBRANCH   3   5
ENDBRANCH   1   3
BRANCH   1  11
ATOM     11  C   UNL     1       1.683  13.777  46.999  1.00  0.00     0.087 C 
BRANCH  11  12
ATOM     12  C   UNL     1       2.262  12.447  46.444  1.00  0.00     0.066 C 
BRANCH  12  13
ATOM     13  C   UNL     1       1.253  11.316  46.617  1.00  0.00     0.140 C 
ATOM     14  O   UNL     1       1.424  10.509  47.520  1.00  0.00    -0.299 OA
BRANCH  13  15
ATOM     15  C   UNL     1       0.097  11.082  45.665  1.00  0.00     0.106 CG0
ATOM     16  G   UNL     1      -1.268  11.400  46.248  1.00  0.00     0.000 G0
ENDBRANCH  13  15
ENDBRANCH  12  13
BRANCH  12  17
ATOM     17  C   UNL     1       3.613  12.079  47.138  1.00  0.00    -0.006 C 
ATOM     18  C   UNL     1       4.529  13.304  47.315  1.00  0.00     0.008 C 
ATOM     19  C   UNL     1       4.378  10.999  46.352  1.00  0.00     0.008 C 
ENDBRANCH  12  17
ENDBRANCH  11  12
ENDBRANCH   1  11
TORSDOF 1
ENDMDL
MODEL 3
REMARK VINA RESULT:    -4.566      1.878      5.004
REMARK INTER + INTRA:          -6.819
REMARK INTER:                  -6.810
REMARK INTRA:                  -0.008
REMARK UNBOUND:                 0.149
REMARK SMILES CC1=CCC[C@@H](C)C(=O)C[C@@H](C(C)C)C(=O)C1
REMARK SMILES IDX 8 1 9 2 6 3 7 4 5 5 4 6 3 7 2 8 1 9 10 11 11 12 15 13 16 14
REMARK SMILES IDX 17 15 12 17 13 18 14 19
REMARK H PARENT
REMARK Flexibility Score: 70.00
ROOT
ATOM      1  C   UNL     1       2.489  13.497  46.688  1.00  0.00     0.136 C 
ATOM      2  O   UNL     1       3.212  14.442  46.967  1.00  0.00    -0.299 OA
ENDROOT
BRANCH   1   3
ATOM      3  C   UNL     1       2.751  12.139  47.306  1.00  0.00     0.053 C 
ATOM      4  C   UNL     1       3.858  12.263  48.358  1.00  0.00     0.016 C 
BRANCH   3   5
ATOM      5  C   UNL     1       3.136  11.076  46.250  1.00  0.00     0.015 C 
BRANCH   5   6
ATOM      6  C   UNL     1       1.936  10.484  45.497  1.00  0.00     0.028 C 
BRANCH   6   7
ATOM      7  C   UNL     1       0.814  10.127  46.442  1.00  0.00    -0.028 C 
ATOM      8  C   UNL     1      -0.437  10.635  46.390  1.00  0.00    -0.070 CG0
ATOM      9  C   UNL     1      -1.439  10.163  47.413  1.00  0.00     0.039 C 
ATOM     10  G   UNL     1      -0.874  11.643  45.342  1.00  0.00     0.000 G0
ENDBRANCH   6   7
ENDBRANCH   5   6
ENDBRANCH   3   5
ENDBRANCH   1   3
BRANCH   1  11
ATOM     11  C   UNL     1       1.307  13.718  45.775  1.00  0.00     0.087 C 
BRANCH  11  12
ATOM     12  C   UNL     1      -0.038  13.915  46.523  1.00  0.00     0.066 C 
BRANCH  12  13
ATOM     13  C   UNL     1      -1.127  13.051  45.894  1.00  0.00     0.140 C 
ATOM     14  O   UNL     1      -2.279  13.463  45.897  1.00  0.00    -0.299 OA
BRANCH  13  15
ATOM     15  C   UNL     1      -0.872  11.659  45.350  1.00  0.00     0.106 CG0
ATOM     16  G   UNL     1      -0.437  10.649  46.395  1.00  0.00     0.000 G0
ENDBRANCH  13  15
ENDBRANCH  12  13
BRANCH  12  17
ATOM     17  C   UNL     1      -0.474  15.416  46.530  1.00  0.00    -0.006 C 
ATOM     18  C   UNL     1      -0.183  16.112  45.188  1.00  0.00     0.008 C 
ATOM     19  C   UNL     1       0.220  16.202  47.656  1.00  0.00     0.008 C 
ENDBRANCH  12  17
ENDBRANCH  11  12
ENDBRANCH   1  11
TORSDOF 1
ENDMDL
MODEL 4
REMARK VINA RESULT:    -3.940      1.912      3.010
REMARK INTER + INTRA:          -5.864
REMARK INTER:                  -5.852
REMARK INTRA:                  -0.012
REMARK UNBOUND:                 0.149
REMARK SMILES CC1=CCC[C@@H](C)C(=O)C[C@@H](C(C)C)C(=O)C1
REMARK SMILES IDX 8 1 9 2 6 3 7 4 5 5 4 6 3 7 2 8 1 9 10 11 11 12 15 13 16 14
REMARK SMILES IDX 17 15 12 17 13 18 14 19
REMARK H PARENT
REMARK Flexibility Score: 70.00
ROOT
ATOM      1  C   UNL     1       2.636  10.953  47.391  1.00  0.00     0.136 C 
ATOM      2  O   UNL     1       2.518  10.904  48.606  1.00  0.00    -0.299 OA
ENDROOT
BRANCH   1   3
ATOM      3  C   UNL     1       1.718  10.131  46.510  1.00  0.00     0.053 C 
ATOM      4  C   UNL     1       2.179  10.240  45.053  1.00  0.00     0.016 C 
BRANCH   3   5
ATOM      5  C   UNL     1       0.238  10.564  46.635  1.00  0.00     0.015 C 
BRANCH   5   6
ATOM      6  C   UNL     1      -0.206  11.574  45.567  1.00  0.00     0.028 C 
BRANCH   6   7
ATOM      7  C   UNL     1      -0.513  12.920  46.176  1.00  0.00    -0.028 C 
ATOM      8  C   UNL     1       0.357  13.951  46.261  1.00  0.00    -0.070 CG0
ATOM      9  C   UNL     1      -0.118  15.232  46.898  1.00  0.00     0.039 C 
ATOM     10  G   UNL     1       1.778  13.875  45.733  1.00  0.00     0.000 G0
ENDBRANCH   6   7
ENDBRANCH   5   6
ENDBRANCH   3   5
ENDBRANCH   1   3
BRANCH   1  11
ATOM     11  C   UNL     1       3.660  11.884  46.787  1.00  0.00     0.087 C 
BRANCH  11  12
ATOM     12  C   UNL     1       3.723  13.278  47.469  1.00  0.00     0.066 C 
BRANCH  12  13
ATOM     13  C   UNL     1       2.873  14.284  46.698  1.00  0.00     0.140 C 
ATOM     14  O   UNL     1       3.012  15.475  46.936  1.00  0.00    -0.299 OA
BRANCH  13  15
ATOM     15  C   UNL     1       1.790  13.877  45.717  1.00  0.00     0.106 CG0
ATOM     16  G   UNL     1       0.381  13.946  46.277  1.00  0.00     0.000 G0
ENDBRANCH  13  15
ENDBRANCH  12  13
BRANCH  12  17
ATOM     17  C   UNL     1       5.194  13.790  47.588  1.00  0.00    -0.006 C 
ATOM     18  C   UNL     1       6.012  13.513  46.313  1.00  0.00     0.008 C 
ATOM     19  C   UNL     1       5.919  13.157  48.789  1.00  0.00     0.008 C 
ENDBRANCH  12  17
ENDBRANCH  11  12
ENDBRANCH   1  11
TORSDOF 1
ENDMDL
MODEL 5
REMARK VINA RESULT:    -3.882      1.717      4.145
REMARK INTER + INTRA:          -5.775
REMARK INTER:                  -5.658
REMARK INTRA:                  -0.117
REMARK UNBOUND:                 0.149
REMARK SMILES CC1=CCC[C@@H](C)C(=O)C[C@@H](C(C)C)C(=O)C1
REMARK SMILES IDX 8 1 9 2 6 3 7 4 5 5 4 6 3 7 2 8 1 9 10 11 11 12 15 13 16 14
REMARK SMILES IDX 17 15 12 17 13 18 14 19
REMARK H PARENT
REMARK Flexibility Score: 70.00
ROOT
ATOM      1  C   UNL     1      -2.072  12.801  45.785  1.00  0.00     0.136 C 
ATOM      2  O   UNL     1      -2.826  13.186  44.903  1.00  0.00    -0.299 OA
ENDROOT
BRANCH   1   3
ATOM      3  C   UNL     1      -1.869  11.316  46.008  1.00  0.00     0.053 C 
ATOM      4  C   UNL     1      -3.072  10.745  46.763  1.00  0.00     0.016 C 
BRANCH   3   5
ATOM      5  C   UNL     1      -0.562  11.010  46.777  1.00  0.00     0.015 C 
BRANCH   5   6
ATOM      6  C   UNL     1       0.684  10.939  45.883  1.00  0.00     0.028 C 
BRANCH   6   7
ATOM      7  C   UNL     1       1.946  11.174  46.677  1.00  0.00    -0.028 C 
ATOM      8  C   UNL     1       2.657  12.324  46.683  1.00  0.00    -0.070 CG0
ATOM      9  C   UNL     1       3.896  12.388  47.541  1.00  0.00     0.039 C 
ATOM     10  G   UNL     1       2.254  13.546  45.879  1.00  0.00     0.000 G0
ENDBRANCH   6   7
ENDBRANCH   5   6
ENDBRANCH   3   5
ENDBRANCH   1   3
BRANCH   1  11
ATOM     11  C   UNL     1      -1.309  13.818  46.599  1.00  0.00     0.087 C 
BRANCH  11  12
ATOM     12  C   UNL     1      -0.203  14.560  45.802  1.00  0.00     0.066 C 
BRANCH  12  13
ATOM     13  C   UNL     1       1.151  14.383  46.482  1.00  0.00     0.140 C 
ATOM     14  O   UNL     1       1.370  14.986  47.523  1.00  0.00    -0.299 OA
BRANCH  13  15
ATOM     15  C   UNL     1       2.281  13.569  45.882  1.00  0.00     0.106 CG0
ATOM     16  G   UNL     1       2.664  12.341  46.688  1.00  0.00     0.000 G0
ENDBRANCH  13  15
ENDBRANCH  12  13
BRANCH  12  17
ATOM     17  C   UNL     1      -0.534  16.079  45.643  1.00  0.00    -0.006 C 
ATOM     18  C   UNL     1      -1.781  16.490  46.448  1.00  0.00     0.008 C 
ATOM     19  C   UNL     1      -0.749  16.461  44.168  1.00  0.00     0.008 C 
ENDBRANCH  12  17
ENDBRANCH  11  12
ENDBRANCH   1  11
TORSDOF 1
ENDMDL
MODEL 6
REMARK VINA RESULT:    -3.609      2.235      4.649
REMARK INTER + INTRA:          -5.359
REMARK INTER:                  -5.412
REMARK INTRA:                   0.053
REMARK UNBOUND:                 0.149
REMARK SMILES CC1=CCC[C@@H](C)C(=O)C[C@@H](C(C)C)C(=O)C1
REMARK SMILES IDX 8 1 9 2 6 3 7 4 5 5 4 6 3 7 2 8 1 9 10 11 11 12 15 13 16 14
REMARK SMILES IDX 17 15 12 17 13 18 14 19
REMARK H PARENT
REMARK Flexibility Score: 70.00
ROOT
ATOM      1  C   UNL     1       0.821  14.256  45.711  1.00  0.00     0.136 C 
ATOM      2  O   UNL     1       0.162  15.106  45.130  1.00  0.00    -0.299 OA
ENDROOT
BRANCH   1   3
ATOM      3  C   UNL     1       1.487  14.589  47.030  1.00  0.00     0.053 C 
ATOM      4  C   UNL     1       0.665  15.656  47.760  1.00  0.00     0.016 C 
BRANCH   3   5
ATOM      5  C   UNL     1       2.945  15.072  46.848  1.00  0.00     0.015 C 
BRANCH   5   6
ATOM      6  C   UNL     1       3.992  13.959  46.996  1.00  0.00     0.028 C 
BRANCH   6   7
ATOM      7  C   UNL     1       3.641  13.019  48.123  1.00  0.00    -0.028 C 
ATOM      8  C   UNL     1       3.347  11.708  47.977  1.00  0.00    -0.070 CG0
ATOM      9  C   UNL     1       3.022  10.910  49.215  1.00  0.00     0.039 C 
ATOM     10  G   UNL     1       3.343  11.009  46.630  1.00  0.00     0.000 G0
ENDBRANCH   6   7
ENDBRANCH   5   6
ENDBRANCH   3   5
ENDBRANCH   1   3
BRANCH   1  11
ATOM     11  C   UNL     1       0.907  12.866  45.129  1.00  0.00     0.087 C 
BRANCH  11  12
ATOM     12  C   UNL     1       0.806  11.733  46.186  1.00  0.00     0.066 C 
BRANCH  12  13
ATOM     13  C   UNL     1       1.968  10.757  46.031  1.00  0.00     0.140 C 
ATOM     14  O   UNL     1       1.765   9.685  45.479  1.00  0.00    -0.299 OA
BRANCH  13  15
ATOM     15  C   UNL     1       3.345  11.006  46.613  1.00  0.00     0.106 CG0
ATOM     16  G   UNL     1       3.336  11.673  47.977  1.00  0.00     0.000 G0
ENDBRANCH  13  15
ENDBRANCH  12  13
BRANCH  12  17
ATOM     17  C   UNL     1      -0.557  10.975  46.082  1.00  0.00    -0.006 C 
ATOM     18  C   UNL     1      -1.742  11.934  45.867  1.00  0.00     0.008 C 
ATOM     19  C   UNL     1      -0.829  10.125  47.335  1.00  0.00     0.008 C 
ENDBRANCH  12  17
ENDBRANCH  11  12
ENDBRANCH   1  11
TORSDOF 1
ENDMDL
MODEL 7
REMARK VINA RESULT:    -3.166      1.635      4.009
REMARK INTER + INTRA:          -4.683
REMARK INTER:                  -5.418
REMARK INTRA:                   0.735
REMARK UNBOUND:                 0.149
REMARK SMILES CC1=CCC[C@@H](C)C(=O)C[C@@H](C(C)C)C(=O)C1
REMARK SMILES IDX 8 1 9 2 6 3 7 4 5 5 4 6 3 7 2 8 1 9 10 11 11 12 15 13 16 14
REMARK SMILES IDX 17 15 12 17 13 18 14 19
REMARK H PARENT
REMARK Flexibility Score: 70.00
ROOT
ATOM      1  C   UNL     1       1.878  11.157  46.165  1.00  0.00     0.136 C 
ATOM      2  O   UNL     1       1.902  10.578  45.089  1.00  0.00    -0.299 OA
ENDROOT
BRANCH   1   3
ATOM      3  C   UNL     1       3.165  11.682  46.767  1.00  0.00     0.053 C 
ATOM      4  C   UNL     1       3.217  11.317  48.254  1.00  0.00     0.016 C 
BRANCH   3   5
ATOM      5  C   UNL     1       3.319  13.211  46.588  1.00  0.00     0.015 C 
BRANCH   5   6
ATOM      6  C   UNL     1       2.205  14.030  47.255  1.00  0.00     0.028 C 
BRANCH   6   7
ATOM      7  C   UNL     1       1.541  14.962  46.270  1.00  0.00    -0.028 C 
ATOM      8  C   UNL     1       0.226  14.954  45.960  1.00  0.00    -0.070 CG0
ATOM      9  C   UNL     1      -0.273  15.962  44.955  1.00  0.00     0.039 C 
ATOM     10  G   UNL     1      -0.764  13.989  46.587  1.00  0.00     0.000 G0
ENDBRANCH   6   7
ENDBRANCH   5   6
ENDBRANCH   3   5
ENDBRANCH   1   3
BRANCH   1  11
ATOM     11  C   UNL     1       0.552  11.392  46.847  1.00  0.00     0.087 C 
BRANCH  11  12
ATOM     12  C   UNL     1      -0.661  11.404  45.877  1.00  0.00     0.066 C 
BRANCH  12  13
ATOM     13  C   UNL     1      -1.167  12.830  45.678  1.00  0.00     0.140 C 
ATOM     14  O   UNL     1      -1.865  13.075  44.704  1.00  0.00    -0.299 OA
BRANCH  13  15
ATOM     15  C   UNL     1      -0.769  13.985  46.576  1.00  0.00     0.106 CG0
ATOM     16  G   UNL     1       0.219  14.952  45.951  1.00  0.00     0.000 G0
ENDBRANCH  13  15
ENDBRANCH  12  13
BRANCH  12  17
ATOM     17  C   UNL     1      -1.815  10.486  46.394  1.00  0.00    -0.006 C 
ATOM     18  C   UNL     1      -3.121  11.268  46.625  1.00  0.00     0.008 C 
ATOM     19  C   UNL     1      -1.429   9.772  47.701  1.00  0.00     0.008 C 
ENDBRANCH  12  17
ENDBRANCH  11  12
ENDBRANCH   1  11
TORSDOF 1
ENDMDL
MODEL 8
REMARK VINA RESULT:    -2.933      2.579      4.278
REMARK INTER + INTRA:          -4.327
REMARK INTER:                  -4.805
REMARK INTRA:                   0.478
REMARK UNBOUND:                 0.149
REMARK SMILES CC1=CCC[C@@H](C)C(=O)C[C@@H](C(C)C)C(=O)C1
REMARK SMILES IDX 8 1 9 2 6 3 7 4 5 5 4 6 3 7 2 8 1 9 10 11 11 12 15 13 16 14
REMARK SMILES IDX 17 15 12 17 13 18 14 19
REMARK H PARENT
REMARK Flexibility Score: 70.00
ROOT
ATOM      1  C   UNL     1       1.400  14.461  46.958  1.00  0.00     0.136 C 
ATOM      2  O   UNL     1       1.001  15.548  47.348  1.00  0.00    -0.299 OA
ENDROOT
BRANCH   1   3
ATOM      3  C   UNL     1       0.858  13.877  45.669  1.00  0.00     0.053 C 
ATOM      4  C   UNL     1       0.593  15.007  44.670  1.00  0.00     0.016 C 
BRANCH   3   5
ATOM      5  C   UNL     1      -0.431  13.051  45.894  1.00  0.00     0.015 C 
BRANCH   5   6
ATOM      6  C   UNL     1      -0.199  11.723  46.627  1.00  0.00     0.028 C 
BRANCH   6   7
ATOM      7  C   UNL     1       0.587  10.754  45.778  1.00  0.00    -0.028 C 
ATOM      8  C   UNL     1       1.865  10.377  46.010  1.00  0.00    -0.070 CG0
ATOM      9  C   UNL     1       2.499   9.393  45.060  1.00  0.00     0.039 C 
ATOM     10  G   UNL     1       2.674  10.891  47.186  1.00  0.00     0.000 G0
ENDBRANCH   6   7
ENDBRANCH   5   6
ENDBRANCH   3   5
ENDBRANCH   1   3
BRANCH   1  11
ATOM     11  C   UNL     1       2.475  13.746  47.740  1.00  0.00     0.087 C 
BRANCH  11  12
ATOM     12  C   UNL     1       3.714  13.352  46.892  1.00  0.00     0.066 C 
BRANCH  12  13
ATOM     13  C   UNL     1       3.813  11.834  46.769  1.00  0.00     0.140 C 
ATOM     14  O   UNL     1       4.809  11.350  46.250  1.00  0.00    -0.299 OA
BRANCH  13  15
ATOM     15  C   UNL     1       2.693  10.894  47.172  1.00  0.00     0.106 CG0
ATOM     16  G   UNL     1       1.874  10.365  46.010  1.00  0.00     0.000 G0
ENDBRANCH  13  15
ENDBRANCH  12  13
BRANCH  12  17
ATOM     17  C   UNL     1       5.032  13.933  47.500  1.00  0.00    -0.006 C 
ATOM     18  C   UNL     1       6.185  13.952  46.480  1.00  0.00     0.008 C 
ATOM     19  C   UNL     1       5.480  13.140  48.740  1.00  0.00     0.008 C 
ENDBRANCH  12  17
ENDBRANCH  11  12
ENDBRANCH   1  11
TORSDOF 1
ENDMDL
MODEL 9
REMARK VINA RESULT:    -2.592      1.833      3.649
REMARK INTER + INTRA:          -3.806
REMARK INTER:                  -4.189
REMARK INTRA:                   0.383
REMARK UNBOUND:                 0.149
REMARK SMILES CC1=CCC[C@@H](C)C(=O)C[C@@H](C(C)C)C(=O)C1
REMARK SMILES IDX 8 1 9 2 6 3 7 4 5 5 4 6 3 7 2 8 1 9 10 11 11 12 15 13 16 14
REMARK SMILES IDX 17 15 12 17 13 18 14 19
REMARK H PARENT
REMARK Flexibility Score: 70.00
ROOT
ATOM      1  C   UNL     1      -2.053  14.670  44.817  1.00  0.00     0.136 C 
ATOM      2  O   UNL     1      -1.647  15.164  43.775  1.00  0.00    -0.299 OA
ENDROOT
BRANCH   1   3
ATOM      3  C   UNL     1      -2.501  15.568  45.952  1.00  0.00     0.053 C 
ATOM      4  C   UNL     1      -2.711  16.991  45.424  1.00  0.00     0.016 C 
BRANCH   3   5
ATOM      5  C   UNL     1      -1.494  15.579  47.127  1.00  0.00     0.015 C 
BRANCH   5   6
ATOM      6  C   UNL     1      -0.120  16.159  46.762  1.00  0.00     0.028 C 
BRANCH   6   7
ATOM      7  C   UNL     1       1.000  15.311  47.315  1.00  0.00    -0.028 C 
ATOM      8  C   UNL     1       1.575  14.270  46.673  1.00  0.00    -0.070 CG0
ATOM      9  C   UNL     1       2.689  13.532  47.371  1.00  0.00     0.039 C 
ATOM     10  G   UNL     1       1.157  13.826  45.283  1.00  0.00     0.000 G0
ENDBRANCH   6   7
ENDBRANCH   5   6
ENDBRANCH   3   5
ENDBRANCH   1   3
BRANCH   1  11
ATOM     11  C   UNL     1      -2.157  13.169  44.929  1.00  0.00     0.087 C 
BRANCH  11  12
ATOM     12  C   UNL     1      -1.105  12.534  45.878  1.00  0.00     0.066 C 
BRANCH  12  13
ATOM     13  C   UNL     1       0.282  12.589  45.245  1.00  0.00     0.140 C 
ATOM     14  O   UNL     1       0.743  11.570  44.750  1.00  0.00    -0.299 OA
BRANCH  13  15
ATOM     15  C   UNL     1       1.163  13.822  45.281  1.00  0.00     0.106 CG0
ATOM     16  G   UNL     1       1.557  14.268  46.678  1.00  0.00     0.000 G0
ENDBRANCH  13  15
ENDBRANCH  12  13
BRANCH  12  17
ATOM     17  C   UNL     1      -1.478  11.060  46.241  1.00  0.00    -0.006 C 
ATOM     18  C   UNL     1      -2.913  10.939  46.785  1.00  0.00     0.008 C 
ATOM     19  C   UNL     1      -0.504  10.469  47.276  1.00  0.00     0.008 C 
ENDBRANCH  12  17
ENDBRANCH  11  12
ENDBRANCH   1  11
TORSDOF 1
ENDMDL
