MODEL 1
REMARK VINA RESULT:    -3.509      0.000      0.000
REMARK INTER + INTRA:          -3.849
REMARK INTER:                  -3.816
REMARK INTRA:                  -0.032
REMARK UNBOUND:                -0.032
REMARK SMILES O=C([O-])c1ccc(O)cc1
REMARK SMILES IDX 4 1 5 2 10 3 6 4 9 5 7 6 2 7 1 8 3 9 8 10
REMARK H PARENT 8 11
REMARK Flexibility Score: inf
ROOT
ATOM      1  C   UNL     1      27.606  33.594  52.281  1.00  0.00    -0.003 A 
ATOM      2  C   UNL     1      28.699  33.159  51.512  1.00  0.00     0.014 A 
ATOM      3  C   UNL     1      27.847  34.364  53.433  1.00  0.00     0.014 A 
ATOM      4  C   UNL     1      30.005  33.488  51.887  1.00  0.00     0.047 A 
ATOM      5  C   UNL     1      29.154  34.691  53.806  1.00  0.00     0.047 A 
ATOM      6  C   UNL     1      30.236  34.254  53.037  1.00  0.00     0.115 A 
ENDROOT
BRANCH   1   7
ATOM      7  C   UNL     1      26.224  33.246  51.881  1.00  0.00     0.071 C 
ATOM      8  O   UNL     1      25.898  33.211  50.665  1.00  0.00    -0.545 OA
ATOM      9  O   UNL     1      25.265  32.954  52.844  1.00  0.00    -0.545 OA
ENDBRANCH   1   7
BRANCH   6  10
ATOM     10  O   UNL     1      31.533  34.586  53.421  1.00  0.00    -0.508 OA
ATOM     11  H   UNL     1      31.725  35.023  54.315  1.00  0.00     0.293 HD
ENDBRANCH   6  10
TORSDOF 2
ENDMDL
MODEL 2
REMARK VINA RESULT:    -3.502      0.041      1.532
REMARK INTER + INTRA:          -3.841
REMARK INTER:                  -3.810
REMARK INTRA:                  -0.032
REMARK UNBOUND:                -0.032
REMARK SMILES O=C([O-])c1ccc(O)cc1
REMARK SMILES IDX 4 1 5 2 10 3 6 4 9 5 7 6 2 7 1 8 3 9 8 10
REMARK H PARENT 8 11
REMARK Flexibility Score: inf
ROOT
ATOM      1  C   UNL     1      27.621  33.596  52.286  1.00  0.00    -0.003 A 
ATOM      2  C   UNL     1      27.848  34.378  53.432  1.00  0.00     0.014 A 
ATOM      3  C   UNL     1      28.723  33.150  51.536  1.00  0.00     0.014 A 
ATOM      4  C   UNL     1      29.151  34.706  53.819  1.00  0.00     0.047 A 
ATOM      5  C   UNL     1      30.025  33.480  51.925  1.00  0.00     0.047 A 
ATOM      6  C   UNL     1      30.244  34.259  53.065  1.00  0.00     0.115 A 
ENDROOT
BRANCH   1   7
ATOM      7  C   UNL     1      26.241  33.248  51.880  1.00  0.00     0.071 C 
ATOM      8  O   UNL     1      25.902  33.280  50.668  1.00  0.00    -0.545 OA
ATOM      9  O   UNL     1      25.298  32.881  52.834  1.00  0.00    -0.545 OA
ENDBRANCH   1   7
BRANCH   6  10
ATOM     10  O   UNL     1      31.545  34.581  53.439  1.00  0.00    -0.508 OA
ATOM     11  H   UNL     1      32.058  34.018  54.108  1.00  0.00     0.293 HD
ENDBRANCH   6  10
TORSDOF 2
ENDMDL
MODEL 3
REMARK VINA RESULT:    -3.376     17.828     19.184
REMARK INTER + INTRA:          -3.705
REMARK INTER:                  -3.678
REMARK INTRA:                  -0.027
REMARK UNBOUND:                -0.032
REMARK SMILES O=C([O-])c1ccc(O)cc1
REMARK SMILES IDX 4 1 5 2 10 3 6 4 9 5 7 6 2 7 1 8 3 9 8 10
REMARK H PARENT 8 11
REMARK Flexibility Score: inf
ROOT
ATOM      1  C   UNL     1      23.296  18.231  41.854  1.00  0.00    -0.003 A 
ATOM      2  C   UNL     1      22.778  17.361  42.829  1.00  0.00     0.014 A 
ATOM      3  C   UNL     1      24.311  19.134  42.216  1.00  0.00     0.014 A 
ATOM      4  C   UNL     1      23.265  17.394  44.139  1.00  0.00     0.047 A 
ATOM      5  C   UNL     1      24.797  19.165  43.527  1.00  0.00     0.047 A 
ATOM      6  C   UNL     1      24.276  18.298  44.492  1.00  0.00     0.115 A 
ENDROOT
BRANCH   1   7
ATOM      7  C   UNL     1      22.779  18.193  40.468  1.00  0.00     0.071 C 
ATOM      8  O   UNL     1      21.849  18.961  40.108  1.00  0.00    -0.545 OA
ATOM      9  O   UNL     1      23.314  17.305  39.541  1.00  0.00    -0.545 OA
ENDBRANCH   1   7
BRANCH   6  10
ATOM     10  O   UNL     1      24.769  18.341  45.793  1.00  0.00    -0.508 OA
ATOM     11  H   UNL     1      25.761  18.273  45.986  1.00  0.00     0.293 HD
ENDBRANCH   6  10
TORSDOF 2
ENDMDL
MODEL 4
REMARK VINA RESULT:    -3.366     17.841     19.408
REMARK INTER + INTRA:          -3.694
REMARK INTER:                  -3.667
REMARK INTRA:                  -0.027
REMARK UNBOUND:                -0.032
REMARK SMILES O=C([O-])c1ccc(O)cc1
REMARK SMILES IDX 4 1 5 2 10 3 6 4 9 5 7 6 2 7 1 8 3 9 8 10
REMARK H PARENT 8 11
REMARK Flexibility Score: inf
ROOT
ATOM      1  C   UNL     1      22.406  18.536  43.553  1.00  0.00    -0.003 A 
ATOM      2  C   UNL     1      22.506  19.195  42.315  1.00  0.00     0.014 A 
ATOM      3  C   UNL     1      22.598  17.143  43.601  1.00  0.00     0.014 A 
ATOM      4  C   UNL     1      22.794  18.477  41.151  1.00  0.00     0.047 A 
ATOM      5  C   UNL     1      22.885  16.427  42.434  1.00  0.00     0.047 A 
ATOM      6  C   UNL     1      22.983  17.090  41.207  1.00  0.00     0.115 A 
ENDROOT
BRANCH   1   7
ATOM      7  C   UNL     1      22.104  19.299  44.784  1.00  0.00     0.071 C 
ATOM      8  O   UNL     1      23.032  19.799  45.472  1.00  0.00    -0.545 OA
ATOM      9  O   UNL     1      20.788  19.472  45.199  1.00  0.00    -0.545 OA
ENDBRANCH   1   7
BRANCH   6  10
ATOM     10  O   UNL     1      23.268  16.364  40.054  1.00  0.00    -0.508 OA
ATOM     11  H   UNL     1      24.023  15.688  40.027  1.00  0.00     0.293 HD
ENDBRANCH   6  10
TORSDOF 2
ENDMDL
MODEL 5
REMARK VINA RESULT:    -3.344      1.512      4.150
REMARK INTER + INTRA:          -3.670
REMARK INTER:                  -3.643
REMARK INTRA:                  -0.027
REMARK UNBOUND:                -0.032
REMARK SMILES O=C([O-])c1ccc(O)cc1
REMARK SMILES IDX 4 1 5 2 10 3 6 4 9 5 7 6 2 7 1 8 3 9 8 10
REMARK H PARENT 8 11
REMARK Flexibility Score: inf
ROOT
ATOM      1  C   UNL     1      27.921  33.713  52.746  1.00  0.00    -0.003 A 
ATOM      2  C   UNL     1      28.209  33.170  51.481  1.00  0.00     0.014 A 
ATOM      3  C   UNL     1      26.586  34.004  53.076  1.00  0.00     0.014 A 
ATOM      4  C   UNL     1      27.180  32.923  50.567  1.00  0.00     0.047 A 
ATOM      5  C   UNL     1      25.559  33.757  52.159  1.00  0.00     0.047 A 
ATOM      6  C   UNL     1      25.852  33.217  50.903  1.00  0.00     0.115 A 
ENDROOT
BRANCH   1   7
ATOM      7  C   UNL     1      29.011  33.972  53.713  1.00  0.00     0.071 C 
ATOM      8  O   UNL     1      29.504  35.125  53.831  1.00  0.00    -0.545 OA
ATOM      9  O   UNL     1      29.508  32.943  54.506  1.00  0.00    -0.545 OA
ENDBRANCH   1   7
BRANCH   6  10
ATOM     10  O   UNL     1      24.820  32.977  50.000  1.00  0.00    -0.508 OA
ATOM     11  H   UNL     1      24.080  33.653  49.849  1.00  0.00     0.293 HD
ENDBRANCH   6  10
TORSDOF 2
ENDMDL
MODEL 6
REMARK VINA RESULT:    -3.322      1.502      4.447
REMARK INTER + INTRA:          -3.646
REMARK INTER:                  -3.619
REMARK INTRA:                  -0.027
REMARK UNBOUND:                -0.032
REMARK SMILES O=C([O-])c1ccc(O)cc1
REMARK SMILES IDX 4 1 5 2 10 3 6 4 9 5 7 6 2 7 1 8 3 9 8 10
REMARK H PARENT 8 11
REMARK Flexibility Score: inf
ROOT
ATOM      1  C   UNL     1      27.927  33.684  52.812  1.00  0.00    -0.003 A 
ATOM      2  C   UNL     1      26.604  34.026  53.143  1.00  0.00     0.014 A 
ATOM      3  C   UNL     1      28.195  33.150  51.539  1.00  0.00     0.014 A 
ATOM      4  C   UNL     1      25.571  33.837  52.220  1.00  0.00     0.047 A 
ATOM      5  C   UNL     1      27.159  32.961  50.618  1.00  0.00     0.047 A 
ATOM      6  C   UNL     1      25.846  33.303  50.955  1.00  0.00     0.115 A 
ENDROOT
BRANCH   1   7
ATOM      7  C   UNL     1      29.019  33.887  53.790  1.00  0.00     0.071 C 
ATOM      8  O   UNL     1      29.398  32.943  54.533  1.00  0.00    -0.545 OA
ATOM      9  O   UNL     1      29.642  35.125  53.903  1.00  0.00    -0.545 OA
ENDBRANCH   1   7
BRANCH   6  10
ATOM     10  O   UNL     1      24.826  33.109  50.027  1.00  0.00    -0.508 OA
ATOM     11  H   UNL     1      23.879  33.422  50.209  1.00  0.00     0.293 HD
ENDBRANCH   6  10
TORSDOF 2
ENDMDL
MODEL 7
REMARK VINA RESULT:    -3.288      1.945      2.491
REMARK INTER + INTRA:          -3.609
REMARK INTER:                  -3.581
REMARK INTRA:                  -0.028
REMARK UNBOUND:                -0.032
REMARK SMILES O=C([O-])c1ccc(O)cc1
REMARK SMILES IDX 4 1 5 2 10 3 6 4 9 5 7 6 2 7 1 8 3 9 8 10
REMARK H PARENT 8 11
REMARK Flexibility Score: inf
ROOT
ATOM      1  C   UNL     1      28.476  33.729  53.661  1.00  0.00    -0.003 A 
ATOM      2  C   UNL     1      29.459  34.730  53.747  1.00  0.00     0.014 A 
ATOM      3  C   UNL     1      28.701  32.495  54.297  1.00  0.00     0.014 A 
ATOM      4  C   UNL     1      30.642  34.501  54.456  1.00  0.00     0.047 A 
ATOM      5  C   UNL     1      29.886  32.269  55.006  1.00  0.00     0.047 A 
ATOM      6  C   UNL     1      30.859  33.269  55.087  1.00  0.00     0.115 A 
ENDROOT
BRANCH   1   7
ATOM      7  C   UNL     1      27.224  33.974  52.911  1.00  0.00     0.071 C 
ATOM      8  O   UNL     1      26.392  34.829  53.315  1.00  0.00    -0.545 OA
ATOM      9  O   UNL     1      26.948  33.261  51.750  1.00  0.00    -0.545 OA
ENDBRANCH   1   7
BRANCH   6  10
ATOM     10  O   UNL     1      32.034  33.029  55.795  1.00  0.00    -0.508 OA
ATOM     11  H   UNL     1      32.447  32.105  55.837  1.00  0.00     0.293 HD
ENDBRANCH   6  10
TORSDOF 2
ENDMDL
MODEL 8
REMARK VINA RESULT:    -3.273     18.032     19.456
REMARK INTER + INTRA:          -3.592
REMARK INTER:                  -3.560
REMARK INTRA:                  -0.033
REMARK UNBOUND:                -0.032
REMARK SMILES O=C([O-])c1ccc(O)cc1
REMARK SMILES IDX 4 1 5 2 10 3 6 4 9 5 7 6 2 7 1 8 3 9 8 10
REMARK H PARENT 8 11
REMARK Flexibility Score: inf
ROOT
ATOM      1  C   UNL     1      23.746  18.459  41.044  1.00  0.00    -0.003 A 
ATOM      2  C   UNL     1      24.500  19.377  41.796  1.00  0.00     0.014 A 
ATOM      3  C   UNL     1      22.996  17.478  41.718  1.00  0.00     0.014 A 
ATOM      4  C   UNL     1      24.502  19.316  43.193  1.00  0.00     0.047 A 
ATOM      5  C   UNL     1      23.001  17.419  43.115  1.00  0.00     0.047 A 
ATOM      6  C   UNL     1      23.753  18.335  43.856  1.00  0.00     0.115 A 
ENDROOT
BRANCH   1   7
ATOM      7  C   UNL     1      23.744  18.527  39.566  1.00  0.00     0.071 C 
ATOM      8  O   UNL     1      23.677  17.476  38.875  1.00  0.00    -0.545 OA
ATOM      9  O   UNL     1      23.817  19.755  38.918  1.00  0.00    -0.545 OA
ENDBRANCH   1   7
BRANCH   6  10
ATOM     10  O   UNL     1      23.749  18.263  45.247  1.00  0.00    -0.508 OA
ATOM     11  H   UNL     1      23.118  18.827  45.804  1.00  0.00     0.293 HD
ENDBRANCH   6  10
TORSDOF 2
ENDMDL
MODEL 9
REMARK VINA RESULT:    -3.231     18.270     19.443
REMARK INTER + INTRA:          -3.547
REMARK INTER:                  -3.519
REMARK INTRA:                  -0.028
REMARK UNBOUND:                -0.032
REMARK SMILES O=C([O-])c1ccc(O)cc1
REMARK SMILES IDX 4 1 5 2 10 3 6 4 9 5 7 6 2 7 1 8 3 9 8 10
REMARK H PARENT 8 11
REMARK Flexibility Score: inf
ROOT
ATOM      1  C   UNL     1      30.318  19.701  40.221  1.00  0.00    -0.003 A 
ATOM      2  C   UNL     1      31.424  19.582  41.080  1.00  0.00     0.014 A 
ATOM      3  C   UNL     1      30.096  18.705  39.253  1.00  0.00     0.014 A 
ATOM      4  C   UNL     1      32.289  18.489  40.974  1.00  0.00     0.047 A 
ATOM      5  C   UNL     1      30.963  17.613  39.148  1.00  0.00     0.047 A 
ATOM      6  C   UNL     1      32.062  17.501  40.006  1.00  0.00     0.115 A 
ENDROOT
BRANCH   1   7
ATOM      7  C   UNL     1      29.402  20.858  40.337  1.00  0.00     0.071 C 
ATOM      8  O   UNL     1      29.791  22.016  40.031  1.00  0.00    -0.545 OA
ATOM      9  O   UNL     1      28.099  20.681  40.788  1.00  0.00    -0.545 OA
ENDBRANCH   1   7
BRANCH   6  10
ATOM     10  O   UNL     1      32.917  16.409  39.889  1.00  0.00    -0.508 OA
ATOM     11  H   UNL     1      33.377  16.008  40.698  1.00  0.00     0.293 HD
ENDBRANCH   6  10
TORSDOF 2
ENDMDL
