MODEL 1
REMARK VINA RESULT:    -3.168      0.000      0.000
REMARK INTER + INTRA:         -12.208
REMARK INTER:                  -7.983
REMARK INTRA:                  -4.226
REMARK UNBOUND:                -4.226
REMARK SMILES CCCCCCCCCCCCCCCCCCCCCCCCCCCC(=O)[O-]
REMARK SMILES IDX 15 1 16 2 17 3 18 4 19 5 20 6 21 7 22 8 23 9 24 10 25 11
REMARK SMILES IDX 26 12 27 13 28 14 29 15 30 16 14 17 13 18 12 19 11 20 10 21
REMARK SMILES IDX 9 22 8 23 7 24 6 25 5 26 4 27 3 28 2 29 1 30
REMARK H PARENT
REMARK Flexibility Score: inf
ROOT
ATOM      1  C   UNL     1      20.057   2.233  27.511  1.00  0.00     0.000 C 
ENDROOT
BRANCH   1   2
ATOM      2  C   UNL     1      21.460   2.578  28.041  1.00  0.00     0.000 C 
BRANCH   2   3
ATOM      3  C   UNL     1      21.831   4.072  27.991  1.00  0.00     0.000 C 
BRANCH   3   4
ATOM      4  C   UNL     1      23.348   4.313  28.082  1.00  0.00     0.000 C 
BRANCH   4   5
ATOM      5  C   UNL     1      23.804   5.517  27.235  1.00  0.00     0.000 C 
BRANCH   5   6
ATOM      6  C   UNL     1      23.870   6.848  28.009  1.00  0.00     0.000 C 
BRANCH   6   7
ATOM      7  C   UNL     1      22.498   7.536  28.118  1.00  0.00     0.000 C 
BRANCH   7   8
ATOM      8  C   UNL     1      22.600   9.069  28.055  1.00  0.00     0.000 C 
BRANCH   8   9
ATOM      9  C   UNL     1      21.233   9.746  27.871  1.00  0.00     0.000 C 
BRANCH   9  10
ATOM     10  C   UNL     1      20.944  10.118  26.406  1.00  0.00     0.000 C 
BRANCH  10  11
ATOM     11  C   UNL     1      21.668   9.213  25.386  1.00  0.00     0.000 C 
BRANCH  11  12
ATOM     12  C   UNL     1      21.273   9.542  23.939  1.00  0.00     0.006 C 
BRANCH  12  13
ATOM     13  C   UNL     1      19.775   9.318  23.713  1.00  0.00     0.053 C 
BRANCH  13  14
ATOM     14  C   UNL     1      19.409   9.591  22.288  1.00  0.00     0.041 C 
ATOM     15  O   UNL     1      20.293   9.556  21.391  1.00  0.00    -0.550 OA
ATOM     16  O   UNL     1      18.100   9.916  21.955  1.00  0.00    -0.550 OA
ENDBRANCH  13  14
ENDBRANCH  12  13
ENDBRANCH  11  12
ENDBRANCH  10  11
ENDBRANCH   9  10
ENDBRANCH   8   9
ENDBRANCH   7   8
ENDBRANCH   6   7
ENDBRANCH   5   6
ENDBRANCH   4   5
ENDBRANCH   3   4
ENDBRANCH   2   3
ENDBRANCH   1   2
BRANCH   1  17
ATOM     17  C   UNL     1      20.091   1.523  26.148  1.00  0.00     0.000 C 
BRANCH  17  18
ATOM     18  C   UNL     1      21.506   1.442  25.547  1.00  0.00     0.000 C 
BRANCH  18  19
ATOM     19  C   UNL     1      21.579   1.578  24.012  1.00  0.00     0.000 C 
BRANCH  19  20
ATOM     20  C   UNL     1      21.363   3.003  23.466  1.00  0.00     0.000 C 
BRANCH  20  21
ATOM     21  C   UNL     1      21.362   4.116  24.530  1.00  0.00     0.000 C 
BRANCH  21  22
ATOM     22  C   UNL     1      20.553   5.351  24.098  1.00  0.00    -0.000 C 
BRANCH  22  23
ATOM     23  C   UNL     1      19.283   5.549  24.941  1.00  0.00    -0.000 C 
BRANCH  23  24
ATOM     24  C   UNL     1      19.542   6.358  26.223  1.00  0.00    -0.000 C 
BRANCH  24  25
ATOM     25  C   UNL     1      18.463   6.135  27.299  1.00  0.00    -0.000 C 
BRANCH  25  26
ATOM     26  C   UNL     1      17.302   7.145  27.271  1.00  0.00    -0.000 C 
BRANCH  26  27
ATOM     27  C   UNL     1      17.768   8.582  26.977  1.00  0.00    -0.000 C 
BRANCH  27  28
ATOM     28  C   UNL     1      16.794   9.343  26.063  1.00  0.00    -0.000 C 
BRANCH  28  29
ATOM     29  C   UNL     1      15.751   8.420  25.417  1.00  0.00    -0.003 C 
ATOM     30  C   UNL     1      16.257   7.866  24.088  1.00  0.00     0.004 C 
ENDBRANCH  28  29
ENDBRANCH  27  28
ENDBRANCH  26  27
ENDBRANCH  25  26
ENDBRANCH  24  25
ENDBRANCH  23  24
ENDBRANCH  22  23
ENDBRANCH  21  22
ENDBRANCH  20  21
ENDBRANCH  19  20
ENDBRANCH  18  19
ENDBRANCH  17  18
ENDBRANCH   1  17
TORSDOF 26
ENDMDL
MODEL 2
REMARK VINA RESULT:    -2.978      1.958      5.155
REMARK INTER + INTRA:         -11.731
REMARK INTER:                  -7.858
REMARK INTRA:                  -3.873
REMARK UNBOUND:                -4.226
REMARK SMILES CCCCCCCCCCCCCCCCCCCCCCCCCCCC(=O)[O-]
REMARK SMILES IDX 15 1 16 2 17 3 18 4 19 5 20 6 21 7 22 8 23 9 24 10 25 11
REMARK SMILES IDX 26 12 27 13 28 14 29 15 30 16 14 17 13 18 12 19 11 20 10 21
REMARK SMILES IDX 9 22 8 23 7 24 6 25 5 26 4 27 3 28 2 29 1 30
REMARK H PARENT
REMARK Flexibility Score: inf
ROOT
ATOM      1  C   UNL     1      21.625   2.486  23.513  1.00  0.00     0.000 C 
ENDROOT
BRANCH   1   2
ATOM      2  C   UNL     1      20.831   1.325  24.138  1.00  0.00     0.000 C 
BRANCH   2   3
ATOM      3  C   UNL     1      20.735   1.349  25.674  1.00  0.00     0.000 C 
BRANCH   3   4
ATOM      4  C   UNL     1      19.296   1.558  26.178  1.00  0.00     0.000 C 
BRANCH   4   5
ATOM      5  C   UNL     1      19.210   2.623  27.289  1.00  0.00     0.000 C 
BRANCH   5   6
ATOM      6  C   UNL     1      18.769   4.016  26.799  1.00  0.00     0.000 C 
BRANCH   6   7
ATOM      7  C   UNL     1      19.963   4.941  26.498  1.00  0.00     0.000 C 
BRANCH   7   8
ATOM      8  C   UNL     1      19.525   6.307  25.944  1.00  0.00     0.000 C 
BRANCH   8   9
ATOM      9  C   UNL     1      18.935   6.209  24.528  1.00  0.00     0.000 C 
BRANCH   9  10
ATOM     10  C   UNL     1      19.334   7.396  23.634  1.00  0.00     0.000 C 
BRANCH  10  11
ATOM     11  C   UNL     1      18.168   8.366  23.339  1.00  0.00     0.000 C 
BRANCH  11  12
ATOM     12  C   UNL     1      16.802   7.739  23.652  1.00  0.00     0.006 C 
BRANCH  12  13
ATOM     13  C   UNL     1      16.003   8.616  24.621  1.00  0.00     0.053 C 
BRANCH  13  14
ATOM     14  C   UNL     1      16.513   8.458  26.019  1.00  0.00     0.041 C 
ATOM     15  O   UNL     1      17.245   9.346  26.530  1.00  0.00    -0.550 OA
ATOM     16  O   UNL     1      16.206   7.314  26.746  1.00  0.00    -0.550 OA
ENDBRANCH  13  14
ENDBRANCH  12  13
ENDBRANCH  11  12
ENDBRANCH  10  11
ENDBRANCH   9  10
ENDBRANCH   8   9
ENDBRANCH   7   8
ENDBRANCH   6   7
ENDBRANCH   5   6
ENDBRANCH   4   5
ENDBRANCH   3   4
ENDBRANCH   2   3
ENDBRANCH   1   2
BRANCH   1  17
ATOM     17  C   UNL     1      22.099   3.514  24.554  1.00  0.00     0.000 C 
BRANCH  17  18
ATOM     18  C   UNL     1      23.480   3.175  25.147  1.00  0.00     0.000 C 
BRANCH  18  19
ATOM     19  C   UNL     1      23.586   3.304  26.681  1.00  0.00     0.000 C 
BRANCH  19  20
ATOM     20  C   UNL     1      24.100   4.663  27.195  1.00  0.00     0.000 C 
BRANCH  20  21
ATOM     21  C   UNL     1      23.063   5.502  27.965  1.00  0.00     0.000 C 
BRANCH  21  22
ATOM     22  C   UNL     1      23.423   6.998  28.009  1.00  0.00    -0.000 C 
BRANCH  22  23
ATOM     23  C   UNL     1      24.782   7.297  27.355  1.00  0.00    -0.000 C 
BRANCH  23  24
ATOM     24  C   UNL     1      25.414   8.600  27.873  1.00  0.00    -0.000 C 
BRANCH  24  25
ATOM     25  C   UNL     1      25.038   9.827  27.022  1.00  0.00    -0.000 C 
BRANCH  25  26
ATOM     26  C   UNL     1      24.573   9.504  25.590  1.00  0.00    -0.000 C 
BRANCH  26  27
ATOM     27  C   UNL     1      23.206  10.125  25.253  1.00  0.00    -0.000 C 
BRANCH  27  28
ATOM     28  C   UNL     1      22.040   9.154  25.496  1.00  0.00    -0.000 C 
BRANCH  28  29
ATOM     29  C   UNL     1      20.791   9.859  26.042  1.00  0.00    -0.003 C 
ATOM     30  C   UNL     1      20.583   9.541  27.520  1.00  0.00     0.004 C 
ENDBRANCH  28  29
ENDBRANCH  27  28
ENDBRANCH  26  27
ENDBRANCH  25  26
ENDBRANCH  24  25
ENDBRANCH  23  24
ENDBRANCH  22  23
ENDBRANCH  21  22
ENDBRANCH  20  21
ENDBRANCH  19  20
ENDBRANCH  18  19
ENDBRANCH  17  18
ENDBRANCH   1  17
TORSDOF 26
ENDMDL
MODEL 3
REMARK VINA RESULT:    -2.906      1.264      2.629
REMARK INTER + INTRA:         -11.549
REMARK INTER:                  -7.526
REMARK INTRA:                  -4.023
REMARK UNBOUND:                -4.226
REMARK SMILES CCCCCCCCCCCCCCCCCCCCCCCCCCCC(=O)[O-]
REMARK SMILES IDX 15 1 16 2 17 3 18 4 19 5 20 6 21 7 22 8 23 9 24 10 25 11
REMARK SMILES IDX 26 12 27 13 28 14 29 15 30 16 14 17 13 18 12 19 11 20 10 21
REMARK SMILES IDX 9 22 8 23 7 24 6 25 5 26 4 27 3 28 2 29 1 30
REMARK H PARENT
REMARK Flexibility Score: inf
ROOT
ATOM      1  C   UNL     1      21.318   1.789  23.544  1.00  0.00     0.000 C 
ENDROOT
BRANCH   1   2
ATOM      2  C   UNL     1      22.026   3.138  23.765  1.00  0.00     0.000 C 
BRANCH   2   3
ATOM      3  C   UNL     1      21.130   4.270  24.298  1.00  0.00     0.000 C 
BRANCH   3   4
ATOM      4  C   UNL     1      21.721   4.967  25.536  1.00  0.00     0.000 C 
BRANCH   4   5
ATOM      5  C   UNL     1      22.765   4.094  26.261  1.00  0.00     0.000 C 
BRANCH   5   6
ATOM      6  C   UNL     1      23.800   4.892  27.078  1.00  0.00     0.000 C 
BRANCH   6   7
ATOM      7  C   UNL     1      23.171   6.082  27.824  1.00  0.00     0.000 C 
BRANCH   7   8
ATOM      8  C   UNL     1      24.169   7.232  28.046  1.00  0.00     0.000 C 
BRANCH   8   9
ATOM      9  C   UNL     1      23.778   8.508  27.283  1.00  0.00     0.000 C 
BRANCH   9  10
ATOM     10  C   UNL     1      22.261   8.762  27.284  1.00  0.00     0.000 C 
BRANCH  10  11
ATOM     11  C   UNL     1      21.862  10.117  26.660  1.00  0.00     0.000 C 
BRANCH  11  12
ATOM     12  C   UNL     1      20.812   9.957  25.552  1.00  0.00     0.006 C 
BRANCH  12  13
ATOM     13  C   UNL     1      21.209   8.846  24.575  1.00  0.00     0.053 C 
BRANCH  13  14
ATOM     14  C   UNL     1      20.107   8.585  23.597  1.00  0.00     0.041 C 
ATOM     15  O   UNL     1      19.759   7.402  23.336  1.00  0.00    -0.550 OA
ATOM     16  O   UNL     1      19.485   9.645  22.949  1.00  0.00    -0.550 OA
ENDBRANCH  13  14
ENDBRANCH  12  13
ENDBRANCH  11  12
ENDBRANCH  10  11
ENDBRANCH   9  10
ENDBRANCH   8   9
ENDBRANCH   7   8
ENDBRANCH   6   7
ENDBRANCH   5   6
ENDBRANCH   4   5
ENDBRANCH   3   4
ENDBRANCH   2   3
ENDBRANCH   1   2
BRANCH   1  17
ATOM     17  C   UNL     1      21.371   0.877  24.781  1.00  0.00     0.000 C 
BRANCH  17  18
ATOM     18  C   UNL     1      20.699   1.501  26.018  1.00  0.00     0.000 C 
BRANCH  18  19
ATOM     19  C   UNL     1      19.159   1.583  25.959  1.00  0.00     0.000 C 
BRANCH  19  20
ATOM     20  C   UNL     1      18.559   2.962  26.296  1.00  0.00     0.000 C 
BRANCH  20  21
ATOM     21  C   UNL     1      18.516   3.305  27.796  1.00  0.00     0.000 C 
BRANCH  21  22
ATOM     22  C   UNL     1      17.975   4.720  28.068  1.00  0.00    -0.000 C 
BRANCH  22  23
ATOM     23  C   UNL     1      18.232   5.685  26.899  1.00  0.00    -0.000 C 
BRANCH  23  24
ATOM     24  C   UNL     1      19.262   6.773  27.244  1.00  0.00    -0.000 C 
BRANCH  24  25
ATOM     25  C   UNL     1      18.616   8.049  27.815  1.00  0.00    -0.000 C 
BRANCH  25  26
ATOM     26  C   UNL     1      17.627   8.753  26.868  1.00  0.00    -0.000 C 
BRANCH  26  27
ATOM     27  C   UNL     1      16.198   8.191  26.970  1.00  0.00    -0.000 C 
BRANCH  27  28
ATOM     28  C   UNL     1      15.464   8.197  25.621  1.00  0.00    -0.000 C 
BRANCH  28  29
ATOM     29  C   UNL     1      16.422   8.348  24.430  1.00  0.00    -0.003 C 
ATOM     30  C   UNL     1      16.339   7.139  23.503  1.00  0.00     0.004 C 
ENDBRANCH  28  29
ENDBRANCH  27  28
ENDBRANCH  26  27
ENDBRANCH  25  26
ENDBRANCH  24  25
ENDBRANCH  23  24
ENDBRANCH  22  23
ENDBRANCH  21  22
ENDBRANCH  20  21
ENDBRANCH  19  20
ENDBRANCH  18  19
ENDBRANCH  17  18
ENDBRANCH   1  17
TORSDOF 26
ENDMDL
MODEL 4
REMARK VINA RESULT:    -2.732      1.762      4.729
REMARK INTER + INTRA:         -11.111
REMARK INTER:                  -6.883
REMARK INTRA:                  -4.228
REMARK UNBOUND:                -4.226
REMARK SMILES CCCCCCCCCCCCCCCCCCCCCCCCCCCC(=O)[O-]
REMARK SMILES IDX 15 1 16 2 17 3 18 4 19 5 20 6 21 7 22 8 23 9 24 10 25 11
REMARK SMILES IDX 26 12 27 13 28 14 29 15 30 16 14 17 13 18 12 19 11 20 10 21
REMARK SMILES IDX 9 22 8 23 7 24 6 25 5 26 4 27 3 28 2 29 1 30
REMARK H PARENT
REMARK Flexibility Score: inf
ROOT
ATOM      1  C   UNL     1      22.058   4.499  27.103  1.00  0.00     0.000 C 
ENDROOT
BRANCH   1   2
ATOM      2  C   UNL     1      23.366   4.115  27.817  1.00  0.00     0.000 C 
BRANCH   2   3
ATOM      3  C   UNL     1      24.315   5.289  28.124  1.00  0.00     0.000 C 
BRANCH   3   4
ATOM      4  C   UNL     1      24.318   6.358  27.017  1.00  0.00     0.000 C 
BRANCH   4   5
ATOM      5  C   UNL     1      23.924   7.752  27.543  1.00  0.00     0.000 C 
BRANCH   5   6
ATOM      6  C   UNL     1      24.292   8.913  26.599  1.00  0.00     0.000 C 
BRANCH   6   7
ATOM      7  C   UNL     1      23.206  10.002  26.552  1.00  0.00     0.000 C 
BRANCH   7   8
ATOM      8  C   UNL     1      22.553  10.125  25.165  1.00  0.00     0.000 C 
BRANCH   8   9
ATOM      9  C   UNL     1      21.379   9.150  24.976  1.00  0.00     0.000 C 
BRANCH   9  10
ATOM     10  C   UNL     1      20.924   9.044  23.510  1.00  0.00     0.000 C 
BRANCH  10  11
ATOM     11  C   UNL     1      19.481   9.540  23.274  1.00  0.00     0.000 C 
BRANCH  11  12
ATOM     12  C   UNL     1      18.443   8.435  23.518  1.00  0.00     0.006 C 
BRANCH  12  13
ATOM     13  C   UNL     1      17.274   8.956  24.360  1.00  0.00     0.053 C 
BRANCH  13  14
ATOM     14  C   UNL     1      16.262   7.877  24.582  1.00  0.00     0.041 C 
ATOM     15  O   UNL     1      15.985   7.069  23.656  1.00  0.00    -0.550 OA
ATOM     16  O   UNL     1      15.600   7.781  25.800  1.00  0.00    -0.550 OA
ENDBRANCH  13  14
ENDBRANCH  12  13
ENDBRANCH  11  12
ENDBRANCH  10  11
ENDBRANCH   9  10
ENDBRANCH   8   9
ENDBRANCH   7   8
ENDBRANCH   6   7
ENDBRANCH   5   6
ENDBRANCH   4   5
ENDBRANCH   3   4
ENDBRANCH   2   3
ENDBRANCH   1   2
BRANCH   1  17
ATOM     17  C   UNL     1      21.022   5.127  28.051  1.00  0.00     0.000 C 
BRANCH  17  18
ATOM     18  C   UNL     1      20.574   6.531  27.607  1.00  0.00     0.000 C 
BRANCH  18  19
ATOM     19  C   UNL     1      19.527   6.561  26.475  1.00  0.00     0.000 C 
BRANCH  19  20
ATOM     20  C   UNL     1      18.878   5.203  26.140  1.00  0.00     0.000 C 
BRANCH  20  21
ATOM     21  C   UNL     1      19.066   4.732  24.686  1.00  0.00     0.000 C 
BRANCH  21  22
ATOM     22  C   UNL     1      20.313   5.341  24.020  1.00  0.00    -0.000 C 
BRANCH  22  23
ATOM     23  C   UNL     1      21.522   4.394  24.053  1.00  0.00    -0.000 C 
BRANCH  23  24
ATOM     24  C   UNL     1      21.239   3.047  23.367  1.00  0.00    -0.000 C 
BRANCH  24  25
ATOM     25  C   UNL     1      22.000   1.875  24.014  1.00  0.00    -0.000 C 
BRANCH  25  26
ATOM     26  C   UNL     1      21.185   1.059  25.034  1.00  0.00    -0.000 C 
BRANCH  26  27
ATOM     27  C   UNL     1      21.633   1.300  26.486  1.00  0.00    -0.000 C 
BRANCH  27  28
ATOM     28  C   UNL     1      20.465   1.238  27.482  1.00  0.00    -0.000 C 
BRANCH  28  29
ATOM     29  C   UNL     1      19.121   1.605  26.837  1.00  0.00    -0.003 C 
ATOM     30  C   UNL     1      18.171   2.220  27.860  1.00  0.00     0.004 C 
ENDBRANCH  28  29
ENDBRANCH  27  28
ENDBRANCH  26  27
ENDBRANCH  25  26
ENDBRANCH  24  25
ENDBRANCH  23  24
ENDBRANCH  22  23
ENDBRANCH  21  22
ENDBRANCH  20  21
ENDBRANCH  19  20
ENDBRANCH  18  19
ENDBRANCH  17  18
ENDBRANCH   1  17
TORSDOF 26
ENDMDL
MODEL 5
REMARK VINA RESULT:    -2.726      1.653      4.580
REMARK INTER + INTRA:         -11.094
REMARK INTER:                  -7.272
REMARK INTRA:                  -3.823
REMARK UNBOUND:                -4.226
REMARK SMILES CCCCCCCCCCCCCCCCCCCCCCCCCCCC(=O)[O-]
REMARK SMILES IDX 15 1 16 2 17 3 18 4 19 5 20 6 21 7 22 8 23 9 24 10 25 11
REMARK SMILES IDX 26 12 27 13 28 14 29 15 30 16 14 17 13 18 12 19 11 20 10 21
REMARK SMILES IDX 9 22 8 23 7 24 6 25 5 26 4 27 3 28 2 29 1 30
REMARK H PARENT
REMARK Flexibility Score: inf
ROOT
ATOM      1  C   UNL     1      21.242   1.559  23.825  1.00  0.00     0.000 C 
ENDROOT
BRANCH   1   2
ATOM      2  C   UNL     1      20.417   0.902  24.946  1.00  0.00     0.000 C 
BRANCH   2   3
ATOM      3  C   UNL     1      20.331   1.707  26.256  1.00  0.00     0.000 C 
BRANCH   3   4
ATOM      4  C   UNL     1      19.105   1.334  27.106  1.00  0.00     0.000 C 
BRANCH   4   5
ATOM      5  C   UNL     1      18.203   2.548  27.405  1.00  0.00     0.000 C 
BRANCH   5   6
ATOM      6  C   UNL     1      18.735   3.884  26.849  1.00  0.00     0.000 C 
BRANCH   6   7
ATOM      7  C   UNL     1      18.323   5.088  27.715  1.00  0.00     0.000 C 
BRANCH   7   8
ATOM      8  C   UNL     1      18.970   6.401  27.243  1.00  0.00     0.000 C 
BRANCH   8   9
ATOM      9  C   UNL     1      18.082   7.627  27.512  1.00  0.00     0.000 C 
BRANCH   9  10
ATOM     10  C   UNL     1      16.585   7.335  27.308  1.00  0.00     0.000 C 
BRANCH  10  11
ATOM     11  C   UNL     1      15.932   8.198  26.207  1.00  0.00     0.000 C 
BRANCH  11  12
ATOM     12  C   UNL     1      16.974   8.963  25.378  1.00  0.00     0.006 C 
BRANCH  12  13
ATOM     13  C   UNL     1      16.792   8.694  23.881  1.00  0.00     0.053 C 
BRANCH  13  14
ATOM     14  C   UNL     1      16.766   7.223  23.609  1.00  0.00     0.041 C 
ATOM     15  O   UNL     1      15.724   6.682  23.151  1.00  0.00    -0.550 OA
ATOM     16  O   UNL     1      17.881   6.443  23.891  1.00  0.00    -0.550 OA
ENDBRANCH  13  14
ENDBRANCH  12  13
ENDBRANCH  11  12
ENDBRANCH  10  11
ENDBRANCH   9  10
ENDBRANCH   8   9
ENDBRANCH   7   8
ENDBRANCH   6   7
ENDBRANCH   5   6
ENDBRANCH   4   5
ENDBRANCH   3   4
ENDBRANCH   2   3
ENDBRANCH   1   2
BRANCH   1  17
ATOM     17  C   UNL     1      21.333   3.087  23.968  1.00  0.00     0.000 C 
BRANCH  17  18
ATOM     18  C   UNL     1      22.773   3.587  24.183  1.00  0.00     0.000 C 
BRANCH  18  19
ATOM     19  C   UNL     1      23.483   3.031  25.435  1.00  0.00     0.000 C 
BRANCH  19  20
ATOM     20  C   UNL     1      23.426   3.936  26.682  1.00  0.00     0.000 C 
BRANCH  20  21
ATOM     21  C   UNL     1      22.214   4.884  26.744  1.00  0.00     0.000 C 
BRANCH  21  22
ATOM     22  C   UNL     1      22.573   6.274  27.297  1.00  0.00    -0.000 C 
BRANCH  22  23
ATOM     23  C   UNL     1      24.091   6.491  27.407  1.00  0.00    -0.000 C 
BRANCH  23  24
ATOM     24  C   UNL     1      24.485   7.975  27.323  1.00  0.00    -0.000 C 
BRANCH  24  25
ATOM     25  C   UNL     1      23.288   8.924  27.517  1.00  0.00    -0.000 C 
BRANCH  25  26
ATOM     26  C   UNL     1      22.892   9.731  26.267  1.00  0.00    -0.000 C 
BRANCH  26  27
ATOM     27  C   UNL     1      21.382  10.020  26.196  1.00  0.00    -0.000 C 
BRANCH  27  28
ATOM     28  C   UNL     1      20.663   9.145  25.158  1.00  0.00    -0.000 C 
BRANCH  28  29
ATOM     29  C   UNL     1      21.051   9.502  23.716  1.00  0.00    -0.003 C 
ATOM     30  C   UNL     1      20.081   8.880  22.716  1.00  0.00     0.004 C 
ENDBRANCH  28  29
ENDBRANCH  27  28
ENDBRANCH  26  27
ENDBRANCH  25  26
ENDBRANCH  24  25
ENDBRANCH  23  24
ENDBRANCH  22  23
ENDBRANCH  21  22
ENDBRANCH  20  21
ENDBRANCH  19  20
ENDBRANCH  18  19
ENDBRANCH  17  18
ENDBRANCH   1  17
TORSDOF 26
ENDMDL
MODEL 6
REMARK VINA RESULT:    -2.712      2.016      5.173
REMARK INTER + INTRA:         -11.060
REMARK INTER:                  -6.831
REMARK INTRA:                  -4.230
REMARK UNBOUND:                -4.226
REMARK SMILES CCCCCCCCCCCCCCCCCCCCCCCCCCCC(=O)[O-]
REMARK SMILES IDX 15 1 16 2 17 3 18 4 19 5 20 6 21 7 22 8 23 9 24 10 25 11
REMARK SMILES IDX 26 12 27 13 28 14 29 15 30 16 14 17 13 18 12 19 11 20 10 21
REMARK SMILES IDX 9 22 8 23 7 24 6 25 5 26 4 27 3 28 2 29 1 30
REMARK H PARENT
REMARK Flexibility Score: inf
ROOT
ATOM      1  C   UNL     1      19.804   1.655  26.600  1.00  0.00     0.000 C 
ENDROOT
BRANCH   1   2
ATOM      2  C   UNL     1      19.249   2.939  27.241  1.00  0.00     0.000 C 
BRANCH   2   3
ATOM      3  C   UNL     1      18.973   4.095  26.261  1.00  0.00     0.000 C 
BRANCH   3   4
ATOM      4  C   UNL     1      18.689   5.427  26.976  1.00  0.00     0.000 C 
BRANCH   4   5
ATOM      5  C   UNL     1      19.303   6.634  26.239  1.00  0.00     0.000 C 
BRANCH   5   6
ATOM      6  C   UNL     1      20.066   6.269  24.951  1.00  0.00     0.000 C 
BRANCH   6   7
ATOM      7  C   UNL     1      19.354   6.769  23.682  1.00  0.00     0.000 C 
BRANCH   7   8
ATOM      8  C   UNL     1      18.948   8.250  23.779  1.00  0.00     0.000 C 
BRANCH   8   9
ATOM      9  C   UNL     1      17.461   8.477  23.465  1.00  0.00     0.000 C 
BRANCH   9  10
ATOM     10  C   UNL     1      16.605   7.219  23.697  1.00  0.00     0.000 C 
BRANCH  10  11
ATOM     11  C   UNL     1      15.134   7.531  24.049  1.00  0.00     0.000 C 
BRANCH  11  12
ATOM     12  C   UNL     1      15.014   8.447  25.275  1.00  0.00     0.006 C 
BRANCH  12  13
ATOM     13  C   UNL     1      15.829   7.901  26.451  1.00  0.00     0.053 C 
BRANCH  13  14
ATOM     14  C   UNL     1      16.296   9.017  27.332  1.00  0.00     0.041 C 
ATOM     15  O   UNL     1      15.492   9.577  28.124  1.00  0.00    -0.550 OA
ATOM     16  O   UNL     1      17.611   9.460  27.258  1.00  0.00    -0.550 OA
ENDBRANCH  13  14
ENDBRANCH  12  13
ENDBRANCH  11  12
ENDBRANCH  10  11
ENDBRANCH   9  10
ENDBRANCH   8   9
ENDBRANCH   7   8
ENDBRANCH   6   7
ENDBRANCH   5   6
ENDBRANCH   4   5
ENDBRANCH   3   4
ENDBRANCH   2   3
ENDBRANCH   1   2
BRANCH   1  17
ATOM     17  C   UNL     1      19.865   1.732  25.065  1.00  0.00     0.000 C 
BRANCH  17  18
ATOM     18  C   UNL     1      21.104   1.032  24.476  1.00  0.00     0.000 C 
BRANCH  18  19
ATOM     19  C   UNL     1      22.365   1.914  24.360  1.00  0.00     0.000 C 
BRANCH  19  20
ATOM     20  C   UNL     1      22.180   3.386  24.778  1.00  0.00     0.000 C 
BRANCH  20  21
ATOM     21  C   UNL     1      23.302   3.956  25.666  1.00  0.00     0.000 C 
BRANCH  21  22
ATOM     22  C   UNL     1      23.095   3.646  27.159  1.00  0.00    -0.000 C 
BRANCH  22  23
ATOM     23  C   UNL     1      22.266   4.723  27.877  1.00  0.00    -0.000 C 
BRANCH  23  24
ATOM     24  C   UNL     1      22.650   6.150  27.450  1.00  0.00    -0.000 C 
BRANCH  24  25
ATOM     25  C   UNL     1      24.150   6.446  27.636  1.00  0.00    -0.000 C 
BRANCH  25  26
ATOM     26  C   UNL     1      24.479   7.896  28.033  1.00  0.00    -0.000 C 
BRANCH  26  27
ATOM     27  C   UNL     1      24.877   8.770  26.831  1.00  0.00    -0.000 C 
BRANCH  27  28
ATOM     28  C   UNL     1      23.940   9.972  26.639  1.00  0.00    -0.000 C 
BRANCH  28  29
ATOM     29  C   UNL     1      22.901   9.739  25.534  1.00  0.00    -0.003 C 
ATOM     30  C   UNL     1      21.487   9.714  26.106  1.00  0.00     0.004 C 
ENDBRANCH  28  29
ENDBRANCH  27  28
ENDBRANCH  26  27
ENDBRANCH  25  26
ENDBRANCH  24  25
ENDBRANCH  23  24
ENDBRANCH  22  23
ENDBRANCH  21  22
ENDBRANCH  20  21
ENDBRANCH  19  20
ENDBRANCH  18  19
ENDBRANCH  17  18
ENDBRANCH   1  17
TORSDOF 26
ENDMDL
MODEL 7
REMARK VINA RESULT:    -2.651      1.798      3.555
REMARK INTER + INTRA:         -10.905
REMARK INTER:                  -7.563
REMARK INTRA:                  -3.343
REMARK UNBOUND:                -4.226
REMARK SMILES CCCCCCCCCCCCCCCCCCCCCCCCCCCC(=O)[O-]
REMARK SMILES IDX 15 1 16 2 17 3 18 4 19 5 20 6 21 7 22 8 23 9 24 10 25 11
REMARK SMILES IDX 26 12 27 13 28 14 29 15 30 16 14 17 13 18 12 19 11 20 10 21
REMARK SMILES IDX 9 22 8 23 7 24 6 25 5 26 4 27 3 28 2 29 1 30
REMARK H PARENT
REMARK Flexibility Score: inf
ROOT
ATOM      1  C   UNL     1      18.759   3.997  28.124  1.00  0.00     0.000 C 
ENDROOT
BRANCH   1   2
ATOM      2  C   UNL     1      20.246   3.630  27.962  1.00  0.00     0.000 C 
BRANCH   2   3
ATOM      3  C   UNL     1      21.230   4.806  28.100  1.00  0.00     0.000 C 
BRANCH   3   4
ATOM      4  C   UNL     1      22.701   4.369  27.984  1.00  0.00     0.000 C 
BRANCH   4   5
ATOM      5  C   UNL     1      23.563   5.396  27.225  1.00  0.00     0.000 C 
BRANCH   5   6
ATOM      6  C   UNL     1      23.564   6.806  27.848  1.00  0.00     0.000 C 
BRANCH   6   7
ATOM      7  C   UNL     1      23.199   7.901  26.830  1.00  0.00     0.000 C 
BRANCH   7   8
ATOM      8  C   UNL     1      23.276   9.315  27.431  1.00  0.00     0.000 C 
BRANCH   8   9
ATOM      9  C   UNL     1      21.891   9.889  27.769  1.00  0.00     0.000 C 
BRANCH   9  10
ATOM     10  C   UNL     1      20.741   9.059  27.175  1.00  0.00     0.000 C 
BRANCH  10  11
ATOM     11  C   UNL     1      19.490   9.003  28.078  1.00  0.00     0.000 C 
BRANCH  11  12
ATOM     12  C   UNL     1      18.444   8.007  27.558  1.00  0.00     0.006 C 
BRANCH  12  13
ATOM     13  C   UNL     1      17.867   8.466  26.215  1.00  0.00     0.053 C 
BRANCH  13  14
ATOM     14  C   UNL     1      16.467   7.967  26.044  1.00  0.00     0.041 C 
ATOM     15  O   UNL     1      15.917   7.999  24.911  1.00  0.00    -0.550 OA
ATOM     16  O   UNL     1      15.757   7.495  27.142  1.00  0.00    -0.550 OA
ENDBRANCH  13  14
ENDBRANCH  12  13
ENDBRANCH  11  12
ENDBRANCH  10  11
ENDBRANCH   9  10
ENDBRANCH   8   9
ENDBRANCH   7   8
ENDBRANCH   6   7
ENDBRANCH   5   6
ENDBRANCH   4   5
ENDBRANCH   3   4
ENDBRANCH   2   3
ENDBRANCH   1   2
BRANCH   1  17
ATOM     17  C   UNL     1      17.829   2.777  28.025  1.00  0.00     0.000 C 
BRANCH  17  18
ATOM     18  C   UNL     1      18.590   1.439  28.019  1.00  0.00     0.000 C 
BRANCH  18  19
ATOM     19  C   UNL     1      18.676   0.737  26.648  1.00  0.00     0.000 C 
BRANCH  19  20
ATOM     20  C   UNL     1      19.332   1.563  25.524  1.00  0.00     0.000 C 
BRANCH  20  21
ATOM     21  C   UNL     1      20.862   1.416  25.416  1.00  0.00     0.000 C 
BRANCH  21  22
ATOM     22  C   UNL     1      21.343   1.259  23.963  1.00  0.00    -0.000 C 
BRANCH  22  23
ATOM     23  C   UNL     1      21.659   2.608  23.297  1.00  0.00    -0.000 C 
BRANCH  23  24
ATOM     24  C   UNL     1      21.555   3.791  24.274  1.00  0.00    -0.000 C 
BRANCH  24  25
ATOM     25  C   UNL     1      20.179   4.479  24.236  1.00  0.00    -0.000 C 
BRANCH  25  26
ATOM     26  C   UNL     1      20.179   5.953  24.680  1.00  0.00    -0.000 C 
BRANCH  26  27
ATOM     27  C   UNL     1      19.679   6.908  23.581  1.00  0.00    -0.000 C 
BRANCH  27  28
ATOM     28  C   UNL     1      20.363   8.282  23.638  1.00  0.00    -0.000 C 
BRANCH  28  29
ATOM     29  C   UNL     1      19.495   9.397  23.038  1.00  0.00    -0.003 C 
ATOM     30  C   UNL     1      19.855   9.647  21.577  1.00  0.00     0.004 C 
ENDBRANCH  28  29
ENDBRANCH  27  28
ENDBRANCH  26  27
ENDBRANCH  25  26
ENDBRANCH  24  25
ENDBRANCH  23  24
ENDBRANCH  22  23
ENDBRANCH  21  22
ENDBRANCH  20  21
ENDBRANCH  19  20
ENDBRANCH  18  19
ENDBRANCH  17  18
ENDBRANCH   1  17
TORSDOF 26
ENDMDL
MODEL 8
REMARK VINA RESULT:    -2.588      1.477      4.955
REMARK INTER + INTRA:         -10.746
REMARK INTER:                  -7.270
REMARK INTRA:                  -3.476
REMARK UNBOUND:                -4.226
REMARK SMILES CCCCCCCCCCCCCCCCCCCCCCCCCCCC(=O)[O-]
REMARK SMILES IDX 15 1 16 2 17 3 18 4 19 5 20 6 21 7 22 8 23 9 24 10 25 11
REMARK SMILES IDX 26 12 27 13 28 14 29 15 30 16 14 17 13 18 12 19 11 20 10 21
REMARK SMILES IDX 9 22 8 23 7 24 6 25 5 26 4 27 3 28 2 29 1 30
REMARK H PARENT
REMARK Flexibility Score: inf
ROOT
ATOM      1  C   UNL     1      21.131   1.100  24.323  1.00  0.00     0.000 C 
ENDROOT
BRANCH   1   2
ATOM      2  C   UNL     1      21.579   2.393  23.619  1.00  0.00     0.000 C 
BRANCH   2   3
ATOM      3  C   UNL     1      20.596   3.573  23.728  1.00  0.00     0.000 C 
BRANCH   3   4
ATOM      4  C   UNL     1      21.176   4.762  24.514  1.00  0.00     0.000 C 
BRANCH   4   5
ATOM      5  C   UNL     1      20.083   5.726  25.016  1.00  0.00     0.000 C 
BRANCH   5   6
ATOM      6  C   UNL     1      18.683   5.457  24.432  1.00  0.00     0.000 C 
BRANCH   6   7
ATOM      7  C   UNL     1      17.683   6.582  24.754  1.00  0.00     0.000 C 
BRANCH   7   8
ATOM      8  C   UNL     1      17.354   6.667  26.254  1.00  0.00     0.000 C 
BRANCH   8   9
ATOM      9  C   UNL     1      16.730   8.015  26.646  1.00  0.00     0.000 C 
BRANCH   9  10
ATOM     10  C   UNL     1      17.255   9.185  25.796  1.00  0.00     0.000 C 
BRANCH  10  11
ATOM     11  C   UNL     1      18.743   9.512  26.048  1.00  0.00     0.000 C 
BRANCH  11  12
ATOM     12  C   UNL     1      19.436  10.059  24.792  1.00  0.00     0.006 C 
BRANCH  12  13
ATOM     13  C   UNL     1      18.462  10.124  23.611  1.00  0.00     0.053 C 
BRANCH  13  14
ATOM     14  C   UNL     1      19.084   9.541  22.381  1.00  0.00     0.041 C 
ATOM     15  O   UNL     1      20.011   8.694  22.482  1.00  0.00    -0.550 OA
ATOM     16  O   UNL     1      18.662   9.955  21.124  1.00  0.00    -0.550 OA
ENDBRANCH  13  14
ENDBRANCH  12  13
ENDBRANCH  11  12
ENDBRANCH  10  11
ENDBRANCH   9  10
ENDBRANCH   8   9
ENDBRANCH   7   8
ENDBRANCH   6   7
ENDBRANCH   5   6
ENDBRANCH   4   5
ENDBRANCH   3   4
ENDBRANCH   2   3
ENDBRANCH   1   2
BRANCH   1  17
ATOM     17  C   UNL     1      21.444   1.100  25.828  1.00  0.00     0.000 C 
BRANCH  17  18
ATOM     18  C   UNL     1      20.474   1.976  26.644  1.00  0.00     0.000 C 
BRANCH  18  19
ATOM     19  C   UNL     1      21.143   2.949  27.637  1.00  0.00     0.000 C 
BRANCH  19  20
ATOM     20  C   UNL     1      22.680   3.018  27.559  1.00  0.00     0.000 C 
BRANCH  20  21
ATOM     21  C   UNL     1      23.305   4.307  28.125  1.00  0.00     0.000 C 
BRANCH  21  22
ATOM     22  C   UNL     1      23.820   5.251  27.025  1.00  0.00    -0.000 C 
BRANCH  22  23
ATOM     23  C   UNL     1      23.540   6.730  27.337  1.00  0.00    -0.000 C 
BRANCH  23  24
ATOM     24  C   UNL     1      22.057   7.000  27.643  1.00  0.00    -0.000 C 
BRANCH  24  25
ATOM     25  C   UNL     1      21.788   8.461  28.049  1.00  0.00    -0.000 C 
BRANCH  25  26
ATOM     26  C   UNL     1      22.160   9.508  26.984  1.00  0.00    -0.000 C 
BRANCH  26  27
ATOM     27  C   UNL     1      23.567  10.096  27.191  1.00  0.00    -0.000 C 
BRANCH  27  28
ATOM     28  C   UNL     1      24.550   9.676  26.087  1.00  0.00    -0.000 C 
BRANCH  28  29
ATOM     29  C   UNL     1      26.014   9.757  26.540  1.00  0.00    -0.003 C 
ATOM     30  C   UNL     1      26.125   9.656  28.058  1.00  0.00     0.004 C 
ENDBRANCH  28  29
ENDBRANCH  27  28
ENDBRANCH  26  27
ENDBRANCH  25  26
ENDBRANCH  24  25
ENDBRANCH  23  24
ENDBRANCH  22  23
ENDBRANCH  21  22
ENDBRANCH  20  21
ENDBRANCH  19  20
ENDBRANCH  18  19
ENDBRANCH  17  18
ENDBRANCH   1  17
TORSDOF 26
ENDMDL
MODEL 9
REMARK VINA RESULT:    -2.529      1.238      4.678
REMARK INTER + INTRA:         -10.600
REMARK INTER:                  -6.151
REMARK INTRA:                  -4.449
REMARK UNBOUND:                -4.226
REMARK SMILES CCCCCCCCCCCCCCCCCCCCCCCCCCCC(=O)[O-]
REMARK SMILES IDX 15 1 16 2 17 3 18 4 19 5 20 6 21 7 22 8 23 9 24 10 25 11
REMARK SMILES IDX 26 12 27 13 28 14 29 15 30 16 14 17 13 18 12 19 11 20 10 21
REMARK SMILES IDX 9 22 8 23 7 24 6 25 5 26 4 27 3 28 2 29 1 30
REMARK H PARENT
REMARK Flexibility Score: inf
ROOT
ATOM      1  C   UNL     1      20.858   1.209  24.395  1.00  0.00     0.000 C 
ENDROOT
BRANCH   1   2
ATOM      2  C   UNL     1      21.643   2.374  23.766  1.00  0.00     0.000 C 
BRANCH   2   3
ATOM      3  C   UNL     1      20.854   3.689  23.613  1.00  0.00     0.000 C 
BRANCH   3   4
ATOM      4  C   UNL     1      21.515   4.869  24.346  1.00  0.00     0.000 C 
BRANCH   4   5
ATOM      5  C   UNL     1      20.483   5.814  24.991  1.00  0.00     0.000 C 
BRANCH   5   6
ATOM      6  C   UNL     1      19.044   5.633  24.469  1.00  0.00     0.000 C 
BRANCH   6   7
ATOM      7  C   UNL     1      18.007   6.383  25.324  1.00  0.00     0.000 C 
BRANCH   7   8
ATOM      8  C   UNL     1      18.202   6.145  26.831  1.00  0.00     0.000 C 
BRANCH   8   9
ATOM      9  C   UNL     1      17.147   6.867  27.684  1.00  0.00     0.000 C 
BRANCH   9  10
ATOM     10  C   UNL     1      16.312   7.874  26.874  1.00  0.00     0.000 C 
BRANCH  10  11
ATOM     11  C   UNL     1      16.612   9.348  27.224  1.00  0.00     0.000 C 
BRANCH  11  12
ATOM     12  C   UNL     1      17.446  10.042  26.138  1.00  0.00     0.006 C 
BRANCH  12  13
ATOM     13  C   UNL     1      17.102   9.496  24.748  1.00  0.00     0.053 C 
BRANCH  13  14
ATOM     14  C   UNL     1      18.252   9.684  23.808  1.00  0.00     0.041 C 
ATOM     15  O   UNL     1      19.352  10.124  24.235  1.00  0.00    -0.550 OA
ATOM     16  O   UNL     1      18.099   9.401  22.456  1.00  0.00    -0.550 OA
ENDBRANCH  13  14
ENDBRANCH  12  13
ENDBRANCH  11  12
ENDBRANCH  10  11
ENDBRANCH   9  10
ENDBRANCH   8   9
ENDBRANCH   7   8
ENDBRANCH   6   7
ENDBRANCH   5   6
ENDBRANCH   4   5
ENDBRANCH   3   4
ENDBRANCH   2   3
ENDBRANCH   1   2
BRANCH   1  17
ATOM     17  C   UNL     1      20.925   1.204  25.931  1.00  0.00     0.000 C 
BRANCH  17  18
ATOM     18  C   UNL     1      19.688   1.841  26.589  1.00  0.00     0.000 C 
BRANCH  18  19
ATOM     19  C   UNL     1      19.980   3.037  27.519  1.00  0.00     0.000 C 
BRANCH  19  20
ATOM     20  C   UNL     1      21.399   3.075  28.118  1.00  0.00     0.000 C 
BRANCH  20  21
ATOM     21  C   UNL     1      22.192   4.364  27.831  1.00  0.00     0.000 C 
BRANCH  21  22
ATOM     22  C   UNL     1      23.455   4.109  26.989  1.00  0.00    -0.000 C 
BRANCH  22  23
ATOM     23  C   UNL     1      24.412   5.312  26.982  1.00  0.00    -0.000 C 
BRANCH  23  24
ATOM     24  C   UNL     1      23.728   6.617  27.424  1.00  0.00    -0.000 C 
BRANCH  24  25
ATOM     25  C   UNL     1      24.730   7.747  27.721  1.00  0.00    -0.000 C 
BRANCH  25  26
ATOM     26  C   UNL     1      24.184   9.171  27.505  1.00  0.00    -0.000 C 
BRANCH  26  27
ATOM     27  C   UNL     1      23.711   9.416  26.062  1.00  0.00    -0.000 C 
BRANCH  27  28
ATOM     28  C   UNL     1      22.293  10.004  25.998  1.00  0.00    -0.000 C 
BRANCH  28  29
ATOM     29  C   UNL     1      21.549   9.892  27.336  1.00  0.00    -0.003 C 
ATOM     30  C   UNL     1      20.618   8.683  27.347  1.00  0.00     0.004 C 
ENDBRANCH  28  29
ENDBRANCH  27  28
ENDBRANCH  26  27
ENDBRANCH  25  26
ENDBRANCH  24  25
ENDBRANCH  23  24
ENDBRANCH  22  23
ENDBRANCH  21  22
ENDBRANCH  20  21
ENDBRANCH  19  20
ENDBRANCH  18  19
ENDBRANCH  17  18
ENDBRANCH   1  17
TORSDOF 26
ENDMDL
