MODEL 1
REMARK VINA RESULT:    -4.300      0.000      0.000
REMARK INTER + INTRA:          -8.675
REMARK INTER:                  -7.818
REMARK INTRA:                  -0.857
REMARK UNBOUND:                -0.857
REMARK SMILES CCCCCCCCCCCCCC[C@@H](C)C(=O)[O-]
REMARK SMILES IDX 9 1 10 2 11 3 12 4 13 5 14 6 15 7 16 8 17 9 18 10 19 11 8 12
REMARK SMILES IDX 7 13 6 14 5 15 4 16 3 17 2 18 1 19
REMARK H PARENT
REMARK Flexibility Score: inf
ROOT
ATOM      1  C   UNL     1     152.770 133.726 165.858  1.00  0.00     0.000 C 
ENDROOT
BRANCH   1   2
ATOM      2  C   UNL     1     152.060 132.455 165.380  1.00  0.00     0.000 C 
BRANCH   2   3
ATOM      3  C   UNL     1     151.594 132.597 163.926  1.00  0.00     0.000 C 
BRANCH   3   4
ATOM      4  C   UNL     1     150.191 131.999 163.738  1.00  0.00     0.000 C 
BRANCH   4   5
ATOM      5  C   UNL     1     149.240 132.942 162.983  1.00  0.00     0.001 C 
BRANCH   5   6
ATOM      6  C   UNL     1     147.790 132.419 162.955  1.00  0.00     0.009 C 
BRANCH   6   7
ATOM      7  C   UNL     1     146.725 133.509 162.694  1.00  0.00     0.032 C 
ATOM      8  C   UNL     1     147.265 134.932 162.901  1.00  0.00     0.014 C 
BRANCH   7   9
ATOM      9  C   UNL     1     146.078 133.344 161.344  1.00  0.00     0.044 C 
ATOM     10  O   UNL     1     146.168 132.259 160.710  1.00  0.00    -0.550 OA
ATOM     11  O   UNL     1     145.328 134.385 160.810  1.00  0.00    -0.550 OA
ENDBRANCH   7   9
ENDBRANCH   6   7
ENDBRANCH   5   6
ENDBRANCH   4   5
ENDBRANCH   3   4
ENDBRANCH   2   3
ENDBRANCH   1   2
BRANCH   1  12
ATOM     12  C   UNL     1     154.245 133.729 165.429  1.00  0.00     0.000 C 
BRANCH  12  13
ATOM     13  C   UNL     1     154.926 132.359 165.609  1.00  0.00    -0.000 C 
BRANCH  13  14
ATOM     14  C   UNL     1     155.684 132.175 166.937  1.00  0.00    -0.000 C 
BRANCH  14  15
ATOM     15  C   UNL     1     157.212 132.202 166.765  1.00  0.00    -0.000 C 
BRANCH  15  16
ATOM     16  C   UNL     1     157.911 133.058 167.833  1.00  0.00    -0.000 C 
BRANCH  16  17
ATOM     17  C   UNL     1     156.962 134.061 168.505  1.00  0.00    -0.000 C 
BRANCH  17  18
ATOM     18  C   UNL     1     156.853 135.349 167.680  1.00  0.00    -0.003 C 
ATOM     19  C   UNL     1     156.475 136.537 168.559  1.00  0.00     0.004 C 
ENDBRANCH  17  18
ENDBRANCH  16  17
ENDBRANCH  15  16
ENDBRANCH  14  15
ENDBRANCH  13  14
ENDBRANCH  12  13
ENDBRANCH   1  12
TORSDOF 14
ENDMDL
MODEL 2
REMARK VINA RESULT:    -4.292      1.686      3.370
REMARK INTER + INTRA:          -8.661
REMARK INTER:                  -7.164
REMARK INTRA:                  -1.497
REMARK UNBOUND:                -0.857
REMARK SMILES CCCCCCCCCCCCCC[C@@H](C)C(=O)[O-]
REMARK SMILES IDX 9 1 10 2 11 3 12 4 13 5 14 6 15 7 16 8 17 9 18 10 19 11 8 12
REMARK SMILES IDX 7 13 6 14 5 15 4 16 3 17 2 18 1 19
REMARK H PARENT
REMARK Flexibility Score: inf
ROOT
ATOM      1  C   UNL     1     149.813 132.715 166.389  1.00  0.00     0.000 C 
ENDROOT
BRANCH   1   2
ATOM      2  C   UNL     1     148.345 133.051 166.670  1.00  0.00     0.000 C 
BRANCH   2   3
ATOM      3  C   UNL     1     147.688 133.714 165.453  1.00  0.00     0.000 C 
BRANCH   3   4
ATOM      4  C   UNL     1     147.148 132.658 164.476  1.00  0.00     0.000 C 
BRANCH   4   5
ATOM      5  C   UNL     1     148.056 132.465 163.251  1.00  0.00     0.001 C 
BRANCH   5   6
ATOM      6  C   UNL     1     147.612 133.317 162.046  1.00  0.00     0.009 C 
BRANCH   6   7
ATOM      7  C   UNL     1     146.107 133.673 162.038  1.00  0.00     0.032 C 
ATOM      8  C   UNL     1     145.853 135.188 162.024  1.00  0.00     0.014 C 
BRANCH   7   9
ATOM      9  C   UNL     1     145.375 132.971 160.924  1.00  0.00     0.044 C 
ATOM     10  O   UNL     1     145.654 133.202 159.717  1.00  0.00    -0.550 OA
ATOM     11  O   UNL     1     144.413 132.016 161.229  1.00  0.00    -0.550 OA
ENDBRANCH   7   9
ENDBRANCH   6   7
ENDBRANCH   5   6
ENDBRANCH   4   5
ENDBRANCH   3   4
ENDBRANCH   2   3
ENDBRANCH   1   2
BRANCH   1  12
ATOM     12  C   UNL     1     150.577 133.952 165.893  1.00  0.00     0.000 C 
BRANCH  12  13
ATOM     13  C   UNL     1     151.328 133.705 164.572  1.00  0.00    -0.000 C 
BRANCH  13  14
ATOM     14  C   UNL     1     151.556 132.223 164.216  1.00  0.00    -0.000 C 
BRANCH  14  15
ATOM     15  C   UNL     1     153.040 131.875 164.020  1.00  0.00    -0.000 C 
BRANCH  15  16
ATOM     16  C   UNL     1     153.974 132.809 164.807  1.00  0.00    -0.000 C 
BRANCH  16  17
ATOM     17  C   UNL     1     154.763 132.075 165.902  1.00  0.00    -0.000 C 
BRANCH  17  18
ATOM     18  C   UNL     1     155.285 133.059 166.955  1.00  0.00    -0.003 C 
ATOM     19  C   UNL     1     156.600 132.576 167.558  1.00  0.00     0.004 C 
ENDBRANCH  17  18
ENDBRANCH  16  17
ENDBRANCH  15  16
ENDBRANCH  14  15
ENDBRANCH  13  14
ENDBRANCH  12  13
ENDBRANCH   1  12
TORSDOF 14
ENDMDL
MODEL 3
REMARK VINA RESULT:    -4.286      2.047      3.891
REMARK INTER + INTRA:          -8.651
REMARK INTER:                  -6.439
REMARK INTRA:                  -2.212
REMARK UNBOUND:                -0.857
REMARK SMILES CCCCCCCCCCCCCC[C@@H](C)C(=O)[O-]
REMARK SMILES IDX 9 1 10 2 11 3 12 4 13 5 14 6 15 7 16 8 17 9 18 10 19 11 8 12
REMARK SMILES IDX 7 13 6 14 5 15 4 16 3 17 2 18 1 19
REMARK H PARENT
REMARK Flexibility Score: inf
ROOT
ATOM      1  C   UNL     1     155.084 132.615 168.164  1.00  0.00     0.000 C 
ENDROOT
BRANCH   1   2
ATOM      2  C   UNL     1     154.196 132.256 166.967  1.00  0.00     0.000 C 
BRANCH   2   3
ATOM      3  C   UNL     1     155.011 132.219 165.668  1.00  0.00     0.000 C 
BRANCH   3   4
ATOM      4  C   UNL     1     154.287 132.977 164.544  1.00  0.00     0.000 C 
BRANCH   4   5
ATOM      5  C   UNL     1     152.819 133.281 164.883  1.00  0.00     0.001 C 
BRANCH   5   6
ATOM      6  C   UNL     1     151.835 132.578 163.926  1.00  0.00     0.009 C 
BRANCH   6   7
ATOM      7  C   UNL     1     150.364 132.593 164.401  1.00  0.00     0.032 C 
ATOM      8  C   UNL     1     150.228 132.830 165.913  1.00  0.00     0.014 C 
BRANCH   7   9
ATOM      9  C   UNL     1     149.531 133.563 163.604  1.00  0.00     0.044 C 
ATOM     10  O   UNL     1     149.427 134.769 163.954  1.00  0.00    -0.550 OA
ATOM     11  O   UNL     1     148.909 133.136 162.437  1.00  0.00    -0.550 OA
ENDBRANCH   7   9
ENDBRANCH   6   7
ENDBRANCH   5   6
ENDBRANCH   4   5
ENDBRANCH   3   4
ENDBRANCH   2   3
ENDBRANCH   1   2
BRANCH   1  12
ATOM     12  C   UNL     1     156.569 132.607 167.771  1.00  0.00     0.000 C 
BRANCH  12  13
ATOM     13  C   UNL     1     157.470 133.299 168.811  1.00  0.00    -0.000 C 
BRANCH  13  14
ATOM     14  C   UNL     1     156.721 134.052 169.927  1.00  0.00    -0.000 C 
BRANCH  14  15
ATOM     15  C   UNL     1     156.848 135.580 169.808  1.00  0.00    -0.000 C 
BRANCH  15  16
ATOM     16  C   UNL     1     155.789 136.189 168.875  1.00  0.00    -0.000 C 
BRANCH  16  17
ATOM     17  C   UNL     1     156.289 136.345 167.432  1.00  0.00    -0.000 C 
BRANCH  17  18
ATOM     18  C   UNL     1     155.168 136.048 166.429  1.00  0.00    -0.003 C 
ATOM     19  C   UNL     1     153.813 135.958 167.125  1.00  0.00     0.004 C 
ENDBRANCH  17  18
ENDBRANCH  16  17
ENDBRANCH  15  16
ENDBRANCH  14  15
ENDBRANCH  13  14
ENDBRANCH  12  13
ENDBRANCH   1  12
TORSDOF 14
ENDMDL
MODEL 4
REMARK VINA RESULT:    -4.230      5.538      7.527
REMARK INTER + INTRA:          -8.550
REMARK INTER:                  -6.422
REMARK INTRA:                  -2.128
REMARK UNBOUND:                -0.857
REMARK SMILES CCCCCCCCCCCCCC[C@@H](C)C(=O)[O-]
REMARK SMILES IDX 9 1 10 2 11 3 12 4 13 5 14 6 15 7 16 8 17 9 18 10 19 11 8 12
REMARK SMILES IDX 7 13 6 14 5 15 4 16 3 17 2 18 1 19
REMARK H PARENT
REMARK Flexibility Score: inf
ROOT
ATOM      1  C   UNL     1     154.337 133.339 164.975  1.00  0.00     0.000 C 
ENDROOT
BRANCH   1   2
ATOM      2  C   UNL     1     153.671 134.404 165.852  1.00  0.00     0.000 C 
BRANCH   2   3
ATOM      3  C   UNL     1     154.674 135.489 166.261  1.00  0.00     0.000 C 
BRANCH   3   4
ATOM      4  C   UNL     1     154.740 135.630 167.790  1.00  0.00     0.000 C 
BRANCH   4   5
ATOM      5  C   UNL     1     155.961 136.438 168.260  1.00  0.00     0.001 C 
BRANCH   5   6
ATOM      6  C   UNL     1     156.712 137.105 167.091  1.00  0.00     0.009 C 
BRANCH   6   7
ATOM      7  C   UNL     1     156.607 138.647 167.064  1.00  0.00     0.032 C 
ATOM      8  C   UNL     1     157.979 139.338 167.048  1.00  0.00     0.014 C 
BRANCH   7   9
ATOM      9  C   UNL     1     155.725 139.126 165.941  1.00  0.00     0.044 C 
ATOM     10  O   UNL     1     154.471 139.018 166.011  1.00  0.00    -0.550 OA
ATOM     11  O   UNL     1     156.294 139.743 164.835  1.00  0.00    -0.550 OA
ENDBRANCH   7   9
ENDBRANCH   6   7
ENDBRANCH   5   6
ENDBRANCH   4   5
ENDBRANCH   3   4
ENDBRANCH   2   3
ENDBRANCH   1   2
BRANCH   1  12
ATOM     12  C   UNL     1     154.396 131.986 165.699  1.00  0.00     0.000 C 
BRANCH  12  13
ATOM     13  C   UNL     1     155.360 131.988 166.900  1.00  0.00    -0.000 C 
BRANCH  13  14
ATOM     14  C   UNL     1     156.838 132.249 166.553  1.00  0.00    -0.000 C 
BRANCH  14  15
ATOM     15  C   UNL     1     157.538 133.172 167.565  1.00  0.00    -0.000 C 
BRANCH  15  16
ATOM     16  C   UNL     1     158.125 132.401 168.758  1.00  0.00    -0.000 C 
BRANCH  16  17
ATOM     17  C   UNL     1     157.766 133.035 170.110  1.00  0.00    -0.000 C 
BRANCH  17  18
ATOM     18  C   UNL     1     156.253 133.253 170.229  1.00  0.00    -0.003 C 
ATOM     19  C   UNL     1     155.920 134.204 171.374  1.00  0.00     0.004 C 
ENDBRANCH  17  18
ENDBRANCH  16  17
ENDBRANCH  15  16
ENDBRANCH  14  15
ENDBRANCH  13  14
ENDBRANCH  12  13
ENDBRANCH   1  12
TORSDOF 14
ENDMDL
MODEL 5
REMARK VINA RESULT:    -4.221      4.831     10.050
REMARK INTER + INTRA:          -8.532
REMARK INTER:                  -7.685
REMARK INTRA:                  -0.847
REMARK UNBOUND:                -0.857
REMARK SMILES CCCCCCCCCCCCCC[C@@H](C)C(=O)[O-]
REMARK SMILES IDX 9 1 10 2 11 3 12 4 13 5 14 6 15 7 16 8 17 9 18 10 19 11 8 12
REMARK SMILES IDX 7 13 6 14 5 15 4 16 3 17 2 18 1 19
REMARK H PARENT
REMARK Flexibility Score: inf
ROOT
ATOM      1  C   UNL     1     152.033 132.414 165.990  1.00  0.00     0.000 C 
ENDROOT
BRANCH   1   2
ATOM      2  C   UNL     1     152.989 132.411 164.792  1.00  0.00     0.000 C 
BRANCH   2   3
ATOM      3  C   UNL     1     154.368 132.956 165.185  1.00  0.00     0.000 C 
BRANCH   3   4
ATOM      4  C   UNL     1     155.193 131.886 165.917  1.00  0.00     0.000 C 
BRANCH   4   5
ATOM      5  C   UNL     1     155.512 132.274 167.370  1.00  0.00     0.001 C 
BRANCH   5   6
ATOM      6  C   UNL     1     157.013 132.549 167.592  1.00  0.00     0.009 C 
BRANCH   6   7
ATOM      7  C   UNL     1     157.315 133.868 168.339  1.00  0.00     0.032 C 
ATOM      8  C   UNL     1     156.625 135.084 167.702  1.00  0.00     0.014 C 
BRANCH   7   9
ATOM      9  C   UNL     1     157.013 133.758 169.810  1.00  0.00     0.044 C 
ATOM     10  O   UNL     1     157.768 133.105 170.580  1.00  0.00    -0.550 OA
ATOM     11  O   UNL     1     155.916 134.426 170.339  1.00  0.00    -0.550 OA
ENDBRANCH   7   9
ENDBRANCH   6   7
ENDBRANCH   5   6
ENDBRANCH   4   5
ENDBRANCH   3   4
ENDBRANCH   2   3
ENDBRANCH   1   2
BRANCH   1  12
ATOM     12  C   UNL     1     150.582 132.636 165.537  1.00  0.00     0.000 C 
BRANCH  12  13
ATOM     13  C   UNL     1     150.463 133.629 164.366  1.00  0.00    -0.000 C 
BRANCH  13  14
ATOM     14  C   UNL     1     150.026 133.008 163.025  1.00  0.00    -0.000 C 
BRANCH  14  15
ATOM     15  C   UNL     1     148.563 133.320 162.668  1.00  0.00    -0.000 C 
BRANCH  15  16
ATOM     16  C   UNL     1     147.583 132.280 163.234  1.00  0.00    -0.000 C 
BRANCH  16  17
ATOM     17  C   UNL     1     146.471 131.909 162.242  1.00  0.00    -0.000 C 
BRANCH  17  18
ATOM     18  C   UNL     1     146.638 132.672 160.922  1.00  0.00    -0.003 C 
ATOM     19  C   UNL     1     145.375 132.584 160.070  1.00  0.00     0.004 C 
ENDBRANCH  17  18
ENDBRANCH  16  17
ENDBRANCH  15  16
ENDBRANCH  14  15
ENDBRANCH  13  14
ENDBRANCH  12  13
ENDBRANCH   1  12
TORSDOF 14
ENDMDL
MODEL 6
REMARK VINA RESULT:    -4.217      1.287      1.991
REMARK INTER + INTRA:          -8.526
REMARK INTER:                  -7.131
REMARK INTRA:                  -1.396
REMARK UNBOUND:                -0.857
REMARK SMILES CCCCCCCCCCCCCC[C@@H](C)C(=O)[O-]
REMARK SMILES IDX 9 1 10 2 11 3 12 4 13 5 14 6 15 7 16 8 17 9 18 10 19 11 8 12
REMARK SMILES IDX 7 13 6 14 5 15 4 16 3 17 2 18 1 19
REMARK H PARENT
REMARK Flexibility Score: inf
ROOT
ATOM      1  C   UNL     1     153.917 131.895 165.495  1.00  0.00     0.000 C 
ENDROOT
BRANCH   1   2
ATOM      2  C   UNL     1     153.072 132.393 166.672  1.00  0.00     0.000 C 
BRANCH   2   3
ATOM      3  C   UNL     1     151.585 132.446 166.300  1.00  0.00     0.000 C 
BRANCH   3   4
ATOM      4  C   UNL     1     151.384 132.188 164.799  1.00  0.00     0.000 C 
BRANCH   4   5
ATOM      5  C   UNL     1     150.743 133.380 164.071  1.00  0.00     0.001 C 
BRANCH   5   6
ATOM      6  C   UNL     1     149.764 132.940 162.965  1.00  0.00     0.009 C 
BRANCH   6   7
ATOM      7  C   UNL     1     148.275 133.196 163.293  1.00  0.00     0.032 C 
ATOM      8  C   UNL     1     148.080 134.031 164.568  1.00  0.00     0.014 C 
BRANCH   7   9
ATOM      9  C   UNL     1     147.539 133.785 162.118  1.00  0.00     0.044 C 
ATOM     10  O   UNL     1     147.572 133.229 160.988  1.00  0.00    -0.550 OA
ATOM     11  O   UNL     1     146.770 134.929 162.293  1.00  0.00    -0.550 OA
ENDBRANCH   7   9
ENDBRANCH   6   7
ENDBRANCH   5   6
ENDBRANCH   4   5
ENDBRANCH   3   4
ENDBRANCH   2   3
ENDBRANCH   1   2
BRANCH   1  12
ATOM     12  C   UNL     1     155.403 132.224 165.705  1.00  0.00     0.000 C 
BRANCH  12  13
ATOM     13  C   UNL     1     155.813 132.234 167.189  1.00  0.00    -0.000 C 
BRANCH  13  14
ATOM     14  C   UNL     1     157.331 132.196 167.448  1.00  0.00    -0.000 C 
BRANCH  14  15
ATOM     15  C   UNL     1     157.869 133.501 168.058  1.00  0.00    -0.000 C 
BRANCH  15  16
ATOM     16  C   UNL     1     156.747 134.416 168.575  1.00  0.00    -0.000 C 
BRANCH  16  17
ATOM     17  C   UNL     1     156.522 135.645 167.680  1.00  0.00    -0.000 C 
BRANCH  17  18
ATOM     18  C   UNL     1     155.056 136.091 167.721  1.00  0.00    -0.003 C 
ATOM     19  C   UNL     1     154.405 135.973 166.346  1.00  0.00     0.004 C 
ENDBRANCH  17  18
ENDBRANCH  16  17
ENDBRANCH  15  16
ENDBRANCH  14  15
ENDBRANCH  13  14
ENDBRANCH  12  13
ENDBRANCH   1  12
TORSDOF 14
ENDMDL
MODEL 7
REMARK VINA RESULT:    -4.188      4.500      9.927
REMARK INTER + INTRA:          -8.472
REMARK INTER:                  -7.417
REMARK INTRA:                  -1.054
REMARK UNBOUND:                -0.857
REMARK SMILES CCCCCCCCCCCCCC[C@@H](C)C(=O)[O-]
REMARK SMILES IDX 9 1 10 2 11 3 12 4 13 5 14 6 15 7 16 8 17 9 18 10 19 11 8 12
REMARK SMILES IDX 7 13 6 14 5 15 4 16 3 17 2 18 1 19
REMARK H PARENT
REMARK Flexibility Score: inf
ROOT
ATOM      1  C   UNL     1     150.728 133.479 165.283  1.00  0.00     0.000 C 
ENDROOT
BRANCH   1   2
ATOM      2  C   UNL     1     152.054 133.459 166.052  1.00  0.00     0.000 C 
BRANCH   2   3
ATOM      3  C   UNL     1     153.001 132.390 165.492  1.00  0.00     0.000 C 
BRANCH   3   4
ATOM      4  C   UNL     1     154.409 132.965 165.272  1.00  0.00     0.000 C 
BRANCH   4   5
ATOM      5  C   UNL     1     155.479 132.249 166.112  1.00  0.00     0.001 C 
BRANCH   5   6
ATOM      6  C   UNL     1     155.348 132.554 167.618  1.00  0.00     0.009 C 
BRANCH   6   7
ATOM      7  C   UNL     1     156.664 133.004 168.293  1.00  0.00     0.032 C 
ATOM      8  C   UNL     1     157.915 132.517 167.547  1.00  0.00     0.014 C 
BRANCH   7   9
ATOM      9  C   UNL     1     156.691 134.493 168.522  1.00  0.00     0.044 C 
ATOM     10  O   UNL     1     156.786 135.296 167.555  1.00  0.00    -0.550 OA
ATOM     11  O   UNL     1     156.557 134.993 169.812  1.00  0.00    -0.550 OA
ENDBRANCH   7   9
ENDBRANCH   6   7
ENDBRANCH   5   6
ENDBRANCH   4   5
ENDBRANCH   3   4
ENDBRANCH   2   3
ENDBRANCH   1   2
BRANCH   1  12
ATOM     12  C   UNL     1     150.896 132.879 163.879  1.00  0.00     0.000 C 
BRANCH  12  13
ATOM     13  C   UNL     1     149.559 132.696 163.139  1.00  0.00    -0.000 C 
BRANCH  13  14
ATOM     14  C   UNL     1     148.317 132.603 164.046  1.00  0.00    -0.000 C 
BRANCH  14  15
ATOM     15  C   UNL     1     147.364 133.798 163.883  1.00  0.00    -0.000 C 
BRANCH  15  16
ATOM     16  C   UNL     1     147.383 134.379 162.460  1.00  0.00    -0.000 C 
BRANCH  16  17
ATOM     17  C   UNL     1     146.136 134.000 161.647  1.00  0.00    -0.000 C 
BRANCH  17  18
ATOM     18  C   UNL     1     146.454 132.885 160.644  1.00  0.00    -0.003 C 
ATOM     19  C   UNL     1     145.314 131.875 160.560  1.00  0.00     0.004 C 
ENDBRANCH  17  18
ENDBRANCH  16  17
ENDBRANCH  15  16
ENDBRANCH  14  15
ENDBRANCH  13  14
ENDBRANCH  12  13
ENDBRANCH   1  12
TORSDOF 14
ENDMDL
MODEL 8
REMARK VINA RESULT:    -4.169      5.016      8.646
REMARK INTER + INTRA:          -8.438
REMARK INTER:                  -6.572
REMARK INTRA:                  -1.865
REMARK UNBOUND:                -0.857
REMARK SMILES CCCCCCCCCCCCCC[C@@H](C)C(=O)[O-]
REMARK SMILES IDX 9 1 10 2 11 3 12 4 13 5 14 6 15 7 16 8 17 9 18 10 19 11 8 12
REMARK SMILES IDX 7 13 6 14 5 15 4 16 3 17 2 18 1 19
REMARK H PARENT
REMARK Flexibility Score: inf
ROOT
ATOM      1  C   UNL     1     154.898 131.936 166.245  1.00  0.00     0.000 C 
ENDROOT
BRANCH   1   2
ATOM      2  C   UNL     1     155.486 132.344 167.600  1.00  0.00     0.000 C 
BRANCH   2   3
ATOM      3  C   UNL     1     156.992 132.613 167.490  1.00  0.00     0.000 C 
BRANCH   3   4
ATOM      4  C   UNL     1     157.320 134.065 167.872  1.00  0.00     0.000 C 
BRANCH   4   5
ATOM      5  C   UNL     1     156.480 134.572 169.056  1.00  0.00     0.001 C 
BRANCH   5   6
ATOM      6  C   UNL     1     156.112 136.062 168.923  1.00  0.00     0.009 C 
BRANCH   6   7
ATOM      7  C   UNL     1     156.367 136.659 167.520  1.00  0.00     0.032 C 
ATOM      8  C   UNL     1     155.089 136.764 166.675  1.00  0.00     0.014 C 
BRANCH   7   9
ATOM      9  C   UNL     1     157.098 137.974 167.598  1.00  0.00     0.044 C 
ATOM     10  O   UNL     1     157.096 138.776 166.626  1.00  0.00    -0.550 OA
ATOM     11  O   UNL     1     157.741 138.333 168.776  1.00  0.00    -0.550 OA
ENDBRANCH   7   9
ENDBRANCH   6   7
ENDBRANCH   5   6
ENDBRANCH   4   5
ENDBRANCH   3   4
ENDBRANCH   2   3
ENDBRANCH   1   2
BRANCH   1  12
ATOM     12  C   UNL     1     154.368 133.161 165.484  1.00  0.00     0.000 C 
BRANCH  12  13
ATOM     13  C   UNL     1     153.595 132.786 164.205  1.00  0.00    -0.000 C 
BRANCH  13  14
ATOM     14  C   UNL     1     152.372 131.875 164.423  1.00  0.00    -0.000 C 
BRANCH  14  15
ATOM     15  C   UNL     1     151.085 132.440 163.801  1.00  0.00    -0.000 C 
BRANCH  15  16
ATOM     16  C   UNL     1     150.369 133.435 164.728  1.00  0.00    -0.000 C 
BRANCH  16  17
ATOM     17  C   UNL     1     150.315 132.955 166.186  1.00  0.00    -0.000 C 
BRANCH  17  18
ATOM     18  C   UNL     1     150.831 134.039 167.139  1.00  0.00    -0.003 C 
ATOM     19  C   UNL     1     151.556 135.144 166.378  1.00  0.00     0.004 C 
ENDBRANCH  17  18
ENDBRANCH  16  17
ENDBRANCH  15  16
ENDBRANCH  14  15
ENDBRANCH  13  14
ENDBRANCH  12  13
ENDBRANCH   1  12
TORSDOF 14
ENDMDL
MODEL 9
REMARK VINA RESULT:    -4.168      3.008      5.067
REMARK INTER + INTRA:          -8.435
REMARK INTER:                  -6.154
REMARK INTRA:                  -2.281
REMARK UNBOUND:                -0.857
REMARK SMILES CCCCCCCCCCCCCC[C@@H](C)C(=O)[O-]
REMARK SMILES IDX 9 1 10 2 11 3 12 4 13 5 14 6 15 7 16 8 17 9 18 10 19 11 8 12
REMARK SMILES IDX 7 13 6 14 5 15 4 16 3 17 2 18 1 19
REMARK H PARENT
REMARK Flexibility Score: inf
ROOT
ATOM      1  C   UNL     1     157.148 133.780 167.679  1.00  0.00     0.000 C 
ENDROOT
BRANCH   1   2
ATOM      2  C   UNL     1     156.189 132.585 167.673  1.00  0.00     0.000 C 
BRANCH   2   3
ATOM      3  C   UNL     1     155.776 132.216 166.243  1.00  0.00     0.000 C 
BRANCH   3   4
ATOM      4  C   UNL     1     154.247 132.125 166.118  1.00  0.00     0.000 C 
BRANCH   4   5
ATOM      5  C   UNL     1     153.736 132.574 164.739  1.00  0.00     0.001 C 
BRANCH   5   6
ATOM      6  C   UNL     1     152.421 131.875 164.341  1.00  0.00     0.009 C 
BRANCH   6   7
ATOM      7  C   UNL     1     151.252 132.841 164.040  1.00  0.00     0.032 C 
ATOM      8  C   UNL     1     150.014 132.123 163.484  1.00  0.00     0.014 C 
BRANCH   7   9
ATOM      9  C   UNL     1     150.916 133.697 165.233  1.00  0.00     0.044 C 
ATOM     10  O   UNL     1     150.940 134.955 165.157  1.00  0.00    -0.550 OA
ATOM     11  O   UNL     1     150.524 133.095 166.422  1.00  0.00    -0.550 OA
ENDBRANCH   7   9
ENDBRANCH   6   7
ENDBRANCH   5   6
ENDBRANCH   4   5
ENDBRANCH   3   4
ENDBRANCH   2   3
ENDBRANCH   1   2
BRANCH   1  12
ATOM     12  C   UNL     1     156.779 134.778 168.787  1.00  0.00     0.000 C 
BRANCH  12  13
ATOM     13  C   UNL     1     156.510 136.197 168.253  1.00  0.00    -0.000 C 
BRANCH  13  14
ATOM     14  C   UNL     1     156.152 136.276 166.757  1.00  0.00    -0.000 C 
BRANCH  14  15
ATOM     15  C   UNL     1     154.693 135.884 166.468  1.00  0.00    -0.000 C 
BRANCH  15  16
ATOM     16  C   UNL     1     153.760 136.166 167.656  1.00  0.00    -0.000 C 
BRANCH  16  17
ATOM     17  C   UNL     1     152.941 134.935 168.072  1.00  0.00    -0.000 C 
BRANCH  17  18
ATOM     18  C   UNL     1     152.887 134.803 169.599  1.00  0.00    -0.003 C 
ATOM     19  C   UNL     1     153.581 133.528 170.068  1.00  0.00     0.004 C 
ENDBRANCH  17  18
ENDBRANCH  16  17
ENDBRANCH  15  16
ENDBRANCH  14  15
ENDBRANCH  13  14
ENDBRANCH  12  13
ENDBRANCH   1  12
TORSDOF 14
ENDMDL
