MODEL 1
REMARK VINA RESULT:    -2.991      0.000      0.000
REMARK INTER + INTRA:          -3.364
REMARK INTER:                  -3.341
REMARK INTRA:                  -0.023
REMARK UNBOUND:                -0.023
REMARK SMILES CCCC(=O)[O-]
REMARK SMILES IDX 3 1 4 2 5 3 6 4 2 5 1 6
REMARK H PARENT
REMARK Flexibility Score: inf
ROOT
ATOM      1  C   UNL     1       6.417  10.759  32.228  1.00  0.00     0.052 C 
ENDROOT
BRANCH   1   2
ATOM      2  C   UNL     1       7.482  10.969  31.194  1.00  0.00     0.041 C 
ATOM      3  O   UNL     1       8.692  11.037  31.537  1.00  0.00    -0.550 OA
ATOM      4  O   UNL     1       7.142  11.056  29.851  1.00  0.00    -0.550 OA
ENDBRANCH   1   2
BRANCH   1   5
ATOM      5  C   UNL     1       5.147  10.151  31.620  1.00  0.00     0.003 C 
ATOM      6  C   UNL     1       3.876  10.832  32.128  1.00  0.00     0.004 C 
ENDBRANCH   1   5
TORSDOF 2
ENDMDL
MODEL 2
REMARK VINA RESULT:    -2.947      2.148      3.344
REMARK INTER + INTRA:          -3.314
REMARK INTER:                  -3.278
REMARK INTRA:                  -0.036
REMARK UNBOUND:                -0.023
REMARK SMILES CCCC(=O)[O-]
REMARK SMILES IDX 3 1 4 2 5 3 6 4 2 5 1 6
REMARK H PARENT
REMARK Flexibility Score: inf
ROOT
ATOM      1  C   UNL     1       6.250  11.125  32.126  1.00  0.00     0.052 C 
ENDROOT
BRANCH   1   2
ATOM      2  C   UNL     1       5.005  10.403  31.706  1.00  0.00     0.041 C 
ATOM      3  O   UNL     1       3.882  10.777  32.135  1.00  0.00    -0.550 OA
ATOM      4  O   UNL     1       5.083   9.341  30.815  1.00  0.00    -0.550 OA
ENDBRANCH   1   2
BRANCH   1   5
ATOM      5  C   UNL     1       7.472  10.199  32.125  1.00  0.00     0.003 C 
ATOM      6  C   UNL     1       8.551  10.660  31.146  1.00  0.00     0.004 C 
ENDBRANCH   1   5
TORSDOF 2
ENDMDL
MODEL 3
REMARK VINA RESULT:    -2.920      1.163      1.615
REMARK INTER + INTRA:          -3.284
REMARK INTER:                  -3.276
REMARK INTRA:                  -0.008
REMARK UNBOUND:                -0.023
REMARK SMILES CCCC(=O)[O-]
REMARK SMILES IDX 3 1 4 2 5 3 6 4 2 5 1 6
REMARK H PARENT
REMARK Flexibility Score: inf
ROOT
ATOM      1  C   UNL     1       7.135  10.439  32.349  1.00  0.00     0.052 C 
ENDROOT
BRANCH   1   2
ATOM      2  C   UNL     1       8.331  10.196  31.480  1.00  0.00     0.041 C 
ATOM      3  O   UNL     1       8.591  10.976  30.527  1.00  0.00    -0.550 OA
ATOM      4  O   UNL     1       9.179   9.128  31.746  1.00  0.00    -0.550 OA
ENDBRANCH   1   2
BRANCH   1   5
ATOM      5  C   UNL     1       5.825  10.332  31.557  1.00  0.00     0.003 C 
ATOM      6  C   UNL     1       4.644  10.955  32.300  1.00  0.00     0.004 C 
ENDBRANCH   1   5
TORSDOF 2
ENDMDL
MODEL 4
REMARK VINA RESULT:    -2.880      2.818      3.244
REMARK INTER + INTRA:          -3.240
REMARK INTER:                  -3.235
REMARK INTRA:                  -0.006
REMARK UNBOUND:                -0.023
REMARK SMILES CCCC(=O)[O-]
REMARK SMILES IDX 3 1 4 2 5 3 6 4 2 5 1 6
REMARK H PARENT
REMARK Flexibility Score: inf
ROOT
ATOM      1  C   UNL     1       4.072   9.220  30.290  1.00  0.00     0.052 C 
ENDROOT
BRANCH   1   2
ATOM      2  C   UNL     1       4.898   8.912  29.078  1.00  0.00     0.041 C 
ATOM      3  O   UNL     1       5.671   7.918  29.075  1.00  0.00    -0.550 OA
ATOM      4  O   UNL     1       4.789   9.702  27.941  1.00  0.00    -0.550 OA
ENDBRANCH   1   2
BRANCH   1   5
ATOM      5  C   UNL     1       4.871  10.005  31.339  1.00  0.00     0.003 C 
ATOM      6  C   UNL     1       3.983  10.921  32.180  1.00  0.00     0.004 C 
ENDBRANCH   1   5
TORSDOF 2
ENDMDL
MODEL 5
REMARK VINA RESULT:    -2.816      1.923      3.089
REMARK INTER + INTRA:          -3.168
REMARK INTER:                  -3.128
REMARK INTRA:                  -0.040
REMARK UNBOUND:                -0.023
REMARK SMILES CCCC(=O)[O-]
REMARK SMILES IDX 3 1 4 2 5 3 6 4 2 5 1 6
REMARK H PARENT
REMARK Flexibility Score: inf
ROOT
ATOM      1  C   UNL     1       4.876  10.125  31.614  1.00  0.00     0.052 C 
ENDROOT
BRANCH   1   2
ATOM      2  C   UNL     1       4.984   9.462  30.274  1.00  0.00     0.041 C 
ATOM      3  O   UNL     1       4.337   8.408  30.035  1.00  0.00    -0.550 OA
ATOM      4  O   UNL     1       5.770  10.027  29.278  1.00  0.00    -0.550 OA
ENDBRANCH   1   2
BRANCH   1   5
ATOM      5  C   UNL     1       6.015  11.125  31.847  1.00  0.00     0.003 C 
ATOM      6  C   UNL     1       7.240  10.472  32.486  1.00  0.00     0.004 C 
ENDBRANCH   1   5
TORSDOF 2
ENDMDL
MODEL 6
REMARK VINA RESULT:    -2.814      2.561      3.168
REMARK INTER + INTRA:          -3.166
REMARK INTER:                  -3.131
REMARK INTRA:                  -0.035
REMARK UNBOUND:                -0.023
REMARK SMILES CCCC(=O)[O-]
REMARK SMILES IDX 3 1 4 2 5 3 6 4 2 5 1 6
REMARK H PARENT
REMARK Flexibility Score: inf
ROOT
ATOM      1  C   UNL     1       5.568   9.980  30.696  1.00  0.00     0.052 C 
ENDROOT
BRANCH   1   2
ATOM      2  C   UNL     1       5.153  10.695  31.946  1.00  0.00     0.041 C 
ATOM      3  O   UNL     1       3.932  10.880  32.193  1.00  0.00    -0.550 OA
ATOM      4  O   UNL     1       6.111  11.125  32.854  1.00  0.00    -0.550 OA
ENDBRANCH   1   2
BRANCH   1   5
ATOM      5  C   UNL     1       4.521   8.949  30.256  1.00  0.00     0.003 C 
ATOM      6  C   UNL     1       4.028   9.193  28.830  1.00  0.00     0.004 C 
ENDBRANCH   1   5
TORSDOF 2
ENDMDL
MODEL 7
REMARK VINA RESULT:    -2.751     17.814     18.210
REMARK INTER + INTRA:          -3.095
REMARK INTER:                  -3.082
REMARK INTRA:                  -0.014
REMARK UNBOUND:                -0.023
REMARK SMILES CCCC(=O)[O-]
REMARK SMILES IDX 3 1 4 2 5 3 6 4 2 5 1 6
REMARK H PARENT
REMARK Flexibility Score: inf
ROOT
ATOM      1  C   UNL     1       6.447  -7.273  35.590  1.00  0.00     0.052 C 
ENDROOT
BRANCH   1   2
ATOM      2  C   UNL     1       7.124  -6.717  36.806  1.00  0.00     0.041 C 
ATOM      3  O   UNL     1       7.610  -7.493  37.670  1.00  0.00    -0.550 OA
ATOM      4  O   UNL     1       7.248  -5.343  36.967  1.00  0.00    -0.550 OA
ENDBRANCH   1   2
BRANCH   1   5
ATOM      5  C   UNL     1       5.008  -6.758  35.454  1.00  0.00     0.003 C 
ATOM      6  C   UNL     1       4.597  -6.559  33.995  1.00  0.00     0.004 C 
ENDBRANCH   1   5
TORSDOF 2
ENDMDL
MODEL 8
REMARK VINA RESULT:    -2.622      2.630      3.508
REMARK INTER + INTRA:          -2.952
REMARK INTER:                  -2.920
REMARK INTRA:                  -0.032
REMARK UNBOUND:                -0.023
REMARK SMILES CCCC(=O)[O-]
REMARK SMILES IDX 3 1 4 2 5 3 6 4 2 5 1 6
REMARK H PARENT
REMARK Flexibility Score: inf
ROOT
ATOM      1  C   UNL     1       9.217   9.230  31.409  1.00  0.00     0.052 C 
ENDROOT
BRANCH   1   2
ATOM      2  C   UNL     1       9.298   8.645  30.032  1.00  0.00     0.041 C 
ATOM      3  O   UNL     1       8.258   8.219  29.463  1.00  0.00    -0.550 OA
ATOM      4  O   UNL     1      10.514   8.602  29.362  1.00  0.00    -0.550 OA
ENDBRANCH   1   2
BRANCH   1   5
ATOM      5  C   UNL     1       8.490  10.580  31.412  1.00  0.00     0.003 C 
ATOM      6  C   UNL     1       7.250  10.571  32.306  1.00  0.00     0.004 C 
ENDBRANCH   1   5
TORSDOF 2
ENDMDL
MODEL 9
REMARK VINA RESULT:    -2.600     18.432     18.791
REMARK INTER + INTRA:          -2.927
REMARK INTER:                  -2.894
REMARK INTRA:                  -0.033
REMARK UNBOUND:                -0.023
REMARK SMILES CCCC(=O)[O-]
REMARK SMILES IDX 3 1 4 2 5 3 6 4 2 5 1 6
REMARK H PARENT
REMARK Flexibility Score: inf
ROOT
ATOM      1  C   UNL     1       5.750  -6.730  35.908  1.00  0.00     0.052 C 
ENDROOT
BRANCH   1   2
ATOM      2  C   UNL     1       5.220  -7.320  34.636  1.00  0.00     0.041 C 
ATOM      3  O   UNL     1       5.369  -8.547  34.397  1.00  0.00    -0.550 OA
ATOM      4  O   UNL     1       4.532  -6.522  33.731  1.00  0.00    -0.550 OA
ENDBRANCH   1   2
BRANCH   1   5
ATOM      5  C   UNL     1       7.193  -7.172  36.182  1.00  0.00     0.003 C 
ATOM      6  C   UNL     1       7.358  -7.793  37.568  1.00  0.00     0.004 C 
ENDBRANCH   1   5
TORSDOF 2
ENDMDL
