MODEL 1
REMARK VINA RESULT:    -5.143      0.000      0.000
REMARK INTER + INTRA:         -13.900
REMARK INTER:                 -11.156
REMARK INTRA:                  -2.745
REMARK UNBOUND:                -2.745
REMARK SMILES CCCCCCCCCCCCCCCCCCCCCC(=O)[O-]
REMARK SMILES IDX 12 1 11 2 10 3 9 4 8 5 7 6 6 7 5 8 4 9 3 10 2 11 1 12 13 13
REMARK SMILES IDX 14 14 15 15 16 16 17 17 18 18 19 19 20 20 21 21 22 22 23 23
REMARK SMILES IDX 24 24
REMARK H PARENT
REMARK Flexibility Score: inf
ROOT
ATOM      1  C   UNL     1      17.472 -30.904  21.081  1.00  0.00     0.000 C 
ENDROOT
BRANCH   1   2
ATOM      2  C   UNL     1      18.282 -32.022  21.757  1.00  0.00     0.000 C 
BRANCH   2   3
ATOM      3  C   UNL     1      19.692 -32.162  21.162  1.00  0.00     0.000 C 
BRANCH   3   4
ATOM      4  C   UNL     1      20.682 -31.139  21.745  1.00  0.00    -0.000 C 
BRANCH   4   5
ATOM      5  C   UNL     1      21.027 -30.022  20.746  1.00  0.00    -0.000 C 
BRANCH   5   6
ATOM      6  C   UNL     1      20.974 -28.624  21.387  1.00  0.00    -0.000 C 
BRANCH   6   7
ATOM      7  C   UNL     1      19.848 -27.743  20.800  1.00  0.00    -0.000 C 
BRANCH   7   8
ATOM      8  C   UNL     1      20.325 -26.352  20.344  1.00  0.00    -0.000 C 
BRANCH   8   9
ATOM      9  C   UNL     1      21.120 -25.578  21.408  1.00  0.00    -0.000 C 
BRANCH   9  10
ATOM     10  C   UNL     1      22.476 -25.042  20.893  1.00  0.00    -0.000 C 
BRANCH  10  11
ATOM     11  C   UNL     1      22.888 -25.676  19.558  1.00  0.00    -0.003 C 
ATOM     12  C   UNL     1      23.787 -26.888  19.778  1.00  0.00     0.004 C 
ENDBRANCH  10  11
ENDBRANCH   9  10
ENDBRANCH   8   9
ENDBRANCH   7   8
ENDBRANCH   6   7
ENDBRANCH   5   6
ENDBRANCH   4   5
ENDBRANCH   3   4
ENDBRANCH   2   3
ENDBRANCH   1   2
BRANCH   1  13
ATOM     13  C   UNL     1      16.968 -29.846  22.078  1.00  0.00     0.000 C 
BRANCH  13  14
ATOM     14  C   UNL     1      15.470 -29.511  21.919  1.00  0.00     0.000 C 
BRANCH  14  15
ATOM     15  C   UNL     1      14.583 -30.397  22.812  1.00  0.00     0.000 C 
BRANCH  15  16
ATOM     16  C   UNL     1      13.455 -31.086  22.029  1.00  0.00     0.000 C 
BRANCH  16  17
ATOM     17  C   UNL     1      13.957 -32.278  21.196  1.00  0.00     0.000 C 
BRANCH  17  18
ATOM     18  C   UNL     1      14.822 -33.247  22.029  1.00  0.00     0.000 C 
BRANCH  18  19
ATOM     19  C   UNL     1      15.288 -34.487  21.249  1.00  0.00     0.000 C 
BRANCH  19  20
ATOM     20  C   UNL     1      15.447 -34.225  19.746  1.00  0.00     0.006 C 
BRANCH  20  21
ATOM     21  C   UNL     1      16.894 -34.462  19.297  1.00  0.00     0.053 C 
BRANCH  21  22
ATOM     22  C   UNL     1      17.410 -35.789  19.771  1.00  0.00     0.041 C 
ATOM     23  O   UNL     1      17.028 -36.848  19.207  1.00  0.00    -0.550 OA
ATOM     24  O   UNL     1      18.374 -35.855  20.769  1.00  0.00    -0.550 OA
ENDBRANCH  21  22
ENDBRANCH  20  21
ENDBRANCH  19  20
ENDBRANCH  18  19
ENDBRANCH  17  18
ENDBRANCH  16  17
ENDBRANCH  15  16
ENDBRANCH  14  15
ENDBRANCH  13  14
ENDBRANCH   1  13
TORSDOF 20
ENDMDL
MODEL 2
REMARK VINA RESULT:    -5.082      3.946      7.762
REMARK INTER + INTRA:         -13.769
REMARK INTER:                  -9.783
REMARK INTRA:                  -3.986
REMARK UNBOUND:                -2.745
REMARK SMILES CCCCCCCCCCCCCCCCCCCCCC(=O)[O-]
REMARK SMILES IDX 12 1 11 2 10 3 9 4 8 5 7 6 6 7 5 8 4 9 3 10 2 11 1 12 13 13
REMARK SMILES IDX 14 14 15 15 16 16 17 17 18 18 19 19 20 20 21 21 22 22 23 23
REMARK SMILES IDX 24 24
REMARK H PARENT
REMARK Flexibility Score: inf
ROOT
ATOM      1  C   UNL     1      17.925 -34.063  25.145  1.00  0.00     0.000 C 
ENDROOT
BRANCH   1   2
ATOM      2  C   UNL     1      16.961 -33.290  24.229  1.00  0.00     0.000 C 
BRANCH   2   3
ATOM      3  C   UNL     1      16.412 -34.164  23.090  1.00  0.00     0.000 C 
BRANCH   3   4
ATOM      4  C   UNL     1      14.988 -33.761  22.671  1.00  0.00    -0.000 C 
BRANCH   4   5
ATOM      5  C   UNL     1      14.873 -33.499  21.160  1.00  0.00    -0.000 C 
BRANCH   5   6
ATOM      6  C   UNL     1      15.331 -34.703  20.318  1.00  0.00    -0.000 C 
BRANCH   6   7
ATOM      7  C   UNL     1      16.557 -34.378  19.434  1.00  0.00    -0.000 C 
BRANCH   7   8
ATOM      8  C   UNL     1      17.637 -35.476  19.449  1.00  0.00    -0.000 C 
BRANCH   8   9
ATOM      9  C   UNL     1      17.142 -36.841  19.955  1.00  0.00    -0.000 C 
BRANCH   9  10
ATOM     10  C   UNL     1      18.096 -37.498  20.979  1.00  0.00    -0.000 C 
BRANCH  10  11
ATOM     11  C   UNL     1      18.749 -36.472  21.914  1.00  0.00    -0.003 C 
ATOM     12  C   UNL     1      19.161 -37.115  23.235  1.00  0.00     0.004 C 
ENDBRANCH  10  11
ENDBRANCH   9  10
ENDBRANCH   8   9
ENDBRANCH   7   8
ENDBRANCH   6   7
ENDBRANCH   5   6
ENDBRANCH   4   5
ENDBRANCH   3   4
ENDBRANCH   2   3
ENDBRANCH   1   2
BRANCH   1  13
ATOM     13  C   UNL     1      19.392 -33.636  24.962  1.00  0.00     0.000 C 
BRANCH  13  14
ATOM     14  C   UNL     1      19.588 -32.543  23.889  1.00  0.00     0.000 C 
BRANCH  14  15
ATOM     15  C   UNL     1      20.191 -33.110  22.592  1.00  0.00     0.000 C 
BRANCH  15  16
ATOM     16  C   UNL     1      19.378 -32.728  21.345  1.00  0.00     0.000 C 
BRANCH  16  17
ATOM     17  C   UNL     1      18.994 -31.238  21.324  1.00  0.00     0.000 C 
BRANCH  17  18
ATOM     18  C   UNL     1      17.487 -31.029  21.063  1.00  0.00     0.000 C 
BRANCH  18  19
ATOM     19  C   UNL     1      16.768 -30.251  22.177  1.00  0.00     0.000 C 
BRANCH  19  20
ATOM     20  C   UNL     1      15.311 -29.917  21.831  1.00  0.00     0.006 C 
BRANCH  20  21
ATOM     21  C   UNL     1      14.576 -29.343  23.047  1.00  0.00     0.053 C 
BRANCH  21  22
ATOM     22  C   UNL     1      13.157 -29.825  23.115  1.00  0.00     0.041 C 
ATOM     23  O   UNL     1      12.847 -30.935  22.609  1.00  0.00    -0.550 OA
ATOM     24  O   UNL     1      12.198 -29.098  23.810  1.00  0.00    -0.550 OA
ENDBRANCH  21  22
ENDBRANCH  20  21
ENDBRANCH  19  20
ENDBRANCH  18  19
ENDBRANCH  17  18
ENDBRANCH  16  17
ENDBRANCH  15  16
ENDBRANCH  14  15
ENDBRANCH  13  14
ENDBRANCH   1  13
TORSDOF 20
ENDMDL
MODEL 3
REMARK VINA RESULT:    -5.054      3.191      7.272
REMARK INTER + INTRA:         -13.708
REMARK INTER:                  -9.962
REMARK INTRA:                  -3.746
REMARK UNBOUND:                -2.745
REMARK SMILES CCCCCCCCCCCCCCCCCCCCCC(=O)[O-]
REMARK SMILES IDX 12 1 11 2 10 3 9 4 8 5 7 6 6 7 5 8 4 9 3 10 2 11 1 12 13 13
REMARK SMILES IDX 14 14 15 15 16 16 17 17 18 18 19 19 20 20 21 21 22 22 23 23
REMARK SMILES IDX 24 24
REMARK H PARENT
REMARK Flexibility Score: inf
ROOT
ATOM      1  C   UNL     1      13.477 -31.579  21.150  1.00  0.00     0.000 C 
ENDROOT
BRANCH   1   2
ATOM      2  C   UNL     1      14.298 -32.874  21.262  1.00  0.00     0.000 C 
BRANCH   2   3
ATOM      3  C   UNL     1      14.639 -33.223  22.720  1.00  0.00     0.000 C 
BRANCH   3   4
ATOM      4  C   UNL     1      15.931 -34.050  22.841  1.00  0.00    -0.000 C 
BRANCH   4   5
ATOM      5  C   UNL     1      16.314 -34.330  24.303  1.00  0.00    -0.000 C 
BRANCH   5   6
ATOM      6  C   UNL     1      17.259 -35.537  24.443  1.00  0.00    -0.000 C 
BRANCH   6   7
ATOM      7  C   UNL     1      18.636 -35.293  23.785  1.00  0.00    -0.000 C 
BRANCH   7   8
ATOM      8  C   UNL     1      18.962 -36.282  22.650  1.00  0.00    -0.000 C 
BRANCH   8   9
ATOM      9  C   UNL     1      18.552 -35.794  21.251  1.00  0.00    -0.000 C 
BRANCH   9  10
ATOM     10  C   UNL     1      17.577 -36.752  20.528  1.00  0.00    -0.000 C 
BRANCH  10  11
ATOM     11  C   UNL     1      16.459 -36.004  19.789  1.00  0.00    -0.003 C 
ATOM     12  C   UNL     1      16.944 -34.649  19.284  1.00  0.00     0.004 C 
ENDBRANCH  10  11
ENDBRANCH   9  10
ENDBRANCH   8   9
ENDBRANCH   7   8
ENDBRANCH   6   7
ENDBRANCH   5   6
ENDBRANCH   4   5
ENDBRANCH   3   4
ENDBRANCH   2   3
ENDBRANCH   1   2
BRANCH   1  13
ATOM     13  C   UNL     1      13.856 -30.538  22.219  1.00  0.00     0.000 C 
BRANCH  13  14
ATOM     14  C   UNL     1      15.042 -29.638  21.811  1.00  0.00     0.000 C 
BRANCH  14  15
ATOM     15  C   UNL     1      16.126 -29.583  22.903  1.00  0.00     0.000 C 
BRANCH  15  16
ATOM     16  C   UNL     1      17.265 -30.584  22.656  1.00  0.00     0.000 C 
BRANCH  16  17
ATOM     17  C   UNL     1      17.416 -30.952  21.169  1.00  0.00     0.000 C 
BRANCH  17  18
ATOM     18  C   UNL     1      18.521 -32.004  20.939  1.00  0.00     0.000 C 
BRANCH  18  19
ATOM     19  C   UNL     1      19.426 -32.229  22.162  1.00  0.00     0.000 C 
BRANCH  19  20
ATOM     20  C   UNL     1      20.910 -31.982  21.863  1.00  0.00     0.006 C 
BRANCH  20  21
ATOM     21  C   UNL     1      21.084 -30.868  20.824  1.00  0.00     0.053 C 
BRANCH  21  22
ATOM     22  C   UNL     1      21.033 -29.509  21.457  1.00  0.00     0.041 C 
ATOM     23  O   UNL     1      20.237 -28.640  21.013  1.00  0.00    -0.550 OA
ATOM     24  O   UNL     1      21.794 -29.227  22.585  1.00  0.00    -0.550 OA
ENDBRANCH  21  22
ENDBRANCH  20  21
ENDBRANCH  19  20
ENDBRANCH  18  19
ENDBRANCH  17  18
ENDBRANCH  16  17
ENDBRANCH  15  16
ENDBRANCH  14  15
ENDBRANCH  13  14
ENDBRANCH   1  13
TORSDOF 20
ENDMDL
MODEL 4
REMARK VINA RESULT:    -5.025      4.757      7.366
REMARK INTER + INTRA:         -13.645
REMARK INTER:                 -10.423
REMARK INTRA:                  -3.222
REMARK UNBOUND:                -2.745
REMARK SMILES CCCCCCCCCCCCCCCCCCCCCC(=O)[O-]
REMARK SMILES IDX 12 1 11 2 10 3 9 4 8 5 7 6 6 7 5 8 4 9 3 10 2 11 1 12 13 13
REMARK SMILES IDX 14 14 15 15 16 16 17 17 18 18 19 19 20 20 21 21 22 22 23 23
REMARK SMILES IDX 24 24
REMARK H PARENT
REMARK Flexibility Score: inf
ROOT
ATOM      1  C   UNL     1      18.263 -33.544  19.480  1.00  0.00     0.000 C 
ENDROOT
BRANCH   1   2
ATOM      2  C   UNL     1      18.747 -32.697  20.668  1.00  0.00     0.000 C 
BRANCH   2   3
ATOM      3  C   UNL     1      18.006 -31.355  20.768  1.00  0.00     0.000 C 
BRANCH   3   4
ATOM      4  C   UNL     1      17.570 -31.028  22.206  1.00  0.00    -0.000 C 
BRANCH   4   5
ATOM      5  C   UNL     1      17.600 -32.261  23.123  1.00  0.00    -0.000 C 
BRANCH   5   6
ATOM      6  C   UNL     1      16.449 -32.263  24.145  1.00  0.00    -0.000 C 
BRANCH   6   7
ATOM      7  C   UNL     1      15.792 -33.654  24.299  1.00  0.00    -0.000 C 
BRANCH   7   8
ATOM      8  C   UNL     1      16.758 -34.739  24.810  1.00  0.00    -0.000 C 
BRANCH   8   9
ATOM      9  C   UNL     1      17.443 -35.548  23.696  1.00  0.00    -0.000 C 
BRANCH   9  10
ATOM     10  C   UNL     1      18.843 -36.071  24.090  1.00  0.00    -0.000 C 
BRANCH  10  11
ATOM     11  C   UNL     1      19.753 -36.288  22.873  1.00  0.00    -0.003 C 
ATOM     12  C   UNL     1      20.693 -35.104  22.670  1.00  0.00     0.004 C 
ENDBRANCH  10  11
ENDBRANCH   9  10
ENDBRANCH   8   9
ENDBRANCH   7   8
ENDBRANCH   6   7
ENDBRANCH   5   6
ENDBRANCH   4   5
ENDBRANCH   3   4
ENDBRANCH   2   3
ENDBRANCH   1   2
BRANCH   1  13
ATOM     13  C   UNL     1      18.251 -35.052  19.788  1.00  0.00     0.000 C 
BRANCH  13  14
ATOM     14  C   UNL     1      16.923 -35.747  19.420  1.00  0.00     0.000 C 
BRANCH  14  15
ATOM     15  C   UNL     1      15.804 -35.424  20.427  1.00  0.00     0.000 C 
BRANCH  15  16
ATOM     16  C   UNL     1      14.939 -34.233  19.987  1.00  0.00     0.000 C 
BRANCH  16  17
ATOM     17  C   UNL     1      14.693 -33.228  21.126  1.00  0.00     0.000 C 
BRANCH  17  18
ATOM     18  C   UNL     1      13.788 -32.058  20.686  1.00  0.00     0.000 C 
BRANCH  18  19
ATOM     19  C   UNL     1      13.844 -30.845  21.628  1.00  0.00     0.000 C 
BRANCH  19  20
ATOM     20  C   UNL     1      12.793 -30.903  22.744  1.00  0.00     0.006 C 
BRANCH  20  21
ATOM     21  C   UNL     1      13.212 -30.040  23.939  1.00  0.00     0.053 C 
BRANCH  21  22
ATOM     22  C   UNL     1      12.403 -28.780  24.023  1.00  0.00     0.041 C 
ATOM     23  O   UNL     1      12.898 -27.750  24.551  1.00  0.00    -0.550 OA
ATOM     24  O   UNL     1      11.142 -28.712  23.443  1.00  0.00    -0.550 OA
ENDBRANCH  21  22
ENDBRANCH  20  21
ENDBRANCH  19  20
ENDBRANCH  18  19
ENDBRANCH  17  18
ENDBRANCH  16  17
ENDBRANCH  15  16
ENDBRANCH  14  15
ENDBRANCH  13  14
ENDBRANCH   1  13
TORSDOF 20
ENDMDL
MODEL 5
REMARK VINA RESULT:    -5.004      3.901      6.421
REMARK INTER + INTRA:         -13.600
REMARK INTER:                 -10.047
REMARK INTRA:                  -3.553
REMARK UNBOUND:                -2.745
REMARK SMILES CCCCCCCCCCCCCCCCCCCCCC(=O)[O-]
REMARK SMILES IDX 12 1 11 2 10 3 9 4 8 5 7 6 6 7 5 8 4 9 3 10 2 11 1 12 13 13
REMARK SMILES IDX 14 14 15 15 16 16 17 17 18 18 19 19 20 20 21 21 22 22 23 23
REMARK SMILES IDX 24 24
REMARK H PARENT
REMARK Flexibility Score: inf
ROOT
ATOM      1  C   UNL     1      15.366 -34.668  20.290  1.00  0.00     0.000 C 
ENDROOT
BRANCH   1   2
ATOM      2  C   UNL     1      14.999 -33.542  21.270  1.00  0.00     0.000 C 
BRANCH   2   3
ATOM      3  C   UNL     1      15.381 -33.882  22.719  1.00  0.00     0.000 C 
BRANCH   3   4
ATOM      4  C   UNL     1      14.880 -32.829  23.723  1.00  0.00    -0.000 C 
BRANCH   4   5
ATOM      5  C   UNL     1      13.895 -31.834  23.088  1.00  0.00    -0.000 C 
BRANCH   5   6
ATOM      6  C   UNL     1      14.387 -30.378  23.182  1.00  0.00    -0.000 C 
BRANCH   6   7
ATOM      7  C   UNL     1      15.041 -29.886  21.871  1.00  0.00    -0.000 C 
BRANCH   7   8
ATOM      8  C   UNL     1      16.519 -29.483  22.030  1.00  0.00    -0.000 C 
BRANCH   8   9
ATOM      9  C   UNL     1      17.489 -30.671  22.135  1.00  0.00    -0.000 C 
BRANCH   9  10
ATOM     10  C   UNL     1      17.956 -31.205  20.762  1.00  0.00    -0.000 C 
BRANCH  10  11
ATOM     11  C   UNL     1      19.182 -32.121  20.875  1.00  0.00    -0.003 C 
ATOM     12  C   UNL     1      19.006 -33.143  21.993  1.00  0.00     0.004 C 
ENDBRANCH  10  11
ENDBRANCH   9  10
ENDBRANCH   8   9
ENDBRANCH   7   8
ENDBRANCH   6   7
ENDBRANCH   5   6
ENDBRANCH   4   5
ENDBRANCH   3   4
ENDBRANCH   2   3
ENDBRANCH   1   2
BRANCH   1  13
ATOM     13  C   UNL     1      16.515 -34.283  19.341  1.00  0.00     0.000 C 
BRANCH  13  14
ATOM     14  C   UNL     1      17.632 -35.345  19.261  1.00  0.00     0.000 C 
BRANCH  14  15
ATOM     15  C   UNL     1      17.092 -36.768  19.490  1.00  0.00     0.000 C 
BRANCH  15  16
ATOM     16  C   UNL     1      17.863 -37.524  20.583  1.00  0.00     0.000 C 
BRANCH  16  17
ATOM     17  C   UNL     1      18.179 -36.640  21.802  1.00  0.00     0.000 C 
BRANCH  17  18
ATOM     18  C   UNL     1      19.493 -37.054  22.497  1.00  0.00     0.000 C 
BRANCH  18  19
ATOM     19  C   UNL     1      19.383 -37.138  24.028  1.00  0.00     0.000 C 
BRANCH  19  20
ATOM     20  C   UNL     1      18.315 -36.200  24.606  1.00  0.00     0.006 C 
BRANCH  20  21
ATOM     21  C   UNL     1      18.958 -35.051  25.388  1.00  0.00     0.053 C 
BRANCH  21  22
ATOM     22  C   UNL     1      17.984 -33.938  25.638  1.00  0.00     0.041 C 
ATOM     23  O   UNL     1      18.311 -32.748  25.385  1.00  0.00    -0.550 OA
ATOM     24  O   UNL     1      16.690 -34.215  26.062  1.00  0.00    -0.550 OA
ENDBRANCH  21  22
ENDBRANCH  20  21
ENDBRANCH  19  20
ENDBRANCH  18  19
ENDBRANCH  17  18
ENDBRANCH  16  17
ENDBRANCH  15  16
ENDBRANCH  14  15
ENDBRANCH  13  14
ENDBRANCH   1  13
TORSDOF 20
ENDMDL
MODEL 6
REMARK VINA RESULT:    -4.966      4.558      6.818
REMARK INTER + INTRA:         -13.518
REMARK INTER:                  -9.995
REMARK INTRA:                  -3.523
REMARK UNBOUND:                -2.745
REMARK SMILES CCCCCCCCCCCCCCCCCCCCCC(=O)[O-]
REMARK SMILES IDX 12 1 11 2 10 3 9 4 8 5 7 6 6 7 5 8 4 9 3 10 2 11 1 12 13 13
REMARK SMILES IDX 14 14 15 15 16 16 17 17 18 18 19 19 20 20 21 21 22 22 23 23
REMARK SMILES IDX 24 24
REMARK H PARENT
REMARK Flexibility Score: inf
ROOT
ATOM      1  C   UNL     1      18.559 -35.275  21.447  1.00  0.00     0.000 C 
ENDROOT
BRANCH   1   2
ATOM      2  C   UNL     1      19.297 -36.080  22.530  1.00  0.00     0.000 C 
BRANCH   2   3
ATOM      3  C   UNL     1      20.082 -35.176  23.494  1.00  0.00     0.000 C 
BRANCH   3   4
ATOM      4  C   UNL     1      19.457 -35.128  24.899  1.00  0.00    -0.000 C 
BRANCH   4   5
ATOM      5  C   UNL     1      18.166 -35.958  24.995  1.00  0.00    -0.000 C 
BRANCH   5   6
ATOM      6  C   UNL     1      16.906 -35.078  25.083  1.00  0.00    -0.000 C 
BRANCH   6   7
ATOM      7  C   UNL     1      17.239 -33.572  25.178  1.00  0.00    -0.000 C 
BRANCH   7   8
ATOM      8  C   UNL     1      16.834 -32.769  23.928  1.00  0.00    -0.000 C 
BRANCH   8   9
ATOM      9  C   UNL     1      17.854 -31.697  23.510  1.00  0.00    -0.000 C 
BRANCH   9  10
ATOM     10  C   UNL     1      17.401 -30.861  22.291  1.00  0.00    -0.000 C 
BRANCH  10  11
ATOM     11  C   UNL     1      17.934 -31.421  20.965  1.00  0.00    -0.003 C 
ATOM     12  C   UNL     1      19.427 -31.719  21.054  1.00  0.00     0.004 C 
ENDBRANCH  10  11
ENDBRANCH   9  10
ENDBRANCH   8   9
ENDBRANCH   7   8
ENDBRANCH   6   7
ENDBRANCH   5   6
ENDBRANCH   4   5
ENDBRANCH   3   4
ENDBRANCH   2   3
ENDBRANCH   1   2
BRANCH   1  13
ATOM     13  C   UNL     1      17.037 -35.501  21.470  1.00  0.00     0.000 C 
BRANCH  13  14
ATOM     14  C   UNL     1      16.405 -35.585  20.064  1.00  0.00     0.000 C 
BRANCH  14  15
ATOM     15  C   UNL     1      15.703 -34.274  19.667  1.00  0.00     0.000 C 
BRANCH  15  16
ATOM     16  C   UNL     1      15.098 -33.538  20.872  1.00  0.00     0.000 C 
BRANCH  16  17
ATOM     17  C   UNL     1      13.866 -32.697  20.494  1.00  0.00     0.000 C 
BRANCH  17  18
ATOM     18  C   UNL     1      13.854 -31.329  21.207  1.00  0.00     0.000 C 
BRANCH  18  19
ATOM     19  C   UNL     1      13.117 -31.342  22.556  1.00  0.00     0.000 C 
BRANCH  19  20
ATOM     20  C   UNL     1      13.820 -30.504  23.632  1.00  0.00     0.006 C 
BRANCH  20  21
ATOM     21  C   UNL     1      13.913 -29.034  23.210  1.00  0.00     0.053 C 
BRANCH  21  22
ATOM     22  C   UNL     1      12.850 -28.202  23.865  1.00  0.00     0.041 C 
ATOM     23  O   UNL     1      13.116 -27.032  24.247  1.00  0.00    -0.550 OA
ATOM     24  O   UNL     1      11.549 -28.678  23.974  1.00  0.00    -0.550 OA
ENDBRANCH  21  22
ENDBRANCH  20  21
ENDBRANCH  19  20
ENDBRANCH  18  19
ENDBRANCH  17  18
ENDBRANCH  16  17
ENDBRANCH  15  16
ENDBRANCH  14  15
ENDBRANCH  13  14
ENDBRANCH   1  13
TORSDOF 20
ENDMDL
MODEL 7
REMARK VINA RESULT:    -4.958      3.005      5.815
REMARK INTER + INTRA:         -13.500
REMARK INTER:                 -10.092
REMARK INTRA:                  -3.407
REMARK UNBOUND:                -2.745
REMARK SMILES CCCCCCCCCCCCCCCCCCCCCC(=O)[O-]
REMARK SMILES IDX 12 1 11 2 10 3 9 4 8 5 7 6 6 7 5 8 4 9 3 10 2 11 1 12 13 13
REMARK SMILES IDX 14 14 15 15 16 16 17 17 18 18 19 19 20 20 21 21 22 22 23 23
REMARK SMILES IDX 24 24
REMARK H PARENT
REMARK Flexibility Score: inf
ROOT
ATOM      1  C   UNL     1      15.375 -34.004  22.752  1.00  0.00     0.000 C 
ENDROOT
BRANCH   1   2
ATOM      2  C   UNL     1      15.044 -33.128  23.972  1.00  0.00     0.000 C 
BRANCH   2   3
ATOM      3  C   UNL     1      13.728 -32.355  23.793  1.00  0.00     0.000 C 
BRANCH   3   4
ATOM      4  C   UNL     1      13.919 -30.832  23.906  1.00  0.00    -0.000 C 
BRANCH   4   5
ATOM      5  C   UNL     1      13.610 -30.102  22.589  1.00  0.00    -0.000 C 
BRANCH   5   6
ATOM      6  C   UNL     1      14.878 -29.566  21.902  1.00  0.00    -0.000 C 
BRANCH   6   7
ATOM      7  C   UNL     1      16.155 -29.808  22.739  1.00  0.00    -0.000 C 
BRANCH   7   8
ATOM      8  C   UNL     1      17.404 -30.107  21.889  1.00  0.00    -0.000 C 
BRANCH   8   9
ATOM      9  C   UNL     1      18.020 -31.493  22.140  1.00  0.00    -0.000 C 
BRANCH   9  10
ATOM     10  C   UNL     1      18.949 -31.967  20.999  1.00  0.00    -0.000 C 
BRANCH  10  11
ATOM     11  C   UNL     1      20.435 -31.821  21.352  1.00  0.00    -0.003 C 
ATOM     12  C   UNL     1      20.959 -30.442  20.964  1.00  0.00     0.004 C 
ENDBRANCH  10  11
ENDBRANCH   9  10
ENDBRANCH   8   9
ENDBRANCH   7   8
ENDBRANCH   6   7
ENDBRANCH   5   6
ENDBRANCH   4   5
ENDBRANCH   3   4
ENDBRANCH   2   3
ENDBRANCH   1   2
BRANCH   1  13
ATOM     13  C   UNL     1      14.964 -33.351  21.420  1.00  0.00     0.000 C 
BRANCH  13  14
ATOM     14  C   UNL     1      15.148 -34.275  20.197  1.00  0.00     0.000 C 
BRANCH  14  15
ATOM     15  C   UNL     1      16.608 -34.736  20.037  1.00  0.00     0.000 C 
BRANCH  15  16
ATOM     16  C   UNL     1      16.720 -36.203  19.594  1.00  0.00     0.000 C 
BRANCH  16  17
ATOM     17  C   UNL     1      17.713 -37.005  20.454  1.00  0.00     0.000 C 
BRANCH  17  18
ATOM     18  C   UNL     1      18.411 -36.124  21.512  1.00  0.00     0.000 C 
BRANCH  18  19
ATOM     19  C   UNL     1      19.075 -36.926  22.643  1.00  0.00     0.000 C 
BRANCH  19  20
ATOM     20  C   UNL     1      19.631 -36.036  23.763  1.00  0.00     0.006 C 
BRANCH  20  21
ATOM     21  C   UNL     1      18.888 -34.697  23.819  1.00  0.00     0.053 C 
BRANCH  21  22
ATOM     22  C   UNL     1      18.289 -34.453  25.173  1.00  0.00     0.041 C 
ATOM     23  O   UNL     1      17.499 -35.298  25.671  1.00  0.00    -0.550 OA
ATOM     24  O   UNL     1      18.667 -33.346  25.923  1.00  0.00    -0.550 OA
ENDBRANCH  21  22
ENDBRANCH  20  21
ENDBRANCH  19  20
ENDBRANCH  18  19
ENDBRANCH  17  18
ENDBRANCH  16  17
ENDBRANCH  15  16
ENDBRANCH  14  15
ENDBRANCH  13  14
ENDBRANCH   1  13
TORSDOF 20
ENDMDL
MODEL 8
REMARK VINA RESULT:    -4.887      2.385      4.806
REMARK INTER + INTRA:         -13.346
REMARK INTER:                  -9.792
REMARK INTRA:                  -3.554
REMARK UNBOUND:                -2.745
REMARK SMILES CCCCCCCCCCCCCCCCCCCCCC(=O)[O-]
REMARK SMILES IDX 12 1 11 2 10 3 9 4 8 5 7 6 6 7 5 8 4 9 3 10 2 11 1 12 13 13
REMARK SMILES IDX 14 14 15 15 16 16 17 17 18 18 19 19 20 20 21 21 22 22 23 23
REMARK SMILES IDX 24 24
REMARK H PARENT
REMARK Flexibility Score: inf
ROOT
ATOM      1  C   UNL     1      13.630 -31.322  21.338  1.00  0.00     0.000 C 
ENDROOT
BRANCH   1   2
ATOM      2  C   UNL     1      13.972 -30.866  22.766  1.00  0.00     0.000 C 
BRANCH   2   3
ATOM      3  C   UNL     1      14.824 -29.586  22.781  1.00  0.00     0.000 C 
BRANCH   3   4
ATOM      4  C   UNL     1      16.312 -29.865  22.504  1.00  0.00    -0.000 C 
BRANCH   4   5
ATOM      5  C   UNL     1      16.919 -30.861  23.506  1.00  0.00    -0.000 C 
BRANCH   5   6
ATOM      6  C   UNL     1      18.208 -31.515  22.978  1.00  0.00    -0.000 C 
BRANCH   6   7
ATOM      7  C   UNL     1      18.491 -31.162  21.500  1.00  0.00    -0.000 C 
BRANCH   7   8
ATOM      8  C   UNL     1      19.746 -31.849  20.930  1.00  0.00    -0.000 C 
BRANCH   8   9
ATOM      9  C   UNL     1      20.950 -30.910  20.747  1.00  0.00    -0.000 C 
BRANCH   9  10
ATOM     10  C   UNL     1      20.905 -29.668  21.666  1.00  0.00    -0.000 C 
BRANCH  10  11
ATOM     11  C   UNL     1      21.160 -28.363  20.900  1.00  0.00    -0.003 C 
ATOM     12  C   UNL     1      19.852 -27.642  20.588  1.00  0.00     0.004 C 
ENDBRANCH  10  11
ENDBRANCH   9  10
ENDBRANCH   8   9
ENDBRANCH   7   8
ENDBRANCH   6   7
ENDBRANCH   5   6
ENDBRANCH   4   5
ENDBRANCH   3   4
ENDBRANCH   2   3
ENDBRANCH   1   2
BRANCH   1  13
ATOM     13  C   UNL     1      14.253 -32.682  20.981  1.00  0.00     0.000 C 
BRANCH  13  14
ATOM     14  C   UNL     1      14.847 -33.427  22.195  1.00  0.00     0.000 C 
BRANCH  14  15
ATOM     15  C   UNL     1      15.899 -34.470  21.775  1.00  0.00     0.000 C 
BRANCH  15  16
ATOM     16  C   UNL     1      16.557 -34.136  20.427  1.00  0.00     0.000 C 
BRANCH  16  17
ATOM     17  C   UNL     1      17.852 -34.932  20.188  1.00  0.00     0.000 C 
BRANCH  17  18
ATOM     18  C   UNL     1      18.281 -35.733  21.436  1.00  0.00     0.000 C 
BRANCH  18  19
ATOM     19  C   UNL     1      19.491 -35.132  22.170  1.00  0.00     0.000 C 
BRANCH  19  20
ATOM     20  C   UNL     1      19.346 -35.171  23.697  1.00  0.00     0.006 C 
BRANCH  20  21
ATOM     21  C   UNL     1      18.253 -36.158  24.120  1.00  0.00     0.053 C 
BRANCH  21  22
ATOM     22  C   UNL     1      17.330 -35.558  25.140  1.00  0.00     0.041 C 
ATOM     23  O   UNL     1      16.855 -36.278  26.057  1.00  0.00    -0.550 OA
ATOM     24  O   UNL     1      17.064 -34.194  25.135  1.00  0.00    -0.550 OA
ENDBRANCH  21  22
ENDBRANCH  20  21
ENDBRANCH  19  20
ENDBRANCH  18  19
ENDBRANCH  17  18
ENDBRANCH  16  17
ENDBRANCH  15  16
ENDBRANCH  14  15
ENDBRANCH  13  14
ENDBRANCH   1  13
TORSDOF 20
ENDMDL
MODEL 9
REMARK VINA RESULT:    -4.885      3.343      7.992
REMARK INTER + INTRA:         -13.341
REMARK INTER:                  -9.926
REMARK INTRA:                  -3.415
REMARK UNBOUND:                -2.745
REMARK SMILES CCCCCCCCCCCCCCCCCCCCCC(=O)[O-]
REMARK SMILES IDX 12 1 11 2 10 3 9 4 8 5 7 6 6 7 5 8 4 9 3 10 2 11 1 12 13 13
REMARK SMILES IDX 14 14 15 15 16 16 17 17 18 18 19 19 20 20 21 21 22 22 23 23
REMARK SMILES IDX 24 24
REMARK H PARENT
REMARK Flexibility Score: inf
ROOT
ATOM      1  C   UNL     1      14.695 -30.901  21.370  1.00  0.00     0.000 C 
ENDROOT
BRANCH   1   2
ATOM      2  C   UNL     1      13.483 -31.296  22.229  1.00  0.00     0.000 C 
BRANCH   2   3
ATOM      3  C   UNL     1      13.839 -31.415  23.720  1.00  0.00     0.000 C 
BRANCH   3   4
ATOM      4  C   UNL     1      14.209 -32.852  24.125  1.00  0.00    -0.000 C 
BRANCH   4   5
ATOM      5  C   UNL     1      15.729 -33.073  24.184  1.00  0.00    -0.000 C 
BRANCH   5   6
ATOM      6  C   UNL     1      16.166 -34.356  23.455  1.00  0.00    -0.000 C 
BRANCH   6   7
ATOM      7  C   UNL     1      17.658 -34.689  23.682  1.00  0.00    -0.000 C 
BRANCH   7   8
ATOM      8  C   UNL     1      18.295 -35.488  22.529  1.00  0.00    -0.000 C 
BRANCH   8   9
ATOM      9  C   UNL     1      17.350 -35.747  21.344  1.00  0.00    -0.000 C 
BRANCH   9  10
ATOM     10  C   UNL     1      17.903 -35.233  19.995  1.00  0.00    -0.000 C 
BRANCH  10  11
ATOM     11  C   UNL     1      16.842 -34.492  19.170  1.00  0.00    -0.003 C 
ATOM     12  C   UNL     1      15.528 -34.381  19.936  1.00  0.00     0.004 C 
ENDBRANCH  10  11
ENDBRANCH   9  10
ENDBRANCH   8   9
ENDBRANCH   7   8
ENDBRANCH   6   7
ENDBRANCH   5   6
ENDBRANCH   4   5
ENDBRANCH   3   4
ENDBRANCH   2   3
ENDBRANCH   1   2
BRANCH   1  13
ATOM     13  C   UNL     1      15.582 -29.838  22.042  1.00  0.00     0.000 C 
BRANCH  13  14
ATOM     14  C   UNL     1      17.094 -30.101  21.877  1.00  0.00     0.000 C 
BRANCH  14  15
ATOM     15  C   UNL     1      17.375 -31.484  21.263  1.00  0.00     0.000 C 
BRANCH  15  16
ATOM     16  C   UNL     1      18.834 -31.930  21.452  1.00  0.00     0.000 C 
BRANCH  16  17
ATOM     17  C   UNL     1      19.551 -31.147  22.566  1.00  0.00     0.000 C 
BRANCH  17  18
ATOM     18  C   UNL     1      20.961 -30.686  22.139  1.00  0.00     0.000 C 
BRANCH  18  19
ATOM     19  C   UNL     1      20.982 -29.907  20.814  1.00  0.00     0.000 C 
BRANCH  19  20
ATOM     20  C   UNL     1      20.660 -28.417  20.989  1.00  0.00     0.006 C 
BRANCH  20  21
ATOM     21  C   UNL     1      21.919 -27.560  20.820  1.00  0.00     0.053 C 
BRANCH  21  22
ATOM     22  C   UNL     1      22.541 -27.222  22.143  1.00  0.00     0.041 C 
ATOM     23  O   UNL     1      22.057 -26.296  22.845  1.00  0.00    -0.550 OA
ATOM     24  O   UNL     1      23.592 -27.982  22.642  1.00  0.00    -0.550 OA
ENDBRANCH  21  22
ENDBRANCH  20  21
ENDBRANCH  19  20
ENDBRANCH  18  19
ENDBRANCH  17  18
ENDBRANCH  16  17
ENDBRANCH  15  16
ENDBRANCH  14  15
ENDBRANCH  13  14
ENDBRANCH   1  13
TORSDOF 20
ENDMDL
