MODEL 1
REMARK VINA RESULT:    -7.250      0.000      0.000
REMARK INTER + INTRA:          -9.038
REMARK INTER:                  -8.733
REMARK INTRA:                  -0.305
REMARK UNBOUND:                -0.305
REMARK SMILES O=c1c(O)c(-c2ccc(O)c(O)c2)oc2cc(O)cc(O)c12
REMARK SMILES IDX 5 1 3 2 2 3 1 4 22 5 20 6 19 7 17 8 16 9 15 10 14 11 6 12
REMARK SMILES IDX 7 13 8 14 9 15 13 16 11 17 10 18 12 20 4 22 21 24 18 26
REMARK H PARENT 10 19 12 21 4 23 21 25 18 27
REMARK Flexibility Score: inf
ROOT
ATOM      1  C   UNL     1     -37.866   4.836  79.563  1.00  0.00     0.180 A 
ATOM      2  C   UNL     1     -38.402   4.877  80.865  1.00  0.00     0.208 A 
ATOM      3  C   UNL     1     -39.707   4.407  81.076  1.00  0.00     0.238 A 
ATOM      4  O   UNL     1     -40.203   4.449  82.235  1.00  0.00    -0.285 OA
ATOM      5  C   UNL     1     -40.444   3.887  79.992  1.00  0.00     0.111 A 
ATOM      6  C   UNL     1     -41.763   3.389  80.120  1.00  0.00     0.134 A 
ATOM      7  C   UNL     1     -42.427   2.879  78.994  1.00  0.00     0.093 A 
ATOM      8  C   UNL     1     -41.799   2.856  77.746  1.00  0.00     0.123 A 
ATOM      9  C   UNL     1     -40.496   3.347  77.613  1.00  0.00     0.094 A 
ATOM     10  C   UNL     1     -39.818   3.860  78.723  1.00  0.00     0.146 A 
ATOM     11  O   UNL     1     -38.584   4.326  78.569  1.00  0.00    -0.452 OA
ENDROOT
BRANCH   1  12
ATOM     12  C   UNL     1     -36.504   5.332  79.258  1.00  0.00     0.025 A 
ATOM     13  C   UNL     1     -35.399   4.493  79.474  1.00  0.00     0.016 A 
ATOM     14  C   UNL     1     -34.108   4.932  79.174  1.00  0.00     0.051 A 
ATOM     15  C   UNL     1     -33.900   6.208  78.640  1.00  0.00     0.157 A 
ATOM     16  C   UNL     1     -36.296   6.607  78.701  1.00  0.00     0.062 A 
ATOM     17  C   UNL     1     -34.999   7.048  78.397  1.00  0.00     0.158 A 
BRANCH  15  18
ATOM     18  O   UNL     1     -32.599   6.618  78.352  1.00  0.00    -0.504 OA
ATOM     19  H   UNL     1     -32.323   7.592  78.386  1.00  0.00     0.293 HD
ENDBRANCH  15  18
BRANCH  17  20
ATOM     20  O   UNL     1     -34.801   8.315  77.851  1.00  0.00    -0.504 OA
ATOM     21  H   UNL     1     -34.946   9.158  78.396  1.00  0.00     0.293 HD
ENDBRANCH  17  20
ENDBRANCH   1  12
BRANCH   2  22
ATOM     22  O   UNL     1     -37.634   5.352  81.931  1.00  0.00    -0.502 OA
ATOM     23  H   UNL     1     -36.664   5.091  82.060  1.00  0.00     0.293 HD
ENDBRANCH   2  22
BRANCH   6  24
ATOM     24  O   UNL     1     -42.417   3.397  81.352  1.00  0.00    -0.507 OA
ATOM     25  H   UNL     1     -43.163   2.744  81.563  1.00  0.00     0.293 HD
ENDBRANCH   6  24
BRANCH   8  26
ATOM     26  O   UNL     1     -42.479   2.343  76.644  1.00  0.00    -0.508 OA
ATOM     27  H   UNL     1     -43.440   2.599  76.447  1.00  0.00     0.293 HD
ENDBRANCH   8  26
TORSDOF 6
ENDMDL
MODEL 2
REMARK VINA RESULT:    -6.561      1.557      7.004
REMARK INTER + INTRA:          -8.208
REMARK INTER:                  -7.949
REMARK INTRA:                  -0.259
REMARK UNBOUND:                -0.305
REMARK SMILES O=c1c(O)c(-c2ccc(O)c(O)c2)oc2cc(O)cc(O)c12
REMARK SMILES IDX 5 1 3 2 2 3 1 4 22 5 20 6 19 7 17 8 16 9 15 10 14 11 6 12
REMARK SMILES IDX 7 13 8 14 9 15 13 16 11 17 10 18 12 20 4 22 21 24 18 26
REMARK H PARENT 10 19 12 21 4 23 21 25 18 27
REMARK Flexibility Score: inf
ROOT
ATOM      1  C   UNL     1     -37.660   5.180  78.809  1.00  0.00     0.180 A 
ATOM      2  C   UNL     1     -36.492   4.536  79.262  1.00  0.00     0.208 A 
ATOM      3  C   UNL     1     -35.249   5.146  79.032  1.00  0.00     0.238 A 
ATOM      4  O   UNL     1     -34.195   4.573  79.423  1.00  0.00    -0.285 OA
ATOM      5  C   UNL     1     -35.195   6.392  78.375  1.00  0.00     0.111 A 
ATOM      6  C   UNL     1     -33.984   7.075  78.108  1.00  0.00     0.134 A 
ATOM      7  C   UNL     1     -34.015   8.318  77.458  1.00  0.00     0.093 A 
ATOM      8  C   UNL     1     -35.229   8.890  77.070  1.00  0.00     0.123 A 
ATOM      9  C   UNL     1     -36.429   8.219  77.330  1.00  0.00     0.094 A 
ATOM     10  C   UNL     1     -36.419   6.980  77.977  1.00  0.00     0.146 A 
ATOM     11  O   UNL     1     -37.572   6.361  78.207  1.00  0.00    -0.452 OA
ENDROOT
BRANCH   1  12
ATOM     12  C   UNL     1     -39.005   4.591  78.997  1.00  0.00     0.025 A 
ATOM     13  C   UNL     1     -39.612   4.642  80.262  1.00  0.00     0.016 A 
ATOM     14  C   UNL     1     -40.888   4.112  80.457  1.00  0.00     0.051 A 
ATOM     15  C   UNL     1     -41.586   3.536  79.391  1.00  0.00     0.157 A 
ATOM     16  C   UNL     1     -39.717   4.030  77.920  1.00  0.00     0.062 A 
ATOM     17  C   UNL     1     -41.000   3.498  78.115  1.00  0.00     0.158 A 
BRANCH  15  18
ATOM     18  O   UNL     1     -42.859   3.013  79.617  1.00  0.00    -0.504 OA
ATOM     19  H   UNL     1     -43.012   2.026  79.785  1.00  0.00     0.293 HD
ENDBRANCH  15  18
BRANCH  17  20
ATOM     20  O   UNL     1     -41.696   2.940  77.044  1.00  0.00    -0.504 OA
ATOM     21  H   UNL     1     -42.154   3.517  76.348  1.00  0.00     0.293 HD
ENDBRANCH  17  20
ENDBRANCH   1  12
BRANCH   2  22
ATOM     22  O   UNL     1     -36.576   3.325  79.953  1.00  0.00    -0.502 OA
ATOM     23  H   UNL     1     -35.821   2.976  80.532  1.00  0.00     0.293 HD
ENDBRANCH   2  22
BRANCH   6  24
ATOM     24  O   UNL     1     -32.755   6.531  78.484  1.00  0.00    -0.507 OA
ATOM     25  H   UNL     1     -32.114   6.142  77.802  1.00  0.00     0.293 HD
ENDBRANCH   6  24
BRANCH   8  26
ATOM     26  O   UNL     1     -35.232  10.125  76.426  1.00  0.00    -0.508 OA
ATOM     27  H   UNL     1     -34.791  10.253  75.523  1.00  0.00     0.293 HD
ENDBRANCH   8  26
TORSDOF 6
ENDMDL
MODEL 3
REMARK VINA RESULT:    -6.515      1.397      6.800
REMARK INTER + INTRA:          -8.152
REMARK INTER:                  -8.214
REMARK INTRA:                   0.061
REMARK UNBOUND:                -0.305
REMARK SMILES O=c1c(O)c(-c2ccc(O)c(O)c2)oc2cc(O)cc(O)c12
REMARK SMILES IDX 5 1 3 2 2 3 1 4 22 5 20 6 19 7 17 8 16 9 15 10 14 11 6 12
REMARK SMILES IDX 7 13 8 14 9 15 13 16 11 17 10 18 12 20 4 22 21 24 18 26
REMARK H PARENT 10 19 12 21 4 23 21 25 18 27
REMARK Flexibility Score: inf
ROOT
ATOM      1  C   UNL     1     -38.178   4.187  79.391  1.00  0.00     0.180 A 
ATOM      2  C   UNL     1     -37.514   3.690  80.530  1.00  0.00     0.208 A 
ATOM      3  C   UNL     1     -36.187   4.080  80.765  1.00  0.00     0.238 A 
ATOM      4  O   UNL     1     -35.578   3.633  81.775  1.00  0.00    -0.285 OA
ATOM      5  C   UNL     1     -35.554   4.971  79.874  1.00  0.00     0.111 A 
ATOM      6  C   UNL     1     -34.221   5.416  80.041  1.00  0.00     0.134 A 
ATOM      7  C   UNL     1     -33.665   6.312  79.116  1.00  0.00     0.093 A 
ATOM      8  C   UNL     1     -34.414   6.771  78.029  1.00  0.00     0.123 A 
ATOM      9  C   UNL     1     -35.732   6.334  77.858  1.00  0.00     0.094 A 
ATOM     10  C   UNL     1     -36.303   5.441  78.769  1.00  0.00     0.146 A 
ATOM     11  O   UNL     1     -37.555   5.037  78.581  1.00  0.00    -0.452 OA
ENDROOT
BRANCH   1  12
ATOM     12  C   UNL     1     -39.571   3.807  79.064  1.00  0.00     0.025 A 
ATOM     13  C   UNL     1     -39.883   3.375  77.766  1.00  0.00     0.016 A 
ATOM     14  C   UNL     1     -41.186   2.992  77.441  1.00  0.00     0.051 A 
ATOM     15  C   UNL     1     -42.195   3.020  78.410  1.00  0.00     0.157 A 
ATOM     16  C   UNL     1     -40.582   3.815  80.044  1.00  0.00     0.062 A 
ATOM     17  C   UNL     1     -41.891   3.429  79.719  1.00  0.00     0.158 A 
BRANCH  15  18
ATOM     18  O   UNL     1     -43.486   2.634  78.056  1.00  0.00    -0.504 OA
ATOM     19  H   UNL     1     -44.183   3.303  77.752  1.00  0.00     0.293 HD
ENDBRANCH  15  18
BRANCH  17  20
ATOM     20  O   UNL     1     -42.887   3.445  80.694  1.00  0.00    -0.504 OA
ATOM     21  H   UNL     1     -43.159   2.604  81.190  1.00  0.00     0.293 HD
ENDBRANCH  17  20
ENDBRANCH   1  12
BRANCH   2  22
ATOM     22  O   UNL     1     -38.179   2.846  81.423  1.00  0.00    -0.502 OA
ATOM     23  H   UNL     1     -39.042   3.114  81.881  1.00  0.00     0.293 HD
ENDBRANCH   2  22
BRANCH   6  24
ATOM     24  O   UNL     1     -33.446   4.978  81.116  1.00  0.00    -0.507 OA
ATOM     25  H   UNL     1     -33.192   4.003  81.227  1.00  0.00     0.293 HD
ENDBRANCH   6  24
BRANCH   8  26
ATOM     26  O   UNL     1     -33.839   7.661  77.125  1.00  0.00    -0.508 OA
ATOM     27  H   UNL     1     -34.233   8.580  76.962  1.00  0.00     0.293 HD
ENDBRANCH   8  26
TORSDOF 6
ENDMDL
MODEL 4
REMARK VINA RESULT:    -6.438      1.928      7.264
REMARK INTER + INTRA:          -8.059
REMARK INTER:                  -7.729
REMARK INTRA:                  -0.330
REMARK UNBOUND:                -0.305
REMARK SMILES O=c1c(O)c(-c2ccc(O)c(O)c2)oc2cc(O)cc(O)c12
REMARK SMILES IDX 5 1 3 2 2 3 1 4 22 5 20 6 19 7 17 8 16 9 15 10 14 11 6 12
REMARK SMILES IDX 7 13 8 14 9 15 13 16 11 17 10 18 12 20 4 22 21 24 18 26
REMARK H PARENT 10 19 12 21 4 23 21 25 18 27
REMARK Flexibility Score: inf
ROOT
ATOM      1  C   UNL     1     -38.381   6.195  78.185  1.00  0.00     0.180 A 
ATOM      2  C   UNL     1     -38.704   7.444  77.620  1.00  0.00     0.208 A 
ATOM      3  C   UNL     1     -37.670   8.353  77.349  1.00  0.00     0.238 A 
ATOM      4  O   UNL     1     -37.948   9.480  76.854  1.00  0.00    -0.285 OA
ATOM      5  C   UNL     1     -36.336   7.993  77.626  1.00  0.00     0.111 A 
ATOM      6  C   UNL     1     -35.235   8.850  77.379  1.00  0.00     0.134 A 
ATOM      7  C   UNL     1     -33.935   8.414  77.673  1.00  0.00     0.093 A 
ATOM      8  C   UNL     1     -33.712   7.143  78.208  1.00  0.00     0.123 A 
ATOM      9  C   UNL     1     -34.795   6.293  78.455  1.00  0.00     0.094 A 
ATOM     10  C   UNL     1     -36.099   6.709  78.170  1.00  0.00     0.146 A 
ATOM     11  O   UNL     1     -37.110   5.884  78.419  1.00  0.00    -0.452 OA
ENDROOT
BRANCH   1  12
ATOM     12  C   UNL     1     -39.417   5.190  78.517  1.00  0.00     0.025 A 
ATOM     13  C   UNL     1     -39.780   4.230  77.560  1.00  0.00     0.016 A 
ATOM     14  C   UNL     1     -40.740   3.261  77.858  1.00  0.00     0.051 A 
ATOM     15  C   UNL     1     -41.341   3.224  79.121  1.00  0.00     0.157 A 
ATOM     16  C   UNL     1     -40.007   5.140  79.794  1.00  0.00     0.062 A 
ATOM     17  C   UNL     1     -40.969   4.165  80.095  1.00  0.00     0.158 A 
BRANCH  15  18
ATOM     18  O   UNL     1     -42.297   2.246  79.389  1.00  0.00    -0.504 OA
ATOM     19  H   UNL     1     -42.372   1.802  80.296  1.00  0.00     0.293 HD
ENDBRANCH  15  18
BRANCH  17  20
ATOM     20  O   UNL     1     -41.552   4.126  81.361  1.00  0.00    -0.504 OA
ATOM     21  H   UNL     1     -41.211   3.504  82.084  1.00  0.00     0.293 HD
ENDBRANCH  17  20
ENDBRANCH   1  12
BRANCH   2  22
ATOM     22  O   UNL     1     -40.030   7.757  77.310  1.00  0.00    -0.502 OA
ATOM     23  H   UNL     1     -40.275   8.483  76.649  1.00  0.00     0.293 HD
ENDBRANCH   2  22
BRANCH   6  24
ATOM     24  O   UNL     1     -35.424  10.125  76.844  1.00  0.00    -0.507 OA
ATOM     25  H   UNL     1     -35.929  10.845  77.348  1.00  0.00     0.293 HD
ENDBRANCH   6  24
BRANCH   8  26
ATOM     26  O   UNL     1     -32.411   6.734  78.491  1.00  0.00    -0.508 OA
ATOM     27  H   UNL     1     -32.006   6.853  79.412  1.00  0.00     0.293 HD
ENDBRANCH   8  26
TORSDOF 6
ENDMDL
MODEL 5
REMARK VINA RESULT:    -6.365     10.164     11.830
REMARK INTER + INTRA:          -7.972
REMARK INTER:                  -7.669
REMARK INTRA:                  -0.303
REMARK UNBOUND:                -0.305
REMARK SMILES O=c1c(O)c(-c2ccc(O)c(O)c2)oc2cc(O)cc(O)c12
REMARK SMILES IDX 5 1 3 2 2 3 1 4 22 5 20 6 19 7 17 8 16 9 15 10 14 11 6 12
REMARK SMILES IDX 7 13 8 14 9 15 13 16 11 17 10 18 12 20 4 22 21 24 18 26
REMARK H PARENT 10 19 12 21 4 23 21 25 18 27
REMARK Flexibility Score: inf
ROOT
ATOM      1  C   UNL     1     -46.383   2.258  73.436  1.00  0.00     0.180 A 
ATOM      2  C   UNL     1     -47.005   3.121  74.359  1.00  0.00     0.208 A 
ATOM      3  C   UNL     1     -47.217   4.460  73.999  1.00  0.00     0.238 A 
ATOM      4  O   UNL     1     -47.762   5.246  74.821  1.00  0.00    -0.285 OA
ATOM      5  C   UNL     1     -46.824   4.908  72.721  1.00  0.00     0.111 A 
ATOM      6  C   UNL     1     -47.004   6.241  72.279  1.00  0.00     0.134 A 
ATOM      7  C   UNL     1     -46.595   6.607  70.988  1.00  0.00     0.093 A 
ATOM      8  C   UNL     1     -46.010   5.670  70.133  1.00  0.00     0.123 A 
ATOM      9  C   UNL     1     -45.828   4.352  70.565  1.00  0.00     0.094 A 
ATOM     10  C   UNL     1     -46.228   3.968  71.848  1.00  0.00     0.146 A 
ATOM     11  O   UNL     1     -46.040   2.712  72.235  1.00  0.00    -0.452 OA
ENDROOT
BRANCH   1  12
ATOM     12  C   UNL     1     -46.109   0.837  73.750  1.00  0.00     0.025 A 
ATOM     13  C   UNL     1     -44.842   0.467  74.228  1.00  0.00     0.016 A 
ATOM     14  C   UNL     1     -44.567  -0.864  74.549  1.00  0.00     0.051 A 
ATOM     15  C   UNL     1     -45.557  -1.843  74.414  1.00  0.00     0.157 A 
ATOM     16  C   UNL     1     -47.109  -0.146  73.634  1.00  0.00     0.062 A 
ATOM     17  C   UNL     1     -46.835  -1.483  73.958  1.00  0.00     0.158 A 
BRANCH  15  18
ATOM     18  O   UNL     1     -45.252  -3.164  74.741  1.00  0.00    -0.504 OA
ATOM     19  H   UNL     1     -44.585  -3.709  74.209  1.00  0.00     0.293 HD
ENDBRANCH  15  18
BRANCH  17  20
ATOM     20  O   UNL     1     -47.830  -2.451  73.835  1.00  0.00    -0.504 OA
ATOM     21  H   UNL     1     -47.676  -3.411  74.121  1.00  0.00     0.293 HD
ENDBRANCH  17  20
ENDBRANCH   1  12
BRANCH   2  22
ATOM     22  O   UNL     1     -47.430   2.640  75.601  1.00  0.00    -0.502 OA
ATOM     23  H   UNL     1     -48.315   2.165  75.725  1.00  0.00     0.293 HD
ENDBRANCH   2  22
BRANCH   6  24
ATOM     24  O   UNL     1     -47.586   7.201  73.108  1.00  0.00    -0.507 OA
ATOM     25  H   UNL     1     -47.678   7.056  74.107  1.00  0.00     0.293 HD
ENDBRANCH   6  24
BRANCH   8  26
ATOM     26  O   UNL     1     -45.612   6.059  68.855  1.00  0.00    -0.508 OA
ATOM     27  H   UNL     1     -46.271   6.442  68.188  1.00  0.00     0.293 HD
ENDBRANCH   8  26
TORSDOF 6
ENDMDL
MODEL 6
REMARK VINA RESULT:    -6.334      1.682      7.068
REMARK INTER + INTRA:          -7.934
REMARK INTER:                  -7.909
REMARK INTRA:                  -0.026
REMARK UNBOUND:                -0.305
REMARK SMILES O=c1c(O)c(-c2ccc(O)c(O)c2)oc2cc(O)cc(O)c12
REMARK SMILES IDX 5 1 3 2 2 3 1 4 22 5 20 6 19 7 17 8 16 9 15 10 14 11 6 12
REMARK SMILES IDX 7 13 8 14 9 15 13 16 11 17 10 18 12 20 4 22 21 24 18 26
REMARK H PARENT 10 19 12 21 4 23 21 25 18 27
REMARK Flexibility Score: inf
ROOT
ATOM      1  C   UNL     1     -38.314   4.479  79.160  1.00  0.00     0.180 A 
ATOM      2  C   UNL     1     -37.721   5.464  78.347  1.00  0.00     0.208 A 
ATOM      3  C   UNL     1     -36.420   5.897  78.645  1.00  0.00     0.238 A 
ATOM      4  O   UNL     1     -35.883   6.788  77.931  1.00  0.00    -0.285 OA
ATOM      5  C   UNL     1     -35.728   5.326  79.733  1.00  0.00     0.111 A 
ATOM      6  C   UNL     1     -34.413   5.704  80.098  1.00  0.00     0.134 A 
ATOM      7  C   UNL     1     -33.788   5.081  81.189  1.00  0.00     0.093 A 
ATOM      8  C   UNL     1     -34.450   4.091  81.921  1.00  0.00     0.123 A 
ATOM      9  C   UNL     1     -35.750   3.715  81.565  1.00  0.00     0.094 A 
ATOM     10  C   UNL     1     -36.390   4.324  80.482  1.00  0.00     0.146 A 
ATOM     11  O   UNL     1     -37.626   3.953  80.168  1.00  0.00    -0.452 OA
ENDROOT
BRANCH   1  12
ATOM     12  C   UNL     1     -39.689   3.984  78.921  1.00  0.00     0.025 A 
ATOM     13  C   UNL     1     -40.028   3.467  77.661  1.00  0.00     0.016 A 
ATOM     14  C   UNL     1     -41.313   2.977  77.419  1.00  0.00     0.051 A 
ATOM     15  C   UNL     1     -42.274   2.981  78.435  1.00  0.00     0.157 A 
ATOM     16  C   UNL     1     -40.651   3.969  79.948  1.00  0.00     0.062 A 
ATOM     17  C   UNL     1     -41.941   3.475  79.707  1.00  0.00     0.158 A 
BRANCH  15  18
ATOM     18  O   UNL     1     -43.549   2.486  78.163  1.00  0.00    -0.504 OA
ATOM     19  H   UNL     1     -44.383   3.041  78.308  1.00  0.00     0.293 HD
ENDBRANCH  15  18
BRANCH  17  20
ATOM     20  O   UNL     1     -42.890   3.467  80.728  1.00  0.00    -0.504 OA
ATOM     21  H   UNL     1     -42.946   2.707  81.396  1.00  0.00     0.293 HD
ENDBRANCH  17  20
ENDBRANCH   1  12
BRANCH   2  22
ATOM     22  O   UNL     1     -38.410   5.979  77.245  1.00  0.00    -0.502 OA
ATOM     23  H   UNL     1     -39.246   5.544  76.877  1.00  0.00     0.293 HD
ENDBRANCH   2  22
BRANCH   6  24
ATOM     24  O   UNL     1     -33.725   6.688  79.388  1.00  0.00    -0.507 OA
ATOM     25  H   UNL     1     -33.672   6.676  78.376  1.00  0.00     0.293 HD
ENDBRANCH   6  24
BRANCH   8  26
ATOM     26  O   UNL     1     -33.807   3.489  82.999  1.00  0.00    -0.508 OA
ATOM     27  H   UNL     1     -33.989   2.525  83.254  1.00  0.00     0.293 HD
ENDBRANCH   8  26
TORSDOF 6
ENDMDL
MODEL 7
REMARK VINA RESULT:    -6.137      8.962     11.112
REMARK INTER + INTRA:          -7.697
REMARK INTER:                  -7.372
REMARK INTRA:                  -0.325
REMARK UNBOUND:                -0.305
REMARK SMILES O=c1c(O)c(-c2ccc(O)c(O)c2)oc2cc(O)cc(O)c12
REMARK SMILES IDX 5 1 3 2 2 3 1 4 22 5 20 6 19 7 17 8 16 9 15 10 14 11 6 12
REMARK SMILES IDX 7 13 8 14 9 15 13 16 11 17 10 18 12 20 4 22 21 24 18 26
REMARK H PARENT 10 19 12 21 4 23 21 25 18 27
REMARK Flexibility Score: inf
ROOT
ATOM      1  C   UNL     1     -42.017  -4.875  81.904  1.00  0.00     0.180 A 
ATOM      2  C   UNL     1     -42.667  -5.789  82.756  1.00  0.00     0.208 A 
ATOM      3  C   UNL     1     -43.576  -6.703  82.203  1.00  0.00     0.238 A 
ATOM      4  O   UNL     1     -44.173  -7.520  82.957  1.00  0.00    -0.285 OA
ATOM      5  C   UNL     1     -43.806  -6.702  80.812  1.00  0.00     0.111 A 
ATOM      6  C   UNL     1     -44.704  -7.593  80.174  1.00  0.00     0.134 A 
ATOM      7  C   UNL     1     -44.870  -7.535  78.783  1.00  0.00     0.093 A 
ATOM      8  C   UNL     1     -44.159  -6.608  78.017  1.00  0.00     0.123 A 
ATOM      9  C   UNL     1     -43.271  -5.725  78.641  1.00  0.00     0.094 A 
ATOM     10  C   UNL     1     -43.092  -5.766  80.027  1.00  0.00     0.146 A 
ATOM     11  O   UNL     1     -42.248  -4.913  80.596  1.00  0.00    -0.452 OA
ENDROOT
BRANCH   1  12
ATOM     12  C   UNL     1     -41.059  -3.868  82.415  1.00  0.00     0.025 A 
ATOM     13  C   UNL     1     -41.536  -2.628  82.867  1.00  0.00     0.016 A 
ATOM     14  C   UNL     1     -40.653  -1.671  83.372  1.00  0.00     0.051 A 
ATOM     15  C   UNL     1     -39.283  -1.943  83.448  1.00  0.00     0.157 A 
ATOM     16  C   UNL     1     -39.684  -4.148  82.511  1.00  0.00     0.062 A 
ATOM     17  C   UNL     1     -38.796  -3.188  83.020  1.00  0.00     0.158 A 
BRANCH  15  18
ATOM     18  O   UNL     1     -38.426  -0.967  83.956  1.00  0.00    -0.504 OA
ATOM     19  H   UNL     1     -38.674   0.015  83.963  1.00  0.00     0.293 HD
ENDBRANCH  15  18
BRANCH  17  20
ATOM     20  O   UNL     1     -37.434  -3.472  83.107  1.00  0.00    -0.504 OA
ATOM     21  H   UNL     1     -36.758  -3.025  82.498  1.00  0.00     0.293 HD
ENDBRANCH  17  20
ENDBRANCH   1  12
BRANCH   2  22
ATOM     22  O   UNL     1     -42.385  -5.802  84.125  1.00  0.00    -0.502 OA
ATOM     23  H   UNL     1     -42.094  -4.972  84.627  1.00  0.00     0.293 HD
ENDBRANCH   2  22
BRANCH   6  24
ATOM     24  O   UNL     1     -45.428  -8.531  80.910  1.00  0.00    -0.507 OA
ATOM     25  H   UNL     1     -45.514  -8.467  81.918  1.00  0.00     0.293 HD
ENDBRANCH   6  24
BRANCH   8  26
ATOM     26  O   UNL     1     -44.341  -6.571  76.637  1.00  0.00    -0.508 OA
ATOM     27  H   UNL     1     -44.946  -5.885  76.200  1.00  0.00     0.293 HD
ENDBRANCH   8  26
TORSDOF 6
ENDMDL
MODEL 8
REMARK VINA RESULT:    -5.989      8.996     12.277
REMARK INTER + INTRA:          -7.519
REMARK INTER:                  -7.203
REMARK INTRA:                  -0.316
REMARK UNBOUND:                -0.305
REMARK SMILES O=c1c(O)c(-c2ccc(O)c(O)c2)oc2cc(O)cc(O)c12
REMARK SMILES IDX 5 1 3 2 2 3 1 4 22 5 20 6 19 7 17 8 16 9 15 10 14 11 6 12
REMARK SMILES IDX 7 13 8 14 9 15 13 16 11 17 10 18 12 20 4 22 21 24 18 26
REMARK H PARENT 10 19 12 21 4 23 21 25 18 27
REMARK Flexibility Score: inf
ROOT
ATOM      1  C   UNL     1     -41.350  -5.075  81.722  1.00  0.00     0.180 A 
ATOM      2  C   UNL     1     -41.633  -3.796  82.241  1.00  0.00     0.208 A 
ATOM      3  C   UNL     1     -40.604  -3.074  82.864  1.00  0.00     0.238 A 
ATOM      4  O   UNL     1     -40.848  -1.933  83.343  1.00  0.00    -0.285 OA
ATOM      5  C   UNL     1     -39.311  -3.629  82.941  1.00  0.00     0.111 A 
ATOM      6  C   UNL     1     -38.218  -2.966  83.549  1.00  0.00     0.134 A 
ATOM      7  C   UNL     1     -36.957  -3.582  83.577  1.00  0.00     0.093 A 
ATOM      8  C   UNL     1     -36.769  -4.845  83.010  1.00  0.00     0.123 A 
ATOM      9  C   UNL     1     -37.845  -5.506  82.408  1.00  0.00     0.094 A 
ATOM     10  C   UNL     1     -39.108  -4.909  82.371  1.00  0.00     0.146 A 
ATOM     11  O   UNL     1     -40.115  -5.560  81.799  1.00  0.00    -0.452 OA
ENDROOT
BRANCH   1  12
ATOM     12  C   UNL     1     -42.386  -5.905  81.067  1.00  0.00     0.025 A 
ATOM     13  C   UNL     1     -43.242  -6.690  81.856  1.00  0.00     0.016 A 
ATOM     14  C   UNL     1     -44.240  -7.465  81.261  1.00  0.00     0.051 A 
ATOM     15  C   UNL     1     -44.409  -7.458  79.873  1.00  0.00     0.157 A 
ATOM     16  C   UNL     1     -42.571  -5.883  79.672  1.00  0.00     0.062 A 
ATOM     17  C   UNL     1     -43.574  -6.659  79.074  1.00  0.00     0.158 A 
BRANCH  15  18
ATOM     18  O   UNL     1     -45.413  -8.243  79.308  1.00  0.00    -0.504 OA
ATOM     19  H   UNL     1     -46.170  -8.626  79.861  1.00  0.00     0.293 HD
ENDBRANCH  15  18
BRANCH  17  20
ATOM     20  O   UNL     1     -43.746  -6.635  77.691  1.00  0.00    -0.504 OA
ATOM     21  H   UNL     1     -44.615  -6.928  77.259  1.00  0.00     0.293 HD
ENDBRANCH  17  20
ENDBRANCH   1  12
BRANCH   2  22
ATOM     22  O   UNL     1     -42.911  -3.248  82.108  1.00  0.00    -0.502 OA
ATOM     23  H   UNL     1     -43.064  -2.293  81.808  1.00  0.00     0.293 HD
ENDBRANCH   2  22
BRANCH   6  24
ATOM     24  O   UNL     1     -38.373  -1.703  84.123  1.00  0.00    -0.507 OA
ATOM     25  H   UNL     1     -39.194  -1.135  83.947  1.00  0.00     0.293 HD
ENDBRANCH   6  24
BRANCH   8  26
ATOM     26  O   UNL     1     -35.507  -5.434  83.050  1.00  0.00    -0.508 OA
ATOM     27  H   UNL     1     -34.661  -4.878  83.035  1.00  0.00     0.293 HD
ENDBRANCH   8  26
TORSDOF 6
ENDMDL
MODEL 9
REMARK VINA RESULT:    -5.957     10.374     12.668
REMARK INTER + INTRA:          -7.481
REMARK INTER:                  -7.163
REMARK INTRA:                  -0.318
REMARK UNBOUND:                -0.305
REMARK SMILES O=c1c(O)c(-c2ccc(O)c(O)c2)oc2cc(O)cc(O)c12
REMARK SMILES IDX 5 1 3 2 2 3 1 4 22 5 20 6 19 7 17 8 16 9 15 10 14 11 6 12
REMARK SMILES IDX 7 13 8 14 9 15 13 16 11 17 10 18 12 20 4 22 21 24 18 26
REMARK H PARENT 10 19 12 21 4 23 21 25 18 27
REMARK Flexibility Score: inf
ROOT
ATOM      1  C   UNL     1     -46.680   4.069  72.050  1.00  0.00     0.180 A 
ATOM      2  C   UNL     1     -47.387   4.120  70.833  1.00  0.00     0.208 A 
ATOM      3  C   UNL     1     -47.484   5.345  70.156  1.00  0.00     0.238 A 
ATOM      4  O   UNL     1     -48.124   5.406  69.070  1.00  0.00    -0.285 OA
ATOM      5  C   UNL     1     -46.861   6.490  70.693  1.00  0.00     0.111 A 
ATOM      6  C   UNL     1     -46.908   7.761  70.072  1.00  0.00     0.134 A 
ATOM      7  C   UNL     1     -46.253   8.850  70.666  1.00  0.00     0.093 A 
ATOM      8  C   UNL     1     -45.553   8.694  71.865  1.00  0.00     0.123 A 
ATOM      9  C   UNL     1     -45.503   7.441  72.484  1.00  0.00     0.094 A 
ATOM     10  C   UNL     1     -46.151   6.343  71.908  1.00  0.00     0.146 A 
ATOM     11  O   UNL     1     -46.093   5.165  72.519  1.00  0.00    -0.452 OA
ENDROOT
BRANCH   1  12
ATOM     12  C   UNL     1     -46.550   2.819  72.832  1.00  0.00     0.025 A 
ATOM     13  C   UNL     1     -45.507   1.926  72.539  1.00  0.00     0.016 A 
ATOM     14  C   UNL     1     -45.352   0.751  73.277  1.00  0.00     0.051 A 
ATOM     15  C   UNL     1     -46.226   0.455  74.328  1.00  0.00     0.157 A 
ATOM     16  C   UNL     1     -47.415   2.530  73.904  1.00  0.00     0.062 A 
ATOM     17  C   UNL     1     -47.260   1.351  74.647  1.00  0.00     0.158 A 
BRANCH  15  18
ATOM     18  O   UNL     1     -46.047  -0.727  75.046  1.00  0.00    -0.504 OA
ATOM     19  H   UNL     1     -45.128  -1.110  75.230  1.00  0.00     0.293 HD
ENDBRANCH  15  18
BRANCH  17  20
ATOM     20  O   UNL     1     -48.125   1.070  75.703  1.00  0.00    -0.504 OA
ATOM     21  H   UNL     1     -47.939   1.397  76.644  1.00  0.00     0.293 HD
ENDBRANCH  17  20
ENDBRANCH   1  12
BRANCH   2  22
ATOM     22  O   UNL     1     -47.954   2.961  70.297  1.00  0.00    -0.502 OA
ATOM     23  H   UNL     1     -47.527   2.049  70.403  1.00  0.00     0.293 HD
ENDBRANCH   2  22
BRANCH   6  24
ATOM     24  O   UNL     1     -47.597   7.950  68.873  1.00  0.00    -0.507 OA
ATOM     25  H   UNL     1     -48.244   8.720  68.746  1.00  0.00     0.293 HD
ENDBRANCH   6  24
BRANCH   8  26
ATOM     26  O   UNL     1     -44.911   9.792  72.433  1.00  0.00    -0.508 OA
ATOM     27  H   UNL     1     -44.342  10.420  71.878  1.00  0.00     0.293 HD
ENDBRANCH   8  26
TORSDOF 6
ENDMDL
