MODEL 1
REMARK VINA RESULT:    -7.780      0.000      0.000
REMARK INTER + INTRA:          -9.671
REMARK INTER:                  -9.372
REMARK INTRA:                  -0.299
REMARK UNBOUND:                -0.299
REMARK SMILES O=c1c(O)c(-c2ccc(O)c(O)c2)oc2cc(O)cc(O)c12
REMARK SMILES IDX 5 1 3 2 2 3 1 4 22 5 20 6 19 7 17 8 16 9 15 10 14 11 6 12
REMARK SMILES IDX 7 13 8 14 9 15 13 16 11 17 10 18 12 20 4 22 21 24 18 26
REMARK H PARENT 10 19 12 21 4 23 21 25 18 27
REMARK Flexibility Score: inf
ROOT
ATOM      1  C   UNL     1      64.756 -16.154 -17.269  1.00  0.00     0.180 A 
ATOM      2  C   UNL     1      64.460 -15.466 -18.459  1.00  0.00     0.208 A 
ATOM      3  C   UNL     1      65.511 -15.124 -19.326  1.00  0.00     0.238 A 
ATOM      4  O   UNL     1      65.246 -14.443 -20.352  1.00  0.00    -0.285 OA
ATOM      5  C   UNL     1      66.834 -15.522 -19.023  1.00  0.00     0.111 A 
ATOM      6  C   UNL     1      67.969 -15.268 -19.852  1.00  0.00     0.134 A 
ATOM      7  C   UNL     1      69.247 -15.617 -19.398  1.00  0.00     0.093 A 
ATOM      8  C   UNL     1      69.426 -16.267 -18.175  1.00  0.00     0.123 A 
ATOM      9  C   UNL     1      68.320 -16.567 -17.384  1.00  0.00     0.094 A 
ATOM     10  C   UNL     1      67.035 -16.199 -17.791  1.00  0.00     0.146 A 
ATOM     11  O   UNL     1      66.012 -16.486 -16.996  1.00  0.00    -0.452 OA
ENDROOT
BRANCH   1  12
ATOM     12  C   UNL     1      63.706 -16.536 -16.298  1.00  0.00     0.025 A 
ATOM     13  C   UNL     1      63.489 -15.794 -15.124  1.00  0.00     0.016 A 
ATOM     14  C   UNL     1      62.508 -16.189 -14.211  1.00  0.00     0.051 A 
ATOM     15  C   UNL     1      61.740 -17.338 -14.449  1.00  0.00     0.157 A 
ATOM     16  C   UNL     1      62.949 -17.698 -16.522  1.00  0.00     0.062 A 
ATOM     17  C   UNL     1      61.964 -18.096 -15.610  1.00  0.00     0.158 A 
BRANCH  15  18
ATOM     18  O   UNL     1      60.761 -17.727 -13.537  1.00  0.00    -0.504 OA
ATOM     19  H   UNL     1      59.844 -17.297 -13.527  1.00  0.00     0.293 HD
ENDBRANCH  15  18
BRANCH  17  20
ATOM     20  O   UNL     1      61.223 -19.247 -15.873  1.00  0.00    -0.504 OA
ATOM     21  H   UNL     1      60.281 -19.208 -16.244  1.00  0.00     0.293 HD
ENDBRANCH  17  20
ENDBRANCH   1  12
BRANCH   2  22
ATOM     22  O   UNL     1      63.138 -15.149 -18.778  1.00  0.00    -0.502 OA
ATOM     23  H   UNL     1      62.416 -15.854 -18.873  1.00  0.00     0.293 HD
ENDBRANCH   2  22
BRANCH   6  24
ATOM     24  O   UNL     1      67.896 -14.705 -21.129  1.00  0.00    -0.507 OA
ATOM     25  H   UNL     1      67.134 -14.839 -21.777  1.00  0.00     0.293 HD
ENDBRANCH   6  24
BRANCH   8  26
ATOM     26  O   UNL     1      70.700 -16.625 -17.739  1.00  0.00    -0.508 OA
ATOM     27  H   UNL     1      71.480 -16.696 -18.382  1.00  0.00     0.293 HD
ENDBRANCH   8  26
TORSDOF 6
ENDMDL
MODEL 2
REMARK VINA RESULT:    -7.621      2.677      7.500
REMARK INTER + INTRA:          -9.479
REMARK INTER:                  -9.393
REMARK INTRA:                  -0.086
REMARK UNBOUND:                -0.299
REMARK SMILES O=c1c(O)c(-c2ccc(O)c(O)c2)oc2cc(O)cc(O)c12
REMARK SMILES IDX 5 1 3 2 2 3 1 4 22 5 20 6 19 7 17 8 16 9 15 10 14 11 6 12
REMARK SMILES IDX 7 13 8 14 9 15 13 16 11 17 10 18 12 20 4 22 21 24 18 26
REMARK H PARENT 10 19 12 21 4 23 21 25 18 27
REMARK Flexibility Score: inf
ROOT
ATOM      1  C   UNL     1      67.827 -14.472 -19.958  1.00  0.00     0.180 A 
ATOM      2  C   UNL     1      66.493 -14.061 -20.122  1.00  0.00     0.208 A 
ATOM      3  C   UNL     1      65.475 -14.781 -19.477  1.00  0.00     0.238 A 
ATOM      4  O   UNL     1      64.278 -14.452 -19.688  1.00  0.00    -0.285 OA
ATOM      5  C   UNL     1      65.805 -15.867 -18.632  1.00  0.00     0.111 A 
ATOM      6  C   UNL     1      64.858 -16.640 -17.893  1.00  0.00     0.134 A 
ATOM      7  C   UNL     1      65.293 -17.759 -17.172  1.00  0.00     0.093 A 
ATOM      8  C   UNL     1      66.647 -18.096 -17.110  1.00  0.00     0.123 A 
ATOM      9  C   UNL     1      67.585 -17.317 -17.783  1.00  0.00     0.094 A 
ATOM     10  C   UNL     1      67.179 -16.217 -18.542  1.00  0.00     0.146 A 
ATOM     11  O   UNL     1      68.104 -15.515 -19.185  1.00  0.00    -0.452 OA
ENDROOT
BRANCH   1  12
ATOM     12  C   UNL     1      68.953 -13.773 -20.617  1.00  0.00     0.025 A 
ATOM     13  C   UNL     1      69.186 -12.402 -20.412  1.00  0.00     0.016 A 
ATOM     14  C   UNL     1      70.241 -11.760 -21.064  1.00  0.00     0.051 A 
ATOM     15  C   UNL     1      71.070 -12.473 -21.942  1.00  0.00     0.157 A 
ATOM     16  C   UNL     1      69.774 -14.479 -21.513  1.00  0.00     0.062 A 
ATOM     17  C   UNL     1      70.833 -13.838 -22.168  1.00  0.00     0.158 A 
BRANCH  15  18
ATOM     18  O   UNL     1      72.124 -11.829 -22.589  1.00  0.00    -0.504 OA
ATOM     19  H   UNL     1      73.078 -12.160 -22.509  1.00  0.00     0.293 HD
ENDBRANCH  15  18
BRANCH  17  20
ATOM     20  O   UNL     1      71.635 -14.574 -23.040  1.00  0.00    -0.504 OA
ATOM     21  H   UNL     1      71.259 -15.310 -23.625  1.00  0.00     0.293 HD
ENDBRANCH  17  20
ENDBRANCH   1  12
BRANCH   2  22
ATOM     22  O   UNL     1      66.192 -12.940 -20.900  1.00  0.00    -0.502 OA
ATOM     23  H   UNL     1      66.802 -12.611 -21.640  1.00  0.00     0.293 HD
ENDBRANCH   2  22
BRANCH   6  24
ATOM     24  O   UNL     1      63.495 -16.340 -17.812  1.00  0.00    -0.507 OA
ATOM     25  H   UNL     1      62.752 -17.021 -17.823  1.00  0.00     0.293 HD
ENDBRANCH   6  24
BRANCH   8  26
ATOM     26  O   UNL     1      67.072 -19.202 -16.376  1.00  0.00    -0.508 OA
ATOM     27  H   UNL     1      68.047 -19.474 -16.344  1.00  0.00     0.293 HD
ENDBRANCH   8  26
TORSDOF 6
ENDMDL
MODEL 3
REMARK VINA RESULT:    -7.500      1.949      3.741
REMARK INTER + INTRA:          -9.334
REMARK INTER:                  -9.003
REMARK INTRA:                  -0.330
REMARK UNBOUND:                -0.299
REMARK SMILES O=c1c(O)c(-c2ccc(O)c(O)c2)oc2cc(O)cc(O)c12
REMARK SMILES IDX 5 1 3 2 2 3 1 4 22 5 20 6 19 7 17 8 16 9 15 10 14 11 6 12
REMARK SMILES IDX 7 13 8 14 9 15 13 16 11 17 10 18 12 20 4 22 21 24 18 26
REMARK H PARENT 10 19 12 21 4 23 21 25 18 27
REMARK Flexibility Score: inf
ROOT
ATOM      1  C   UNL     1      66.157 -16.299 -18.400  1.00  0.00     0.180 A 
ATOM      2  C   UNL     1      67.540 -16.324 -18.152  1.00  0.00     0.208 A 
ATOM      3  C   UNL     1      68.418 -15.865 -19.147  1.00  0.00     0.238 A 
ATOM      4  O   UNL     1      69.657 -15.960 -18.946  1.00  0.00    -0.285 OA
ATOM      5  C   UNL     1      67.902 -15.335 -20.353  1.00  0.00     0.111 A 
ATOM      6  C   UNL     1      68.697 -14.801 -21.413  1.00  0.00     0.134 A 
ATOM      7  C   UNL     1      68.082 -14.402 -22.605  1.00  0.00     0.093 A 
ATOM      8  C   UNL     1      66.694 -14.457 -22.754  1.00  0.00     0.123 A 
ATOM      9  C   UNL     1      65.905 -14.927 -21.706  1.00  0.00     0.094 A 
ATOM     10  C   UNL     1      66.492 -15.368 -20.518  1.00  0.00     0.146 A 
ATOM     11  O   UNL     1      65.703 -15.826 -19.554  1.00  0.00    -0.452 OA
ENDROOT
BRANCH   1  12
ATOM     12  C   UNL     1      65.169 -16.779 -17.407  1.00  0.00     0.025 A 
ATOM     13  C   UNL     1      64.777 -18.128 -17.356  1.00  0.00     0.016 A 
ATOM     14  C   UNL     1      63.825 -18.552 -16.426  1.00  0.00     0.051 A 
ATOM     15  C   UNL     1      63.241 -17.634 -15.542  1.00  0.00     0.157 A 
ATOM     16  C   UNL     1      64.566 -15.859 -16.532  1.00  0.00     0.062 A 
ATOM     17  C   UNL     1      63.612 -16.281 -15.598  1.00  0.00     0.158 A 
BRANCH  15  18
ATOM     18  O   UNL     1      62.293 -18.062 -14.613  1.00  0.00    -0.504 OA
ATOM     19  H   UNL     1      61.353 -17.685 -14.602  1.00  0.00     0.293 HD
ENDBRANCH  15  18
BRANCH  17  20
ATOM     20  O   UNL     1      63.046 -15.342 -14.738  1.00  0.00    -0.504 OA
ATOM     21  H   UNL     1      62.045 -15.274 -14.597  1.00  0.00     0.293 HD
ENDBRANCH  17  20
ENDBRANCH   1  12
BRANCH   2  22
ATOM     22  O   UNL     1      68.027 -16.780 -16.924  1.00  0.00    -0.502 OA
ATOM     23  H   UNL     1      67.775 -16.346 -16.043  1.00  0.00     0.293 HD
ENDBRANCH   2  22
BRANCH   6  24
ATOM     24  O   UNL     1      70.081 -14.618 -21.336  1.00  0.00    -0.507 OA
ATOM     25  H   UNL     1      70.756 -15.356 -21.206  1.00  0.00     0.293 HD
ENDBRANCH   6  24
BRANCH   8  26
ATOM     26  O   UNL     1      66.089 -14.043 -23.938  1.00  0.00    -0.508 OA
ATOM     27  H   UNL     1      65.467 -14.652 -24.458  1.00  0.00     0.293 HD
ENDBRANCH   8  26
TORSDOF 6
ENDMDL
MODEL 4
REMARK VINA RESULT:    -7.355      1.608      2.697
REMARK INTER + INTRA:          -9.159
REMARK INTER:                  -8.846
REMARK INTRA:                  -0.313
REMARK UNBOUND:                -0.299
REMARK SMILES O=c1c(O)c(-c2ccc(O)c(O)c2)oc2cc(O)cc(O)c12
REMARK SMILES IDX 5 1 3 2 2 3 1 4 22 5 20 6 19 7 17 8 16 9 15 10 14 11 6 12
REMARK SMILES IDX 7 13 8 14 9 15 13 16 11 17 10 18 12 20 4 22 21 24 18 26
REMARK H PARENT 10 19 12 21 4 23 21 25 18 27
REMARK Flexibility Score: inf
ROOT
ATOM      1  C   UNL     1      64.831 -16.144 -17.066  1.00  0.00     0.180 A 
ATOM      2  C   UNL     1      65.729 -17.211 -17.238  1.00  0.00     0.208 A 
ATOM      3  C   UNL     1      66.876 -17.016 -18.025  1.00  0.00     0.238 A 
ATOM      4  O   UNL     1      67.636 -17.997 -18.236  1.00  0.00    -0.285 OA
ATOM      5  C   UNL     1      67.140 -15.742 -18.582  1.00  0.00     0.111 A 
ATOM      6  C   UNL     1      68.294 -15.418 -19.359  1.00  0.00     0.134 A 
ATOM      7  C   UNL     1      68.397 -14.152 -19.948  1.00  0.00     0.093 A 
ATOM      8  C   UNL     1      67.420 -13.177 -19.737  1.00  0.00     0.123 A 
ATOM      9  C   UNL     1      66.317 -13.465 -18.936  1.00  0.00     0.094 A 
ATOM     10  C   UNL     1      66.167 -14.731 -18.366  1.00  0.00     0.146 A 
ATOM     11  O   UNL     1      65.089 -14.969 -17.627  1.00  0.00    -0.452 OA
ENDROOT
BRANCH   1  12
ATOM     12  C   UNL     1      63.594 -16.277 -16.263  1.00  0.00     0.025 A 
ATOM     13  C   UNL     1      63.608 -16.126 -14.866  1.00  0.00     0.016 A 
ATOM     14  C   UNL     1      62.431 -16.280 -14.128  1.00  0.00     0.051 A 
ATOM     15  C   UNL     1      61.228 -16.600 -14.772  1.00  0.00     0.157 A 
ATOM     16  C   UNL     1      62.390 -16.618 -16.902  1.00  0.00     0.062 A 
ATOM     17  C   UNL     1      61.210 -16.772 -16.165  1.00  0.00     0.158 A 
BRANCH  15  18
ATOM     18  O   UNL     1      60.056 -16.750 -14.032  1.00  0.00    -0.504 OA
ATOM     19  H   UNL     1      59.841 -16.143 -13.250  1.00  0.00     0.293 HD
ENDBRANCH  15  18
BRANCH  17  20
ATOM     20  O   UNL     1      60.031 -17.098 -16.836  1.00  0.00    -0.504 OA
ATOM     21  H   UNL     1      59.362 -17.758 -16.459  1.00  0.00     0.293 HD
ENDBRANCH  17  20
ENDBRANCH   1  12
BRANCH   2  22
ATOM     22  O   UNL     1      65.490 -18.440 -16.617  1.00  0.00    -0.502 OA
ATOM     23  H   UNL     1      65.775 -18.633 -15.665  1.00  0.00     0.293 HD
ENDBRANCH   2  22
BRANCH   6  24
ATOM     24  O   UNL     1      69.371 -16.286 -19.560  1.00  0.00    -0.507 OA
ATOM     25  H   UNL     1      69.757 -16.530 -20.460  1.00  0.00     0.293 HD
ENDBRANCH   6  24
BRANCH   8  26
ATOM     26  O   UNL     1      67.539 -11.914 -20.314  1.00  0.00    -0.508 OA
ATOM     27  H   UNL     1      67.729 -11.798 -21.302  1.00  0.00     0.293 HD
ENDBRANCH   8  26
TORSDOF 6
ENDMDL
MODEL 5
REMARK VINA RESULT:    -7.353      0.746      1.441
REMARK INTER + INTRA:          -9.157
REMARK INTER:                  -9.153
REMARK INTRA:                  -0.004
REMARK UNBOUND:                -0.299
REMARK SMILES O=c1c(O)c(-c2ccc(O)c(O)c2)oc2cc(O)cc(O)c12
REMARK SMILES IDX 5 1 3 2 2 3 1 4 22 5 20 6 19 7 17 8 16 9 15 10 14 11 6 12
REMARK SMILES IDX 7 13 8 14 9 15 13 16 11 17 10 18 12 20 4 22 21 24 18 26
REMARK H PARENT 10 19 12 21 4 23 21 25 18 27
REMARK Flexibility Score: inf
ROOT
ATOM      1  C   UNL     1      64.509 -16.245 -17.147  1.00  0.00     0.180 A 
ATOM      2  C   UNL     1      64.166 -15.491 -18.282  1.00  0.00     0.208 A 
ATOM      3  C   UNL     1      65.184 -15.071 -19.153  1.00  0.00     0.238 A 
ATOM      4  O   UNL     1      64.877 -14.333 -20.126  1.00  0.00    -0.285 OA
ATOM      5  C   UNL     1      66.524 -15.457 -18.910  1.00  0.00     0.111 A 
ATOM      6  C   UNL     1      67.630 -15.125 -19.751  1.00  0.00     0.134 A 
ATOM      7  C   UNL     1      68.927 -15.472 -19.354  1.00  0.00     0.093 A 
ATOM      8  C   UNL     1      69.153 -16.194 -18.179  1.00  0.00     0.123 A 
ATOM      9  C   UNL     1      68.076 -16.568 -17.380  1.00  0.00     0.094 A 
ATOM     10  C   UNL     1      66.773 -16.205 -17.730  1.00  0.00     0.146 A 
ATOM     11  O   UNL     1      65.779 -16.565 -16.927  1.00  0.00    -0.452 OA
ENDROOT
BRANCH   1  12
ATOM     12  C   UNL     1      63.495 -16.712 -16.175  1.00  0.00     0.025 A 
ATOM     13  C   UNL     1      62.342 -17.399 -16.592  1.00  0.00     0.016 A 
ATOM     14  C   UNL     1      61.387 -17.808 -15.657  1.00  0.00     0.051 A 
ATOM     15  C   UNL     1      61.562 -17.525 -14.296  1.00  0.00     0.157 A 
ATOM     16  C   UNL     1      63.656 -16.413 -14.811  1.00  0.00     0.062 A 
ATOM     17  C   UNL     1      62.701 -16.822 -13.872  1.00  0.00     0.158 A 
BRANCH  15  18
ATOM     18  O   UNL     1      60.608 -17.937 -13.366  1.00  0.00    -0.504 OA
ATOM     19  H   UNL     1      59.883 -17.311 -13.036  1.00  0.00     0.293 HD
ENDBRANCH  15  18
BRANCH  17  20
ATOM     20  O   UNL     1      62.902 -16.519 -12.526  1.00  0.00    -0.504 OA
ATOM     21  H   UNL     1      62.132 -16.334 -11.895  1.00  0.00     0.293 HD
ENDBRANCH  17  20
ENDBRANCH   1  12
BRANCH   2  22
ATOM     22  O   UNL     1      62.828 -15.185 -18.545  1.00  0.00    -0.502 OA
ATOM     23  H   UNL     1      62.060 -15.706 -18.139  1.00  0.00     0.293 HD
ENDBRANCH   2  22
BRANCH   6  24
ATOM     24  O   UNL     1      67.509 -14.485 -20.988  1.00  0.00    -0.507 OA
ATOM     25  H   UNL     1      68.282 -14.227 -21.583  1.00  0.00     0.293 HD
ENDBRANCH   6  24
BRANCH   8  26
ATOM     26  O   UNL     1      70.446 -16.549 -17.801  1.00  0.00    -0.508 OA
ATOM     27  H   UNL     1      70.629 -17.040 -16.934  1.00  0.00     0.293 HD
ENDBRANCH   8  26
TORSDOF 6
ENDMDL
MODEL 6
REMARK VINA RESULT:    -7.241      2.377      7.925
REMARK INTER + INTRA:          -9.022
REMARK INTER:                  -8.984
REMARK INTRA:                  -0.038
REMARK UNBOUND:                -0.299
REMARK SMILES O=c1c(O)c(-c2ccc(O)c(O)c2)oc2cc(O)cc(O)c12
REMARK SMILES IDX 5 1 3 2 2 3 1 4 22 5 20 6 19 7 17 8 16 9 15 10 14 11 6 12
REMARK SMILES IDX 7 13 8 14 9 15 13 16 11 17 10 18 12 20 4 22 21 24 18 26
REMARK H PARENT 10 19 12 21 4 23 21 25 18 27
REMARK Flexibility Score: inf
ROOT
ATOM      1  C   UNL     1      67.997 -14.826 -19.580  1.00  0.00     0.180 A 
ATOM      2  C   UNL     1      68.472 -15.840 -18.730  1.00  0.00     0.208 A 
ATOM      3  C   UNL     1      67.554 -16.553 -17.942  1.00  0.00     0.238 A 
ATOM      4  O   UNL     1      67.995 -17.407 -17.129  1.00  0.00    -0.285 OA
ATOM      5  C   UNL     1      66.170 -16.284 -18.055  1.00  0.00     0.111 A 
ATOM      6  C   UNL     1      65.146 -16.976 -17.338  1.00  0.00     0.134 A 
ATOM      7  C   UNL     1      63.817 -16.552 -17.451  1.00  0.00     0.093 A 
ATOM      8  C   UNL     1      63.464 -15.503 -18.303  1.00  0.00     0.123 A 
ATOM      9  C   UNL     1      64.448 -14.857 -19.048  1.00  0.00     0.094 A 
ATOM     10  C   UNL     1      65.788 -15.232 -18.928  1.00  0.00     0.146 A 
ATOM     11  O   UNL     1      66.695 -14.575 -19.641  1.00  0.00    -0.452 OA
ENDROOT
BRANCH   1  12
ATOM     12  C   UNL     1      68.903 -14.022 -20.430  1.00  0.00     0.025 A 
ATOM     13  C   UNL     1      68.889 -12.617 -20.391  1.00  0.00     0.016 A 
ATOM     14  C   UNL     1      69.737 -11.878 -21.220  1.00  0.00     0.051 A 
ATOM     15  C   UNL     1      70.601 -12.531 -22.110  1.00  0.00     0.157 A 
ATOM     16  C   UNL     1      69.756 -14.671 -21.339  1.00  0.00     0.062 A 
ATOM     17  C   UNL     1      70.608 -13.934 -22.171  1.00  0.00     0.158 A 
BRANCH  15  18
ATOM     18  O   UNL     1      71.448 -11.791 -22.935  1.00  0.00    -0.504 OA
ATOM     19  H   UNL     1      71.089 -11.083 -23.565  1.00  0.00     0.293 HD
ENDBRANCH  15  18
BRANCH  17  20
ATOM     20  O   UNL     1      71.450 -14.614 -23.050  1.00  0.00    -0.504 OA
ATOM     21  H   UNL     1      71.434 -14.447 -24.048  1.00  0.00     0.293 HD
ENDBRANCH  17  20
ENDBRANCH   1  12
BRANCH   2  22
ATOM     22  O   UNL     1      69.836 -16.142 -18.689  1.00  0.00    -0.502 OA
ATOM     23  H   UNL     1      70.498 -15.761 -19.355  1.00  0.00     0.293 HD
ENDBRANCH   2  22
BRANCH   6  24
ATOM     24  O   UNL     1      65.376 -18.093 -16.529  1.00  0.00    -0.507 OA
ATOM     25  H   UNL     1      64.991 -19.012 -16.690  1.00  0.00     0.293 HD
ENDBRANCH   6  24
BRANCH   8  26
ATOM     26  O   UNL     1      62.136 -15.099 -18.421  1.00  0.00    -0.508 OA
ATOM     27  H   UNL     1      61.623 -15.209 -19.289  1.00  0.00     0.293 HD
ENDBRANCH   8  26
TORSDOF 6
ENDMDL
MODEL 7
REMARK VINA RESULT:    -7.204      2.622      4.136
REMARK INTER + INTRA:          -8.977
REMARK INTER:                  -8.898
REMARK INTRA:                  -0.078
REMARK UNBOUND:                -0.299
REMARK SMILES O=c1c(O)c(-c2ccc(O)c(O)c2)oc2cc(O)cc(O)c12
REMARK SMILES IDX 5 1 3 2 2 3 1 4 22 5 20 6 19 7 17 8 16 9 15 10 14 11 6 12
REMARK SMILES IDX 7 13 8 14 9 15 13 16 11 17 10 18 12 20 4 22 21 24 18 26
REMARK H PARENT 10 19 12 21 4 23 21 25 18 27
REMARK Flexibility Score: inf
ROOT
ATOM      1  C   UNL     1      66.591 -15.505 -20.232  1.00  0.00     0.180 A 
ATOM      2  C   UNL     1      65.995 -15.447 -21.504  1.00  0.00     0.208 A 
ATOM      3  C   UNL     1      66.643 -14.737 -22.527  1.00  0.00     0.238 A 
ATOM      4  O   UNL     1      66.068 -14.627 -23.642  1.00  0.00    -0.285 OA
ATOM      5  C   UNL     1      67.903 -14.141 -22.284  1.00  0.00     0.111 A 
ATOM      6  C   UNL     1      68.671 -13.434 -23.259  1.00  0.00     0.134 A 
ATOM      7  C   UNL     1      69.856 -12.795 -22.875  1.00  0.00     0.093 A 
ATOM      8  C   UNL     1      70.335 -12.889 -21.566  1.00  0.00     0.123 A 
ATOM      9  C   UNL     1      69.621 -13.621 -20.620  1.00  0.00     0.094 A 
ATOM     10  C   UNL     1      68.416 -14.239 -20.963  1.00  0.00     0.146 A 
ATOM     11  O   UNL     1      67.759 -14.908 -20.024  1.00  0.00    -0.452 OA
ENDROOT
BRANCH   1  12
ATOM     12  C   UNL     1      65.963 -16.221 -19.100  1.00  0.00     0.025 A 
ATOM     13  C   UNL     1      64.651 -15.930 -18.685  1.00  0.00     0.016 A 
ATOM     14  C   UNL     1      64.089 -16.604 -17.598  1.00  0.00     0.051 A 
ATOM     15  C   UNL     1      64.831 -17.566 -16.900  1.00  0.00     0.157 A 
ATOM     16  C   UNL     1      66.710 -17.172 -18.384  1.00  0.00     0.062 A 
ATOM     17  C   UNL     1      66.149 -17.849 -17.295  1.00  0.00     0.158 A 
BRANCH  15  18
ATOM     18  O   UNL     1      64.265 -18.238 -15.817  1.00  0.00    -0.504 OA
ATOM     19  H   UNL     1      63.486 -17.849 -15.299  1.00  0.00     0.293 HD
ENDBRANCH  15  18
BRANCH  17  20
ATOM     20  O   UNL     1      66.916 -18.796 -16.618  1.00  0.00    -0.504 OA
ATOM     21  H   UNL     1      67.386 -19.553 -17.100  1.00  0.00     0.293 HD
ENDBRANCH  17  20
ENDBRANCH   1  12
BRANCH   2  22
ATOM     22  O   UNL     1      64.788 -16.107 -21.746  1.00  0.00    -0.502 OA
ATOM     23  H   UNL     1      63.888 -15.653 -21.640  1.00  0.00     0.293 HD
ENDBRANCH   2  22
BRANCH   6  24
ATOM     24  O   UNL     1      68.331 -13.352 -24.613  1.00  0.00    -0.507 OA
ATOM     25  H   UNL     1      67.515 -12.885 -24.977  1.00  0.00     0.293 HD
ENDBRANCH   6  24
BRANCH   8  26
ATOM     26  O   UNL     1      71.524 -12.263 -21.197  1.00  0.00    -0.508 OA
ATOM     27  H   UNL     1      72.287 -12.146 -21.853  1.00  0.00     0.293 HD
ENDBRANCH   8  26
TORSDOF 6
ENDMDL
MODEL 8
REMARK VINA RESULT:    -7.203      3.478      5.807
REMARK INTER + INTRA:          -8.975
REMARK INTER:                  -8.674
REMARK INTRA:                  -0.302
REMARK UNBOUND:                -0.299
REMARK SMILES O=c1c(O)c(-c2ccc(O)c(O)c2)oc2cc(O)cc(O)c12
REMARK SMILES IDX 5 1 3 2 2 3 1 4 22 5 20 6 19 7 17 8 16 9 15 10 14 11 6 12
REMARK SMILES IDX 7 13 8 14 9 15 13 16 11 17 10 18 12 20 4 22 21 24 18 26
REMARK H PARENT 10 19 12 21 4 23 21 25 18 27
REMARK Flexibility Score: inf
ROOT
ATOM      1  C   UNL     1      67.412 -14.453 -20.081  1.00  0.00     0.180 A 
ATOM      2  C   UNL     1      67.238 -13.130 -19.638  1.00  0.00     0.208 A 
ATOM      3  C   UNL     1      67.340 -12.083 -20.569  1.00  0.00     0.238 A 
ATOM      4  O   UNL     1      67.257 -10.898 -20.152  1.00  0.00    -0.285 OA
ATOM      5  C   UNL     1      67.557 -12.373 -21.936  1.00  0.00     0.111 A 
ATOM      6  C   UNL     1      67.634 -11.393 -22.973  1.00  0.00     0.134 A 
ATOM      7  C   UNL     1      67.959 -11.790 -24.276  1.00  0.00     0.093 A 
ATOM      8  C   UNL     1      68.147 -13.137 -24.594  1.00  0.00     0.123 A 
ATOM      9  C   UNL     1      68.022 -14.105 -23.601  1.00  0.00     0.094 A 
ATOM     10  C   UNL     1      67.736 -13.738 -22.283  1.00  0.00     0.146 A 
ATOM     11  O   UNL     1      67.647 -14.692 -21.365  1.00  0.00    -0.452 OA
ENDROOT
BRANCH   1  12
ATOM     12  C   UNL     1      67.333 -15.608 -19.159  1.00  0.00     0.025 A 
ATOM     13  C   UNL     1      66.147 -16.346 -19.008  1.00  0.00     0.016 A 
ATOM     14  C   UNL     1      66.091 -17.418 -18.114  1.00  0.00     0.051 A 
ATOM     15  C   UNL     1      67.213 -17.760 -17.347  1.00  0.00     0.157 A 
ATOM     16  C   UNL     1      68.449 -15.941 -18.373  1.00  0.00     0.062 A 
ATOM     17  C   UNL     1      68.397 -17.015 -17.476  1.00  0.00     0.158 A 
BRANCH  15  18
ATOM     18  O   UNL     1      67.154 -18.832 -16.457  1.00  0.00    -0.504 OA
ATOM     19  H   UNL     1      67.216 -18.694 -15.455  1.00  0.00     0.293 HD
ENDBRANCH  15  18
BRANCH  17  20
ATOM     20  O   UNL     1      69.529 -17.325 -16.723  1.00  0.00    -0.504 OA
ATOM     21  H   UNL     1      70.416 -17.552 -17.154  1.00  0.00     0.293 HD
ENDBRANCH  17  20
ENDBRANCH   1  12
BRANCH   2  22
ATOM     22  O   UNL     1      66.948 -12.869 -18.297  1.00  0.00    -0.502 OA
ATOM     23  H   UNL     1      66.806 -11.930 -17.943  1.00  0.00     0.293 HD
ENDBRANCH   2  22
BRANCH   6  24
ATOM     24  O   UNL     1      67.375 -10.032 -22.784  1.00  0.00    -0.507 OA
ATOM     25  H   UNL     1      66.610  -9.525 -23.202  1.00  0.00     0.293 HD
ENDBRANCH   6  24
BRANCH   8  26
ATOM     26  O   UNL     1      68.454 -13.524 -25.896  1.00  0.00    -0.508 OA
ATOM     27  H   UNL     1      67.730 -13.765 -26.563  1.00  0.00     0.293 HD
ENDBRANCH   8  26
TORSDOF 6
ENDMDL
MODEL 9
REMARK VINA RESULT:    -7.121      2.650      4.216
REMARK INTER + INTRA:          -8.876
REMARK INTER:                  -8.900
REMARK INTRA:                   0.023
REMARK UNBOUND:                -0.299
REMARK SMILES O=c1c(O)c(-c2ccc(O)c(O)c2)oc2cc(O)cc(O)c12
REMARK SMILES IDX 5 1 3 2 2 3 1 4 22 5 20 6 19 7 17 8 16 9 15 10 14 11 6 12
REMARK SMILES IDX 7 13 8 14 9 15 13 16 11 17 10 18 12 20 4 22 21 24 18 26
REMARK H PARENT 10 19 12 21 4 23 21 25 18 27
REMARK Flexibility Score: inf
ROOT
ATOM      1  C   UNL     1      67.152 -14.937 -19.245  1.00  0.00     0.180 A 
ATOM      2  C   UNL     1      66.923 -13.563 -19.057  1.00  0.00     0.208 A 
ATOM      3  C   UNL     1      67.690 -12.639 -19.786  1.00  0.00     0.238 A 
ATOM      4  O   UNL     1      67.530 -11.411 -19.558  1.00  0.00    -0.285 OA
ATOM      5  C   UNL     1      68.635 -13.099 -20.734  1.00  0.00     0.111 A 
ATOM      6  C   UNL     1      69.435 -12.252 -21.560  1.00  0.00     0.134 A 
ATOM      7  C   UNL     1      70.414 -12.818 -22.386  1.00  0.00     0.093 A 
ATOM      8  C   UNL     1      70.578 -14.203 -22.465  1.00  0.00     0.123 A 
ATOM      9  C   UNL     1      69.766 -15.040 -21.703  1.00  0.00     0.094 A 
ATOM     10  C   UNL     1      68.806 -14.504 -20.841  1.00  0.00     0.146 A 
ATOM     11  O   UNL     1      68.069 -15.338 -20.118  1.00  0.00    -0.452 OA
ENDROOT
BRANCH   1  12
ATOM     12  C   UNL     1      66.396 -15.970 -18.504  1.00  0.00     0.025 A 
ATOM     13  C   UNL     1      64.993 -15.932 -18.420  1.00  0.00     0.016 A 
ATOM     14  C   UNL     1      64.302 -16.906 -17.693  1.00  0.00     0.051 A 
ATOM     15  C   UNL     1      65.002 -17.923 -17.030  1.00  0.00     0.157 A 
ATOM     16  C   UNL     1      67.094 -16.980 -17.820  1.00  0.00     0.062 A 
ATOM     17  C   UNL     1      66.405 -17.958 -17.092  1.00  0.00     0.158 A 
BRANCH  15  18
ATOM     18  O   UNL     1      64.310 -18.895 -16.308  1.00  0.00    -0.504 OA
ATOM     19  H   UNL     1      64.795 -19.599 -15.766  1.00  0.00     0.293 HD
ENDBRANCH  15  18
BRANCH  17  20
ATOM     20  O   UNL     1      67.131 -18.952 -16.438  1.00  0.00    -0.504 OA
ATOM     21  H   UNL     1      67.549 -18.803 -15.527  1.00  0.00     0.293 HD
ENDBRANCH  17  20
ENDBRANCH   1  12
BRANCH   2  22
ATOM     22  O   UNL     1      65.932 -13.129 -18.173  1.00  0.00    -0.502 OA
ATOM     23  H   UNL     1      65.689 -12.152 -18.064  1.00  0.00     0.293 HD
ENDBRANCH   2  22
BRANCH   6  24
ATOM     24  O   UNL     1      69.294 -10.863 -21.627  1.00  0.00    -0.507 OA
ATOM     25  H   UNL     1      68.780 -10.301 -20.965  1.00  0.00     0.293 HD
ENDBRANCH   6  24
BRANCH   8  26
ATOM     26  O   UNL     1      71.543 -14.758 -23.302  1.00  0.00    -0.508 OA
ATOM     27  H   UNL     1      71.444 -15.694 -23.679  1.00  0.00     0.293 HD
ENDBRANCH   8  26
TORSDOF 6
ENDMDL
