MODEL 1
REMARK VINA RESULT:    -4.249      0.000      0.000
REMARK INTER + INTRA:         -10.293
REMARK INTER:                  -7.975
REMARK INTRA:                  -2.318
REMARK UNBOUND:                -2.318
REMARK SMILES O=C([O-])CCCCCCCCCCCCCCC(=O)[O-]
REMARK SMILES IDX 10 1 9 2 8 3 7 4 6 5 5 6 4 7 2 8 1 9 3 10 11 11 12 12 13 13
REMARK SMILES IDX 14 14 15 15 16 16 17 17 18 18 19 19 20 20
REMARK H PARENT
REMARK Flexibility Score: inf
ROOT
ATOM      1  C   UNL     1     -14.301 -36.982 -27.023  1.00  0.00     0.000 C 
ENDROOT
BRANCH   1   2
ATOM      2  C   UNL     1     -15.325 -35.849 -27.212  1.00  0.00     0.000 C 
BRANCH   2   3
ATOM      3  C   UNL     1     -14.733 -34.581 -27.864  1.00  0.00     0.000 C 
BRANCH   3   4
ATOM      4  C   UNL     1     -13.235 -34.732 -28.171  1.00  0.00     0.000 C 
BRANCH   4   5
ATOM      5  C   UNL     1     -12.976 -34.692 -29.681  1.00  0.00     0.000 C 
BRANCH   5   6
ATOM      6  C   UNL     1     -13.152 -36.083 -30.307  1.00  0.00     0.006 C 
BRANCH   6   7
ATOM      7  C   UNL     1     -14.077 -36.057 -31.531  1.00  0.00     0.053 C 
BRANCH   7   8
ATOM      8  C   UNL     1     -15.522 -36.051 -31.138  1.00  0.00     0.041 C 
ATOM      9  O   UNL     1     -16.011 -37.028 -30.512  1.00  0.00    -0.550 OA
ATOM     10  O   UNL     1     -16.336 -34.983 -31.492  1.00  0.00    -0.550 OA
ENDBRANCH   7   8
ENDBRANCH   6   7
ENDBRANCH   5   6
ENDBRANCH   4   5
ENDBRANCH   3   4
ENDBRANCH   2   3
ENDBRANCH   1   2
BRANCH   1  11
ATOM     11  C   UNL     1     -14.095 -37.362 -25.550  1.00  0.00     0.000 C 
BRANCH  11  12
ATOM     12  C   UNL     1     -12.612 -37.295 -25.167  1.00  0.00     0.000 C 
BRANCH  12  13
ATOM     13  C   UNL     1     -12.201 -35.858 -24.814  1.00  0.00     0.000 C 
BRANCH  13  14
ATOM     14  C   UNL     1     -10.898 -35.428 -25.508  1.00  0.00     0.000 C 
BRANCH  14  15
ATOM     15  C   UNL     1     -10.473 -36.402 -26.621  1.00  0.00     0.000 C 
BRANCH  15  16
ATOM     16  C   UNL     1      -9.405 -35.804 -27.551  1.00  0.00     0.006 C 
BRANCH  16  17
ATOM     17  C   UNL     1      -9.301 -36.552 -28.886  1.00  0.00     0.053 C 
BRANCH  17  18
ATOM     18  C   UNL     1      -9.468 -35.602 -30.030  1.00  0.00     0.041 C 
ATOM     19  O   UNL     1      -9.683 -36.038 -31.191  1.00  0.00    -0.550 OA
ATOM     20  O   UNL     1      -9.339 -34.235 -29.821  1.00  0.00    -0.550 OA
ENDBRANCH  17  18
ENDBRANCH  16  17
ENDBRANCH  15  16
ENDBRANCH  14  15
ENDBRANCH  13  14
ENDBRANCH  12  13
ENDBRANCH  11  12
ENDBRANCH   1  11
TORSDOF 15
ENDMDL
MODEL 2
REMARK VINA RESULT:    -4.162     15.103     16.685
REMARK INTER + INTRA:         -10.129
REMARK INTER:                  -9.106
REMARK INTRA:                  -1.023
REMARK UNBOUND:                -2.318
REMARK SMILES O=C([O-])CCCCCCCCCCCCCCC(=O)[O-]
REMARK SMILES IDX 10 1 9 2 8 3 7 4 6 5 5 6 4 7 2 8 1 9 3 10 11 11 12 12 13 13
REMARK SMILES IDX 14 14 15 15 16 16 17 17 18 18 19 19 20 20
REMARK H PARENT
REMARK Flexibility Score: inf
ROOT
ATOM      1  C   UNL     1     -18.752 -26.172 -19.561  1.00  0.00     0.000 C 
ENDROOT
BRANCH   1   2
ATOM      2  C   UNL     1     -20.104 -25.483 -19.309  1.00  0.00     0.000 C 
BRANCH   2   3
ATOM      3  C   UNL     1     -21.299 -26.460 -19.270  1.00  0.00     0.000 C 
BRANCH   3   4
ATOM      4  C   UNL     1     -22.630 -25.738 -19.014  1.00  0.00     0.000 C 
BRANCH   4   5
ATOM      5  C   UNL     1     -22.800 -25.407 -17.527  1.00  0.00     0.000 C 
BRANCH   5   6
ATOM      6  C   UNL     1     -24.220 -24.900 -17.234  1.00  0.00     0.006 C 
BRANCH   6   7
ATOM      7  C   UNL     1     -25.190 -25.194 -18.386  1.00  0.00     0.053 C 
BRANCH   7   8
ATOM      8  C   UNL     1     -26.565 -24.672 -18.103  1.00  0.00     0.041 C 
ATOM      9  O   UNL     1     -26.716 -23.546 -17.560  1.00  0.00    -0.550 OA
ATOM     10  O   UNL     1     -27.679 -25.444 -18.407  1.00  0.00    -0.550 OA
ENDBRANCH   7   8
ENDBRANCH   6   7
ENDBRANCH   5   6
ENDBRANCH   4   5
ENDBRANCH   3   4
ENDBRANCH   2   3
ENDBRANCH   1   2
BRANCH   1  11
ATOM     11  C   UNL     1     -17.707 -25.854 -18.482  1.00  0.00     0.000 C 
BRANCH  11  12
ATOM     12  C   UNL     1     -18.336 -25.079 -17.318  1.00  0.00     0.000 C 
BRANCH  12  13
ATOM     13  C   UNL     1     -17.553 -25.310 -16.018  1.00  0.00     0.000 C 
BRANCH  13  14
ATOM     14  C   UNL     1     -16.047 -25.050 -16.181  1.00  0.00     0.000 C 
BRANCH  14  15
ATOM     15  C   UNL     1     -15.184 -26.155 -15.547  1.00  0.00     0.000 C 
BRANCH  15  16
ATOM     16  C   UNL     1     -14.866 -27.293 -16.530  1.00  0.00     0.006 C 
BRANCH  16  17
ATOM     17  C   UNL     1     -14.038 -26.820 -17.731  1.00  0.00     0.053 C 
BRANCH  17  18
ATOM     18  C   UNL     1     -12.599 -27.186 -17.549  1.00  0.00     0.041 C 
ATOM     19  O   UNL     1     -12.277 -28.123 -16.772  1.00  0.00    -0.550 OA
ATOM     20  O   UNL     1     -11.610 -26.459 -18.200  1.00  0.00    -0.550 OA
ENDBRANCH  17  18
ENDBRANCH  16  17
ENDBRANCH  15  16
ENDBRANCH  14  15
ENDBRANCH  13  14
ENDBRANCH  12  13
ENDBRANCH  11  12
ENDBRANCH   1  11
TORSDOF 15
ENDMDL
MODEL 3
REMARK VINA RESULT:    -4.127      2.877      6.153
REMARK INTER + INTRA:         -10.064
REMARK INTER:                  -8.162
REMARK INTRA:                  -1.902
REMARK UNBOUND:                -2.318
REMARK SMILES O=C([O-])CCCCCCCCCCCCCCC(=O)[O-]
REMARK SMILES IDX 10 1 9 2 8 3 7 4 6 5 5 6 4 7 2 8 1 9 3 10 11 11 12 12 13 13
REMARK SMILES IDX 14 14 15 15 16 16 17 17 18 18 19 19 20 20
REMARK H PARENT
REMARK Flexibility Score: inf
ROOT
ATOM      1  C   UNL     1     -11.542 -34.028 -29.268  1.00  0.00     0.000 C 
ENDROOT
BRANCH   1   2
ATOM      2  C   UNL     1     -12.094 -35.088 -28.300  1.00  0.00     0.000 C 
BRANCH   2   3
ATOM      3  C   UNL     1     -13.129 -34.533 -27.298  1.00  0.00     0.000 C 
BRANCH   3   4
ATOM      4  C   UNL     1     -12.498 -34.201 -25.937  1.00  0.00     0.000 C 
BRANCH   4   5
ATOM      5  C   UNL     1     -11.210 -35.003 -25.717  1.00  0.00     0.000 C 
BRANCH   5   6
ATOM      6  C   UNL     1     -11.050 -35.393 -24.241  1.00  0.00     0.006 C 
BRANCH   6   7
ATOM      7  C   UNL     1     -10.955 -36.913 -24.049  1.00  0.00     0.053 C 
BRANCH   7   8
ATOM      8  C   UNL     1     -12.236 -37.489 -23.528  1.00  0.00     0.041 C 
ATOM      9  O   UNL     1     -13.228 -37.621 -24.292  1.00  0.00    -0.550 OA
ATOM     10  O   UNL     1     -12.344 -37.850 -22.191  1.00  0.00    -0.550 OA
ENDBRANCH   7   8
ENDBRANCH   6   7
ENDBRANCH   5   6
ENDBRANCH   4   5
ENDBRANCH   3   4
ENDBRANCH   2   3
ENDBRANCH   1   2
BRANCH   1  11
ATOM     11  C   UNL     1     -10.048 -34.211 -29.567  1.00  0.00     0.000 C 
BRANCH  11  12
ATOM     12  C   UNL     1      -9.644 -35.687 -29.474  1.00  0.00     0.000 C 
BRANCH  12  13
ATOM     13  C   UNL     1      -9.694 -36.359 -30.853  1.00  0.00     0.000 C 
BRANCH  13  14
ATOM     14  C   UNL     1     -10.778 -37.446 -30.942  1.00  0.00     0.000 C 
BRANCH  14  15
ATOM     15  C   UNL     1     -11.929 -37.057 -31.886  1.00  0.00     0.000 C 
BRANCH  15  16
ATOM     16  C   UNL     1     -13.301 -37.118 -31.197  1.00  0.00     0.006 C 
BRANCH  16  17
ATOM     17  C   UNL     1     -14.128 -35.845 -31.417  1.00  0.00     0.053 C 
BRANCH  17  18
ATOM     18  C   UNL     1     -15.205 -35.737 -30.384  1.00  0.00     0.041 C 
ATOM     19  O   UNL     1     -15.545 -34.610 -29.938  1.00  0.00    -0.550 OA
ATOM     20  O   UNL     1     -15.800 -36.886 -29.879  1.00  0.00    -0.550 OA
ENDBRANCH  17  18
ENDBRANCH  16  17
ENDBRANCH  15  16
ENDBRANCH  14  15
ENDBRANCH  13  14
ENDBRANCH  12  13
ENDBRANCH  11  12
ENDBRANCH   1  11
TORSDOF 15
ENDMDL
MODEL 4
REMARK VINA RESULT:    -4.095      2.922      6.292
REMARK INTER + INTRA:         -10.005
REMARK INTER:                  -7.717
REMARK INTRA:                  -2.288
REMARK UNBOUND:                -2.318
REMARK SMILES O=C([O-])CCCCCCCCCCCCCCC(=O)[O-]
REMARK SMILES IDX 10 1 9 2 8 3 7 4 6 5 5 6 4 7 2 8 1 9 3 10 11 11 12 12 13 13
REMARK SMILES IDX 14 14 15 15 16 16 17 17 18 18 19 19 20 20
REMARK H PARENT
REMARK Flexibility Score: inf
ROOT
ATOM      1  C   UNL     1      -9.665 -35.108 -29.027  1.00  0.00     0.000 C 
ENDROOT
BRANCH   1   2
ATOM      2  C   UNL     1      -9.224 -36.015 -27.866  1.00  0.00     0.000 C 
BRANCH   2   3
ATOM      3  C   UNL     1     -10.363 -36.361 -26.884  1.00  0.00     0.000 C 
BRANCH   3   4
ATOM      4  C   UNL     1     -10.803 -35.147 -26.052  1.00  0.00     0.000 C 
BRANCH   4   5
ATOM      5  C   UNL     1     -12.227 -35.334 -25.516  1.00  0.00     0.000 C 
BRANCH   5   6
ATOM      6  C   UNL     1     -12.701 -36.782 -25.705  1.00  0.00     0.006 C 
BRANCH   6   7
ATOM      7  C   UNL     1     -13.063 -37.453 -24.372  1.00  0.00     0.053 C 
BRANCH   7   8
ATOM      8  C   UNL     1     -11.935 -37.385 -23.390  1.00  0.00     0.041 C 
ATOM      9  O   UNL     1     -10.837 -37.946 -23.648  1.00  0.00    -0.550 OA
ATOM     10  O   UNL     1     -12.106 -36.734 -22.176  1.00  0.00    -0.550 OA
ENDBRANCH   7   8
ENDBRANCH   6   7
ENDBRANCH   5   6
ENDBRANCH   4   5
ENDBRANCH   3   4
ENDBRANCH   2   3
ENDBRANCH   1   2
BRANCH   1  11
ATOM     11  C   UNL     1      -9.560 -35.796 -30.396  1.00  0.00     0.000 C 
BRANCH  11  12
ATOM     12  C   UNL     1      -9.577 -37.322 -30.249  1.00  0.00     0.000 C 
BRANCH  12  13
ATOM     13  C   UNL     1     -10.965 -37.889 -30.578  1.00  0.00     0.000 C 
BRANCH  13  14
ATOM     14  C   UNL     1     -11.696 -37.074 -31.657  1.00  0.00     0.000 C 
BRANCH  14  15
ATOM     15  C   UNL     1     -13.025 -36.484 -31.154  1.00  0.00     0.000 C 
BRANCH  15  16
ATOM     16  C   UNL     1     -13.146 -36.526 -29.622  1.00  0.00     0.006 C 
BRANCH  16  17
ATOM     17  C   UNL     1     -13.403 -35.141 -29.013  1.00  0.00     0.053 C 
BRANCH  17  18
ATOM     18  C   UNL     1     -14.856 -34.971 -28.702  1.00  0.00     0.041 C 
ATOM     19  O   UNL     1     -15.679 -34.732 -29.624  1.00  0.00    -0.550 OA
ATOM     20  O   UNL     1     -15.295 -35.029 -27.385  1.00  0.00    -0.550 OA
ENDBRANCH  17  18
ENDBRANCH  16  17
ENDBRANCH  15  16
ENDBRANCH  14  15
ENDBRANCH  13  14
ENDBRANCH  12  13
ENDBRANCH  11  12
ENDBRANCH   1  11
TORSDOF 15
ENDMDL
MODEL 5
REMARK VINA RESULT:    -4.085      2.747      5.494
REMARK INTER + INTRA:          -9.985
REMARK INTER:                  -7.334
REMARK INTRA:                  -2.650
REMARK UNBOUND:                -2.318
REMARK SMILES O=C([O-])CCCCCCCCCCCCCCC(=O)[O-]
REMARK SMILES IDX 10 1 9 2 8 3 7 4 6 5 5 6 4 7 2 8 1 9 3 10 11 11 12 12 13 13
REMARK SMILES IDX 14 14 15 15 16 16 17 17 18 18 19 19 20 20
REMARK H PARENT
REMARK Flexibility Score: inf
ROOT
ATOM      1  C   UNL     1     -12.173 -34.407 -29.080  1.00  0.00     0.000 C 
ENDROOT
BRANCH   1   2
ATOM      2  C   UNL     1     -11.198 -35.586 -29.239  1.00  0.00     0.000 C 
BRANCH   2   3
ATOM      3  C   UNL     1      -9.813 -35.334 -28.603  1.00  0.00     0.000 C 
BRANCH   3   4
ATOM      4  C   UNL     1      -9.448 -36.407 -27.566  1.00  0.00     0.000 C 
BRANCH   4   5
ATOM      5  C   UNL     1     -10.635 -37.340 -27.298  1.00  0.00     0.000 C 
BRANCH   5   6
ATOM      6  C   UNL     1     -10.736 -37.686 -25.805  1.00  0.00     0.006 C 
BRANCH   6   7
ATOM      7  C   UNL     1     -11.031 -36.452 -24.941  1.00  0.00     0.053 C 
BRANCH   7   8
ATOM      8  C   UNL     1     -12.138 -36.708 -23.965  1.00  0.00     0.041 C 
ATOM      9  O   UNL     1     -13.157 -37.355 -24.320  1.00  0.00    -0.550 OA
ATOM     10  O   UNL     1     -12.059 -36.201 -22.675  1.00  0.00    -0.550 OA
ENDBRANCH   7   8
ENDBRANCH   6   7
ENDBRANCH   5   6
ENDBRANCH   4   5
ENDBRANCH   3   4
ENDBRANCH   2   3
ENDBRANCH   1   2
BRANCH   1  11
ATOM     11  C   UNL     1     -12.289 -33.919 -27.629  1.00  0.00     0.000 C 
BRANCH  11  12
ATOM     12  C   UNL     1     -13.433 -34.632 -26.898  1.00  0.00     0.000 C 
BRANCH  12  13
ATOM     13  C   UNL     1     -14.713 -34.629 -27.746  1.00  0.00     0.000 C 
BRANCH  13  14
ATOM     14  C   UNL     1     -15.382 -36.012 -27.810  1.00  0.00     0.000 C 
BRANCH  14  15
ATOM     15  C   UNL     1     -14.384 -37.163 -27.595  1.00  0.00     0.000 C 
BRANCH  15  16
ATOM     16  C   UNL     1     -14.021 -37.881 -28.904  1.00  0.00     0.006 C 
BRANCH  16  17
ATOM     17  C   UNL     1     -14.862 -37.400 -30.093  1.00  0.00     0.053 C 
BRANCH  17  18
ATOM     18  C   UNL     1     -13.976 -36.962 -31.216  1.00  0.00     0.041 C 
ATOM     19  O   UNL     1     -12.995 -37.671 -31.562  1.00  0.00    -0.550 OA
ATOM     20  O   UNL     1     -14.205 -35.747 -31.849  1.00  0.00    -0.550 OA
ENDBRANCH  17  18
ENDBRANCH  16  17
ENDBRANCH  15  16
ENDBRANCH  14  15
ENDBRANCH  13  14
ENDBRANCH  12  13
ENDBRANCH  11  12
ENDBRANCH   1  11
TORSDOF 15
ENDMDL
MODEL 6
REMARK VINA RESULT:    -4.055      2.371      4.234
REMARK INTER + INTRA:          -9.930
REMARK INTER:                  -7.975
REMARK INTRA:                  -1.954
REMARK UNBOUND:                -2.318
REMARK SMILES O=C([O-])CCCCCCCCCCCCCCC(=O)[O-]
REMARK SMILES IDX 10 1 9 2 8 3 7 4 6 5 5 6 4 7 2 8 1 9 3 10 11 11 12 12 13 13
REMARK SMILES IDX 14 14 15 15 16 16 17 17 18 18 19 19 20 20
REMARK H PARENT
REMARK Flexibility Score: inf
ROOT
ATOM      1  C   UNL     1      -8.875 -35.554 -28.457  1.00  0.00     0.000 C 
ENDROOT
BRANCH   1   2
ATOM      2  C   UNL     1     -10.004 -35.378 -29.486  1.00  0.00     0.000 C 
BRANCH   2   3
ATOM      3  C   UNL     1      -9.797 -36.197 -30.778  1.00  0.00     0.000 C 
BRANCH   3   4
ATOM      4  C   UNL     1     -10.837 -37.318 -30.927  1.00  0.00     0.000 C 
BRANCH   4   5
ATOM      5  C   UNL     1     -11.828 -37.003 -32.054  1.00  0.00     0.000 C 
BRANCH   5   6
ATOM      6  C   UNL     1     -13.277 -37.198 -31.584  1.00  0.00     0.006 C 
BRANCH   6   7
ATOM      7  C   UNL     1     -14.212 -36.101 -32.113  1.00  0.00     0.053 C 
BRANCH   7   8
ATOM      8  C   UNL     1     -15.649 -36.411 -31.830  1.00  0.00     0.041 C 
ATOM      9  O   UNL     1     -15.971 -37.012 -30.772  1.00  0.00    -0.550 OA
ATOM     10  O   UNL     1     -16.630 -36.067 -32.751  1.00  0.00    -0.550 OA
ENDBRANCH   7   8
ENDBRANCH   6   7
ENDBRANCH   5   6
ENDBRANCH   4   5
ENDBRANCH   3   4
ENDBRANCH   2   3
ENDBRANCH   1   2
BRANCH   1  11
ATOM     11  C   UNL     1      -8.973 -36.876 -27.683  1.00  0.00     0.000 C 
BRANCH  11  12
ATOM     12  C   UNL     1     -10.418 -37.159 -27.255  1.00  0.00     0.000 C 
BRANCH  12  13
ATOM     13  C   UNL     1     -10.734 -36.486 -25.912  1.00  0.00     0.000 C 
BRANCH  13  14
ATOM     14  C   UNL     1     -12.174 -35.950 -25.844  1.00  0.00     0.000 C 
BRANCH  14  15
ATOM     15  C   UNL     1     -12.243 -34.420 -25.991  1.00  0.00     0.000 C 
BRANCH  15  16
ATOM     16  C   UNL     1     -12.790 -33.984 -27.359  1.00  0.00     0.006 C 
BRANCH  16  17
ATOM     17  C   UNL     1     -13.487 -35.127 -28.108  1.00  0.00     0.053 C 
BRANCH  17  18
ATOM     18  C   UNL     1     -14.972 -35.000 -27.986  1.00  0.00     0.041 C 
ATOM     19  O   UNL     1     -15.630 -34.375 -28.858  1.00  0.00    -0.550 OA
ATOM     20  O   UNL     1     -15.626 -35.532 -26.881  1.00  0.00    -0.550 OA
ENDBRANCH  17  18
ENDBRANCH  16  17
ENDBRANCH  15  16
ENDBRANCH  14  15
ENDBRANCH  13  14
ENDBRANCH  12  13
ENDBRANCH  11  12
ENDBRANCH   1  11
TORSDOF 15
ENDMDL
MODEL 7
REMARK VINA RESULT:    -4.043      2.289      4.943
REMARK INTER + INTRA:          -9.906
REMARK INTER:                  -7.503
REMARK INTRA:                  -2.403
REMARK UNBOUND:                -2.318
REMARK SMILES O=C([O-])CCCCCCCCCCCCCCC(=O)[O-]
REMARK SMILES IDX 10 1 9 2 8 3 7 4 6 5 5 6 4 7 2 8 1 9 3 10 11 11 12 12 13 13
REMARK SMILES IDX 14 14 15 15 16 16 17 17 18 18 19 19 20 20
REMARK H PARENT
REMARK Flexibility Score: inf
ROOT
ATOM      1  C   UNL     1     -13.621 -34.120 -27.322  1.00  0.00     0.000 C 
ENDROOT
BRANCH   1   2
ATOM      2  C   UNL     1     -14.395 -35.151 -28.161  1.00  0.00     0.000 C 
BRANCH   2   3
ATOM      3  C   UNL     1     -15.465 -35.924 -27.360  1.00  0.00     0.000 C 
BRANCH   3   4
ATOM      4  C   UNL     1     -14.843 -36.950 -26.401  1.00  0.00     0.000 C 
BRANCH   4   5
ATOM      5  C   UNL     1     -13.733 -37.748 -27.094  1.00  0.00     0.000 C 
BRANCH   5   6
ATOM      6  C   UNL     1     -12.502 -37.883 -26.185  1.00  0.00     0.006 C 
BRANCH   6   7
ATOM      7  C   UNL     1     -12.550 -36.912 -24.997  1.00  0.00     0.053 C 
BRANCH   7   8
ATOM      8  C   UNL     1     -11.306 -36.083 -24.906  1.00  0.00     0.041 C 
ATOM      9  O   UNL     1     -11.141 -35.293 -23.939  1.00  0.00    -0.550 OA
ATOM     10  O   UNL     1     -10.345 -36.157 -25.905  1.00  0.00    -0.550 OA
ENDBRANCH   7   8
ENDBRANCH   6   7
ENDBRANCH   5   6
ENDBRANCH   4   5
ENDBRANCH   3   4
ENDBRANCH   2   3
ENDBRANCH   1   2
BRANCH   1  11
ATOM     11  C   UNL     1     -12.167 -33.944 -27.783  1.00  0.00     0.000 C 
BRANCH  11  12
ATOM     12  C   UNL     1     -11.895 -34.740 -29.065  1.00  0.00     0.000 C 
BRANCH  12  13
ATOM     13  C   UNL     1     -10.423 -34.618 -29.484  1.00  0.00     0.000 C 
BRANCH  13  14
ATOM     14  C   UNL     1      -9.744 -35.986 -29.662  1.00  0.00     0.000 C 
BRANCH  14  15
ATOM     15  C   UNL     1     -10.663 -37.157 -29.275  1.00  0.00     0.000 C 
BRANCH  15  16
ATOM     16  C   UNL     1     -11.069 -38.013 -30.485  1.00  0.00     0.006 C 
BRANCH  16  17
ATOM     17  C   UNL     1     -12.546 -37.840 -30.861  1.00  0.00     0.053 C 
BRANCH  17  18
ATOM     18  C   UNL     1     -12.671 -37.114 -32.162  1.00  0.00     0.041 C 
ATOM     19  O   UNL     1     -11.661 -36.944 -32.894  1.00  0.00    -0.550 OA
ATOM     20  O   UNL     1     -13.896 -36.581 -32.546  1.00  0.00    -0.550 OA
ENDBRANCH  17  18
ENDBRANCH  16  17
ENDBRANCH  15  16
ENDBRANCH  14  15
ENDBRANCH  13  14
ENDBRANCH  12  13
ENDBRANCH  11  12
ENDBRANCH   1  11
TORSDOF 15
ENDMDL
MODEL 8
REMARK VINA RESULT:    -4.036      2.411      5.810
REMARK INTER + INTRA:          -9.893
REMARK INTER:                  -7.351
REMARK INTRA:                  -2.542
REMARK UNBOUND:                -2.318
REMARK SMILES O=C([O-])CCCCCCCCCCCCCCC(=O)[O-]
REMARK SMILES IDX 10 1 9 2 8 3 7 4 6 5 5 6 4 7 2 8 1 9 3 10 11 11 12 12 13 13
REMARK SMILES IDX 14 14 15 15 16 16 17 17 18 18 19 19 20 20
REMARK H PARENT
REMARK Flexibility Score: inf
ROOT
ATOM      1  C   UNL     1     -12.306 -34.446 -28.679  1.00  0.00     0.000 C 
ENDROOT
BRANCH   1   2
ATOM      2  C   UNL     1     -13.376 -34.225 -27.596  1.00  0.00     0.000 C 
BRANCH   2   3
ATOM      3  C   UNL     1     -14.757 -34.810 -27.962  1.00  0.00     0.000 C 
BRANCH   3   4
ATOM      4  C   UNL     1     -15.225 -35.871 -26.954  1.00  0.00     0.000 C 
BRANCH   4   5
ATOM      5  C   UNL     1     -14.274 -37.074 -26.941  1.00  0.00     0.000 C 
BRANCH   5   6
ATOM      6  C   UNL     1     -13.821 -37.402 -25.511  1.00  0.00     0.006 C 
BRANCH   6   7
ATOM      7  C   UNL     1     -12.325 -37.136 -25.300  1.00  0.00     0.053 C 
BRANCH   7   8
ATOM      8  C   UNL     1     -12.088 -36.053 -24.294  1.00  0.00     0.041 C 
ATOM      9  O   UNL     1     -11.776 -34.894 -24.673  1.00  0.00    -0.550 OA
ATOM     10  O   UNL     1     -12.178 -36.331 -22.936  1.00  0.00    -0.550 OA
ENDBRANCH   7   8
ENDBRANCH   6   7
ENDBRANCH   5   6
ENDBRANCH   4   5
ENDBRANCH   3   4
ENDBRANCH   2   3
ENDBRANCH   1   2
BRANCH   1  11
ATOM     11  C   UNL     1     -11.112 -35.272 -28.180  1.00  0.00     0.000 C 
BRANCH  11  12
ATOM     12  C   UNL     1     -11.022 -36.612 -28.918  1.00  0.00     0.000 C 
BRANCH  12  13
ATOM     13  C   UNL     1     -10.881 -36.397 -30.432  1.00  0.00     0.000 C 
BRANCH  13  14
ATOM     14  C   UNL     1     -11.944 -37.161 -31.239  1.00  0.00     0.000 C 
BRANCH  14  15
ATOM     15  C   UNL     1     -13.152 -37.577 -30.381  1.00  0.00     0.000 C 
BRANCH  15  16
ATOM     16  C   UNL     1     -14.491 -37.143 -30.997  1.00  0.00     0.006 C 
BRANCH  16  17
ATOM     17  C   UNL     1     -14.439 -35.724 -31.579  1.00  0.00     0.053 C 
BRANCH  17  18
ATOM     18  C   UNL     1     -15.821 -35.170 -31.724  1.00  0.00     0.041 C 
ATOM     19  O   UNL     1     -16.092 -34.021 -31.287  1.00  0.00    -0.550 OA
ATOM     20  O   UNL     1     -16.822 -35.942 -32.300  1.00  0.00    -0.550 OA
ENDBRANCH  17  18
ENDBRANCH  16  17
ENDBRANCH  15  16
ENDBRANCH  14  15
ENDBRANCH  13  14
ENDBRANCH  12  13
ENDBRANCH  11  12
ENDBRANCH   1  11
TORSDOF 15
ENDMDL
MODEL 9
REMARK VINA RESULT:    -4.027      2.373      4.258
REMARK INTER + INTRA:          -9.877
REMARK INTER:                  -7.585
REMARK INTRA:                  -2.292
REMARK UNBOUND:                -2.318
REMARK SMILES O=C([O-])CCCCCCCCCCCCCCC(=O)[O-]
REMARK SMILES IDX 10 1 9 2 8 3 7 4 6 5 5 6 4 7 2 8 1 9 3 10 11 11 12 12 13 13
REMARK SMILES IDX 14 14 15 15 16 16 17 17 18 18 19 19 20 20
REMARK H PARENT
REMARK Flexibility Score: inf
ROOT
ATOM      1  C   UNL     1     -12.237 -34.520 -29.018  1.00  0.00     0.000 C 
ENDROOT
BRANCH   1   2
ATOM      2  C   UNL     1     -11.291 -35.719 -28.832  1.00  0.00     0.000 C 
BRANCH   2   3
ATOM      3  C   UNL     1     -11.667 -36.944 -29.694  1.00  0.00     0.000 C 
BRANCH   3   4
ATOM      4  C   UNL     1     -11.020 -36.894 -31.087  1.00  0.00     0.000 C 
BRANCH   4   5
ATOM      5  C   UNL     1     -12.076 -37.034 -32.189  1.00  0.00     0.000 C 
BRANCH   5   6
ATOM      6  C   UNL     1     -13.492 -36.859 -31.620  1.00  0.00     0.006 C 
BRANCH   6   7
ATOM      7  C   UNL     1     -14.174 -35.587 -32.142  1.00  0.00     0.053 C 
BRANCH   7   8
ATOM      8  C   UNL     1     -15.666 -35.720 -32.154  1.00  0.00     0.041 C 
ATOM      9  O   UNL     1     -16.378 -34.923 -31.487  1.00  0.00    -0.550 OA
ATOM     10  O   UNL     1     -16.269 -36.745 -32.872  1.00  0.00    -0.550 OA
ENDBRANCH   7   8
ENDBRANCH   6   7
ENDBRANCH   5   6
ENDBRANCH   4   5
ENDBRANCH   3   4
ENDBRANCH   2   3
ENDBRANCH   1   2
BRANCH   1  11
ATOM     11  C   UNL     1     -13.239 -34.365 -27.864  1.00  0.00     0.000 C 
BRANCH  11  12
ATOM     12  C   UNL     1     -14.676 -34.593 -28.348  1.00  0.00     0.000 C 
BRANCH  12  13
ATOM     13  C   UNL     1     -15.063 -36.075 -28.236  1.00  0.00     0.000 C 
BRANCH  13  14
ATOM     14  C   UNL     1     -15.131 -36.560 -26.779  1.00  0.00     0.000 C 
BRANCH  14  15
ATOM     15  C   UNL     1     -14.129 -37.689 -26.484  1.00  0.00     0.000 C 
BRANCH  15  16
ATOM     16  C   UNL     1     -13.336 -37.450 -25.189  1.00  0.00     0.006 C 
BRANCH  16  17
ATOM     17  C   UNL     1     -11.911 -36.947 -25.455  1.00  0.00     0.053 C 
BRANCH  17  18
ATOM     18  C   UNL     1     -11.571 -35.829 -24.521  1.00  0.00     0.041 C 
ATOM     19  O   UNL     1     -10.770 -34.926 -24.877  1.00  0.00    -0.550 OA
ATOM     20  O   UNL     1     -12.102 -35.811 -23.237  1.00  0.00    -0.550 OA
ENDBRANCH  17  18
ENDBRANCH  16  17
ENDBRANCH  15  16
ENDBRANCH  14  15
ENDBRANCH  13  14
ENDBRANCH  12  13
ENDBRANCH  11  12
ENDBRANCH   1  11
TORSDOF 15
ENDMDL
