MODEL 1
REMARK VINA RESULT:    -3.587      0.000      0.000
REMARK INTER + INTRA:          -3.828
REMARK INTER:                  -3.797
REMARK INTRA:                  -0.031
REMARK UNBOUND:                -0.031
REMARK SMILES O=C([O-])[C@H]1CCC[NH2+]1
REMARK SMILES IDX 4 1 8 2 7 3 5 4 6 5 2 8 1 9 3 10
REMARK H PARENT 8 6 8 7
REMARK Flexibility Score: inf
ROOT
ATOM      1  C   UNL     1     -35.041 -54.026  27.794  1.00  0.00     0.229 C 
ATOM      2  N   UNL     1     -36.360 -53.846  28.405  1.00  0.00    -0.339 N 
ATOM      3  C   UNL     1     -36.500 -54.923  29.389  1.00  0.00     0.261 C 
ATOM      4  C   UNL     1     -34.148 -54.630  28.868  1.00  0.00     0.077 C 
ATOM      5  C   UNL     1     -35.101 -55.430  29.736  1.00  0.00     0.068 C 
ATOM      6  H   UNL     1     -36.425 -52.923  28.898  1.00  0.00     0.346 HD
ATOM      7  H   UNL     1     -37.113 -53.907  27.679  1.00  0.00     0.346 HD
ENDROOT
BRANCH   1   8
ATOM      8  C   UNL     1     -34.488 -52.732  27.254  1.00  0.00     0.099 C 
ATOM      9  O   UNL     1     -34.026 -51.867  28.043  1.00  0.00    -0.544 OA
ATOM     10  O   UNL     1     -34.483 -52.484  25.887  1.00  0.00    -0.544 OA
ENDBRANCH   1   8
TORSDOF 1
ENDMDL
MODEL 2
REMARK VINA RESULT:    -3.547      2.442      3.297
REMARK INTER + INTRA:          -3.785
REMARK INTER:                  -3.754
REMARK INTRA:                  -0.031
REMARK UNBOUND:                -0.031
REMARK SMILES O=C([O-])[C@H]1CCC[NH2+]1
REMARK SMILES IDX 4 1 8 2 7 3 5 4 6 5 2 8 1 9 3 10
REMARK H PARENT 8 6 8 7
REMARK Flexibility Score: inf
ROOT
ATOM      1  C   UNL     1     -34.618 -54.312  30.290  1.00  0.00     0.229 C 
ATOM      2  N   UNL     1     -34.182 -55.541  29.621  1.00  0.00    -0.339 N 
ATOM      3  C   UNL     1     -35.259 -55.898  28.693  1.00  0.00     0.261 C 
ATOM      4  C   UNL     1     -35.474 -53.555  29.286  1.00  0.00     0.077 C 
ATOM      5  C   UNL     1     -36.091 -54.645  28.428  1.00  0.00     0.068 C 
ATOM      6  H   UNL     1     -33.301 -55.381  29.074  1.00  0.00     0.346 HD
ATOM      7  H   UNL     1     -34.026 -56.305  30.319  1.00  0.00     0.346 HD
ENDROOT
BRANCH   1   8
ATOM      8  C   UNL     1     -33.452 -53.492  30.778  1.00  0.00     0.099 C 
ATOM      9  O   UNL     1     -32.767 -52.824  29.961  1.00  0.00    -0.544 OA
ATOM     10  O   UNL     1     -33.124 -53.467  32.128  1.00  0.00    -0.544 OA
ENDBRANCH   1   8
TORSDOF 1
ENDMDL
MODEL 3
REMARK VINA RESULT:    -3.516      9.271      9.990
REMARK INTER + INTRA:          -3.753
REMARK INTER:                  -3.722
REMARK INTRA:                  -0.031
REMARK UNBOUND:                -0.031
REMARK SMILES O=C([O-])[C@H]1CCC[NH2+]1
REMARK SMILES IDX 4 1 8 2 7 3 5 4 6 5 2 8 1 9 3 10
REMARK H PARENT 8 6 8 7
REMARK Flexibility Score: inf
ROOT
ATOM      1  C   UNL     1     -34.609 -46.961  34.156  1.00  0.00     0.229 C 
ATOM      2  N   UNL     1     -34.124 -45.908  35.052  1.00  0.00    -0.339 N 
ATOM      3  C   UNL     1     -33.464 -44.920  34.192  1.00  0.00     0.261 C 
ATOM      4  C   UNL     1     -34.944 -46.284  32.836  1.00  0.00     0.077 C 
ATOM      5  C   UNL     1     -33.987 -45.108  32.769  1.00  0.00     0.068 C 
ATOM      6  H   UNL     1     -34.919 -45.445  35.555  1.00  0.00     0.346 HD
ATOM      7  H   UNL     1     -33.449 -46.300  35.750  1.00  0.00     0.346 HD
ENDROOT
BRANCH   1   8
ATOM      8  C   UNL     1     -35.790 -47.695  34.737  1.00  0.00     0.099 C 
ATOM      9  O   UNL     1     -36.928 -47.156  34.734  1.00  0.00    -0.544 OA
ATOM     10  O   UNL     1     -35.635 -48.965  35.278  1.00  0.00    -0.544 OA
ENDBRANCH   1   8
TORSDOF 1
ENDMDL
MODEL 4
REMARK VINA RESULT:    -3.514      8.561      9.313
REMARK INTER + INTRA:          -3.751
REMARK INTER:                  -3.726
REMARK INTRA:                  -0.025
REMARK UNBOUND:                -0.031
REMARK SMILES O=C([O-])[C@H]1CCC[NH2+]1
REMARK SMILES IDX 4 1 8 2 7 3 5 4 6 5 2 8 1 9 3 10
REMARK H PARENT 8 6 8 7
REMARK Flexibility Score: inf
ROOT
ATOM      1  C   UNL     1     -27.830 -52.918  23.837  1.00  0.00     0.229 C 
ATOM      2  N   UNL     1     -26.830 -52.342  22.933  1.00  0.00    -0.339 N 
ATOM      3  C   UNL     1     -25.955 -51.518  23.772  1.00  0.00     0.261 C 
ATOM      4  C   UNL     1     -27.142 -53.096  25.183  1.00  0.00     0.077 C 
ATOM      5  C   UNL     1     -26.102 -51.991  25.217  1.00  0.00     0.068 C 
ATOM      6  H   UNL     1     -26.257 -53.093  22.478  1.00  0.00     0.346 HD
ATOM      7  H   UNL     1     -27.292 -51.759  22.196  1.00  0.00     0.346 HD
ENDROOT
BRANCH   1   8
ATOM      8  C   UNL     1     -28.391 -54.211  23.307  1.00  0.00     0.099 C 
ATOM      9  O   UNL     1     -29.570 -54.252  22.869  1.00  0.00    -0.544 OA
ATOM     10  O   UNL     1     -27.616 -55.365  23.297  1.00  0.00    -0.544 OA
ENDBRANCH   1   8
TORSDOF 1
ENDMDL
MODEL 5
REMARK VINA RESULT:    -3.503      9.381      9.803
REMARK INTER + INTRA:          -3.739
REMARK INTER:                  -3.716
REMARK INTRA:                  -0.022
REMARK UNBOUND:                -0.031
REMARK SMILES O=C([O-])[C@H]1CCC[NH2+]1
REMARK SMILES IDX 4 1 8 2 7 3 5 4 6 5 2 8 1 9 3 10
REMARK H PARENT 8 6 8 7
REMARK Flexibility Score: inf
ROOT
ATOM      1  C   UNL     1     -25.038 -53.902  29.101  1.00  0.00     0.229 C 
ATOM      2  N   UNL     1     -25.833 -54.715  30.026  1.00  0.00    -0.339 N 
ATOM      3  C   UNL     1     -25.672 -54.098  31.346  1.00  0.00     0.261 C 
ATOM      4  C   UNL     1     -25.071 -52.480  29.640  1.00  0.00     0.077 C 
ATOM      5  C   UNL     1     -25.215 -52.655  31.141  1.00  0.00     0.068 C 
ATOM      6  H   UNL     1     -26.848 -54.699  29.764  1.00  0.00     0.346 HD
ATOM      7  H   UNL     1     -25.489 -55.704  30.035  1.00  0.00     0.346 HD
ENDROOT
BRANCH   1   8
ATOM      8  C   UNL     1     -25.553 -53.989  27.688  1.00  0.00     0.099 C 
ATOM      9  O   UNL     1     -24.891 -53.482  26.745  1.00  0.00    -0.544 OA
ATOM     10  O   UNL     1     -26.757 -54.627  27.414  1.00  0.00    -0.544 OA
ENDBRANCH   1   8
TORSDOF 1
ENDMDL
MODEL 6
REMARK VINA RESULT:    -3.494      9.312     10.036
REMARK INTER + INTRA:          -3.729
REMARK INTER:                  -3.704
REMARK INTRA:                  -0.025
REMARK UNBOUND:                -0.031
REMARK SMILES O=C([O-])[C@H]1CCC[NH2+]1
REMARK SMILES IDX 4 1 8 2 7 3 5 4 6 5 2 8 1 9 3 10
REMARK H PARENT 8 6 8 7
REMARK Flexibility Score: inf
ROOT
ATOM      1  C   UNL     1     -33.032 -45.226  23.866  1.00  0.00     0.229 C 
ATOM      2  N   UNL     1     -34.065 -45.817  23.010  1.00  0.00    -0.339 N 
ATOM      3  C   UNL     1     -34.906 -46.628  23.896  1.00  0.00     0.261 C 
ATOM      4  C   UNL     1     -33.667 -45.026  25.233  1.00  0.00     0.077 C 
ATOM      5  C   UNL     1     -34.704 -46.131  25.326  1.00  0.00     0.068 C 
ATOM      6  H   UNL     1     -34.656 -45.074  22.565  1.00  0.00     0.346 HD
ATOM      7  H   UNL     1     -33.631 -46.411  22.265  1.00  0.00     0.346 HD
ENDROOT
BRANCH   1   8
ATOM      8  C   UNL     1     -32.493 -43.941  23.293  1.00  0.00     0.099 C 
ATOM      9  O   UNL     1     -31.297 -43.878  22.905  1.00  0.00    -0.544 OA
ATOM     10  O   UNL     1     -33.307 -42.819  23.189  1.00  0.00    -0.544 OA
ENDBRANCH   1   8
TORSDOF 1
ENDMDL
MODEL 7
REMARK VINA RESULT:    -3.419      9.467      9.932
REMARK INTER + INTRA:          -3.650
REMARK INTER:                  -3.625
REMARK INTRA:                  -0.025
REMARK UNBOUND:                -0.031
REMARK SMILES O=C([O-])[C@H]1CCC[NH2+]1
REMARK SMILES IDX 4 1 8 2 7 3 5 4 6 5 2 8 1 9 3 10
REMARK H PARENT 8 6 8 7
REMARK Flexibility Score: inf
ROOT
ATOM      1  C   UNL     1     -33.483 -48.709  35.590  1.00  0.00     0.229 C 
ATOM      2  N   UNL     1     -33.181 -48.877  37.014  1.00  0.00    -0.339 N 
ATOM      3  C   UNL     1     -31.940 -48.135  37.253  1.00  0.00     0.261 C 
ATOM      4  C   UNL     1     -32.949 -47.341  35.194  1.00  0.00     0.077 C 
ATOM      5  C   UNL     1     -31.772 -47.119  36.125  1.00  0.00     0.068 C 
ATOM      6  H   UNL     1     -33.941 -48.470  37.611  1.00  0.00     0.346 HD
ATOM      7  H   UNL     1     -33.058 -49.890  37.248  1.00  0.00     0.346 HD
ENDROOT
BRANCH   1   8
ATOM      8  C   UNL     1     -34.956 -48.852  35.305  1.00  0.00     0.099 C 
ATOM      9  O   UNL     1     -35.632 -47.844  34.969  1.00  0.00    -0.544 OA
ATOM     10  O   UNL     1     -35.578 -50.090  35.410  1.00  0.00    -0.544 OA
ENDBRANCH   1   8
TORSDOF 1
ENDMDL
MODEL 8
REMARK VINA RESULT:    -3.381     10.266     10.987
REMARK INTER + INTRA:          -3.609
REMARK INTER:                  -3.589
REMARK INTRA:                  -0.021
REMARK UNBOUND:                -0.031
REMARK SMILES O=C([O-])[C@H]1CCC[NH2+]1
REMARK SMILES IDX 4 1 8 2 7 3 5 4 6 5 2 8 1 9 3 10
REMARK H PARENT 8 6 8 7
REMARK Flexibility Score: inf
ROOT
ATOM      1  C   UNL     1     -26.182 -51.479  33.604  1.00  0.00     0.229 C 
ATOM      2  N   UNL     1     -26.531 -52.089  34.890  1.00  0.00    -0.339 N 
ATOM      3  C   UNL     1     -27.608 -53.041  34.606  1.00  0.00     0.261 C 
ATOM      4  C   UNL     1     -26.435 -52.539  32.542  1.00  0.00     0.077 C 
ATOM      5  C   UNL     1     -27.560 -53.380  33.117  1.00  0.00     0.068 C 
ATOM      6  H   UNL     1     -25.714 -52.608  35.294  1.00  0.00     0.346 HD
ATOM      7  H   UNL     1     -26.851 -51.359  35.568  1.00  0.00     0.346 HD
ENDROOT
BRANCH   1   8
ATOM      8  C   UNL     1     -24.762 -50.978  33.583  1.00  0.00     0.099 C 
ATOM      9  O   UNL     1     -24.246 -50.592  32.502  1.00  0.00    -0.544 OA
ATOM     10  O   UNL     1     -24.011 -50.937  34.752  1.00  0.00    -0.544 OA
ENDBRANCH   1   8
TORSDOF 1
ENDMDL
MODEL 9
REMARK VINA RESULT:    -3.319      7.493      8.365
REMARK INTER + INTRA:          -3.545
REMARK INTER:                  -3.515
REMARK INTRA:                  -0.030
REMARK UNBOUND:                -0.031
REMARK SMILES O=C([O-])[C@H]1CCC[NH2+]1
REMARK SMILES IDX 4 1 8 2 7 3 5 4 6 5 2 8 1 9 3 10
REMARK H PARENT 8 6 8 7
REMARK Flexibility Score: inf
ROOT
ATOM      1  C   UNL     1     -28.190 -54.138  25.799  1.00  0.00     0.229 C 
ATOM      2  N   UNL     1     -27.846 -55.357  25.062  1.00  0.00    -0.339 N 
ATOM      3  C   UNL     1     -27.768 -54.966  23.651  1.00  0.00     0.261 C 
ATOM      4  C   UNL     1     -27.570 -52.980  25.031  1.00  0.00     0.077 C 
ATOM      5  C   UNL     1     -27.559 -53.454  23.589  1.00  0.00     0.068 C 
ATOM      6  H   UNL     1     -26.913 -55.729  25.364  1.00  0.00     0.346 HD
ATOM      7  H   UNL     1     -28.578 -56.092  25.203  1.00  0.00     0.346 HD
ENDROOT
BRANCH   1   8
ATOM      8  C   UNL     1     -27.719 -54.192  27.229  1.00  0.00     0.099 C 
ATOM      9  O   UNL     1     -26.715 -54.888  27.534  1.00  0.00    -0.544 OA
ATOM     10  O   UNL     1     -28.384 -53.478  28.218  1.00  0.00    -0.544 OA
ENDBRANCH   1   8
TORSDOF 1
ENDMDL
