MODEL 1
REMARK VINA RESULT:    -4.054      0.000      0.000
REMARK INTER + INTRA:          -6.048
REMARK INTER:                  -5.475
REMARK INTRA:                  -0.572
REMARK UNBOUND:                -0.572
REMARK SMILES O=C[C@H](O)[C@@H](O)[C@@H](O)CO
REMARK SMILES IDX 7 1 9 2 10 3 5 5 3 6 2 7 1 8 4 9 6 11 8 13
REMARK H PARENT 10 4 4 10 6 12 8 14
REMARK Flexibility Score: inf
ROOT
ATOM      1  C   UNL     1      -1.395   1.984 -22.904  1.00  0.00     0.171 C 
ENDROOT
BRANCH   1   2
ATOM      2  C   UNL     1      -0.804   1.854 -24.321  1.00  0.00     0.190 C 
BRANCH   2   3
ATOM      3  O   UNL     1      -0.239   3.065 -24.751  1.00  0.00    -0.394 OA
ATOM      4  H   UNL     1      -0.634   3.782 -24.189  1.00  0.00     0.210 HD
ENDBRANCH   2   3
ENDBRANCH   1   2
BRANCH   1   5
ATOM      5  C   UNL     1      -2.561   3.016 -22.832  1.00  0.00     0.181 C 
BRANCH   5   6
ATOM      6  C   UNL     1      -3.660   2.650 -21.797  1.00  0.00     0.209 C 
BRANCH   6   7
ATOM      7  C   UNL     1      -4.975   3.326 -22.079  1.00  0.00     0.258 C 
ATOM      8  O   UNL     1      -5.032   4.282 -22.834  1.00  0.00    -0.300 OA
ENDBRANCH   6   7
BRANCH   6   9
ATOM      9  O   UNL     1      -3.243   2.993 -20.500  1.00  0.00    -0.383 OA
ATOM     10  H   UNL     1      -2.252   3.039 -20.517  1.00  0.00     0.211 HD
ENDBRANCH   6   9
ENDBRANCH   5   6
BRANCH   5  11
ATOM     11  O   UNL     1      -2.081   4.318 -22.593  1.00  0.00    -0.387 OA
ATOM     12  H   UNL     1      -1.212   4.415 -23.062  1.00  0.00     0.211 HD
ENDBRANCH   5  11
ENDBRANCH   1   5
BRANCH   1  13
ATOM     13  O   UNL     1      -1.796   0.723 -22.428  1.00  0.00    -0.388 OA
ATOM     14  H   UNL     1      -0.976   0.210 -22.202  1.00  0.00     0.211 HD
ENDBRANCH   1  13
TORSDOF 8
ENDMDL
MODEL 2
REMARK VINA RESULT:    -3.918      5.698      6.910
REMARK INTER + INTRA:          -5.864
REMARK INTER:                  -5.555
REMARK INTRA:                  -0.309
REMARK UNBOUND:                -0.572
REMARK SMILES O=C[C@H](O)[C@@H](O)[C@@H](O)CO
REMARK SMILES IDX 7 1 9 2 10 3 5 5 3 6 2 7 1 8 4 9 6 11 8 13
REMARK H PARENT 10 4 4 10 6 12 8 14
REMARK Flexibility Score: inf
ROOT
ATOM      1  C   UNL     1       2.087  -1.812 -22.736  1.00  0.00     0.171 C 
ENDROOT
BRANCH   1   2
ATOM      2  C   UNL     1       1.727  -2.207 -21.290  1.00  0.00     0.190 C 
BRANCH   2   3
ATOM      3  O   UNL     1       0.392  -1.889 -20.993  1.00  0.00    -0.394 OA
ATOM      4  H   UNL     1      -0.092  -1.843 -21.858  1.00  0.00     0.210 HD
ENDBRANCH   2   3
ENDBRANCH   1   2
BRANCH   1   5
ATOM      5  C   UNL     1       2.607  -0.346 -22.846  1.00  0.00     0.181 C 
BRANCH   5   6
ATOM      6  C   UNL     1       2.515   0.246 -24.278  1.00  0.00     0.209 C 
BRANCH   6   7
ATOM      7  C   UNL     1       3.820   0.825 -24.755  1.00  0.00     0.258 C 
ATOM      8  O   UNL     1       4.210   1.904 -24.338  1.00  0.00    -0.300 OA
ENDBRANCH   6   7
BRANCH   6   9
ATOM      9  O   UNL     1       1.530   1.246 -24.332  1.00  0.00    -0.383 OA
ATOM     10  H   UNL     1       1.995   2.117 -24.231  1.00  0.00     0.211 HD
ENDBRANCH   6   9
ENDBRANCH   5   6
BRANCH   5  11
ATOM     11  O   UNL     1       1.956   0.499 -21.927  1.00  0.00    -0.387 OA
ATOM     12  H   UNL     1       2.612   0.757 -21.229  1.00  0.00     0.211 HD
ENDBRANCH   5  11
ENDBRANCH   1   5
BRANCH   1  13
ATOM     13  O   UNL     1       3.013  -2.725 -23.272  1.00  0.00    -0.388 OA
ATOM     14  H   UNL     1       3.367  -2.337 -24.114  1.00  0.00     0.211 HD
ENDBRANCH   1  13
TORSDOF 8
ENDMDL
MODEL 3
REMARK VINA RESULT:    -3.789      1.581      1.774
REMARK INTER + INTRA:          -5.691
REMARK INTER:                  -5.092
REMARK INTRA:                  -0.598
REMARK UNBOUND:                -0.572
REMARK SMILES O=C[C@H](O)[C@@H](O)[C@@H](O)CO
REMARK SMILES IDX 7 1 9 2 10 3 5 5 3 6 2 7 1 8 4 9 6 11 8 13
REMARK H PARENT 10 4 4 10 6 12 8 14
REMARK Flexibility Score: inf
ROOT
ATOM      1  C   UNL     1      -2.010   3.402 -22.533  1.00  0.00     0.171 C 
ENDROOT
BRANCH   1   2
ATOM      2  C   UNL     1      -1.271   4.314 -23.532  1.00  0.00     0.190 C 
BRANCH   2   3
ATOM      3  O   UNL     1      -0.999   5.571 -22.970  1.00  0.00    -0.394 OA
ATOM      4  H   UNL     1      -1.870   6.035 -22.868  1.00  0.00     0.210 HD
ENDBRANCH   2   3
ENDBRANCH   1   2
BRANCH   1   5
ATOM      5  C   UNL     1      -3.550   3.369 -22.776  1.00  0.00     0.181 C 
BRANCH   5   6
ATOM      6  C   UNL     1      -4.370   2.908 -21.540  1.00  0.00     0.209 C 
BRANCH   6   7
ATOM      7  C   UNL     1      -5.618   3.724 -21.332  1.00  0.00     0.258 C 
ATOM      8  O   UNL     1      -6.470   3.790 -22.202  1.00  0.00    -0.300 OA
ENDBRANCH   6   7
BRANCH   6   9
ATOM      9  O   UNL     1      -3.585   2.977 -20.378  1.00  0.00    -0.383 OA
ATOM     10  H   UNL     1      -4.208   2.970 -19.606  1.00  0.00     0.211 HD
ENDBRANCH   6   9
ENDBRANCH   5   6
BRANCH   5  11
ATOM     11  O   UNL     1      -4.023   4.612 -23.239  1.00  0.00    -0.387 OA
ATOM     12  H   UNL     1      -4.946   4.736 -22.895  1.00  0.00     0.211 HD
ENDBRANCH   5  11
ENDBRANCH   1   5
BRANCH   1  13
ATOM     13  O   UNL     1      -1.460   2.108 -22.557  1.00  0.00    -0.388 OA
ATOM     14  H   UNL     1      -2.187   1.475 -22.792  1.00  0.00     0.211 HD
ENDBRANCH   1  13
TORSDOF 8
ENDMDL
MODEL 4
REMARK VINA RESULT:    -3.755      0.960      1.893
REMARK INTER + INTRA:          -5.645
REMARK INTER:                  -5.294
REMARK INTRA:                  -0.351
REMARK UNBOUND:                -0.572
REMARK SMILES O=C[C@H](O)[C@@H](O)[C@@H](O)CO
REMARK SMILES IDX 7 1 9 2 10 3 5 5 3 6 2 7 1 8 4 9 6 11 8 13
REMARK H PARENT 10 4 4 10 6 12 8 14
REMARK Flexibility Score: inf
ROOT
ATOM      1  C   UNL     1      -2.301   3.716 -23.337  1.00  0.00     0.171 C 
ENDROOT
BRANCH   1   2
ATOM      2  C   UNL     1      -1.688   3.107 -24.613  1.00  0.00     0.190 C 
BRANCH   2   3
ATOM      3  O   UNL     1      -0.316   2.859 -24.451  1.00  0.00    -0.394 OA
ATOM      4  H   UNL     1       0.003   3.464 -23.732  1.00  0.00     0.210 HD
ENDBRANCH   2   3
ENDBRANCH   1   2
BRANCH   1   5
ATOM      5  C   UNL     1      -2.422   2.681 -22.177  1.00  0.00     0.181 C 
BRANCH   5   6
ATOM      6  C   UNL     1      -3.832   2.630 -21.527  1.00  0.00     0.209 C 
BRANCH   6   7
ATOM      7  C   UNL     1      -4.816   3.550 -22.197  1.00  0.00     0.258 C 
ATOM      8  O   UNL     1      -5.808   3.939 -21.602  1.00  0.00    -0.300 OA
ENDBRANCH   6   7
BRANCH   6   9
ATOM      9  O   UNL     1      -3.756   2.963 -20.165  1.00  0.00    -0.383 OA
ATOM     10  H   UNL     1      -4.687   3.092 -19.845  1.00  0.00     0.211 HD
ENDBRANCH   6   9
ENDBRANCH   5   6
BRANCH   5  11
ATOM     11  O   UNL     1      -2.031   1.395 -22.593  1.00  0.00    -0.387 OA
ATOM     12  H   UNL     1      -2.548   1.166 -23.408  1.00  0.00     0.211 HD
ENDBRANCH   5  11
ENDBRANCH   1   5
BRANCH   1  13
ATOM     13  O   UNL     1      -1.568   4.849 -22.939  1.00  0.00    -0.388 OA
ATOM     14  H   UNL     1      -2.007   5.646 -23.335  1.00  0.00     0.211 HD
ENDBRANCH   1  13
TORSDOF 8
ENDMDL
MODEL 5
REMARK VINA RESULT:    -3.629      1.261      4.041
REMARK INTER + INTRA:          -5.474
REMARK INTER:                  -5.004
REMARK INTRA:                  -0.470
REMARK UNBOUND:                -0.572
REMARK SMILES O=C[C@H](O)[C@@H](O)[C@@H](O)CO
REMARK SMILES IDX 7 1 9 2 10 3 5 5 3 6 2 7 1 8 4 9 6 11 8 13
REMARK H PARENT 10 4 4 10 6 12 8 14
REMARK Flexibility Score: inf
ROOT
ATOM      1  C   UNL     1      -4.145   3.522 -22.119  1.00  0.00     0.171 C 
ENDROOT
BRANCH   1   2
ATOM      2  C   UNL     1      -4.530   2.597 -20.948  1.00  0.00     0.190 C 
BRANCH   2   3
ATOM      3  O   UNL     1      -3.728   2.840 -19.822  1.00  0.00    -0.394 OA
ATOM      4  H   UNL     1      -4.100   3.642 -19.372  1.00  0.00     0.210 HD
ENDBRANCH   2   3
ENDBRANCH   1   2
BRANCH   1   5
ATOM      5  C   UNL     1      -2.808   3.101 -22.803  1.00  0.00     0.181 C 
BRANCH   5   6
ATOM      6  C   UNL     1      -2.181   4.210 -23.691  1.00  0.00     0.209 C 
BRANCH   6   7
ATOM      7  C   UNL     1      -1.283   3.658 -24.765  1.00  0.00     0.258 C 
ATOM      8  O   UNL     1      -0.830   2.528 -24.676  1.00  0.00    -0.300 OA
ENDBRANCH   6   7
BRANCH   6   9
ATOM      9  O   UNL     1      -1.445   5.110 -22.904  1.00  0.00    -0.383 OA
ATOM     10  H   UNL     1      -1.362   4.705 -22.001  1.00  0.00     0.211 HD
ENDBRANCH   6   9
ENDBRANCH   5   6
BRANCH   5  11
ATOM     11  O   UNL     1      -1.869   2.647 -21.857  1.00  0.00    -0.387 OA
ATOM     12  H   UNL     1      -1.214   2.069 -22.328  1.00  0.00     0.211 HD
ENDBRANCH   5  11
ENDBRANCH   1   5
BRANCH   1  13
ATOM     13  O   UNL     1      -5.197   3.591 -23.050  1.00  0.00    -0.388 OA
ATOM     14  H   UNL     1      -4.797   3.738 -23.947  1.00  0.00     0.211 HD
ENDBRANCH   1  13
TORSDOF 8
ENDMDL
MODEL 6
REMARK VINA RESULT:    -3.617      1.032      3.894
REMARK INTER + INTRA:          -5.458
REMARK INTER:                  -4.799
REMARK INTRA:                  -0.659
REMARK UNBOUND:                -0.572
REMARK SMILES O=C[C@H](O)[C@@H](O)[C@@H](O)CO
REMARK SMILES IDX 7 1 9 2 10 3 5 5 3 6 2 7 1 8 4 9 6 11 8 13
REMARK H PARENT 10 4 4 10 6 12 8 14
REMARK Flexibility Score: inf
ROOT
ATOM      1  C   UNL     1      -4.034   2.839 -21.527  1.00  0.00     0.171 C 
ENDROOT
BRANCH   1   2
ATOM      2  C   UNL     1      -5.427   3.491 -21.630  1.00  0.00     0.190 C 
BRANCH   2   3
ATOM      3  O   UNL     1      -6.246   2.803 -22.540  1.00  0.00    -0.394 OA
ATOM      4  H   UNL     1      -6.361   1.884 -22.185  1.00  0.00     0.210 HD
ENDBRANCH   2   3
ENDBRANCH   1   2
BRANCH   1   5
ATOM      5  C   UNL     1      -3.000   3.475 -22.505  1.00  0.00     0.181 C 
BRANCH   5   6
ATOM      6  C   UNL     1      -1.752   2.587 -22.763  1.00  0.00     0.209 C 
BRANCH   6   7
ATOM      7  C   UNL     1      -1.307   2.610 -24.200  1.00  0.00     0.258 C 
ATOM      8  O   UNL     1      -0.846   3.627 -24.692  1.00  0.00    -0.300 OA
ENDBRANCH   6   7
BRANCH   6   9
ATOM      9  O   UNL     1      -2.012   1.258 -22.390  1.00  0.00    -0.383 OA
ATOM     10  H   UNL     1      -2.990   1.116 -22.487  1.00  0.00     0.211 HD
ENDBRANCH   6   9
ENDBRANCH   5   6
BRANCH   5  11
ATOM     11  O   UNL     1      -3.602   3.834 -23.726  1.00  0.00    -0.387 OA
ATOM     12  H   UNL     1      -3.559   4.821 -23.811  1.00  0.00     0.211 HD
ENDBRANCH   5  11
ENDBRANCH   1   5
BRANCH   1  13
ATOM     13  O   UNL     1      -3.576   2.881 -20.198  1.00  0.00    -0.388 OA
ATOM     14  H   UNL     1      -3.717   1.982 -19.802  1.00  0.00     0.211 HD
ENDBRANCH   1  13
TORSDOF 8
ENDMDL
MODEL 7
REMARK VINA RESULT:    -3.616      1.810      2.617
REMARK INTER + INTRA:          -5.457
REMARK INTER:                  -5.000
REMARK INTRA:                  -0.457
REMARK UNBOUND:                -0.572
REMARK SMILES O=C[C@H](O)[C@@H](O)[C@@H](O)CO
REMARK SMILES IDX 7 1 9 2 10 3 5 5 3 6 2 7 1 8 4 9 6 11 8 13
REMARK H PARENT 10 4 4 10 6 12 8 14
REMARK Flexibility Score: inf
ROOT
ATOM      1  C   UNL     1      -1.534   2.802 -22.582  1.00  0.00     0.171 C 
ENDROOT
BRANCH   1   2
ATOM      2  C   UNL     1      -1.381   1.484 -23.365  1.00  0.00     0.190 C 
BRANCH   2   3
ATOM      3  O   UNL     1      -1.363   0.377 -22.501  1.00  0.00    -0.394 OA
ATOM      4  H   UNL     1      -2.267  -0.030 -22.536  1.00  0.00     0.210 HD
ENDBRANCH   2   3
ENDBRANCH   1   2
BRANCH   1   5
ATOM      5  C   UNL     1      -1.743   4.034 -23.515  1.00  0.00     0.181 C 
BRANCH   5   6
ATOM      6  C   UNL     1      -3.188   4.164 -24.069  1.00  0.00     0.209 C 
BRANCH   6   7
ATOM      7  C   UNL     1      -3.314   5.228 -25.125  1.00  0.00     0.258 C 
ATOM      8  O   UNL     1      -3.301   6.410 -24.821  1.00  0.00    -0.300 OA
ENDBRANCH   6   7
BRANCH   6   9
ATOM      9  O   UNL     1      -4.086   4.450 -23.028  1.00  0.00    -0.383 OA
ATOM     10  H   UNL     1      -4.168   3.626 -22.480  1.00  0.00     0.211 HD
ENDBRANCH   6   9
ENDBRANCH   5   6
BRANCH   5  11
ATOM     11  O   UNL     1      -1.355   5.230 -22.881  1.00  0.00    -0.387 OA
ATOM     12  H   UNL     1      -0.863   4.992 -22.053  1.00  0.00     0.211 HD
ENDBRANCH   5  11
ENDBRANCH   1   5
BRANCH   1  13
ATOM     13  O   UNL     1      -2.574   2.690 -21.641  1.00  0.00    -0.388 OA
ATOM     14  H   UNL     1      -3.216   2.014 -21.980  1.00  0.00     0.211 HD
ENDBRANCH   1  13
TORSDOF 8
ENDMDL
MODEL 8
REMARK VINA RESULT:    -3.581      1.645      2.371
REMARK INTER + INTRA:          -5.410
REMARK INTER:                  -4.704
REMARK INTRA:                  -0.705
REMARK UNBOUND:                -0.572
REMARK SMILES O=C[C@H](O)[C@@H](O)[C@@H](O)CO
REMARK SMILES IDX 7 1 9 2 10 3 5 5 3 6 2 7 1 8 4 9 6 11 8 13
REMARK H PARENT 10 4 4 10 6 12 8 14
REMARK Flexibility Score: inf
ROOT
ATOM      1  C   UNL     1      -3.233   3.211 -22.157  1.00  0.00     0.171 C 
ENDROOT
BRANCH   1   2
ATOM      2  C   UNL     1      -1.965   3.468 -22.995  1.00  0.00     0.190 C 
BRANCH   2   3
ATOM      3  O   UNL     1      -1.562   4.810 -22.909  1.00  0.00    -0.394 OA
ATOM      4  H   UNL     1      -1.467   5.142 -23.840  1.00  0.00     0.210 HD
ENDBRANCH   2   3
ENDBRANCH   1   2
BRANCH   1   5
ATOM      5  C   UNL     1      -4.537   3.643 -22.895  1.00  0.00     0.181 C 
BRANCH   5   6
ATOM      6  C   UNL     1      -5.814   3.555 -22.015  1.00  0.00     0.209 C 
BRANCH   6   7
ATOM      7  C   UNL     1      -6.804   4.649 -22.313  1.00  0.00     0.258 C 
ATOM      8  O   UNL     1      -6.706   5.739 -21.776  1.00  0.00    -0.300 OA
ENDBRANCH   6   7
BRANCH   6   9
ATOM      9  O   UNL     1      -5.474   3.613 -20.653  1.00  0.00    -0.383 OA
ATOM     10  H   UNL     1      -5.809   2.777 -20.235  1.00  0.00     0.211 HD
ENDBRANCH   6   9
ENDBRANCH   5   6
BRANCH   5  11
ATOM     11  O   UNL     1      -4.413   4.933 -23.444  1.00  0.00    -0.387 OA
ATOM     12  H   UNL     1      -5.285   5.181 -23.847  1.00  0.00     0.211 HD
ENDBRANCH   5  11
ENDBRANCH   1   5
BRANCH   1  13
ATOM     13  O   UNL     1      -3.290   1.862 -21.764  1.00  0.00    -0.388 OA
ATOM     14  H   UNL     1      -4.145   1.485 -22.099  1.00  0.00     0.211 HD
ENDBRANCH   1  13
TORSDOF 8
ENDMDL
MODEL 9
REMARK VINA RESULT:    -3.533      2.973      4.197
REMARK INTER + INTRA:          -5.345
REMARK INTER:                  -4.590
REMARK INTRA:                  -0.754
REMARK UNBOUND:                -0.572
REMARK SMILES O=C[C@H](O)[C@@H](O)[C@@H](O)CO
REMARK SMILES IDX 7 1 9 2 10 3 5 5 3 6 2 7 1 8 4 9 6 11 8 13
REMARK H PARENT 10 4 4 10 6 12 8 14
REMARK Flexibility Score: inf
ROOT
ATOM      1  C   UNL     1      -1.352   3.735 -24.231  1.00  0.00     0.171 C 
ENDROOT
BRANCH   1   2
ATOM      2  C   UNL     1      -1.814   3.200 -22.862  1.00  0.00     0.190 C 
BRANCH   2   3
ATOM      3  O   UNL     1      -2.950   3.886 -22.404  1.00  0.00    -0.394 OA
ATOM      4  H   UNL     1      -2.962   3.795 -21.416  1.00  0.00     0.210 HD
ENDBRANCH   2   3
ENDBRANCH   1   2
BRANCH   1   5
ATOM      5  C   UNL     1      -0.992   5.252 -24.193  1.00  0.00     0.181 C 
BRANCH   5   6
ATOM      6  C   UNL     1      -1.986   6.152 -24.975  1.00  0.00     0.209 C 
BRANCH   6   7
ATOM      7  C   UNL     1      -1.541   7.588 -25.045  1.00  0.00     0.258 C 
ATOM      8  O   UNL     1      -0.376   7.888 -24.839  1.00  0.00    -0.300 OA
ENDBRANCH   6   7
BRANCH   6   9
ATOM      9  O   UNL     1      -3.260   6.102 -24.386  1.00  0.00    -0.383 OA
ATOM     10  H   UNL     1      -3.847   5.595 -25.007  1.00  0.00     0.211 HD
ENDBRANCH   6   9
ENDBRANCH   5   6
BRANCH   5  11
ATOM     11  O   UNL     1      -0.855   5.713 -22.869  1.00  0.00    -0.387 OA
ATOM     12  H   UNL     1      -0.790   6.703 -22.895  1.00  0.00     0.211 HD
ENDBRANCH   5  11
ENDBRANCH   1   5
BRANCH   1  13
ATOM     13  O   UNL     1      -0.279   2.966 -24.716  1.00  0.00    -0.388 OA
ATOM     14  H   UNL     1       0.294   2.724 -23.942  1.00  0.00     0.211 HD
ENDBRANCH   1  13
TORSDOF 8
ENDMDL
