MODEL 1
REMARK VINA RESULT:    -3.053      0.000      0.000
REMARK INTER + INTRA:          -3.683
REMARK INTER:                  -3.678
REMARK INTRA:                  -0.005
REMARK UNBOUND:                -0.005
REMARK SMILES CC[C@@H](C)[C@@H]([NH3+])C(=O)[O-]
REMARK SMILES IDX 3 1 4 2 5 3 6 4 7 8 8 9 9 10 2 11 1 12
REMARK H PARENT 6 5 6 6 6 7
REMARK Flexibility Score: inf
ROOT
ATOM      1  C   UNL     1      28.542   5.643  40.212  1.00  0.00     0.050 C 
ATOM      2  C   UNL     1      29.125   6.643  39.198  1.00  0.00     0.014 C 
ENDROOT
BRANCH   1   3
ATOM      3  C   UNL     1      28.721   4.174  39.718  1.00  0.00     0.230 C 
BRANCH   3   4
ATOM      4  N   UNL     1      28.137   3.185  40.639  1.00  0.00    -0.350 N 
ATOM      5  H   UNL     1      28.626   3.187  41.563  1.00  0.00     0.345 HD
ATOM      6  H   UNL     1      28.186   2.227  40.223  1.00  0.00     0.345 HD
ATOM      7  H   UNL     1      27.128   3.410  40.797  1.00  0.00     0.345 HD
ENDBRANCH   3   4
BRANCH   3   8
ATOM      8  C   UNL     1      28.177   4.002  38.320  1.00  0.00     0.099 C 
ATOM      9  O   UNL     1      28.831   3.379  37.442  1.00  0.00    -0.544 OA
ATOM     10  O   UNL     1      26.917   4.498  38.007  1.00  0.00    -0.544 OA
ENDBRANCH   3   8
ENDBRANCH   1   3
BRANCH   1  11
ATOM     11  C   UNL     1      29.123   5.879  41.630  1.00  0.00     0.006 C 
ATOM     12  C   UNL     1      29.122   7.353  42.033  1.00  0.00     0.004 C 
ENDBRANCH   1  11
TORSDOF 4
ENDMDL
MODEL 2
REMARK VINA RESULT:    -2.996     18.242     19.233
REMARK INTER + INTRA:          -3.614
REMARK INTER:                  -3.692
REMARK INTRA:                   0.078
REMARK UNBOUND:                -0.005
REMARK SMILES CC[C@@H](C)[C@@H]([NH3+])C(=O)[O-]
REMARK SMILES IDX 3 1 4 2 5 3 6 4 7 8 8 9 9 10 2 11 1 12
REMARK H PARENT 6 5 6 6 6 7
REMARK Flexibility Score: inf
ROOT
ATOM      1  C   UNL     1      12.684  14.713  45.877  1.00  0.00     0.050 C 
ATOM      2  C   UNL     1      11.444  15.528  45.466  1.00  0.00     0.014 C 
ENDROOT
BRANCH   1   3
ATOM      3  C   UNL     1      13.717  15.606  46.632  1.00  0.00     0.230 C 
BRANCH   3   4
ATOM      4  N   UNL     1      13.723  15.369  48.085  1.00  0.00    -0.350 N 
ATOM      5  H   UNL     1      13.156  14.529  48.338  1.00  0.00     0.345 HD
ATOM      6  H   UNL     1      13.351  16.204  48.591  1.00  0.00     0.345 HD
ATOM      7  H   UNL     1      14.707  15.217  48.408  1.00  0.00     0.345 HD
ENDBRANCH   3   4
BRANCH   3   8
ATOM      8  C   UNL     1      15.101  15.446  46.049  1.00  0.00     0.099 C 
ATOM      9  O   UNL     1      15.806  16.452  45.770  1.00  0.00    -0.544 OA
ATOM     10  O   UNL     1      15.623  14.173  45.858  1.00  0.00    -0.544 OA
ENDBRANCH   3   8
ENDBRANCH   1   3
BRANCH   1  11
ATOM     11  C   UNL     1      12.283  13.446  46.675  1.00  0.00     0.006 C 
ATOM     12  C   UNL     1      13.205  12.258  46.401  1.00  0.00     0.004 C 
ENDBRANCH   1  11
TORSDOF 4
ENDMDL
MODEL 3
REMARK VINA RESULT:    -2.869     18.087     19.041
REMARK INTER + INTRA:          -3.461
REMARK INTER:                  -3.481
REMARK INTRA:                   0.019
REMARK UNBOUND:                -0.005
REMARK SMILES CC[C@@H](C)[C@@H]([NH3+])C(=O)[O-]
REMARK SMILES IDX 3 1 4 2 5 3 6 4 7 8 8 9 9 10 2 11 1 12
REMARK H PARENT 6 5 6 6 6 7
REMARK Flexibility Score: inf
ROOT
ATOM      1  C   UNL     1      13.382  14.680  47.589  1.00  0.00     0.050 C 
ATOM      2  C   UNL     1      12.570  15.038  48.847  1.00  0.00     0.014 C 
ENDROOT
BRANCH   1   3
ATOM      3  C   UNL     1      12.679  13.554  46.769  1.00  0.00     0.230 C 
BRANCH   3   4
ATOM      4  N   UNL     1      11.992  14.064  45.571  1.00  0.00    -0.350 N 
ATOM      5  H   UNL     1      12.446  14.933  45.210  1.00  0.00     0.345 HD
ATOM      6  H   UNL     1      10.987  14.260  45.783  1.00  0.00     0.345 HD
ATOM      7  H   UNL     1      12.019  13.337  44.818  1.00  0.00     0.345 HD
ENDBRANCH   3   4
BRANCH   3   8
ATOM      8  C   UNL     1      13.651  12.455  46.412  1.00  0.00     0.099 C 
ATOM      9  O   UNL     1      13.304  11.244  46.456  1.00  0.00    -0.544 OA
ATOM     10  O   UNL     1      14.932  12.782  45.987  1.00  0.00    -0.544 OA
ENDBRANCH   3   8
ENDBRANCH   1   3
BRANCH   1  11
ATOM     11  C   UNL     1      13.690  15.942  46.743  1.00  0.00     0.006 C 
ATOM     12  C   UNL     1      15.118  15.955  46.198  1.00  0.00     0.004 C 
ENDBRANCH   1  11
TORSDOF 4
ENDMDL
MODEL 4
REMARK VINA RESULT:    -2.789      1.731      2.778
REMARK INTER + INTRA:          -3.365
REMARK INTER:                  -3.629
REMARK INTRA:                   0.264
REMARK UNBOUND:                -0.005
REMARK SMILES CC[C@@H](C)[C@@H]([NH3+])C(=O)[O-]
REMARK SMILES IDX 3 1 4 2 5 3 6 4 7 8 8 9 9 10 2 11 1 12
REMARK H PARENT 6 5 6 6 6 7
REMARK Flexibility Score: inf
ROOT
ATOM      1  C   UNL     1      28.088   4.714  40.112  1.00  0.00     0.050 C 
ATOM      2  C   UNL     1      28.357   5.906  41.047  1.00  0.00     0.014 C 
ENDROOT
BRANCH   1   3
ATOM      3  C   UNL     1      28.023   5.173  38.622  1.00  0.00     0.230 C 
BRANCH   3   4
ATOM      4  N   UNL     1      29.125   6.078  38.254  1.00  0.00    -0.350 N 
ATOM      5  H   UNL     1      28.894   6.637  37.402  1.00  0.00     0.345 HD
ATOM      6  H   UNL     1      30.001   5.533  38.084  1.00  0.00     0.345 HD
ATOM      7  H   UNL     1      29.313   6.737  39.045  1.00  0.00     0.345 HD
ENDBRANCH   3   4
BRANCH   3   8
ATOM      8  C   UNL     1      27.960   3.986  37.690  1.00  0.00     0.099 C 
ATOM      9  O   UNL     1      26.875   3.645  37.148  1.00  0.00    -0.544 OA
ATOM     10  O   UNL     1      29.122   3.286  37.390  1.00  0.00    -0.544 OA
ENDBRANCH   3   8
ENDBRANCH   1   3
BRANCH   1  11
ATOM     11  C   UNL     1      29.112   3.573  40.348  1.00  0.00     0.006 C 
ATOM     12  C   UNL     1      28.449   2.260  40.763  1.00  0.00     0.004 C 
ENDBRANCH   1  11
TORSDOF 4
ENDMDL
MODEL 5
REMARK VINA RESULT:    -2.651     19.497     20.493
REMARK INTER + INTRA:          -3.199
REMARK INTER:                  -3.118
REMARK INTRA:                  -0.081
REMARK UNBOUND:                -0.005
REMARK SMILES CC[C@@H](C)[C@@H]([NH3+])C(=O)[O-]
REMARK SMILES IDX 3 1 4 2 5 3 6 4 7 8 8 9 9 10 2 11 1 12
REMARK H PARENT 6 5 6 6 6 7
REMARK Flexibility Score: inf
ROOT
ATOM      1  C   UNL     1      12.482  13.910  46.518  1.00  0.00     0.050 C 
ATOM      2  C   UNL     1      13.045  12.526  46.144  1.00  0.00     0.014 C 
ENDROOT
BRANCH   1   3
ATOM      3  C   UNL     1      13.408  14.633  47.545  1.00  0.00     0.230 C 
BRANCH   3   4
ATOM      4  N   UNL     1      14.075  15.817  46.979  1.00  0.00    -0.350 N 
ATOM      5  H   UNL     1      14.073  15.794  45.934  1.00  0.00     0.345 HD
ATOM      6  H   UNL     1      15.060  15.878  47.322  1.00  0.00     0.345 HD
ATOM      7  H   UNL     1      13.576  16.681  47.294  1.00  0.00     0.345 HD
ENDBRANCH   3   4
BRANCH   3   8
ATOM      8  C   UNL     1      12.651  14.985  48.804  1.00  0.00     0.099 C 
ATOM      9  O   UNL     1      13.259  15.361  49.841  1.00  0.00    -0.544 OA
ATOM     10  O   UNL     1      11.262  14.938  48.806  1.00  0.00    -0.544 OA
ENDBRANCH   3   8
ENDBRANCH   1   3
BRANCH   1  11
ATOM     11  C   UNL     1      12.201  14.761  45.253  1.00  0.00     0.006 C 
ATOM     12  C   UNL     1      11.019  15.714  45.432  1.00  0.00     0.004 C 
ENDBRANCH   1  11
TORSDOF 4
ENDMDL
MODEL 6
REMARK VINA RESULT:    -2.604      2.329      3.259
REMARK INTER + INTRA:          -3.142
REMARK INTER:                  -3.091
REMARK INTRA:                  -0.052
REMARK UNBOUND:                -0.005
REMARK SMILES CC[C@@H](C)[C@@H]([NH3+])C(=O)[O-]
REMARK SMILES IDX 3 1 4 2 5 3 6 4 7 8 8 9 9 10 2 11 1 12
REMARK H PARENT 6 5 6 6 6 7
REMARK Flexibility Score: inf
ROOT
ATOM      1  C   UNL     1      28.927   4.905  39.151  1.00  0.00     0.050 C 
ATOM      2  C   UNL     1      29.124   6.425  39.001  1.00  0.00     0.014 C 
ENDROOT
BRANCH   1   3
ATOM      3  C   UNL     1      29.125   4.457  40.633  1.00  0.00     0.230 C 
BRANCH   3   4
ATOM      4  N   UNL     1      28.641   5.454  41.601  1.00  0.00    -0.350 N 
ATOM      5  H   UNL     1      27.677   5.782  41.364  1.00  0.00     0.345 HD
ATOM      6  H   UNL     1      29.288   6.275  41.633  1.00  0.00     0.345 HD
ATOM      7  H   UNL     1      28.622   5.030  42.558  1.00  0.00     0.345 HD
ENDBRANCH   3   4
BRANCH   3   8
ATOM      8  C   UNL     1      28.494   3.108  40.880  1.00  0.00     0.099 C 
ATOM      9  O   UNL     1      28.974   2.064  40.364  1.00  0.00    -0.544 OA
ATOM     10  O   UNL     1      27.396   3.007  41.725  1.00  0.00    -0.544 OA
ENDBRANCH   3   8
ENDBRANCH   1   3
BRANCH   1  11
ATOM     11  C   UNL     1      27.565   4.456  38.561  1.00  0.00     0.006 C 
ATOM     12  C   UNL     1      27.718   3.614  37.294  1.00  0.00     0.004 C 
ENDBRANCH   1  11
TORSDOF 4
ENDMDL
MODEL 7
REMARK VINA RESULT:    -2.545     19.036     20.036
REMARK INTER + INTRA:          -3.071
REMARK INTER:                  -3.721
REMARK INTRA:                   0.650
REMARK UNBOUND:                -0.005
REMARK SMILES CC[C@@H](C)[C@@H]([NH3+])C(=O)[O-]
REMARK SMILES IDX 3 1 4 2 5 3 6 4 7 8 8 9 9 10 2 11 1 12
REMARK H PARENT 6 5 6 6 6 7
REMARK Flexibility Score: inf
ROOT
ATOM      1  C   UNL     1      13.039  14.256  46.049  1.00  0.00     0.050 C 
ATOM      2  C   UNL     1      11.899  15.155  45.535  1.00  0.00     0.014 C 
ENDROOT
BRANCH   1   3
ATOM      3  C   UNL     1      13.800  14.935  47.230  1.00  0.00     0.230 C 
BRANCH   3   4
ATOM      4  N   UNL     1      14.359  16.248  46.869  1.00  0.00    -0.350 N 
ATOM      5  H   UNL     1      13.608  16.924  46.602  1.00  0.00     0.345 HD
ATOM      6  H   UNL     1      15.035  16.151  46.078  1.00  0.00     0.345 HD
ATOM      7  H   UNL     1      14.883  16.639  47.686  1.00  0.00     0.345 HD
ENDBRANCH   3   4
BRANCH   3   8
ATOM      8  C   UNL     1      12.922  15.035  48.454  1.00  0.00     0.099 C 
ATOM      9  O   UNL     1      13.424  15.088  49.609  1.00  0.00    -0.544 OA
ATOM     10  O   UNL     1      11.543  15.116  48.307  1.00  0.00    -0.544 OA
ENDBRANCH   3   8
ENDBRANCH   1   3
BRANCH   1  11
ATOM     11  C   UNL     1      12.519  12.838  46.400  1.00  0.00     0.006 C 
ATOM     12  C   UNL     1      13.632  11.791  46.429  1.00  0.00     0.004 C 
ENDBRANCH   1  11
TORSDOF 4
ENDMDL
MODEL 8
REMARK VINA RESULT:    -2.536     19.244     20.209
REMARK INTER + INTRA:          -3.060
REMARK INTER:                  -2.941
REMARK INTRA:                  -0.120
REMARK UNBOUND:                -0.005
REMARK SMILES CC[C@@H](C)[C@@H]([NH3+])C(=O)[O-]
REMARK SMILES IDX 3 1 4 2 5 3 6 4 7 8 8 9 9 10 2 11 1 12
REMARK H PARENT 6 5 6 6 6 7
REMARK Flexibility Score: inf
ROOT
ATOM      1  C   UNL     1      13.450  15.432  46.958  1.00  0.00     0.050 C 
ATOM      2  C   UNL     1      14.884  15.783  46.523  1.00  0.00     0.014 C 
ENDROOT
BRANCH   1   3
ATOM      3  C   UNL     1      12.724  14.585  45.867  1.00  0.00     0.230 C 
BRANCH   3   4
ATOM      4  N   UNL     1      12.370  13.234  46.333  1.00  0.00    -0.350 N 
ATOM      5  H   UNL     1      11.498  13.243  46.909  1.00  0.00     0.345 HD
ATOM      6  H   UNL     1      13.152  12.827  46.895  1.00  0.00     0.345 HD
ATOM      7  H   UNL     1      12.218  12.610  45.507  1.00  0.00     0.345 HD
ENDBRANCH   3   4
BRANCH   3   8
ATOM      8  C   UNL     1      11.511  15.311  45.335  1.00  0.00     0.099 C 
ATOM      9  O   UNL     1      10.977  14.969  44.247  1.00  0.00    -0.544 OA
ATOM     10  O   UNL     1      10.948  16.343  46.076  1.00  0.00    -0.544 OA
ENDBRANCH   3   8
ENDBRANCH   1   3
BRANCH   1  11
ATOM     11  C   UNL     1      13.437  14.757  48.355  1.00  0.00     0.006 C 
ATOM     12  C   UNL     1      12.245  15.188  49.209  1.00  0.00     0.004 C 
ENDBRANCH   1  11
TORSDOF 4
ENDMDL
