MODEL 1
REMARK VINA RESULT:     0.956      0.000      0.000
REMARK INTER + INTRA:           0.693
REMARK INTER:                   1.794
REMARK INTRA:                  -1.101
REMARK UNBOUND:                -1.101
REMARK SMILES CCCCCCCCC=CCCCCCCCC(=O)[O-]
REMARK SMILES IDX 10 1 9 2 11 3 12 4 13 5 14 6 15 7 16 8 17 9 18 10 19 11
REMARK SMILES IDX 20 12 8 13 7 14 6 15 5 16 4 17 3 18 2 19 1 20
REMARK H PARENT
REMARK Flexibility Score: inf
ROOT
ATOM      1  C   UNL     1     -16.389 -57.699   2.779  1.00  0.00    -0.031 C 
ATOM      2  C   UNL     1     -15.979 -56.610   3.454  1.00  0.00    -0.031 C 
ENDROOT
BRANCH   1   3
ATOM      3  C   UNL     1     -15.981 -58.040   1.366  1.00  0.00     0.027 C 
BRANCH   3   4
ATOM      4  C   UNL     1     -14.923 -59.155   1.321  1.00  0.00     0.004 C 
BRANCH   4   5
ATOM      5  C   UNL     1     -13.849 -58.975   0.229  1.00  0.00     0.000 C 
BRANCH   5   6
ATOM      6  C   UNL     1     -13.046 -57.664   0.307  1.00  0.00     0.000 C 
BRANCH   6   7
ATOM      7  C   UNL     1     -11.672 -57.763  -0.376  1.00  0.00     0.000 C 
BRANCH   7   8
ATOM      8  C   UNL     1     -10.516 -57.927   0.628  1.00  0.00     0.006 C 
BRANCH   8   9
ATOM      9  C   UNL     1      -9.733 -56.634   0.912  1.00  0.00     0.053 C 
BRANCH   9  10
ATOM     10  C   UNL     1      -8.837 -56.768   2.104  1.00  0.00     0.041 C 
ATOM     11  O   UNL     1      -8.970 -57.742   2.892  1.00  0.00    -0.550 OA
ATOM     12  O   UNL     1      -7.834 -55.833   2.328  1.00  0.00    -0.550 OA
ENDBRANCH   9  10
ENDBRANCH   8   9
ENDBRANCH   7   8
ENDBRANCH   6   7
ENDBRANCH   5   6
ENDBRANCH   4   5
ENDBRANCH   3   4
ENDBRANCH   1   3
BRANCH   2  13
ATOM     13  C   UNL     1     -15.140 -55.499   2.870  1.00  0.00     0.027 C 
BRANCH  13  14
ATOM     14  C   UNL     1     -15.994 -54.454   2.132  1.00  0.00     0.004 C 
BRANCH  14  15
ATOM     15  C   UNL     1     -15.989 -54.603   0.599  1.00  0.00     0.000 C 
BRANCH  15  16
ATOM     16  C   UNL     1     -15.859 -53.255  -0.132  1.00  0.00     0.000 C 
BRANCH  16  17
ATOM     17  C   UNL     1     -17.126 -52.906  -0.942  1.00  0.00    -0.000 C 
BRANCH  17  18
ATOM     18  C   UNL     1     -17.355 -53.823  -2.159  1.00  0.00    -0.000 C 
BRANCH  18  19
ATOM     19  C   UNL     1     -18.832 -54.062  -2.515  1.00  0.00    -0.003 C 
ATOM     20  C   UNL     1     -19.031 -54.467  -3.976  1.00  0.00     0.004 C 
ENDBRANCH  18  19
ENDBRANCH  17  18
ENDBRANCH  16  17
ENDBRANCH  15  16
ENDBRANCH  14  15
ENDBRANCH  13  14
ENDBRANCH   2  13
TORSDOF 15
ENDMDL
MODEL 2
REMARK VINA RESULT:     1.017      4.149      8.009
REMARK INTER + INTRA:           0.807
REMARK INTER:                   1.806
REMARK INTRA:                  -0.999
REMARK UNBOUND:                -1.101
REMARK SMILES CCCCCCCCC=CCCCCCCCC(=O)[O-]
REMARK SMILES IDX 10 1 9 2 11 3 12 4 13 5 14 6 15 7 16 8 17 9 18 10 19 11
REMARK SMILES IDX 20 12 8 13 7 14 6 15 5 16 4 17 3 18 2 19 1 20
REMARK H PARENT
REMARK Flexibility Score: inf
ROOT
ATOM      1  C   UNL     1     -16.069 -57.160   3.187  1.00  0.00    -0.031 C 
ATOM      2  C   UNL     1     -16.278 -58.150   2.300  1.00  0.00    -0.031 C 
ENDROOT
BRANCH   1   3
ATOM      3  C   UNL     1     -15.196 -55.954   2.939  1.00  0.00     0.027 C 
BRANCH   3   4
ATOM      4  C   UNL     1     -16.011 -54.652   2.874  1.00  0.00     0.004 C 
BRANCH   4   5
ATOM      5  C   UNL     1     -15.645 -53.726   1.695  1.00  0.00     0.000 C 
BRANCH   5   6
ATOM      6  C   UNL     1     -15.927 -54.302   0.295  1.00  0.00     0.000 C 
BRANCH   6   7
ATOM      7  C   UNL     1     -16.073 -53.212  -0.781  1.00  0.00     0.000 C 
BRANCH   7   8
ATOM      8  C   UNL     1     -17.466 -53.205  -1.437  1.00  0.00     0.006 C 
BRANCH   8   9
ATOM      9  C   UNL     1     -17.532 -53.926  -2.794  1.00  0.00     0.053 C 
BRANCH   9  10
ATOM     10  C   UNL     1     -18.942 -54.204  -3.217  1.00  0.00     0.041 C 
ATOM     11  O   UNL     1     -19.181 -54.678  -4.359  1.00  0.00    -0.550 OA
ATOM     12  O   UNL     1     -19.990 -53.967  -2.336  1.00  0.00    -0.550 OA
ENDBRANCH   9  10
ENDBRANCH   8   9
ENDBRANCH   7   8
ENDBRANCH   6   7
ENDBRANCH   5   6
ENDBRANCH   4   5
ENDBRANCH   3   4
ENDBRANCH   1   3
BRANCH   2  13
ATOM     13  C   UNL     1     -15.587 -58.271   0.964  1.00  0.00     0.027 C 
BRANCH  13  14
ATOM     14  C   UNL     1     -14.132 -58.751   1.105  1.00  0.00     0.004 C 
BRANCH  14  15
ATOM     15  C   UNL     1     -13.231 -58.397  -0.092  1.00  0.00     0.000 C 
BRANCH  15  16
ATOM     16  C   UNL     1     -12.164 -57.343   0.253  1.00  0.00     0.000 C 
BRANCH  16  17
ATOM     17  C   UNL     1     -10.809 -57.983   0.623  1.00  0.00    -0.000 C 
BRANCH  17  18
ATOM     18  C   UNL     1      -9.649 -56.973   0.704  1.00  0.00    -0.000 C 
BRANCH  18  19
ATOM     19  C   UNL     1      -8.881 -56.980   2.037  1.00  0.00    -0.003 C 
ATOM     20  C   UNL     1      -8.107 -55.684   2.282  1.00  0.00     0.004 C 
ENDBRANCH  18  19
ENDBRANCH  17  18
ENDBRANCH  16  17
ENDBRANCH  15  16
ENDBRANCH  14  15
ENDBRANCH  13  14
ENDBRANCH   2  13
TORSDOF 15
ENDMDL
MODEL 3
REMARK VINA RESULT:     3.311      0.927      1.817
REMARK INTER + INTRA:           5.113
REMARK INTER:                   6.140
REMARK INTRA:                  -1.027
REMARK UNBOUND:                -1.101
REMARK SMILES CCCCCCCCC=CCCCCCCCC(=O)[O-]
REMARK SMILES IDX 10 1 9 2 11 3 12 4 13 5 14 6 15 7 16 8 17 9 18 10 19 11
REMARK SMILES IDX 20 12 8 13 7 14 6 15 5 16 4 17 3 18 2 19 1 20
REMARK H PARENT
REMARK Flexibility Score: inf
ROOT
ATOM      1  C   UNL     1     -16.057 -55.382   3.001  1.00  0.00    -0.031 C 
ATOM      2  C   UNL     1     -15.825 -54.307   2.225  1.00  0.00    -0.031 C 
ENDROOT
BRANCH   1   3
ATOM      3  C   UNL     1     -15.325 -56.698   2.888  1.00  0.00     0.027 C 
BRANCH   3   4
ATOM      4  C   UNL     1     -16.069 -57.698   1.987  1.00  0.00     0.004 C 
BRANCH   4   5
ATOM      5  C   UNL     1     -15.178 -58.406   0.945  1.00  0.00     0.000 C 
BRANCH   5   6
ATOM      6  C   UNL     1     -13.662 -58.233   1.150  1.00  0.00     0.000 C 
BRANCH   6   7
ATOM      7  C   UNL     1     -12.899 -58.043  -0.171  1.00  0.00     0.000 C 
BRANCH   7   8
ATOM      8  C   UNL     1     -11.611 -57.215  -0.003  1.00  0.00     0.006 C 
BRANCH   8   9
ATOM      9  C   UNL     1     -10.415 -58.006   0.554  1.00  0.00     0.053 C 
BRANCH   9  10
ATOM     10  C   UNL     1      -9.575 -57.180   1.479  1.00  0.00     0.041 C 
ATOM     11  O   UNL     1      -9.229 -57.638   2.601  1.00  0.00    -0.550 OA
ATOM     12  O   UNL     1      -9.150 -55.917   1.088  1.00  0.00    -0.550 OA
ENDBRANCH   9  10
ENDBRANCH   8   9
ENDBRANCH   7   8
ENDBRANCH   6   7
ENDBRANCH   5   6
ENDBRANCH   4   5
ENDBRANCH   3   4
ENDBRANCH   1   3
BRANCH   2  13
ATOM     13  C   UNL     1     -14.880 -54.281   1.049  1.00  0.00     0.027 C 
BRANCH  13  14
ATOM     14  C   UNL     1     -15.613 -54.016  -0.278  1.00  0.00     0.004 C 
BRANCH  14  15
ATOM     15  C   UNL     1     -16.879 -53.151  -0.139  1.00  0.00     0.000 C 
BRANCH  15  16
ATOM     16  C   UNL     1     -17.472 -52.737  -1.497  1.00  0.00     0.000 C 
BRANCH  16  17
ATOM     17  C   UNL     1     -16.929 -53.599  -2.658  1.00  0.00    -0.000 C 
BRANCH  17  18
ATOM     18  C   UNL     1     -17.935 -54.646  -3.175  1.00  0.00    -0.000 C 
BRANCH  18  19
ATOM     19  C   UNL     1     -19.303 -54.075  -3.585  1.00  0.00    -0.003 C 
ATOM     20  C   UNL     1     -20.209 -53.790  -2.387  1.00  0.00     0.004 C 
ENDBRANCH  18  19
ENDBRANCH  17  18
ENDBRANCH  16  17
ENDBRANCH  15  16
ENDBRANCH  14  15
ENDBRANCH  13  14
ENDBRANCH   2  13
TORSDOF 15
ENDMDL
