MODEL 1
REMARK VINA RESULT:    -4.127      0.000      0.000
REMARK INTER + INTRA:          -4.550
REMARK INTER:                  -4.368
REMARK INTRA:                  -0.182
REMARK UNBOUND:                -0.182
REMARK SMILES C=C1CC=C(C(C)C)CC1
REMARK SMILES IDX 5 1 4 2 3 3 2 4 1 5 10 6 9 7 6 8 7 9 8 10
REMARK H PARENT
REMARK Flexibility Score: inf
ROOT
ATOM      1  C   UNL     1     136.499 136.266 162.036  1.00  0.00    -0.071 C 
ATOM      2  C   UNL     1     136.767 135.293 161.140  1.00  0.00    -0.023 C 
ATOM      3  C   UNL     1     138.148 135.131 160.556  1.00  0.00     0.057 C 
ATOM      4  C   UNL     1     139.211 135.442 161.589  1.00  0.00    -0.073 C 
ATOM      5  C   UNL     1     140.422 134.878 161.499  1.00  0.00     0.008 C 
ATOM      6  C   UNL     1     138.917 136.422 162.706  1.00  0.00     0.035 C 
ATOM      7  C   UNL     1     137.619 137.201 162.445  1.00  0.00     0.035 C 
ENDROOT
BRANCH   1   8
ATOM      8  C   UNL     1     135.118 136.367 162.667  1.00  0.00     0.008 C 
ATOM      9  C   UNL     1     134.925 135.280 163.730  1.00  0.00     0.012 C 
ATOM     10  C   UNL     1     134.877 137.762 163.252  1.00  0.00     0.012 C 
ENDBRANCH   1   8
TORSDOF 1
ENDMDL
MODEL 2
REMARK VINA RESULT:    -3.574     13.775     16.072
REMARK INTER + INTRA:          -3.965
REMARK INTER:                  -3.822
REMARK INTRA:                  -0.143
REMARK UNBOUND:                -0.182
REMARK SMILES C=C1CC=C(C(C)C)CC1
REMARK SMILES IDX 5 1 4 2 3 3 2 4 1 5 10 6 9 7 6 8 7 9 8 10
REMARK H PARENT
REMARK Flexibility Score: inf
ROOT
ATOM      1  C   UNL     1     153.331 136.948 162.055  1.00  0.00    -0.071 C 
ATOM      2  C   UNL     1     152.802 135.753 161.717  1.00  0.00    -0.023 C 
ATOM      3  C   UNL     1     151.459 135.659 161.039  1.00  0.00     0.057 C 
ATOM      4  C   UNL     1     151.260 136.809 160.073  1.00  0.00    -0.073 C 
ATOM      5  C   UNL     1     150.453 136.666 159.014  1.00  0.00     0.008 C 
ATOM      6  C   UNL     1     151.947 138.136 160.324  1.00  0.00     0.035 C 
ATOM      7  C   UNL     1     152.542 138.203 161.739  1.00  0.00     0.035 C 
ENDROOT
BRANCH   1   8
ATOM      8  C   UNL     1     154.718 137.024 162.673  1.00  0.00     0.008 C 
ATOM      9  C   UNL     1     155.005 138.435 163.198  1.00  0.00     0.012 C 
ATOM     10  C   UNL     1     154.890 135.977 163.779  1.00  0.00     0.012 C 
ENDBRANCH   1   8
TORSDOF 1
ENDMDL
MODEL 3
REMARK VINA RESULT:    -3.546     14.106     16.062
REMARK INTER + INTRA:          -3.936
REMARK INTER:                  -3.743
REMARK INTRA:                  -0.193
REMARK UNBOUND:                -0.182
REMARK SMILES C=C1CC=C(C(C)C)CC1
REMARK SMILES IDX 5 1 4 2 3 3 2 4 1 5 10 6 9 7 6 8 7 9 8 10
REMARK H PARENT
REMARK Flexibility Score: inf
ROOT
ATOM      1  C   UNL     1     152.993 136.786 161.681  1.00  0.00    -0.071 C 
ATOM      2  C   UNL     1     153.493 136.169 162.772  1.00  0.00    -0.023 C 
ATOM      3  C   UNL     1     154.383 136.903 163.743  1.00  0.00     0.057 C 
ATOM      4  C   UNL     1     153.942 138.344 163.896  1.00  0.00    -0.073 C 
ATOM      5  C   UNL     1     154.197 139.009 165.030  1.00  0.00     0.008 C 
ATOM      6  C   UNL     1     153.244 139.048 162.750  1.00  0.00     0.035 C 
ATOM      7  C   UNL     1     153.347 138.241 161.447  1.00  0.00     0.035 C 
ENDROOT
BRANCH   1   8
ATOM      8  C   UNL     1     152.040 136.048 160.754  1.00  0.00     0.008 C 
ATOM      9  C   UNL     1     151.372 134.875 161.480  1.00  0.00     0.012 C 
ATOM     10  C   UNL     1     150.994 137.000 160.163  1.00  0.00     0.012 C 
ENDBRANCH   1   8
TORSDOF 1
ENDMDL
MODEL 4
REMARK VINA RESULT:    -3.511     16.367     17.730
REMARK INTER + INTRA:          -3.899
REMARK INTER:                  -3.725
REMARK INTRA:                  -0.174
REMARK UNBOUND:                -0.182
REMARK SMILES C=C1CC=C(C(C)C)CC1
REMARK SMILES IDX 5 1 4 2 3 3 2 4 1 5 10 6 9 7 6 8 7 9 8 10
REMARK H PARENT
REMARK Flexibility Score: inf
ROOT
ATOM      1  C   UNL     1     137.625 153.568 162.601  1.00  0.00    -0.071 C 
ATOM      2  C   UNL     1     138.163 154.783 162.368  1.00  0.00    -0.023 C 
ATOM      3  C   UNL     1     139.359 154.947 161.464  1.00  0.00     0.057 C 
ATOM      4  C   UNL     1     139.293 153.978 160.302  1.00  0.00    -0.073 C 
ATOM      5  C   UNL     1     139.896 154.275 159.143  1.00  0.00     0.008 C 
ATOM      6  C   UNL     1     138.575 152.652 160.460  1.00  0.00     0.035 C 
ATOM      7  C   UNL     1     138.252 152.360 161.933  1.00  0.00     0.035 C 
ENDROOT
BRANCH   1   8
ATOM      8  C   UNL     1     136.376 153.435 163.458  1.00  0.00     0.008 C 
ATOM      9  C   UNL     1     135.111 153.531 162.596  1.00  0.00     0.012 C 
ATOM     10  C   UNL     1     136.395 152.133 164.267  1.00  0.00     0.012 C 
ENDBRANCH   1   8
TORSDOF 1
ENDMDL
MODEL 5
REMARK VINA RESULT:    -3.475     14.056     16.459
REMARK INTER + INTRA:          -3.861
REMARK INTER:                  -3.691
REMARK INTRA:                  -0.170
REMARK UNBOUND:                -0.182
REMARK SMILES C=C1CC=C(C(C)C)CC1
REMARK SMILES IDX 5 1 4 2 3 3 2 4 1 5 10 6 9 7 6 8 7 9 8 10
REMARK H PARENT
REMARK Flexibility Score: inf
ROOT
ATOM      1  C   UNL     1     153.962 137.474 162.792  1.00  0.00    -0.071 C 
ATOM      2  C   UNL     1     153.083 137.903 161.862  1.00  0.00    -0.023 C 
ATOM      3  C   UNL     1     152.394 136.934 160.935  1.00  0.00     0.057 C 
ATOM      4  C   UNL     1     152.077 135.637 161.649  1.00  0.00    -0.073 C 
ATOM      5  C   UNL     1     151.047 134.880 161.246  1.00  0.00     0.008 C 
ATOM      6  C   UNL     1     152.947 135.174 162.800  1.00  0.00     0.035 C 
ATOM      7  C   UNL     1     154.246 135.989 162.886  1.00  0.00     0.035 C 
ENDROOT
BRANCH   1   8
ATOM      8  C   UNL     1     154.591 138.461 163.763  1.00  0.00     0.008 C 
ATOM      9  C   UNL     1     155.119 139.694 163.022  1.00  0.00     0.012 C 
ATOM     10  C   UNL     1     153.603 138.859 164.865  1.00  0.00     0.012 C 
ENDBRANCH   1   8
TORSDOF 1
ENDMDL
MODEL 6
REMARK VINA RESULT:    -3.464     13.491     15.818
REMARK INTER + INTRA:          -3.849
REMARK INTER:                  -3.712
REMARK INTRA:                  -0.138
REMARK UNBOUND:                -0.182
REMARK SMILES C=C1CC=C(C(C)C)CC1
REMARK SMILES IDX 5 1 4 2 3 3 2 4 1 5 10 6 9 7 6 8 7 9 8 10
REMARK H PARENT
REMARK Flexibility Score: inf
ROOT
ATOM      1  C   UNL     1     153.103 136.951 162.266  1.00  0.00    -0.071 C 
ATOM      2  C   UNL     1     152.821 138.069 161.565  1.00  0.00    -0.023 C 
ATOM      3  C   UNL     1     152.203 137.993 160.192  1.00  0.00     0.057 C 
ATOM      4  C   UNL     1     151.216 136.848 160.107  1.00  0.00    -0.073 C 
ATOM      5  C   UNL     1     150.196 136.901 159.241  1.00  0.00     0.008 C 
ATOM      6  C   UNL     1     151.401 135.621 160.978  1.00  0.00     0.035 C 
ATOM      7  C   UNL     1     152.787 135.607 161.641  1.00  0.00     0.035 C 
ENDROOT
BRANCH   1   8
ATOM      8  C   UNL     1     153.660 137.052 163.678  1.00  0.00     0.008 C 
ATOM      9  C   UNL     1     154.994 136.307 163.792  1.00  0.00     0.012 C 
ATOM     10  C   UNL     1     153.804 138.515 164.113  1.00  0.00     0.012 C 
ENDBRANCH   1   8
TORSDOF 1
ENDMDL
MODEL 7
REMARK VINA RESULT:    -3.392     16.442     17.768
REMARK INTER + INTRA:          -3.772
REMARK INTER:                  -3.635
REMARK INTRA:                  -0.138
REMARK UNBOUND:                -0.182
REMARK SMILES C=C1CC=C(C(C)C)CC1
REMARK SMILES IDX 5 1 4 2 3 3 2 4 1 5 10 6 9 7 6 8 7 9 8 10
REMARK H PARENT
REMARK Flexibility Score: inf
ROOT
ATOM      1  C   UNL     1     137.647 153.707 162.324  1.00  0.00    -0.071 C 
ATOM      2  C   UNL     1     137.922 152.581 161.632  1.00  0.00    -0.023 C 
ATOM      3  C   UNL     1     138.566 152.640 160.270  1.00  0.00     0.057 C 
ATOM      4  C   UNL     1     139.575 153.767 160.199  1.00  0.00    -0.073 C 
ATOM      5  C   UNL     1     140.609 153.692 159.351  1.00  0.00     0.008 C 
ATOM      6  C   UNL     1     139.396 155.000 161.061  1.00  0.00     0.035 C 
ATOM      7  C   UNL     1     137.999 155.042 161.699  1.00  0.00     0.035 C 
ENDROOT
BRANCH   1   8
ATOM      8  C   UNL     1     137.064 153.621 163.726  1.00  0.00     0.008 C 
ATOM      9  C   UNL     1     135.739 154.387 163.812  1.00  0.00     0.012 C 
ATOM     10  C   UNL     1     136.890 152.163 164.165  1.00  0.00     0.012 C 
ENDBRANCH   1   8
TORSDOF 1
ENDMDL
MODEL 8
REMARK VINA RESULT:    -3.379      1.545      2.890
REMARK INTER + INTRA:          -3.759
REMARK INTER:                  -3.575
REMARK INTRA:                  -0.184
REMARK UNBOUND:                -0.182
REMARK SMILES C=C1CC=C(C(C)C)CC1
REMARK SMILES IDX 5 1 4 2 3 3 2 4 1 5 10 6 9 7 6 8 7 9 8 10
REMARK H PARENT
REMARK Flexibility Score: inf
ROOT
ATOM      1  C   UNL     1     136.065 136.170 161.814  1.00  0.00    -0.071 C 
ATOM      2  C   UNL     1     136.103 137.059 162.828  1.00  0.00    -0.023 C 
ATOM      3  C   UNL     1     137.293 137.137 163.752  1.00  0.00     0.057 C 
ATOM      4  C   UNL     1     138.580 136.885 162.996  1.00  0.00    -0.073 C 
ATOM      5  C   UNL     1     139.732 137.409 163.434  1.00  0.00     0.008 C 
ATOM      6  C   UNL     1     138.574 136.008 161.760  1.00  0.00     0.035 C 
ATOM      7  C   UNL     1     137.249 135.243 161.620  1.00  0.00     0.035 C 
ENDROOT
BRANCH   1   8
ATOM      8  C   UNL     1     134.888 136.156 160.851  1.00  0.00     0.008 C 
ATOM      9  C   UNL     1     134.899 137.403 159.960  1.00  0.00     0.012 C 
ATOM     10  C   UNL     1     134.875 134.875 160.010  1.00  0.00     0.012 C 
ENDBRANCH   1   8
TORSDOF 1
ENDMDL
