MODEL 1
REMARK VINA RESULT:    -3.116      0.000      0.000
REMARK INTER + INTRA:          -5.650
REMARK INTER:                  -4.756
REMARK INTRA:                  -0.894
REMARK UNBOUND:                -0.894
REMARK SMILES O=C([O-])CCCCCCCCC(=O)[O-]
REMARK SMILES IDX 7 1 6 2 5 3 4 4 2 5 1 6 3 7 8 8 9 9 10 10 11 11 12 12 13 13
REMARK SMILES IDX 14 14
REMARK H PARENT
REMARK Flexibility Score: inf
ROOT
ATOM      1  C   UNL     1     -24.909   2.461 -34.574  1.00  0.00     0.000 C 
ENDROOT
BRANCH   1   2
ATOM      2  C   UNL     1     -25.414   2.763 -33.158  1.00  0.00     0.000 C 
BRANCH   2   3
ATOM      3  C   UNL     1     -26.173   4.098 -33.118  1.00  0.00     0.006 C 
BRANCH   3   4
ATOM      4  C   UNL     1     -26.614   4.558 -34.513  1.00  0.00     0.053 C 
BRANCH   4   5
ATOM      5  C   UNL     1     -28.082   4.348 -34.731  1.00  0.00     0.041 C 
ATOM      6  O   UNL     1     -28.729   3.573 -33.979  1.00  0.00    -0.550 OA
ATOM      7  O   UNL     1     -28.740   5.036 -35.742  1.00  0.00    -0.550 OA
ENDBRANCH   4   5
ENDBRANCH   3   4
ENDBRANCH   2   3
ENDBRANCH   1   2
BRANCH   1   8
ATOM      8  C   UNL     1     -23.395   2.215 -34.578  1.00  0.00     0.000 C 
BRANCH   8   9
ATOM      9  C   UNL     1     -22.624   3.532 -34.401  1.00  0.00     0.000 C 
BRANCH   9  10
ATOM     10  C   UNL     1     -22.977   4.574 -35.475  1.00  0.00     0.006 C 
BRANCH  10  11
ATOM     11  C   UNL     1     -22.511   4.158 -36.877  1.00  0.00     0.053 C 
BRANCH  11  12
ATOM     12  C   UNL     1     -23.678   4.053 -37.806  1.00  0.00     0.041 C 
ATOM     13  O   UNL     1     -24.762   4.631 -37.529  1.00  0.00    -0.550 OA
ATOM     14  O   UNL     1     -23.554   3.358 -39.003  1.00  0.00    -0.550 OA
ENDBRANCH  11  12
ENDBRANCH  10  11
ENDBRANCH   9  10
ENDBRANCH   8   9
ENDBRANCH   1   8
TORSDOF 9
ENDMDL
MODEL 2
REMARK VINA RESULT:    -3.075      1.061      1.690
REMARK INTER + INTRA:          -5.588
REMARK INTER:                  -4.968
REMARK INTRA:                  -0.619
REMARK UNBOUND:                -0.894
REMARK SMILES O=C([O-])CCCCCCCCC(=O)[O-]
REMARK SMILES IDX 7 1 6 2 5 3 4 4 2 5 1 6 3 7 8 8 9 9 10 10 11 11 12 12 13 13
REMARK SMILES IDX 14 14
REMARK H PARENT
REMARK Flexibility Score: inf
ROOT
ATOM      1  C   UNL     1     -24.280   3.013 -32.763  1.00  0.00     0.000 C 
ENDROOT
BRANCH   1   2
ATOM      2  C   UNL     1     -25.519   2.565 -33.547  1.00  0.00     0.000 C 
BRANCH   2   3
ATOM      3  C   UNL     1     -26.619   3.636 -33.496  1.00  0.00     0.006 C 
BRANCH   3   4
ATOM      4  C   UNL     1     -26.676   4.472 -34.781  1.00  0.00     0.053 C 
BRANCH   4   5
ATOM      5  C   UNL     1     -28.055   4.501 -35.367  1.00  0.00     0.041 C 
ATOM      6  O   UNL     1     -28.251   5.016 -36.498  1.00  0.00    -0.550 OA
ATOM      7  O   UNL     1     -29.115   3.927 -34.678  1.00  0.00    -0.550 OA
ENDBRANCH   4   5
ENDBRANCH   3   4
ENDBRANCH   2   3
ENDBRANCH   1   2
BRANCH   1   8
ATOM      8  C   UNL     1     -23.093   3.260 -33.703  1.00  0.00     0.000 C 
BRANCH   8   9
ATOM      9  C   UNL     1     -22.723   1.981 -34.468  1.00  0.00     0.000 C 
BRANCH   9  10
ATOM     10  C   UNL     1     -22.877   2.135 -35.989  1.00  0.00     0.006 C 
BRANCH  10  11
ATOM     11  C   UNL     1     -22.714   3.588 -36.456  1.00  0.00     0.053 C 
BRANCH  11  12
ATOM     12  C   UNL     1     -22.788   3.669 -37.948  1.00  0.00     0.041 C 
ATOM     13  O   UNL     1     -23.047   2.641 -38.626  1.00  0.00    -0.550 OA
ATOM     14  O   UNL     1     -22.621   4.892 -38.587  1.00  0.00    -0.550 OA
ENDBRANCH  11  12
ENDBRANCH  10  11
ENDBRANCH   9  10
ENDBRANCH   8   9
ENDBRANCH   1   8
TORSDOF 9
ENDMDL
MODEL 3
REMARK VINA RESULT:    -3.025      1.130      4.922
REMARK INTER + INTRA:          -5.510
REMARK INTER:                  -4.764
REMARK INTRA:                  -0.747
REMARK UNBOUND:                -0.894
REMARK SMILES O=C([O-])CCCCCCCCC(=O)[O-]
REMARK SMILES IDX 7 1 6 2 5 3 4 4 2 5 1 6 3 7 8 8 9 9 10 10 11 11 12 12 13 13
REMARK SMILES IDX 14 14
REMARK H PARENT
REMARK Flexibility Score: inf
ROOT
ATOM      1  C   UNL     1     -24.526   2.499 -34.384  1.00  0.00     0.000 C 
ENDROOT
BRANCH   1   2
ATOM      2  C   UNL     1     -23.070   2.532 -34.862  1.00  0.00     0.000 C 
BRANCH   2   3
ATOM      3  C   UNL     1     -22.771   3.829 -35.629  1.00  0.00     0.006 C 
BRANCH   3   4
ATOM      4  C   UNL     1     -23.722   4.033 -36.815  1.00  0.00     0.053 C 
BRANCH   4   5
ATOM      5  C   UNL     1     -23.055   3.729 -38.123  1.00  0.00     0.041 C 
ATOM      6  O   UNL     1     -22.410   4.625 -38.728  1.00  0.00    -0.550 OA
ATOM      7  O   UNL     1     -23.118   2.448 -38.654  1.00  0.00    -0.550 OA
ENDBRANCH   4   5
ENDBRANCH   3   4
ENDBRANCH   2   3
ENDBRANCH   1   2
BRANCH   1   8
ATOM      8  C   UNL     1     -24.605   2.541 -32.853  1.00  0.00     0.000 C 
BRANCH   8   9
ATOM      9  C   UNL     1     -25.008   3.939 -32.361  1.00  0.00     0.000 C 
BRANCH   9  10
ATOM     10  C   UNL     1     -25.578   4.821 -33.484  1.00  0.00     0.006 C 
BRANCH  10  11
ATOM     11  C   UNL     1     -27.084   5.072 -33.331  1.00  0.00     0.053 C 
BRANCH  11  12
ATOM     12  C   UNL     1     -27.838   4.421 -34.448  1.00  0.00     0.041 C 
ATOM     13  O   UNL     1     -27.515   4.644 -35.645  1.00  0.00    -0.550 OA
ATOM     14  O   UNL     1     -28.865   3.529 -34.167  1.00  0.00    -0.550 OA
ENDBRANCH  11  12
ENDBRANCH  10  11
ENDBRANCH   9  10
ENDBRANCH   8   9
ENDBRANCH   1   8
TORSDOF 9
ENDMDL
MODEL 4
REMARK VINA RESULT:    -2.811     13.724     16.263
REMARK INTER + INTRA:          -5.185
REMARK INTER:                  -4.577
REMARK INTRA:                  -0.608
REMARK UNBOUND:                -0.894
REMARK SMILES O=C([O-])CCCCCCCCC(=O)[O-]
REMARK SMILES IDX 7 1 6 2 5 3 4 4 2 5 1 6 3 7 8 8 9 9 10 10 11 11 12 12 13 13
REMARK SMILES IDX 14 14
REMARK H PARENT
REMARK Flexibility Score: inf
ROOT
ATOM      1  C   UNL     1     -10.391  -1.237 -36.497  1.00  0.00     0.000 C 
ENDROOT
BRANCH   1   2
ATOM      2  C   UNL     1      -9.252  -1.658 -37.432  1.00  0.00     0.000 C 
BRANCH   2   3
ATOM      3  C   UNL     1      -9.800  -2.160 -38.777  1.00  0.00     0.006 C 
BRANCH   3   4
ATOM      4  C   UNL     1      -9.373  -3.602 -39.076  1.00  0.00     0.053 C 
BRANCH   4   5
ATOM      5  C   UNL     1      -9.761  -4.539 -37.972  1.00  0.00     0.041 C 
ATOM      6  O   UNL     1      -8.876  -5.156 -37.325  1.00  0.00    -0.550 OA
ATOM      7  O   UNL     1     -11.099  -4.702 -37.637  1.00  0.00    -0.550 OA
ENDBRANCH   4   5
ENDBRANCH   3   4
ENDBRANCH   2   3
ENDBRANCH   1   2
BRANCH   1   8
ATOM      8  C   UNL     1     -10.281   0.248 -36.129  1.00  0.00     0.000 C 
BRANCH   8   9
ATOM      9  C   UNL     1      -9.294   0.972 -37.056  1.00  0.00     0.000 C 
BRANCH   9  10
ATOM     10  C   UNL     1      -9.984   1.992 -37.976  1.00  0.00     0.006 C 
BRANCH  10  11
ATOM     11  C   UNL     1     -11.430   2.284 -37.554  1.00  0.00     0.053 C 
BRANCH  11  12
ATOM     12  C   UNL     1     -11.658   3.760 -37.457  1.00  0.00     0.041 C 
ATOM     13  O   UNL     1     -11.050   4.439 -36.588  1.00  0.00    -0.550 OA
ATOM     14  O   UNL     1     -12.503   4.394 -38.359  1.00  0.00    -0.550 OA
ENDBRANCH  11  12
ENDBRANCH  10  11
ENDBRANCH   9  10
ENDBRANCH   8   9
ENDBRANCH   1   8
TORSDOF 9
ENDMDL
MODEL 5
REMARK VINA RESULT:    -2.766     13.688     15.975
REMARK INTER + INTRA:          -5.116
REMARK INTER:                  -4.592
REMARK INTRA:                  -0.524
REMARK UNBOUND:                -0.894
REMARK SMILES O=C([O-])CCCCCCCCC(=O)[O-]
REMARK SMILES IDX 7 1 6 2 5 3 4 4 2 5 1 6 3 7 8 8 9 9 10 10 11 11 12 12 13 13
REMARK SMILES IDX 14 14
REMARK H PARENT
REMARK Flexibility Score: inf
ROOT
ATOM      1  C   UNL     1     -10.747   0.016 -36.133  1.00  0.00     0.000 C 
ENDROOT
BRANCH   1   2
ATOM      2  C   UNL     1      -9.686   1.056 -35.752  1.00  0.00     0.000 C 
BRANCH   2   3
ATOM      3  C   UNL     1      -9.847   2.337 -36.584  1.00  0.00     0.006 C 
BRANCH   3   4
ATOM      4  C   UNL     1     -11.129   2.326 -37.425  1.00  0.00     0.053 C 
BRANCH   4   5
ATOM      5  C   UNL     1     -11.680   3.706 -37.620  1.00  0.00     0.041 C 
ATOM      6  O   UNL     1     -12.657   3.896 -38.391  1.00  0.00    -0.550 OA
ATOM      7  O   UNL     1     -11.136   4.776 -36.922  1.00  0.00    -0.550 OA
ENDBRANCH   4   5
ENDBRANCH   3   4
ENDBRANCH   2   3
ENDBRANCH   1   2
BRANCH   1   8
ATOM      8  C   UNL     1     -10.095  -1.289 -36.605  1.00  0.00     0.000 C 
BRANCH   8   9
ATOM      9  C   UNL     1      -9.413  -1.100 -37.969  1.00  0.00     0.000 C 
BRANCH   9  10
ATOM     10  C   UNL     1      -9.574  -2.323 -38.886  1.00  0.00     0.006 C 
BRANCH  10  11
ATOM     11  C   UNL     1      -8.981  -3.601 -38.276  1.00  0.00     0.053 C 
BRANCH  11  12
ATOM     12  C   UNL     1      -9.990  -4.706 -38.295  1.00  0.00     0.041 C 
ATOM     13  O   UNL     1      -9.883  -5.647 -39.125  1.00  0.00    -0.550 OA
ATOM     14  O   UNL     1     -11.018  -4.724 -37.361  1.00  0.00    -0.550 OA
ENDBRANCH  11  12
ENDBRANCH  10  11
ENDBRANCH   9  10
ENDBRANCH   8   9
ENDBRANCH   1   8
TORSDOF 9
ENDMDL
MODEL 6
REMARK VINA RESULT:    -2.716      1.679      2.281
REMARK INTER + INTRA:          -5.040
REMARK INTER:                  -4.411
REMARK INTRA:                  -0.629
REMARK UNBOUND:                -0.894
REMARK SMILES O=C([O-])CCCCCCCCC(=O)[O-]
REMARK SMILES IDX 7 1 6 2 5 3 4 4 2 5 1 6 3 7 8 8 9 9 10 10 11 11 12 12 13 13
REMARK SMILES IDX 14 14
REMARK H PARENT
REMARK Flexibility Score: inf
ROOT
ATOM      1  C   UNL     1     -22.554   2.157 -34.454  1.00  0.00     0.000 C 
ENDROOT
BRANCH   1   2
ATOM      2  C   UNL     1     -23.053   3.357 -33.641  1.00  0.00     0.000 C 
BRANCH   2   3
ATOM      3  C   UNL     1     -24.288   2.983 -32.807  1.00  0.00     0.006 C 
BRANCH   3   4
ATOM      4  C   UNL     1     -25.158   4.202 -32.479  1.00  0.00     0.053 C 
BRANCH   4   5
ATOM      5  C   UNL     1     -26.380   4.264 -33.346  1.00  0.00     0.041 C 
ATOM      6  O   UNL     1     -27.270   5.125 -33.124  1.00  0.00    -0.550 OA
ATOM      7  O   UNL     1     -26.516   3.393 -34.418  1.00  0.00    -0.550 OA
ENDBRANCH   4   5
ENDBRANCH   3   4
ENDBRANCH   2   3
ENDBRANCH   1   2
BRANCH   1   8
ATOM      8  C   UNL     1     -23.472   1.884 -35.653  1.00  0.00     0.000 C 
BRANCH   8   9
ATOM      9  C   UNL     1     -22.750   2.178 -36.976  1.00  0.00     0.000 C 
BRANCH   9  10
ATOM     10  C   UNL     1     -22.451   3.673 -37.168  1.00  0.00     0.006 C 
BRANCH  10  11
ATOM     11  C   UNL     1     -23.242   4.290 -38.329  1.00  0.00     0.053 C 
BRANCH  11  12
ATOM     12  C   UNL     1     -24.575   4.777 -37.853  1.00  0.00     0.041 C 
ATOM     13  O   UNL     1     -25.544   4.852 -38.653  1.00  0.00    -0.550 OA
ATOM     14  O   UNL     1     -24.760   5.098 -36.515  1.00  0.00    -0.550 OA
ENDBRANCH  11  12
ENDBRANCH  10  11
ENDBRANCH   9  10
ENDBRANCH   8   9
ENDBRANCH   1   8
TORSDOF 9
ENDMDL
MODEL 7
REMARK VINA RESULT:    -2.636     14.772     15.922
REMARK INTER + INTRA:          -4.918
REMARK INTER:                  -4.327
REMARK INTRA:                  -0.591
REMARK UNBOUND:                -0.894
REMARK SMILES O=C([O-])CCCCCCCCC(=O)[O-]
REMARK SMILES IDX 7 1 6 2 5 3 4 4 2 5 1 6 3 7 8 8 9 9 10 10 11 11 12 12 13 13
REMARK SMILES IDX 14 14
REMARK H PARENT
REMARK Flexibility Score: inf
ROOT
ATOM      1  C   UNL     1     -11.308   2.782 -37.384  1.00  0.00     0.000 C 
ENDROOT
BRANCH   1   2
ATOM      2  C   UNL     1     -10.601   4.133 -37.544  1.00  0.00     0.000 C 
BRANCH   2   3
ATOM      3  C   UNL     1     -10.525   4.878 -36.203  1.00  0.00     0.006 C 
BRANCH   3   4
ATOM      4  C   UNL     1      -9.235   4.563 -35.436  1.00  0.00     0.053 C 
BRANCH   4   5
ATOM      5  C   UNL     1      -9.517   3.949 -34.098  1.00  0.00     0.041 C 
ATOM      6  O   UNL     1     -10.084   4.623 -33.200  1.00  0.00    -0.550 OA
ATOM      7  O   UNL     1      -9.184   2.622 -33.859  1.00  0.00    -0.550 OA
ENDBRANCH   4   5
ENDBRANCH   3   4
ENDBRANCH   2   3
ENDBRANCH   1   2
BRANCH   1   8
ATOM      8  C   UNL     1     -10.304   1.625 -37.444  1.00  0.00     0.000 C 
BRANCH   8   9
ATOM      9  C   UNL     1     -10.699   0.504 -36.471  1.00  0.00     0.000 C 
BRANCH   9  10
ATOM     10  C   UNL     1      -9.519  -0.414 -36.115  1.00  0.00     0.006 C 
BRANCH  10  11
ATOM     11  C   UNL     1      -8.915  -1.104 -37.345  1.00  0.00     0.053 C 
BRANCH  11  12
ATOM     12  C   UNL     1      -9.828  -2.180 -37.843  1.00  0.00     0.041 C 
ATOM     13  O   UNL     1      -9.890  -2.438 -39.074  1.00  0.00    -0.550 OA
ATOM     14  O   UNL     1     -10.571  -2.932 -36.942  1.00  0.00    -0.550 OA
ENDBRANCH  11  12
ENDBRANCH  10  11
ENDBRANCH   9  10
ENDBRANCH   8   9
ENDBRANCH   1   8
TORSDOF 9
ENDMDL
MODEL 8
REMARK VINA RESULT:    -2.453      2.061      3.690
REMARK INTER + INTRA:          -4.638
REMARK INTER:                  -3.859
REMARK INTRA:                  -0.779
REMARK UNBOUND:                -0.894
REMARK SMILES O=C([O-])CCCCCCCCC(=O)[O-]
REMARK SMILES IDX 7 1 6 2 5 3 4 4 2 5 1 6 3 7 8 8 9 9 10 10 11 11 12 12 13 13
REMARK SMILES IDX 14 14
REMARK H PARENT
REMARK Flexibility Score: inf
ROOT
ATOM      1  C   UNL     1     -23.864   3.627 -38.196  1.00  0.00     0.000 C 
ENDROOT
BRANCH   1   2
ATOM      2  C   UNL     1     -24.311   5.068 -37.925  1.00  0.00     0.000 C 
BRANCH   2   3
ATOM      3  C   UNL     1     -25.804   5.124 -37.569  1.00  0.00     0.006 C 
BRANCH   3   4
ATOM      4  C   UNL     1     -26.040   5.124 -36.054  1.00  0.00     0.053 C 
BRANCH   4   5
ATOM      5  C   UNL     1     -27.471   4.836 -35.713  1.00  0.00     0.041 C 
ATOM      6  O   UNL     1     -28.348   4.827 -36.616  1.00  0.00    -0.550 OA
ATOM      7  O   UNL     1     -27.828   4.543 -34.403  1.00  0.00    -0.550 OA
ENDBRANCH   4   5
ENDBRANCH   3   4
ENDBRANCH   2   3
ENDBRANCH   1   2
BRANCH   1   8
ATOM      8  C   UNL     1     -22.576   3.296 -37.432  1.00  0.00     0.000 C 
BRANCH   8   9
ATOM      9  C   UNL     1     -22.666   3.768 -35.973  1.00  0.00     0.000 C 
BRANCH   9  10
ATOM     10  C   UNL     1     -22.792   2.601 -34.980  1.00  0.00     0.006 C 
BRANCH  10  11
ATOM     11  C   UNL     1     -23.105   3.072 -33.553  1.00  0.00     0.053 C 
BRANCH  11  12
ATOM     12  C   UNL     1     -24.572   2.968 -33.278  1.00  0.00     0.041 C 
ATOM     13  O   UNL     1     -25.073   3.558 -32.285  1.00  0.00    -0.550 OA
ATOM     14  O   UNL     1     -25.395   2.263 -34.148  1.00  0.00    -0.550 OA
ENDBRANCH  11  12
ENDBRANCH  10  11
ENDBRANCH   9  10
ENDBRANCH   8   9
ENDBRANCH   1   8
TORSDOF 9
ENDMDL
MODEL 9
REMARK VINA RESULT:    -2.393     15.028     16.352
REMARK INTER + INTRA:          -4.547
REMARK INTER:                  -4.124
REMARK INTRA:                  -0.424
REMARK UNBOUND:                -0.894
REMARK SMILES O=C([O-])CCCCCCCCC(=O)[O-]
REMARK SMILES IDX 7 1 6 2 5 3 4 4 2 5 1 6 3 7 8 8 9 9 10 10 11 11 12 12 13 13
REMARK SMILES IDX 14 14
REMARK H PARENT
REMARK Flexibility Score: inf
ROOT
ATOM      1  C   UNL     1     -10.354   0.972 -36.452  1.00  0.00     0.000 C 
ENDROOT
BRANCH   1   2
ATOM      2  C   UNL     1      -9.449  -0.259 -36.588  1.00  0.00     0.000 C 
BRANCH   2   3
ATOM      3  C   UNL     1      -9.663  -0.951 -37.943  1.00  0.00     0.006 C 
BRANCH   3   4
ATOM      4  C   UNL     1      -9.044  -2.354 -37.982  1.00  0.00     0.053 C 
BRANCH   4   5
ATOM      5  C   UNL     1     -10.078  -3.425 -37.809  1.00  0.00     0.041 C 
ATOM      6  O   UNL     1     -10.948  -3.325 -36.906  1.00  0.00    -0.550 OA
ATOM      7  O   UNL     1     -10.100  -4.515 -38.670  1.00  0.00    -0.550 OA
ENDBRANCH   4   5
ENDBRANCH   3   4
ENDBRANCH   2   3
ENDBRANCH   1   2
BRANCH   1   8
ATOM      8  C   UNL     1      -9.770   2.171 -37.210  1.00  0.00     0.000 C 
BRANCH   8   9
ATOM      9  C   UNL     1     -10.830   3.265 -37.406  1.00  0.00     0.000 C 
BRANCH   9  10
ATOM     10  C   UNL     1     -10.735   4.379 -36.352  1.00  0.00     0.006 C 
BRANCH  10  11
ATOM     11  C   UNL     1      -9.375   4.405 -35.642  1.00  0.00     0.053 C 
BRANCH  11  12
ATOM     12  C   UNL     1      -9.550   4.198 -34.170  1.00  0.00     0.041 C 
ATOM     13  O   UNL     1     -10.007   5.125 -33.451  1.00  0.00    -0.550 OA
ATOM     14  O   UNL     1      -9.255   2.965 -33.602  1.00  0.00    -0.550 OA
ENDBRANCH  11  12
ENDBRANCH  10  11
ENDBRANCH   9  10
ENDBRANCH   8   9
ENDBRANCH   1   8
TORSDOF 9
ENDMDL
