MODEL 1
REMARK VINA RESULT:    -3.812      0.000      0.000
REMARK INTER + INTRA:          -4.758
REMARK INTER:                  -4.703
REMARK INTRA:                  -0.055
REMARK UNBOUND:                -0.055
REMARK SMILES CCCCCC(C)=O
REMARK SMILES IDX 4 1 3 2 2 3 1 4 5 5 6 6 8 7 7 8
REMARK H PARENT
REMARK Flexibility Score: inf
ROOT
ATOM      1  C   UNL     1      26.192  58.091  -8.713  1.00  0.00     0.008 C 
ENDROOT
BRANCH   1   2
ATOM      2  C   UNL     1      26.544  59.586  -8.735  1.00  0.00     0.000 C 
BRANCH   2   3
ATOM      3  C   UNL     1      27.807  59.841  -9.565  1.00  0.00    -0.003 C 
ATOM      4  C   UNL     1      28.385  61.223  -9.279  1.00  0.00     0.004 C 
ENDBRANCH   2   3
ENDBRANCH   1   2
BRANCH   1   5
ATOM      5  C   UNL     1      24.901  57.814  -7.932  1.00  0.00     0.075 C 
BRANCH   5   6
ATOM      6  C   UNL     1      24.831  56.387  -7.452  1.00  0.00     0.129 C 
ATOM      7  O   UNL     1      25.825  55.680  -7.516  1.00  0.00    -0.300 OA
ATOM      8  C   UNL     1      23.564  55.815  -6.887  1.00  0.00     0.087 C 
ENDBRANCH   5   6
ENDBRANCH   1   5
TORSDOF 4
ENDMDL
MODEL 2
REMARK VINA RESULT:    -3.671      2.176      5.182
REMARK INTER + INTRA:          -4.585
REMARK INTER:                  -4.531
REMARK INTRA:                  -0.054
REMARK UNBOUND:                -0.055
REMARK SMILES CCCCCC(C)=O
REMARK SMILES IDX 4 1 3 2 2 3 1 4 5 5 6 6 8 7 7 8
REMARK H PARENT
REMARK Flexibility Score: inf
ROOT
ATOM      1  C   UNL     1      26.632  58.723  -8.997  1.00  0.00     0.008 C 
ENDROOT
BRANCH   1   2
ATOM      2  C   UNL     1      25.515  58.168  -8.101  1.00  0.00     0.000 C 
BRANCH   2   3
ATOM      3  C   UNL     1      25.266  56.683  -8.391  1.00  0.00    -0.003 C 
ATOM      4  C   UNL     1      24.444  56.035  -7.282  1.00  0.00     0.004 C 
ENDBRANCH   2   3
ENDBRANCH   1   2
BRANCH   1   5
ATOM      5  C   UNL     1      26.867  60.222  -8.762  1.00  0.00     0.075 C 
BRANCH   5   6
ATOM      6  C   UNL     1      28.216  60.664  -9.268  1.00  0.00     0.129 C 
ATOM      7  O   UNL     1      28.853  59.929 -10.007  1.00  0.00    -0.300 OA
ATOM      8  C   UNL     1      28.794  61.995  -8.887  1.00  0.00     0.087 C 
ENDBRANCH   5   6
ENDBRANCH   1   5
TORSDOF 4
ENDMDL
MODEL 3
REMARK VINA RESULT:    -3.617      1.769      5.011
REMARK INTER + INTRA:          -4.518
REMARK INTER:                  -4.455
REMARK INTRA:                  -0.063
REMARK UNBOUND:                -0.055
REMARK SMILES CCCCCC(C)=O
REMARK SMILES IDX 4 1 3 2 2 3 1 4 5 5 6 6 8 7 7 8
REMARK H PARENT
REMARK Flexibility Score: inf
ROOT
ATOM      1  C   UNL     1      25.891  57.349  -8.277  1.00  0.00     0.008 C 
ENDROOT
BRANCH   1   2
ATOM      2  C   UNL     1      25.036  56.792  -7.130  1.00  0.00     0.000 C 
BRANCH   2   3
ATOM      3  C   UNL     1      23.998  55.792  -7.653  1.00  0.00    -0.003 C 
ATOM      4  C   UNL     1      23.041  55.361  -6.546  1.00  0.00     0.004 C 
ENDBRANCH   2   3
ENDBRANCH   1   2
BRANCH   1   5
ATOM      5  C   UNL     1      25.785  58.876  -8.386  1.00  0.00     0.075 C 
BRANCH   5   6
ATOM      6  C   UNL     1      26.928  59.463  -9.174  1.00  0.00     0.129 C 
ATOM      7  O   UNL     1      27.358  58.864 -10.149  1.00  0.00    -0.300 OA
ATOM      8  C   UNL     1      27.546  60.776  -8.792  1.00  0.00     0.087 C 
ENDBRANCH   5   6
ENDBRANCH   1   5
TORSDOF 4
ENDMDL
MODEL 4
REMARK VINA RESULT:    -3.446     17.286     18.236
REMARK INTER + INTRA:          -4.307
REMARK INTER:                  -4.161
REMARK INTRA:                  -0.146
REMARK UNBOUND:                -0.055
REMARK SMILES CCCCCC(C)=O
REMARK SMILES IDX 4 1 3 2 2 3 1 4 5 5 6 6 8 7 7 8
REMARK H PARENT
REMARK Flexibility Score: inf
ROOT
ATOM      1  C   UNL     1      19.324  45.111   0.627  1.00  0.00     0.008 C 
ENDROOT
BRANCH   1   2
ATOM      2  C   UNL     1      20.267  44.742   1.782  1.00  0.00     0.000 C 
BRANCH   2   3
ATOM      3  C   UNL     1      20.471  43.225   1.863  1.00  0.00    -0.003 C 
ATOM      4  C   UNL     1      21.465  42.745   0.811  1.00  0.00     0.004 C 
ENDBRANCH   2   3
ENDBRANCH   1   2
BRANCH   1   5
ATOM      5  C   UNL     1      17.993  44.352   0.707  1.00  0.00     0.075 C 
BRANCH   5   6
ATOM      6  C   UNL     1      16.813  45.290   0.728  1.00  0.00     0.129 C 
ATOM      7  O   UNL     1      16.725  46.167  -0.118  1.00  0.00    -0.300 OA
ATOM      8  C   UNL     1      15.736  45.165   1.766  1.00  0.00     0.087 C 
ENDBRANCH   5   6
ENDBRANCH   1   5
TORSDOF 4
ENDMDL
MODEL 5
REMARK VINA RESULT:    -3.424     16.539     18.535
REMARK INTER + INTRA:          -4.279
REMARK INTER:                  -3.924
REMARK INTRA:                  -0.355
REMARK UNBOUND:                -0.055
REMARK SMILES CCCCCC(C)=O
REMARK SMILES IDX 4 1 3 2 2 3 1 4 5 5 6 6 8 7 7 8
REMARK H PARENT
REMARK Flexibility Score: inf
ROOT
ATOM      1  C   UNL     1      17.783  43.576   0.783  1.00  0.00     0.008 C 
ENDROOT
BRANCH   1   2
ATOM      2  C   UNL     1      17.105  44.109   2.053  1.00  0.00     0.000 C 
BRANCH   2   3
ATOM      3  C   UNL     1      15.994  45.107   1.706  1.00  0.00    -0.003 C 
ATOM      4  C   UNL     1      16.215  45.719   0.326  1.00  0.00     0.004 C 
ENDBRANCH   2   3
ENDBRANCH   1   2
BRANCH   1   5
ATOM      5  C   UNL     1      19.291  43.369   0.977  1.00  0.00     0.075 C 
BRANCH   5   6
ATOM      6  C   UNL     1      19.995  44.657   1.316  1.00  0.00     0.129 C 
ATOM      7  O   UNL     1      20.605  44.751   2.371  1.00  0.00    -0.300 OA
ATOM      8  C   UNL     1      19.970  45.830   0.380  1.00  0.00     0.087 C 
ENDBRANCH   5   6
ENDBRANCH   1   5
TORSDOF 4
ENDMDL
MODEL 6
REMARK VINA RESULT:    -3.355     17.756     18.675
REMARK INTER + INTRA:          -4.194
REMARK INTER:                  -3.850
REMARK INTRA:                  -0.344
REMARK UNBOUND:                -0.055
REMARK SMILES CCCCCC(C)=O
REMARK SMILES IDX 4 1 3 2 2 3 1 4 5 5 6 6 8 7 7 8
REMARK H PARENT
REMARK Flexibility Score: inf
ROOT
ATOM      1  C   UNL     1      19.711  44.817   0.752  1.00  0.00     0.008 C 
ENDROOT
BRANCH   1   2
ATOM      2  C   UNL     1      20.250  44.394   2.127  1.00  0.00     0.000 C 
BRANCH   2   3
ATOM      3  C   UNL     1      21.393  43.382   1.981  1.00  0.00    -0.003 C 
ATOM      4  C   UNL     1      21.398  42.752   0.592  1.00  0.00     0.004 C 
ENDBRANCH   2   3
ENDBRANCH   1   2
BRANCH   1   5
ATOM      5  C   UNL     1      18.178  44.784   0.699  1.00  0.00     0.075 C 
BRANCH   5   6
ATOM      6  C   UNL     1      17.642  43.382   0.835  1.00  0.00     0.129 C 
ATOM      7  O   UNL     1      17.003  43.075   1.830  1.00  0.00    -0.300 OA
ATOM      8  C   UNL     1      17.870  42.352  -0.232  1.00  0.00     0.087 C 
ENDBRANCH   5   6
ENDBRANCH   1   5
TORSDOF 4
ENDMDL
MODEL 7
REMARK VINA RESULT:    -3.281     17.157     18.888
REMARK INTER + INTRA:          -4.103
REMARK INTER:                  -3.744
REMARK INTRA:                  -0.359
REMARK UNBOUND:                -0.055
REMARK SMILES CCCCCC(C)=O
REMARK SMILES IDX 4 1 3 2 2 3 1 4 5 5 6 6 8 7 7 8
REMARK H PARENT
REMARK Flexibility Score: inf
ROOT
ATOM      1  C   UNL     1      19.170  42.839   0.742  1.00  0.00     0.008 C 
ENDROOT
BRANCH   1   2
ATOM      2  C   UNL     1      19.978  43.152   2.009  1.00  0.00     0.000 C 
BRANCH   2   3
ATOM      3  C   UNL     1      20.373  44.633   2.057  1.00  0.00    -0.003 C 
ATOM      4  C   UNL     1      20.111  45.318   0.719  1.00  0.00     0.004 C 
ENDBRANCH   2   3
ENDBRANCH   1   2
BRANCH   1   5
ATOM      5  C   UNL     1      17.725  42.436   1.065  1.00  0.00     0.075 C 
BRANCH   5   6
ATOM      6  C   UNL     1      16.762  43.574   0.844  1.00  0.00     0.129 C 
ATOM      7  O   UNL     1      16.219  43.701  -0.244  1.00  0.00    -0.300 OA
ATOM      8  C   UNL     1      16.447  44.554   1.936  1.00  0.00     0.087 C 
ENDBRANCH   5   6
ENDBRANCH   1   5
TORSDOF 4
ENDMDL
MODEL 8
REMARK VINA RESULT:    -3.217     17.717     18.870
REMARK INTER + INTRA:          -4.024
REMARK INTER:                  -3.847
REMARK INTRA:                  -0.177
REMARK UNBOUND:                -0.055
REMARK SMILES CCCCCC(C)=O
REMARK SMILES IDX 4 1 3 2 2 3 1 4 5 5 6 6 8 7 7 8
REMARK H PARENT
REMARK Flexibility Score: inf
ROOT
ATOM      1  C   UNL     1      18.549  45.120   0.532  1.00  0.00     0.008 C 
ENDROOT
BRANCH   1   2
ATOM      2  C   UNL     1      17.014  45.099   0.496  1.00  0.00     0.000 C 
BRANCH   2   3
ATOM      3  C   UNL     1      16.438  44.651   1.845  1.00  0.00    -0.003 C 
ATOM      4  C   UNL     1      15.242  45.508   2.246  1.00  0.00     0.004 C 
ENDBRANCH   2   3
ENDBRANCH   1   2
BRANCH   1   5
ATOM      5  C   UNL     1      19.113  44.184   1.610  1.00  0.00     0.075 C 
BRANCH   5   6
ATOM      6  C   UNL     1      19.885  43.037   1.010  1.00  0.00     0.129 C 
ATOM      7  O   UNL     1      19.301  42.213   0.321  1.00  0.00    -0.300 OA
ATOM      8  C   UNL     1      21.361  42.888   1.233  1.00  0.00     0.087 C 
ENDBRANCH   5   6
ENDBRANCH   1   5
TORSDOF 4
ENDMDL
MODEL 9
REMARK VINA RESULT:    -3.167      5.066      6.922
REMARK INTER + INTRA:          -3.963
REMARK INTER:                  -3.828
REMARK INTRA:                  -0.135
REMARK UNBOUND:                -0.055
REMARK SMILES CCCCCC(C)=O
REMARK SMILES IDX 4 1 3 2 2 3 1 4 5 5 6 6 8 7 7 8
REMARK H PARENT
REMARK Flexibility Score: inf
ROOT
ATOM      1  C   UNL     1      31.835  59.120 -10.615  1.00  0.00     0.008 C 
ENDROOT
BRANCH   1   2
ATOM      2  C   UNL     1      30.894  59.933  -9.715  1.00  0.00     0.000 C 
BRANCH   2   3
ATOM      3  C   UNL     1      29.470  59.952 -10.284  1.00  0.00    -0.003 C 
ATOM      4  C   UNL     1      28.594  60.961  -9.547  1.00  0.00     0.004 C 
ENDBRANCH   2   3
ENDBRANCH   1   2
BRANCH   1   5
ATOM      5  C   UNL     1      31.199  58.797 -11.973  1.00  0.00     0.075 C 
BRANCH   5   6
ATOM      6  C   UNL     1      31.797  57.561 -12.594  1.00  0.00     0.129 C 
ATOM      7  O   UNL     1      31.072  56.622 -12.887  1.00  0.00    -0.300 OA
ATOM      8  C   UNL     1      33.269  57.460 -12.868  1.00  0.00     0.087 C 
ENDBRANCH   5   6
ENDBRANCH   1   5
TORSDOF 4
ENDMDL
