MODEL 1
REMARK VINA RESULT:    48.298      0.000      0.000
REMARK INTER + INTRA:          51.121
REMARK INTER:                  51.121
REMARK INTRA:                   0.000
REMARK UNBOUND:                 0.000
REMARK SMILES C[C@H]1CC[C@H]2[N@H+](C1)C[C@@H]1[C@@H]3C[C@@H]4[C@@H](CC(=O)[C@@H]5C[C@H](O)CC[C@@]45C)[C@H]3CC[C@H]1[C@@]2(C)O
REMARK SMILES IDX 5 1 6 2 8 3 7 4 4 5 29 6 3 7 28 8 30 9 2 10 27 11 9 12 1 13
REMARK SMILES IDX 26 14 10 15 25 16 11 17 13 18 12 19 14 20 23 21 15 22 17 23
REMARK SMILES IDX 22 24 24 25 16 26 18 27 21 28 19 29 31 31 20 33
REMARK H PARENT 6 30 31 32 20 34
REMARK Flexibility Score: inf
ROOT
ATOM      1  C   UNL     1      11.840  22.180   5.461  1.00  0.00     0.216 C 
ATOM      2  N   UNL     1      12.679  23.233   4.813  1.00  0.00    -0.330 N 
ATOM      3  C   UNL     1      12.252  23.500   3.423  1.00  0.00     0.266 C 
ATOM      4  C   UNL     1      12.617  24.504   5.575  1.00  0.00     0.265 C 
ATOM      5  C   UNL     1      12.334  21.943   6.917  1.00  0.00     0.069 C 
ATOM      6  C   UNL     1      11.792  20.827   4.632  1.00  0.00     0.117 C 
ATOM      7  C   UNL     1      12.328  23.242   7.724  1.00  0.00     0.015 C 
ATOM      8  C   UNL     1      11.485  21.126   3.121  1.00  0.00     0.036 C 
ATOM      9  C   UNL     1      10.665  19.928   5.200  1.00  0.00     0.049 C 
ATOM     10  C   UNL     1      13.143  24.324   7.009  1.00  0.00     0.041 C 
ATOM     11  C   UNL     1      11.550  19.875   2.192  1.00  0.00     0.007 C 
ATOM     12  C   UNL     1      12.408  22.243   2.559  1.00  0.00     0.054 C 
ATOM     13  C   UNL     1      13.079  25.646   7.783  1.00  0.00     0.013 C 
ATOM     14  C   UNL     1      11.215  20.175   0.705  1.00  0.00     0.004 C 
ATOM     15  C   UNL     1      12.223  22.465   1.017  1.00  0.00     0.002 C 
ATOM     16  C   UNL     1      11.053  21.685   0.440  1.00  0.00    -0.004 C 
ATOM     17  C   UNL     1      11.991  23.881   0.484  1.00  0.00     0.009 C 
ATOM     18  C   UNL     1      10.925  22.186  -1.010  1.00  0.00     0.003 C 
ATOM     19  C   UNL     1      11.384  23.684  -0.928  1.00  0.00    -0.000 C 
ATOM     20  C   UNL     1      11.668  21.316  -2.061  1.00  0.00     0.080 C 
ATOM     21  C   UNL     1      12.256  24.201  -2.138  1.00  0.00    -0.020 C 
ATOM     22  C   UNL     1      11.864  22.040  -3.367  1.00  0.00     0.136 C 
ATOM     23  C   UNL     1      11.652  23.534  -3.420  1.00  0.00     0.065 C 
ATOM     24  C   UNL     1      12.168  25.769  -2.234  1.00  0.00     0.010 C 
ATOM     25  C   UNL     1      13.766  23.828  -1.977  1.00  0.00     0.012 C 
ATOM     26  O   UNL     1      12.184  21.412  -4.366  1.00  0.00    -0.299 OA
ATOM     27  C   UNL     1      12.138  24.200  -4.724  1.00  0.00     0.043 C 
ATOM     28  C   UNL     1      11.324  26.274  -3.411  1.00  0.00     0.032 C 
ATOM     29  C   UNL     1      11.843  25.725  -4.756  1.00  0.00     0.115 C 
ATOM     30  H   UNL     1      13.680  22.928   4.797  1.00  0.00     0.348 HD
ENDROOT
BRANCH   6  31
ATOM     31  O   UNL     1      12.997  20.105   4.760  1.00  0.00    -0.384 OA
ATOM     32  H   UNL     1      13.755  20.740   4.767  1.00  0.00     0.211 HD
ENDBRANCH   6  31
BRANCH  29  33
ATOM     33  O   UNL     1      13.001  26.431  -5.125  1.00  0.00    -0.393 OA
ATOM     34  H   UNL     1      12.706  27.171  -5.718  1.00  0.00     0.210 HD
ENDBRANCH  29  33
TORSDOF 2
ENDMDL
MODEL 2
REMARK VINA RESULT:    49.872      1.931      3.816
REMARK INTER + INTRA:          52.787
REMARK INTER:                  52.787
REMARK INTRA:                   0.000
REMARK UNBOUND:                 0.000
REMARK SMILES C[C@H]1CC[C@H]2[N@H+](C1)C[C@@H]1[C@@H]3C[C@@H]4[C@@H](CC(=O)[C@@H]5C[C@H](O)CC[C@@]45C)[C@H]3CC[C@H]1[C@@]2(C)O
REMARK SMILES IDX 5 1 6 2 8 3 7 4 4 5 29 6 3 7 28 8 30 9 2 10 27 11 9 12 1 13
REMARK SMILES IDX 26 14 10 15 25 16 11 17 13 18 12 19 14 20 23 21 15 22 17 23
REMARK SMILES IDX 22 24 24 25 16 26 18 27 21 28 19 29 31 31 20 33
REMARK H PARENT 6 30 31 32 20 34
REMARK Flexibility Score: inf
ROOT
ATOM      1  C   UNL     1      13.475  22.507   5.325  1.00  0.00     0.216 C 
ATOM      2  N   UNL     1      12.143  22.112   4.772  1.00  0.00    -0.330 N 
ATOM      3  C   UNL     1      12.207  21.846   3.319  1.00  0.00     0.266 C 
ATOM      4  C   UNL     1      11.626  20.899   5.449  1.00  0.00     0.265 C 
ATOM      5  C   UNL     1      13.346  22.774   6.853  1.00  0.00     0.069 C 
ATOM      6  C   UNL     1      14.119  23.744   4.567  1.00  0.00     0.117 C 
ATOM      7  C   UNL     1      12.771  21.559   7.582  1.00  0.00     0.015 C 
ATOM      8  C   UNL     1      14.051  23.525   3.014  1.00  0.00     0.036 C 
ATOM      9  C   UNL     1      15.607  23.871   4.987  1.00  0.00     0.049 C 
ATOM     10  C   UNL     1      11.438  21.136   6.958  1.00  0.00     0.041 C 
ATOM     11  C   UNL     1      14.537  24.744   2.171  1.00  0.00     0.007 C 
ATOM     12  C   UNL     1      12.626  23.108   2.556  1.00  0.00     0.054 C 
ATOM     13  C   UNL     1      10.896  19.877   7.644  1.00  0.00     0.013 C 
ATOM     14  C   UNL     1      14.495  24.507   0.636  1.00  0.00     0.004 C 
ATOM     15  C   UNL     1      12.490  23.020   0.995  1.00  0.00     0.002 C 
ATOM     16  C   UNL     1      13.819  23.170   0.274  1.00  0.00    -0.004 C 
ATOM     17  C   UNL     1      11.893  21.762   0.362  1.00  0.00     0.009 C 
ATOM     18  C   UNL     1      13.502  22.862  -1.201  1.00  0.00     0.003 C 
ATOM     19  C   UNL     1      12.347  21.804  -1.119  1.00  0.00    -0.000 C 
ATOM     20  C   UNL     1      13.202  24.113  -2.072  1.00  0.00     0.080 C 
ATOM     21  C   UNL     1      11.201  21.955  -2.194  1.00  0.00    -0.020 C 
ATOM     22  C   UNL     1      12.510  23.759  -3.362  1.00  0.00     0.136 C 
ATOM     23  C   UNL     1      11.910  22.383  -3.523  1.00  0.00     0.065 C 
ATOM     24  C   UNL     1      10.452  20.583  -2.380  1.00  0.00     0.010 C 
ATOM     25  C   UNL     1      10.132  23.015  -1.769  1.00  0.00     0.012 C 
ATOM     26  O   UNL     1      12.449  24.584  -4.263  1.00  0.00    -0.299 OA
ATOM     27  C   UNL     1      11.003  22.224  -4.761  1.00  0.00     0.043 C 
ATOM     28  C   UNL     1      10.772  19.876  -3.703  1.00  0.00     0.032 C 
ATOM     29  C   UNL     1      10.461  20.777  -4.916  1.00  0.00     0.115 C 
ATOM     30  H   UNL     1      11.450  22.881   4.936  1.00  0.00     0.348 HD
ENDROOT
BRANCH   6  31
ATOM     31  O   UNL     1      13.487  24.952   4.927  1.00  0.00    -0.384 OA
ATOM     32  H   UNL     1      12.613  25.008   4.468  1.00  0.00     0.211 HD
ENDBRANCH   6  31
BRANCH  29  33
ATOM     33  O   UNL     1       9.071  20.804  -5.125  1.00  0.00    -0.393 OA
ATOM     34  H   UNL     1       8.820  21.757  -5.249  1.00  0.00     0.210 HD
ENDBRANCH  29  33
TORSDOF 2
ENDMDL
