MODEL 1
REMARK VINA RESULT:    -6.543      0.000      0.000
REMARK INTER + INTRA:         -12.081
REMARK INTER:                 -10.750
REMARK INTRA:                  -1.331
REMARK UNBOUND:                -1.331
REMARK SMILES COc1ccc([C@H]2CC(=O)c3c(O)cc(O[C@@H]4O[C@@H](CO[C@@H]5O[C@@H](C)[C@@H](O)[C@H](O)[C@H]5O)[C@@H](O)[C@H](O)[C@@H]4O)cc3O2)cc1O
REMARK SMILES IDX 19 1 32 2 34 3 36 4 17 5 18 6 20 7 21 8 22 9 25 10 24 11
REMARK SMILES IDX 26 12 23 13 28 14 30 15 27 16 29 18 31 20 33 22 35 24 16 26
REMARK SMILES IDX 15 27 14 28 38 29 12 30 39 31 11 32 40 33 9 34 7 35 10 36
REMARK SMILES IDX 8 37 13 38 6 40 41 41 5 42 42 43 4 44 3 45 43 46 2 48 1 49
REMARK SMILES IDX 37 50
REMARK H PARENT 27 17 29 19 31 21 33 23 35 25 13 39 43 47 37 51
REMARK Flexibility Score: inf
ROOT
ATOM      1  C   UNL     1      22.713   1.452  27.513  1.00  0.00     0.180 C 
ATOM      2  C   UNL     1      24.229   1.286  27.857  1.00  0.00     0.177 C 
ATOM      3  C   UNL     1      24.364   0.027  28.624  1.00  0.00     0.180 C 
ATOM      4  C   UNL     1      23.546  -0.105  30.002  1.00  0.00     0.214 C 
ATOM      5  C   UNL     1      22.124   0.038  29.393  1.00  0.00     0.339 C 
ATOM      6  O   UNL     1      22.017   1.310  28.720  1.00  0.00    -0.332 OA
ENDROOT
BRANCH   1   7
ATOM      7  C   UNL     1      22.187   2.650  26.653  1.00  0.00     0.198 C 
BRANCH   7   8
ATOM      8  O   UNL     1      22.877   3.874  26.351  1.00  0.00    -0.347 OA
BRANCH   8   9
ATOM      9  C   UNL     1      23.927   3.809  25.387  1.00  0.00     0.281 C 
ATOM     10  C   UNL     1      26.426   5.434  27.629  1.00  0.00     0.041 C 
ATOM     11  C   UNL     1      25.186   5.253  26.707  1.00  0.00     0.150 C 
ATOM     12  C   UNL     1      25.378   6.244  25.443  1.00  0.00     0.174 C 
ATOM     13  O   UNL     1      25.193   3.966  26.096  1.00  0.00    -0.344 OA
ATOM     14  C   UNL     1      24.636   6.019  23.993  1.00  0.00     0.179 C 
ATOM     15  C   UNL     1      23.884   4.657  24.030  1.00  0.00     0.202 C 
BRANCH  12  16
ATOM     16  O   UNL     1      26.767   6.429  25.226  1.00  0.00    -0.388 OA
ATOM     17  H   UNL     1      26.938   7.284  25.730  1.00  0.00     0.211 HD
ENDBRANCH  12  16
BRANCH  14  18
ATOM     18  O   UNL     1      23.766   7.125  23.808  1.00  0.00    -0.387 OA
ATOM     19  H   UNL     1      22.944   6.813  23.407  1.00  0.00     0.211 HD
ENDBRANCH  14  18
BRANCH  15  20
ATOM     20  O   UNL     1      24.295   3.830  22.878  1.00  0.00    -0.385 OA
ATOM     21  H   UNL     1      24.080   2.900  23.167  1.00  0.00     0.211 HD
ENDBRANCH  15  20
ENDBRANCH   8   9
ENDBRANCH   7   8
ENDBRANCH   1   7
BRANCH   2  22
ATOM     22  O   UNL     1      24.792   2.343  28.732  1.00  0.00    -0.387 OA
ATOM     23  H   UNL     1      24.326   2.446  29.585  1.00  0.00     0.211 HD
ENDBRANCH   2  22
BRANCH   3  24
ATOM     24  O   UNL     1      24.612  -1.121  27.829  1.00  0.00    -0.387 OA
ATOM     25  H   UNL     1      25.528  -1.031  27.345  1.00  0.00     0.211 HD
ENDBRANCH   3  24
BRANCH   5  26
ATOM     26  O   UNL     1      21.558  -1.010  28.654  1.00  0.00    -0.462 OA
BRANCH  26  27
ATOM     27  C   UNL     1      20.874  -2.056  29.355  1.00  0.00     0.130 A 
ATOM     28  C   UNL     1      20.842  -2.119  30.818  1.00  0.00     0.093 A 
ATOM     29  C   UNL     1      20.274  -3.143  28.694  1.00  0.00     0.094 A 
ATOM     30  C   UNL     1      20.323  -3.324  31.446  1.00  0.00     0.133 A 
ATOM     31  C   UNL     1      19.607  -4.179  29.362  1.00  0.00     0.138 A 
ATOM     32  C   UNL     1      19.546  -4.252  30.727  1.00  0.00     0.102 A 
ATOM     33  O   UNL     1      18.969  -5.140  28.510  1.00  0.00    -0.484 OA
ATOM     34  C   UNL     1      18.946  -5.476  31.369  1.00  0.00     0.174 C 
ATOM     35  C   UNL     1      17.912  -5.922  29.045  1.00  0.00     0.211 C 
ATOM     36  O   UNL     1      18.881  -5.638  32.602  1.00  0.00    -0.294 OA
ATOM     37  C   UNL     1      18.345  -6.529  30.409  1.00  0.00     0.131 C 
BRANCH  30  38
ATOM     38  O   UNL     1      20.774  -3.634  32.751  1.00  0.00    -0.507 OA
ATOM     39  H   UNL     1      21.293  -2.857  33.221  1.00  0.00     0.293 HD
ENDBRANCH  30  38
BRANCH  35  40
ATOM     40  C   UNL     1      17.439  -6.942  27.957  1.00  0.00    -0.003 A 
ATOM     41  C   UNL     1      16.734  -6.459  26.845  1.00  0.00     0.057 A 
ATOM     42  C   UNL     1      17.552  -8.302  28.079  1.00  0.00     0.011 A 
ATOM     43  C   UNL     1      16.325  -7.351  25.787  1.00  0.00     0.158 A 
ATOM     44  C   UNL     1      17.206  -9.201  27.021  1.00  0.00     0.051 A 
ATOM     45  C   UNL     1      16.572  -8.699  25.883  1.00  0.00     0.160 A 
BRANCH  43  46
ATOM     46  O   UNL     1      15.658  -6.800  24.698  1.00  0.00    -0.504 OA
ATOM     47  H   UNL     1      14.877  -6.133  24.795  1.00  0.00     0.293 HD
ENDBRANCH  43  46
BRANCH  45  48
ATOM     48  O   UNL     1      16.161  -9.540  24.779  1.00  0.00    -0.493 OA
ATOM     49  C   UNL     1      17.070 -10.005  23.779  1.00  0.00     0.278 C 
ENDBRANCH  45  48
ENDBRANCH  35  40
ENDBRANCH  26  27
ENDBRANCH   5  26
BRANCH   4  50
ATOM     50  O   UNL     1      24.130  -1.384  30.489  1.00  0.00    -0.384 OA
ATOM     51  H   UNL     1      24.967  -1.602  29.906  1.00  0.00     0.211 HD
ENDBRANCH   4  50
TORSDOF 15
ENDMDL
MODEL 2
REMARK VINA RESULT:    -6.459      1.962      3.390
REMARK INTER + INTRA:         -11.943
REMARK INTER:                 -10.882
REMARK INTRA:                  -1.061
REMARK UNBOUND:                -1.331
REMARK SMILES COc1ccc([C@H]2CC(=O)c3c(O)cc(O[C@@H]4O[C@@H](CO[C@@H]5O[C@@H](C)[C@@H](O)[C@H](O)[C@H]5O)[C@@H](O)[C@H](O)[C@@H]4O)cc3O2)cc1O
REMARK SMILES IDX 19 1 32 2 34 3 36 4 17 5 18 6 20 7 21 8 22 9 25 10 24 11
REMARK SMILES IDX 26 12 23 13 28 14 30 15 27 16 29 18 31 20 33 22 35 24 16 26
REMARK SMILES IDX 15 27 14 28 38 29 12 30 39 31 11 32 40 33 9 34 7 35 10 36
REMARK SMILES IDX 8 37 13 38 6 40 41 41 5 42 42 43 4 44 3 45 43 46 2 48 1 49
REMARK SMILES IDX 37 50
REMARK H PARENT 27 17 29 19 31 21 33 23 35 25 13 39 43 47 37 51
REMARK Flexibility Score: inf
ROOT
ATOM      1  C   UNL     1      22.656  -0.279  29.346  1.00  0.00     0.180 C 
ATOM      2  C   UNL     1      23.265  -0.529  30.764  1.00  0.00     0.177 C 
ATOM      3  C   UNL     1      22.371  -1.483  31.457  1.00  0.00     0.180 C 
ATOM      4  C   UNL     1      20.835  -1.056  31.667  1.00  0.00     0.214 C 
ATOM      5  C   UNL     1      20.467  -0.925  30.164  1.00  0.00     0.339 C 
ATOM      6  O   UNL     1      21.314   0.068  29.549  1.00  0.00    -0.332 OA
ENDROOT
BRANCH   1   7
ATOM      7  C   UNL     1      23.362   0.641  28.294  1.00  0.00     0.198 C 
BRANCH   7   8
ATOM      8  O   UNL     1      22.740   1.575  27.397  1.00  0.00    -0.347 OA
BRANCH   8   9
ATOM      9  C   UNL     1      23.167   2.935  27.472  1.00  0.00     0.281 C 
ATOM     10  C   UNL     1      20.862   4.073  24.768  1.00  0.00     0.041 C 
ATOM     11  C   UNL     1      22.054   3.364  25.474  1.00  0.00     0.150 C 
ATOM     12  C   UNL     1      23.416   3.967  24.843  1.00  0.00     0.174 C 
ATOM     13  O   UNL     1      22.142   3.760  26.840  1.00  0.00    -0.344 OA
ATOM     14  C   UNL     1      24.867   3.934  25.616  1.00  0.00     0.179 C 
ATOM     15  C   UNL     1      24.647   3.381  27.054  1.00  0.00     0.202 C 
BRANCH  12  16
ATOM     16  O   UNL     1      23.157   5.291  24.405  1.00  0.00    -0.388 OA
ATOM     17  H   UNL     1      22.486   5.133  23.671  1.00  0.00     0.211 HD
ENDBRANCH  12  16
BRANCH  14  18
ATOM     18  O   UNL     1      25.722   3.115  24.835  1.00  0.00    -0.387 OA
ATOM     19  H   UNL     1      25.219   2.753  24.093  1.00  0.00     0.211 HD
ENDBRANCH  14  18
BRANCH  15  20
ATOM     20  O   UNL     1      25.212   4.322  28.041  1.00  0.00    -0.385 OA
ATOM     21  H   UNL     1      24.454   4.492  28.666  1.00  0.00     0.211 HD
ENDBRANCH  15  20
ENDBRANCH   8   9
ENDBRANCH   7   8
ENDBRANCH   1   7
BRANCH   2  22
ATOM     22  O   UNL     1      23.322   0.666  31.641  1.00  0.00    -0.387 OA
ATOM     23  H   UNL     1      23.857   1.400  31.281  1.00  0.00     0.211 HD
ENDBRANCH   2  22
BRANCH   3  24
ATOM     24  O   UNL     1      22.714  -2.848  31.275  1.00  0.00    -0.387 OA
ATOM     25  H   UNL     1      22.071  -3.454  31.824  1.00  0.00     0.211 HD
ENDBRANCH   3  24
BRANCH   5  26
ATOM     26  O   UNL     1      20.312  -2.068  29.367  1.00  0.00    -0.462 OA
BRANCH  26  27
ATOM     27  C   UNL     1      19.037  -2.722  29.342  1.00  0.00     0.130 A 
ATOM     28  C   UNL     1      17.906  -2.251  30.144  1.00  0.00     0.093 A 
ATOM     29  C   UNL     1      18.812  -3.912  28.626  1.00  0.00     0.094 A 
ATOM     30  C   UNL     1      16.724  -3.095  30.234  1.00  0.00     0.133 A 
ATOM     31  C   UNL     1      17.574  -4.570  28.594  1.00  0.00     0.138 A 
ATOM     32  C   UNL     1      16.497  -4.141  29.320  1.00  0.00     0.102 A 
ATOM     33  O   UNL     1      17.514  -5.708  27.724  1.00  0.00    -0.484 OA
ATOM     34  C   UNL     1      15.251  -4.990  29.354  1.00  0.00     0.174 C 
ATOM     35  C   UNL     1      16.242  -6.142  27.266  1.00  0.00     0.211 C 
ATOM     36  O   UNL     1      14.239  -4.691  30.013  1.00  0.00    -0.294 OA
ATOM     37  C   UNL     1      15.261  -6.255  28.466  1.00  0.00     0.131 C 
BRANCH  30  38
ATOM     38  O   UNL     1      15.900  -2.956  31.376  1.00  0.00    -0.507 OA
ATOM     39  H   UNL     1      15.092  -2.305  31.244  1.00  0.00     0.293 HD
ENDBRANCH  30  38
BRANCH  35  40
ATOM     40  C   UNL     1      16.430  -7.435  26.405  1.00  0.00    -0.003 A 
ATOM     41  C   UNL     1      16.800  -8.624  27.050  1.00  0.00     0.057 A 
ATOM     42  C   UNL     1      16.384  -7.459  25.036  1.00  0.00     0.011 A 
ATOM     43  C   UNL     1      16.931  -9.855  26.309  1.00  0.00     0.158 A 
ATOM     44  C   UNL     1      16.455  -8.674  24.284  1.00  0.00     0.051 A 
ATOM     45  C   UNL     1      16.749  -9.866  24.947  1.00  0.00     0.160 A 
BRANCH  43  46
ATOM     46  O   UNL     1      17.270 -11.003  27.017  1.00  0.00    -0.504 OA
ATOM     47  H   UNL     1      16.595 -11.528  27.594  1.00  0.00     0.293 HD
ENDBRANCH  43  46
BRANCH  45  48
ATOM     48  O   UNL     1      16.869 -11.136  24.262  1.00  0.00    -0.493 OA
ATOM     49  C   UNL     1      18.078 -11.565  23.633  1.00  0.00     0.278 C 
ENDBRANCH  45  48
ENDBRANCH  35  40
ENDBRANCH  26  27
ENDBRANCH   5  26
BRANCH   4  50
ATOM     50  O   UNL     1      20.407  -2.179  32.546  1.00  0.00    -0.384 OA
ATOM     51  H   UNL     1      20.824  -3.060  32.173  1.00  0.00     0.211 HD
ENDBRANCH   4  50
TORSDOF 15
ENDMDL
MODEL 3
REMARK VINA RESULT:    -6.264      2.090      2.843
REMARK INTER + INTRA:         -11.622
REMARK INTER:                 -10.345
REMARK INTRA:                  -1.277
REMARK UNBOUND:                -1.331
REMARK SMILES COc1ccc([C@H]2CC(=O)c3c(O)cc(O[C@@H]4O[C@@H](CO[C@@H]5O[C@@H](C)[C@@H](O)[C@H](O)[C@H]5O)[C@@H](O)[C@H](O)[C@@H]4O)cc3O2)cc1O
REMARK SMILES IDX 19 1 32 2 34 3 36 4 17 5 18 6 20 7 21 8 22 9 25 10 24 11
REMARK SMILES IDX 26 12 23 13 28 14 30 15 27 16 29 18 31 20 33 22 35 24 16 26
REMARK SMILES IDX 15 27 14 28 38 29 12 30 39 31 11 32 40 33 9 34 7 35 10 36
REMARK SMILES IDX 8 37 13 38 6 40 41 41 5 42 42 43 4 44 3 45 43 46 2 48 1 49
REMARK SMILES IDX 37 50
REMARK H PARENT 27 17 29 19 31 21 33 23 35 25 13 39 43 47 37 51
REMARK Flexibility Score: inf
ROOT
ATOM      1  C   UNL     1      21.560   0.907  29.627  1.00  0.00     0.180 C 
ATOM      2  C   UNL     1      22.984   0.449  30.082  1.00  0.00     0.177 C 
ATOM      3  C   UNL     1      22.933  -1.021  30.249  1.00  0.00     0.180 C 
ATOM      4  C   UNL     1      21.879  -1.621  31.305  1.00  0.00     0.214 C 
ATOM      5  C   UNL     1      20.594  -1.085  30.616  1.00  0.00     0.339 C 
ATOM      6  O   UNL     1      20.656   0.355  30.543  1.00  0.00    -0.332 OA
ENDROOT
BRANCH   1   7
ATOM      7  C   UNL     1      21.240   2.404  29.295  1.00  0.00     0.198 C 
BRANCH   7   8
ATOM      8  O   UNL     1      22.023   3.305  28.496  1.00  0.00    -0.347 OA
BRANCH   8   9
ATOM      9  C   UNL     1      22.280   2.923  27.144  1.00  0.00     0.281 C 
ATOM     10  C   UNL     1      25.985   2.942  27.576  1.00  0.00     0.041 C 
ATOM     11  C   UNL     1      24.523   3.459  27.449  1.00  0.00     0.150 C 
ATOM     12  C   UNL     1      24.467   4.434  26.160  1.00  0.00     0.174 C 
ATOM     13  O   UNL     1      23.642   2.403  27.079  1.00  0.00    -0.344 OA
ATOM     14  C   UNL     1      23.084   4.769  25.335  1.00  0.00     0.179 C 
ATOM     15  C   UNL     1      21.940   3.887  25.913  1.00  0.00     0.202 C 
BRANCH  12  16
ATOM     16  O   UNL     1      25.463   4.017  25.240  1.00  0.00    -0.388 OA
ATOM     17  H   UNL     1      26.032   4.845  25.170  1.00  0.00     0.211 HD
ENDBRANCH  12  16
BRANCH  14  18
ATOM     18  O   UNL     1      22.845   6.158  25.493  1.00  0.00    -0.387 OA
ATOM     19  H   UNL     1      23.261   6.456  26.314  1.00  0.00     0.211 HD
ENDBRANCH  14  18
BRANCH  15  20
ATOM     20  O   UNL     1      21.288   3.138  24.820  1.00  0.00    -0.385 OA
ATOM     21  H   UNL     1      20.315   3.294  24.975  1.00  0.00     0.211 HD
ENDBRANCH  15  20
ENDBRANCH   8   9
ENDBRANCH   7   8
ENDBRANCH   1   7
BRANCH   2  22
ATOM     22  O   UNL     1      23.422   0.980  31.397  1.00  0.00    -0.387 OA
ATOM     23  H   UNL     1      24.053   1.723  31.337  1.00  0.00     0.211 HD
ENDBRANCH   2  22
BRANCH   3  24
ATOM     24  O   UNL     1      23.274  -1.756  29.085  1.00  0.00    -0.387 OA
ATOM     25  H   UNL     1      22.968  -2.745  29.183  1.00  0.00     0.211 HD
ENDBRANCH   3  24
BRANCH   5  26
ATOM     26  O   UNL     1      20.129  -1.664  29.427  1.00  0.00    -0.462 OA
BRANCH  26  27
ATOM     27  C   UNL     1      18.872  -2.352  29.441  1.00  0.00     0.130 A 
ATOM     28  C   UNL     1      17.759  -1.919  30.289  1.00  0.00     0.093 A 
ATOM     29  C   UNL     1      18.652  -3.540  28.722  1.00  0.00     0.094 A 
ATOM     30  C   UNL     1      16.604  -2.795  30.414  1.00  0.00     0.133 A 
ATOM     31  C   UNL     1      17.433  -4.231  28.729  1.00  0.00     0.138 A 
ATOM     32  C   UNL     1      16.371  -3.838  29.498  1.00  0.00     0.102 A 
ATOM     33  O   UNL     1      17.370  -5.362  27.850  1.00  0.00    -0.484 OA
ATOM     34  C   UNL     1      15.151  -4.720  29.568  1.00  0.00     0.174 C 
ATOM     35  C   UNL     1      16.094  -5.826  27.434  1.00  0.00     0.211 C 
ATOM     36  O   UNL     1      14.156  -4.455  30.267  1.00  0.00    -0.294 OA
ATOM     37  C   UNL     1      15.161  -5.977  28.667  1.00  0.00     0.131 C 
BRANCH  30  38
ATOM     38  O   UNL     1      15.819  -2.689  31.586  1.00  0.00    -0.507 OA
ATOM     39  H   UNL     1      14.993  -3.330  31.609  1.00  0.00     0.293 HD
ENDBRANCH  30  38
BRANCH  35  40
ATOM     40  C   UNL     1      16.285  -7.105  26.553  1.00  0.00    -0.003 A 
ATOM     41  C   UNL     1      16.607  -8.314  27.185  1.00  0.00     0.057 A 
ATOM     42  C   UNL     1      16.284  -7.100  25.183  1.00  0.00     0.011 A 
ATOM     43  C   UNL     1      16.738  -9.532  26.424  1.00  0.00     0.158 A 
ATOM     44  C   UNL     1      16.356  -8.302  24.409  1.00  0.00     0.051 A 
ATOM     45  C   UNL     1      16.603  -9.513  25.057  1.00  0.00     0.160 A 
BRANCH  43  46
ATOM     46  O   UNL     1      17.029 -10.702  27.119  1.00  0.00    -0.504 OA
ATOM     47  H   UNL     1      17.394 -11.552  26.662  1.00  0.00     0.293 HD
ENDBRANCH  43  46
BRANCH  45  48
ATOM     48  O   UNL     1      16.719 -10.771  24.350  1.00  0.00    -0.493 OA
ATOM     49  C   UNL     1      17.893 -11.147  23.627  1.00  0.00     0.278 C 
ENDBRANCH  45  48
ENDBRANCH  35  40
ENDBRANCH  26  27
ENDBRANCH   5  26
BRANCH   4  50
ATOM     50  O   UNL     1      22.319  -3.043  31.278  1.00  0.00    -0.384 OA
ATOM     51  H   UNL     1      23.172  -3.108  30.681  1.00  0.00     0.211 HD
ENDBRANCH   4  50
TORSDOF 15
ENDMDL
MODEL 4
REMARK VINA RESULT:    -5.788      6.545      9.039
REMARK INTER + INTRA:         -10.841
REMARK INTER:                  -9.742
REMARK INTRA:                  -1.099
REMARK UNBOUND:                -1.331
REMARK SMILES COc1ccc([C@H]2CC(=O)c3c(O)cc(O[C@@H]4O[C@@H](CO[C@@H]5O[C@@H](C)[C@@H](O)[C@H](O)[C@H]5O)[C@@H](O)[C@H](O)[C@@H]4O)cc3O2)cc1O
REMARK SMILES IDX 19 1 32 2 34 3 36 4 17 5 18 6 20 7 21 8 22 9 25 10 24 11
REMARK SMILES IDX 26 12 23 13 28 14 30 15 27 16 29 18 31 20 33 22 35 24 16 26
REMARK SMILES IDX 15 27 14 28 38 29 12 30 39 31 11 32 40 33 9 34 7 35 10 36
REMARK SMILES IDX 8 37 13 38 6 40 41 41 5 42 42 43 4 44 3 45 43 46 2 48 1 49
REMARK SMILES IDX 37 50
REMARK H PARENT 27 17 29 19 31 21 33 23 35 25 13 39 43 47 37 51
REMARK Flexibility Score: inf
ROOT
ATOM      1  C   UNL     1      16.623  -3.439  28.664  1.00  0.00     0.180 C 
ATOM      2  C   UNL     1      18.064  -2.903  28.946  1.00  0.00     0.177 C 
ATOM      3  C   UNL     1      19.012  -3.939  28.476  1.00  0.00     0.180 C 
ATOM      4  C   UNL     1      18.910  -5.403  29.134  1.00  0.00     0.214 C 
ATOM      5  C   UNL     1      17.458  -5.715  28.680  1.00  0.00     0.339 C 
ATOM      6  O   UNL     1      16.563  -4.722  29.222  1.00  0.00    -0.332 OA
ENDROOT
BRANCH   1   7
ATOM      7  C   UNL     1      15.348  -2.587  28.979  1.00  0.00     0.198 C 
BRANCH   7   8
ATOM      8  O   UNL     1      14.993  -1.312  28.420  1.00  0.00    -0.347 OA
BRANCH   8   9
ATOM      9  C   UNL     1      13.993  -0.556  29.103  1.00  0.00     0.281 C 
ATOM     10  C   UNL     1      14.020   2.213  26.602  1.00  0.00     0.041 C 
ATOM     11  C   UNL     1      14.490   1.269  27.747  1.00  0.00     0.150 C 
ATOM     12  C   UNL     1      14.723   2.184  29.060  1.00  0.00     0.174 C 
ATOM     13  O   UNL     1      13.434   0.403  28.154  1.00  0.00    -0.344 OA
ATOM     14  C   UNL     1      14.691   1.593  30.595  1.00  0.00     0.179 C 
ATOM     15  C   UNL     1      14.261   0.099  30.539  1.00  0.00     0.202 C 
BRANCH  12  16
ATOM     16  O   UNL     1      13.861   3.308  28.981  1.00  0.00    -0.388 OA
ATOM     17  H   UNL     1      12.975   2.900  29.232  1.00  0.00     0.211 HD
ENDBRANCH  12  16
BRANCH  14  18
ATOM     18  O   UNL     1      15.995   1.772  31.124  1.00  0.00    -0.387 OA
ATOM     19  H   UNL     1      16.124   1.154  31.856  1.00  0.00     0.211 HD
ENDBRANCH  14  18
BRANCH  15  20
ATOM     20  O   UNL     1      13.113  -0.123  31.442  1.00  0.00    -0.385 OA
ATOM     21  H   UNL     1      13.122   0.678  32.036  1.00  0.00     0.211 HD
ENDBRANCH  15  20
ENDBRANCH   8   9
ENDBRANCH   7   8
ENDBRANCH   1   7
BRANCH   2  22
ATOM     22  O   UNL     1      18.386  -2.696  30.380  1.00  0.00    -0.387 OA
ATOM     23  H   UNL     1      19.043  -1.992  30.544  1.00  0.00     0.211 HD
ENDBRANCH   2  22
BRANCH   3  24
ATOM     24  O   UNL     1      19.423  -3.789  27.127  1.00  0.00    -0.387 OA
ATOM     25  H   UNL     1      19.509  -4.721  26.674  1.00  0.00     0.211 HD
ENDBRANCH   3  24
BRANCH   5  26
ATOM     26  O   UNL     1      17.181  -6.014  27.339  1.00  0.00    -0.462 OA
BRANCH  26  27
ATOM     27  C   UNL     1      17.019  -7.386  26.957  1.00  0.00     0.130 A 
ATOM     28  C   UNL     1      17.338  -8.488  27.868  1.00  0.00     0.093 A 
ATOM     29  C   UNL     1      16.640  -7.770  25.658  1.00  0.00     0.094 A 
ATOM     30  C   UNL     1      17.360  -9.841  27.333  1.00  0.00     0.133 A 
ATOM     31  C   UNL     1      16.484  -9.106  25.264  1.00  0.00     0.138 A 
ATOM     32  C   UNL     1      16.757 -10.154  26.100  1.00  0.00     0.102 A 
ATOM     33  O   UNL     1      15.990  -9.292  23.931  1.00  0.00    -0.484 OA
ATOM     34  C   UNL     1      16.713 -11.558  25.554  1.00  0.00     0.174 C 
ATOM     35  C   UNL     1      15.366 -10.526  23.607  1.00  0.00     0.211 C 
ATOM     36  O   UNL     1      16.979 -12.565  26.235  1.00  0.00    -0.294 OA
ATOM     37  C   UNL     1      16.257 -11.707  24.084  1.00  0.00     0.131 C 
BRANCH  30  38
ATOM     38  O   UNL     1      18.165 -10.798  27.995  1.00  0.00    -0.507 OA
ATOM     39  H   UNL     1      17.624 -11.522  28.521  1.00  0.00     0.293 HD
ENDBRANCH  30  38
BRANCH  35  40
ATOM     40  C   UNL     1      14.989 -10.517  22.089  1.00  0.00    -0.003 A 
ATOM     41  C   UNL     1      13.879  -9.765  21.677  1.00  0.00     0.057 A 
ATOM     42  C   UNL     1      15.595 -11.301  21.143  1.00  0.00     0.011 A 
ATOM     43  C   UNL     1      13.523  -9.680  20.281  1.00  0.00     0.158 A 
ATOM     44  C   UNL     1      15.297 -11.192  19.747  1.00  0.00     0.051 A 
ATOM     45  C   UNL     1      14.237 -10.381  19.340  1.00  0.00     0.160 A 
BRANCH  43  46
ATOM     46  O   UNL     1      12.429  -8.891  19.939  1.00  0.00    -0.504 OA
ATOM     47  H   UNL     1      11.662  -9.225  19.337  1.00  0.00     0.293 HD
ENDBRANCH  43  46
BRANCH  45  48
ATOM     48  O   UNL     1      13.849 -10.235  17.953  1.00  0.00    -0.493 OA
ATOM     49  C   UNL     1      14.192 -11.191  16.948  1.00  0.00     0.278 C 
ENDBRANCH  45  48
ENDBRANCH  35  40
ENDBRANCH  26  27
ENDBRANCH   5  26
BRANCH   4  50
ATOM     50  O   UNL     1      20.131  -6.005  28.531  1.00  0.00    -0.384 OA
ATOM     51  H   UNL     1      19.930  -6.213  27.529  1.00  0.00     0.211 HD
ENDBRANCH   4  50
TORSDOF 15
ENDMDL
MODEL 5
REMARK VINA RESULT:    -5.619      2.037     11.967
REMARK INTER + INTRA:         -10.563
REMARK INTER:                  -9.384
REMARK INTRA:                  -1.179
REMARK UNBOUND:                -1.331
REMARK SMILES COc1ccc([C@H]2CC(=O)c3c(O)cc(O[C@@H]4O[C@@H](CO[C@@H]5O[C@@H](C)[C@@H](O)[C@H](O)[C@H]5O)[C@@H](O)[C@H](O)[C@@H]4O)cc3O2)cc1O
REMARK SMILES IDX 19 1 32 2 34 3 36 4 17 5 18 6 20 7 21 8 22 9 25 10 24 11
REMARK SMILES IDX 26 12 23 13 28 14 30 15 27 16 29 18 31 20 33 22 35 24 16 26
REMARK SMILES IDX 15 27 14 28 38 29 12 30 39 31 11 32 40 33 9 34 7 35 10 36
REMARK SMILES IDX 8 37 13 38 6 40 41 41 5 42 42 43 4 44 3 45 43 46 2 48 1 49
REMARK SMILES IDX 37 50
REMARK H PARENT 27 17 29 19 31 21 33 23 35 25 13 39 43 47 37 51
REMARK Flexibility Score: inf
ROOT
ATOM      1  C   UNL     1      18.147  -5.633  28.727  1.00  0.00     0.180 C 
ATOM      2  C   UNL     1      16.894  -4.700  28.780  1.00  0.00     0.177 C 
ATOM      3  C   UNL     1      17.354  -3.384  29.276  1.00  0.00     0.180 C 
ATOM      4  C   UNL     1      18.051  -3.329  30.725  1.00  0.00     0.214 C 
ATOM      5  C   UNL     1      19.249  -4.261  30.395  1.00  0.00     0.339 C 
ATOM      6  O   UNL     1      18.753  -5.553  29.987  1.00  0.00    -0.332 OA
ENDROOT
BRANCH   1   7
ATOM      7  C   UNL     1      18.061  -7.103  28.194  1.00  0.00     0.198 C 
BRANCH   7   8
ATOM      8  O   UNL     1      16.874  -7.843  27.868  1.00  0.00    -0.347 OA
BRANCH   8   9
ATOM      9  C   UNL     1      16.255  -7.563  26.612  1.00  0.00     0.281 C 
ATOM     10  C   UNL     1      12.793  -7.789  27.981  1.00  0.00     0.041 C 
ATOM     11  C   UNL     1      14.211  -8.221  27.506  1.00  0.00     0.150 C 
ATOM     12  C   UNL     1      14.014  -9.269  26.291  1.00  0.00     0.174 C 
ATOM     13  O   UNL     1      14.885  -7.136  26.876  1.00  0.00    -0.344 OA
ATOM     14  C   UNL     1      15.164  -9.567  25.154  1.00  0.00     0.179 C 
ATOM     15  C   UNL     1      16.346  -8.580  25.379  1.00  0.00     0.202 C 
BRANCH  12  16
ATOM     16  O   UNL     1      12.788  -8.974  25.640  1.00  0.00    -0.388 OA
ATOM     17  H   UNL     1      12.851  -9.555  24.820  1.00  0.00     0.211 HD
ENDBRANCH  12  16
BRANCH  14  18
ATOM     18  O   UNL     1      15.542 -10.925  25.308  1.00  0.00    -0.387 OA
ATOM     19  H   UNL     1      16.015 -11.026  26.145  1.00  0.00     0.211 HD
ENDBRANCH  14  18
BRANCH  15  20
ATOM     20  O   UNL     1      16.641  -7.861  24.123  1.00  0.00    -0.385 OA
ATOM     21  H   UNL     1      17.636  -7.894  24.061  1.00  0.00     0.211 HD
ENDBRANCH  15  20
ENDBRANCH   8   9
ENDBRANCH   7   8
ENDBRANCH   1   7
BRANCH   2  22
ATOM     22  O   UNL     1      15.834  -5.129  29.725  1.00  0.00    -0.387 OA
ATOM     23  H   UNL     1      15.288  -4.397  30.072  1.00  0.00     0.211 HD
ENDBRANCH   2  22
BRANCH   3  24
ATOM     24  O   UNL     1      17.751  -2.479  28.259  1.00  0.00    -0.387 OA
ATOM     25  H   UNL     1      18.357  -2.962  27.566  1.00  0.00     0.211 HD
ENDBRANCH   3  24
BRANCH   5  26
ATOM     26  O   UNL     1      20.300  -3.808  29.584  1.00  0.00    -0.462 OA
BRANCH  26  27
ATOM     27  C   UNL     1      21.052  -2.664  30.006  1.00  0.00     0.130 A 
ATOM     28  C   UNL     1      21.410  -2.445  31.409  1.00  0.00     0.093 A 
ATOM     29  C   UNL     1      21.412  -1.629  29.124  1.00  0.00     0.094 A 
ATOM     30  C   UNL     1      21.975  -1.157  31.784  1.00  0.00     0.133 A 
ATOM     31  C   UNL     1      22.141  -0.498  29.520  1.00  0.00     0.138 A 
ATOM     32  C   UNL     1      22.504  -0.278  30.820  1.00  0.00     0.102 A 
ATOM     33  O   UNL     1      22.502   0.394  28.457  1.00  0.00    -0.484 OA
ATOM     34  C   UNL     1      23.150   1.033  31.188  1.00  0.00     0.174 C 
ATOM     35  C   UNL     1      23.597   1.275  28.657  1.00  0.00     0.211 C 
ATOM     36  O   UNL     1      23.481   1.329  32.351  1.00  0.00    -0.294 OA
ATOM     37  C   UNL     1      23.444   2.004  30.021  1.00  0.00     0.131 C 
BRANCH  30  38
ATOM     38  O   UNL     1      21.812  -0.731  33.123  1.00  0.00    -0.507 OA
ATOM     39  H   UNL     1      20.854  -0.373  33.345  1.00  0.00     0.293 HD
ENDBRANCH  30  38
BRANCH  35  40
ATOM     40  C   UNL     1      23.742   2.193  27.398  1.00  0.00    -0.003 A 
ATOM     41  C   UNL     1      24.841   3.061  27.321  1.00  0.00     0.057 A 
ATOM     42  C   UNL     1      22.794   2.302  26.415  1.00  0.00     0.011 A 
ATOM     43  C   UNL     1      25.049   3.886  26.157  1.00  0.00     0.158 A 
ATOM     44  C   UNL     1      23.003   3.070  25.225  1.00  0.00     0.051 A 
ATOM     45  C   UNL     1      24.140   3.873  25.127  1.00  0.00     0.160 A 
BRANCH  43  46
ATOM     46  O   UNL     1      26.177   4.701  26.134  1.00  0.00    -0.504 OA
ATOM     47  H   UNL     1      26.854   4.702  25.356  1.00  0.00     0.293 HD
ENDBRANCH  43  46
BRANCH  45  48
ATOM     48  O   UNL     1      24.416   4.703  23.973  1.00  0.00    -0.493 OA
ATOM     49  C   UNL     1      25.058   4.207  22.798  1.00  0.00     0.278 C 
ENDBRANCH  45  48
ENDBRANCH  35  40
ENDBRANCH  26  27
ENDBRANCH   5  26
BRANCH   4  50
ATOM     50  O   UNL     1      18.147  -1.851  30.872  1.00  0.00    -0.384 OA
ATOM     51  H   UNL     1      18.362  -1.444  29.936  1.00  0.00     0.211 HD
ENDBRANCH   4  50
TORSDOF 15
ENDMDL
MODEL 6
REMARK VINA RESULT:    -5.595      1.804     12.223
REMARK INTER + INTRA:         -10.523
REMARK INTER:                  -9.270
REMARK INTRA:                  -1.253
REMARK UNBOUND:                -1.331
REMARK SMILES COc1ccc([C@H]2CC(=O)c3c(O)cc(O[C@@H]4O[C@@H](CO[C@@H]5O[C@@H](C)[C@@H](O)[C@H](O)[C@H]5O)[C@@H](O)[C@H](O)[C@@H]4O)cc3O2)cc1O
REMARK SMILES IDX 19 1 32 2 34 3 36 4 17 5 18 6 20 7 21 8 22 9 25 10 24 11
REMARK SMILES IDX 26 12 23 13 28 14 30 15 27 16 29 18 31 20 33 22 35 24 16 26
REMARK SMILES IDX 15 27 14 28 38 29 12 30 39 31 11 32 40 33 9 34 7 35 10 36
REMARK SMILES IDX 8 37 13 38 6 40 41 41 5 42 42 43 4 44 3 45 43 46 2 48 1 49
REMARK SMILES IDX 37 50
REMARK H PARENT 27 17 29 19 31 21 33 23 35 25 13 39 43 47 37 51
REMARK Flexibility Score: inf
ROOT
ATOM      1  C   UNL     1      16.692  -6.278  27.484  1.00  0.00     0.180 C 
ATOM      2  C   UNL     1      15.340  -5.808  28.112  1.00  0.00     0.177 C 
ATOM      3  C   UNL     1      15.653  -4.686  29.026  1.00  0.00     0.180 C 
ATOM      4  C   UNL     1      16.670  -4.969  30.240  1.00  0.00     0.214 C 
ATOM      5  C   UNL     1      17.900  -5.354  29.373  1.00  0.00     0.339 C 
ATOM      6  O   UNL     1      17.570  -6.495  28.555  1.00  0.00    -0.332 OA
ENDROOT
BRANCH   1   7
ATOM      7  C   UNL     1      16.754  -7.421  26.415  1.00  0.00     0.198 C 
BRANCH   7   8
ATOM      8  O   UNL     1      17.030  -8.812  26.643  1.00  0.00    -0.347 OA
BRANCH   8   9
ATOM      9  C   UNL     1      16.001  -9.744  26.312  1.00  0.00     0.281 C 
ATOM     10  C   UNL     1      18.290 -11.975  24.389  1.00  0.00     0.041 C 
ATOM     11  C   UNL     1      17.433 -10.732  24.768  1.00  0.00     0.150 C 
ATOM     12  C   UNL     1      16.319 -10.545  23.611  1.00  0.00     0.174 C 
ATOM     13  O   UNL     1      16.642 -10.996  25.923  1.00  0.00    -0.344 OA
ATOM     14  C   UNL     1      14.903  -9.740  23.837  1.00  0.00     0.179 C 
ATOM     15  C   UNL     1      14.789  -9.356  25.341  1.00  0.00     0.202 C 
BRANCH  12  16
ATOM     16  O   UNL     1      16.041 -11.816  23.047  1.00  0.00    -0.388 OA
ATOM     17  H   UNL     1      16.932 -12.276  23.139  1.00  0.00     0.211 HD
ENDBRANCH  12  16
BRANCH  14  18
ATOM     18  O   UNL     1      14.939  -8.610  22.981  1.00  0.00    -0.387 OA
ATOM     19  H   UNL     1      14.114  -8.115  23.079  1.00  0.00     0.211 HD
ENDBRANCH  14  18
BRANCH  15  20
ATOM     20  O   UNL     1      13.503  -9.841  25.883  1.00  0.00    -0.385 OA
ATOM     21  H   UNL     1      13.036  -9.006  26.163  1.00  0.00     0.211 HD
ENDBRANCH  15  20
ENDBRANCH   8   9
ENDBRANCH   7   8
ENDBRANCH   1   7
BRANCH   2  22
ATOM     22  O   UNL     1      14.653  -6.820  28.951  1.00  0.00    -0.387 OA
ATOM     23  H   UNL     1      13.756  -6.560  29.237  1.00  0.00     0.211 HD
ENDBRANCH   2  22
BRANCH   3  24
ATOM     24  O   UNL     1      15.602  -3.404  28.421  1.00  0.00    -0.387 OA
ATOM     25  H   UNL     1      16.169  -3.397  27.549  1.00  0.00     0.211 HD
ENDBRANCH   3  24
BRANCH   5  26
ATOM     26  O   UNL     1      18.607  -4.371  28.666  1.00  0.00    -0.462 OA
BRANCH  26  27
ATOM     27  C   UNL     1      19.643  -3.648  29.341  1.00  0.00     0.130 A 
ATOM     28  C   UNL     1      20.108  -4.023  30.678  1.00  0.00     0.093 A 
ATOM     29  C   UNL     1      20.215  -2.476  28.813  1.00  0.00     0.094 A 
ATOM     30  C   UNL     1      20.997  -3.112  31.382  1.00  0.00     0.133 A 
ATOM     31  C   UNL     1      21.224  -1.751  29.462  1.00  0.00     0.138 A 
ATOM     32  C   UNL     1      21.689  -2.090  30.703  1.00  0.00     0.102 A 
ATOM     33  O   UNL     1      21.753  -0.645  28.717  1.00  0.00    -0.484 OA
ATOM     34  C   UNL     1      22.663  -1.173  31.397  1.00  0.00     0.174 C 
ATOM     35  C   UNL     1      23.044  -0.159  29.053  1.00  0.00     0.211 C 
ATOM     36  O   UNL     1      23.109  -1.388  32.539  1.00  0.00    -0.294 OA
ATOM     37  C   UNL     1      23.142   0.055  30.589  1.00  0.00     0.131 C 
BRANCH  30  38
ATOM     38  O   UNL     1      21.007  -3.160  32.796  1.00  0.00    -0.507 OA
ATOM     39  H   UNL     1      21.955  -3.307  33.213  1.00  0.00     0.293 HD
ENDBRANCH  30  38
BRANCH  35  40
ATOM     40  C   UNL     1      23.361   1.087  28.162  1.00  0.00    -0.003 A 
ATOM     41  C   UNL     1      24.702   1.407  27.906  1.00  0.00     0.057 A 
ATOM     42  C   UNL     1      22.414   1.971  27.714  1.00  0.00     0.011 A 
ATOM     43  C   UNL     1      25.045   2.512  27.045  1.00  0.00     0.158 A 
ATOM     44  C   UNL     1      22.724   3.040  26.814  1.00  0.00     0.051 A 
ATOM     45  C   UNL     1      24.059   3.303  26.506  1.00  0.00     0.160 A 
BRANCH  43  46
ATOM     46  O   UNL     1      26.395   2.754  26.809  1.00  0.00    -0.504 OA
ATOM     47  H   UNL     1      27.101   2.781  27.560  1.00  0.00     0.293 HD
ENDBRANCH  43  46
BRANCH  45  48
ATOM     48  O   UNL     1      24.464   4.381  25.629  1.00  0.00    -0.493 OA
ATOM     49  C   UNL     1      24.398   4.287  24.204  1.00  0.00     0.278 C 
ENDBRANCH  45  48
ENDBRANCH  35  40
ENDBRANCH  26  27
ENDBRANCH   5  26
BRANCH   4  50
ATOM     50  O   UNL     1      16.519  -3.677  30.964  1.00  0.00    -0.384 OA
ATOM     51  H   UNL     1      16.614  -2.903  30.272  1.00  0.00     0.211 HD
ENDBRANCH   4  50
TORSDOF 15
ENDMDL
MODEL 7
REMARK VINA RESULT:    -5.564      2.456     12.222
REMARK INTER + INTRA:         -10.473
REMARK INTER:                  -8.863
REMARK INTRA:                  -1.610
REMARK UNBOUND:                -1.331
REMARK SMILES COc1ccc([C@H]2CC(=O)c3c(O)cc(O[C@@H]4O[C@@H](CO[C@@H]5O[C@@H](C)[C@@H](O)[C@H](O)[C@H]5O)[C@@H](O)[C@H](O)[C@@H]4O)cc3O2)cc1O
REMARK SMILES IDX 19 1 32 2 34 3 36 4 17 5 18 6 20 7 21 8 22 9 25 10 24 11
REMARK SMILES IDX 26 12 23 13 28 14 30 15 27 16 29 18 31 20 33 22 35 24 16 26
REMARK SMILES IDX 15 27 14 28 38 29 12 30 39 31 11 32 40 33 9 34 7 35 10 36
REMARK SMILES IDX 8 37 13 38 6 40 41 41 5 42 42 43 4 44 3 45 43 46 2 48 1 49
REMARK SMILES IDX 37 50
REMARK H PARENT 27 17 29 19 31 21 33 23 35 25 13 39 43 47 37 51
REMARK Flexibility Score: inf
ROOT
ATOM      1  C   UNL     1      16.434  -5.618  28.845  1.00  0.00     0.180 C 
ATOM      2  C   UNL     1      17.318  -6.748  28.223  1.00  0.00     0.177 C 
ATOM      3  C   UNL     1      18.728  -6.321  28.364  1.00  0.00     0.180 C 
ATOM      4  C   UNL     1      19.166  -4.937  27.671  1.00  0.00     0.214 C 
ATOM      5  C   UNL     1      18.211  -4.012  28.474  1.00  0.00     0.339 C 
ATOM      6  O   UNL     1      16.846  -4.421  28.248  1.00  0.00    -0.332 OA
ENDROOT
BRANCH   1   7
ATOM      7  C   UNL     1      14.875  -5.742  28.930  1.00  0.00     0.198 C 
BRANCH   7   8
ATOM      8  O   UNL     1      14.117  -6.705  29.680  1.00  0.00    -0.347 OA
BRANCH   8   9
ATOM      9  C   UNL     1      13.175  -7.498  28.959  1.00  0.00     0.281 C 
ATOM     10  C   UNL     1      14.229 -10.684  30.588  1.00  0.00     0.041 C 
ATOM     11  C   UNL     1      14.274  -9.414  29.689  1.00  0.00     0.150 C 
ATOM     12  C   UNL     1      14.426  -9.912  28.159  1.00  0.00     0.174 C 
ATOM     13  O   UNL     1      13.010  -8.757  29.678  1.00  0.00    -0.344 OA
ATOM     14  C   UNL     1      13.984  -9.005  26.860  1.00  0.00     0.179 C 
ATOM     15  C   UNL     1      13.285  -7.714  27.377  1.00  0.00     0.202 C 
BRANCH  12  16
ATOM     16  O   UNL     1      13.836 -11.197  28.045  1.00  0.00    -0.388 OA
ATOM     17  H   UNL     1      13.198 -11.058  27.279  1.00  0.00     0.211 HD
ENDBRANCH  12  16
BRANCH  14  18
ATOM     18  O   UNL     1      15.171  -8.736  26.132  1.00  0.00    -0.387 OA
ATOM     19  H   UNL     1      15.784  -9.475  26.246  1.00  0.00     0.211 HD
ENDBRANCH  14  18
BRANCH  15  20
ATOM     20  O   UNL     1      11.965  -7.570  26.731  1.00  0.00    -0.385 OA
ATOM     21  H   UNL     1      12.171  -7.099  25.876  1.00  0.00     0.211 HD
ENDBRANCH  15  20
ENDBRANCH   8   9
ENDBRANCH   7   8
ENDBRANCH   1   7
BRANCH   2  22
ATOM     22  O   UNL     1      17.117  -6.973  26.771  1.00  0.00    -0.387 OA
ATOM     23  H   UNL     1      17.787  -7.553  26.360  1.00  0.00     0.211 HD
ENDBRANCH   2  22
BRANCH   3  24
ATOM     24  O   UNL     1      19.355  -6.749  29.562  1.00  0.00    -0.387 OA
ATOM     25  H   UNL     1      20.166  -6.136  29.781  1.00  0.00     0.211 HD
ENDBRANCH   3  24
BRANCH   5  26
ATOM     26  O   UNL     1      18.469  -3.721  29.821  1.00  0.00    -0.462 OA
BRANCH  26  27
ATOM     27  C   UNL     1      19.680  -3.033  30.158  1.00  0.00     0.130 A 
ATOM     28  C   UNL     1      20.509  -3.431  31.297  1.00  0.00     0.093 A 
ATOM     29  C   UNL     1      20.104  -1.874  29.482  1.00  0.00     0.094 A 
ATOM     30  C   UNL     1      21.594  -2.551  31.704  1.00  0.00     0.133 A 
ATOM     31  C   UNL     1      21.281  -1.183  29.801  1.00  0.00     0.138 A 
ATOM     32  C   UNL     1      22.083  -1.545  30.849  1.00  0.00     0.102 A 
ATOM     33  O   UNL     1      21.598  -0.088  28.931  1.00  0.00    -0.484 OA
ATOM     34  C   UNL     1      23.245  -0.660  31.222  1.00  0.00     0.174 C 
ATOM     35  C   UNL     1      22.944   0.359  28.869  1.00  0.00     0.211 C 
ATOM     36  O   UNL     1      24.004  -0.897  32.180  1.00  0.00    -0.294 OA
ATOM     37  C   UNL     1      23.499   0.559  30.306  1.00  0.00     0.131 C 
BRANCH  30  38
ATOM     38  O   UNL     1      22.021  -2.610  33.051  1.00  0.00    -0.507 OA
ATOM     39  H   UNL     1      21.397  -2.105  33.722  1.00  0.00     0.293 HD
ENDBRANCH  30  38
BRANCH  35  40
ATOM     40  C   UNL     1      23.019   1.602  27.922  1.00  0.00    -0.003 A 
ATOM     41  C   UNL     1      24.185   1.804  27.168  1.00  0.00     0.057 A 
ATOM     42  C   UNL     1      22.068   2.587  27.871  1.00  0.00     0.011 A 
ATOM     43  C   UNL     1      24.281   2.903  26.239  1.00  0.00     0.158 A 
ATOM     44  C   UNL     1      22.115   3.655  26.919  1.00  0.00     0.051 A 
ATOM     45  C   UNL     1      23.249   3.802  26.120  1.00  0.00     0.160 A 
BRANCH  43  46
ATOM     46  O   UNL     1      25.455   3.026  25.502  1.00  0.00    -0.504 OA
ATOM     47  H   UNL     1      25.986   3.907  25.433  1.00  0.00     0.293 HD
ENDBRANCH  43  46
BRANCH  45  48
ATOM     48  O   UNL     1      23.394   4.870  25.153  1.00  0.00    -0.493 OA
ATOM     49  C   UNL     1      22.277   5.501  24.523  1.00  0.00     0.278 C 
ENDBRANCH  45  48
ENDBRANCH  35  40
ENDBRANCH  26  27
ENDBRANCH   5  26
BRANCH   4  50
ATOM     50  O   UNL     1      20.635  -5.030  27.893  1.00  0.00    -0.384 OA
ATOM     51  H   UNL     1      20.991  -5.858  27.368  1.00  0.00     0.211 HD
ENDBRANCH   4  50
TORSDOF 15
ENDMDL
MODEL 8
REMARK VINA RESULT:    -5.550      1.860     11.837
REMARK INTER + INTRA:         -10.450
REMARK INTER:                  -9.099
REMARK INTRA:                  -1.350
REMARK UNBOUND:                -1.331
REMARK SMILES COc1ccc([C@H]2CC(=O)c3c(O)cc(O[C@@H]4O[C@@H](CO[C@@H]5O[C@@H](C)[C@@H](O)[C@H](O)[C@H]5O)[C@@H](O)[C@H](O)[C@@H]4O)cc3O2)cc1O
REMARK SMILES IDX 19 1 32 2 34 3 36 4 17 5 18 6 20 7 21 8 22 9 25 10 24 11
REMARK SMILES IDX 26 12 23 13 28 14 30 15 27 16 29 18 31 20 33 22 35 24 16 26
REMARK SMILES IDX 15 27 14 28 38 29 12 30 39 31 11 32 40 33 9 34 7 35 10 36
REMARK SMILES IDX 8 37 13 38 6 40 41 41 5 42 42 43 4 44 3 45 43 46 2 48 1 49
REMARK SMILES IDX 37 50
REMARK H PARENT 27 17 29 19 31 21 33 23 35 25 13 39 43 47 37 51
REMARK Flexibility Score: inf
ROOT
ATOM      1  C   UNL     1      18.028  -5.872  28.639  1.00  0.00     0.180 C 
ATOM      2  C   UNL     1      16.727  -5.031  28.849  1.00  0.00     0.177 C 
ATOM      3  C   UNL     1      17.143  -3.715  29.385  1.00  0.00     0.180 C 
ATOM      4  C   UNL     1      17.954  -3.693  30.773  1.00  0.00     0.214 C 
ATOM      5  C   UNL     1      19.177  -4.521  30.292  1.00  0.00     0.339 C 
ATOM      6  O   UNL     1      18.731  -5.820  29.849  1.00  0.00    -0.332 OA
ENDROOT
BRANCH   1   7
ATOM      7  C   UNL     1      17.991  -7.313  28.026  1.00  0.00     0.198 C 
BRANCH   7   8
ATOM      8  O   UNL     1      17.194  -8.425  28.465  1.00  0.00    -0.347 OA
BRANCH   8   9
ATOM      9  C   UNL     1      15.969  -8.663  27.772  1.00  0.00     0.281 C 
ATOM     10  C   UNL     1      17.059 -11.985  26.469  1.00  0.00     0.041 C 
ATOM     11  C   UNL     1      16.978 -10.442  26.663  1.00  0.00     0.150 C 
ATOM     12  C   UNL     1      16.551  -9.801  25.241  1.00  0.00     0.174 C 
ATOM     13  O   UNL     1      15.881 -10.095  27.503  1.00  0.00    -0.344 OA
ATOM     14  C   UNL     1      15.834  -8.328  25.088  1.00  0.00     0.179 C 
ATOM     15  C   UNL     1      15.524  -7.781  26.512  1.00  0.00     0.202 C 
BRANCH  12  16
ATOM     16  O   UNL     1      15.789 -10.761  24.527  1.00  0.00    -0.388 OA
ATOM     17  H   UNL     1      15.443 -10.211  23.758  1.00  0.00     0.211 HD
ENDBRANCH  12  16
BRANCH  14  18
ATOM     18  O   UNL     1      16.742  -7.510  24.368  1.00  0.00    -0.387 OA
ATOM     19  H   UNL     1      16.766  -6.634  24.777  1.00  0.00     0.211 HD
ENDBRANCH  14  18
BRANCH  15  20
ATOM     20  O   UNL     1      14.098  -7.412  26.604  1.00  0.00    -0.385 OA
ATOM     21  H   UNL     1      14.029  -6.958  27.489  1.00  0.00     0.211 HD
ENDBRANCH  15  20
ENDBRANCH   8   9
ENDBRANCH   7   8
ENDBRANCH   1   7
BRANCH   2  22
ATOM     22  O   UNL     1      15.779  -5.582  29.849  1.00  0.00    -0.387 OA
ATOM     23  H   UNL     1      14.839  -5.426  29.636  1.00  0.00     0.211 HD
ENDBRANCH   2  22
BRANCH   3  24
ATOM     24  O   UNL     1      17.394  -2.731  28.395  1.00  0.00    -0.387 OA
ATOM     25  H   UNL     1      18.147  -2.087  28.713  1.00  0.00     0.211 HD
ENDBRANCH   3  24
BRANCH   5  26
ATOM     26  O   UNL     1      20.125  -3.955  29.428  1.00  0.00    -0.462 OA
BRANCH  26  27
ATOM     27  C   UNL     1      20.914  -2.855  29.898  1.00  0.00     0.130 A 
ATOM     28  C   UNL     1      21.322  -2.734  31.299  1.00  0.00     0.093 A 
ATOM     29  C   UNL     1      21.268  -1.771  29.074  1.00  0.00     0.094 A 
ATOM     30  C   UNL     1      21.926  -1.485  31.738  1.00  0.00     0.133 A 
ATOM     31  C   UNL     1      22.033  -0.683  29.517  1.00  0.00     0.138 A 
ATOM     32  C   UNL     1      22.442  -0.555  30.816  1.00  0.00     0.102 A 
ATOM     33  O   UNL     1      22.379   0.269  28.502  1.00  0.00    -0.484 OA
ATOM     34  C   UNL     1      23.127   0.717  31.246  1.00  0.00     0.174 C 
ATOM     35  C   UNL     1      23.498   1.115  28.722  1.00  0.00     0.211 C 
ATOM     36  O   UNL     1      23.501   0.930  32.414  1.00  0.00    -0.294 OA
ATOM     37  C   UNL     1      23.404   1.755  30.135  1.00  0.00     0.131 C 
BRANCH  30  38
ATOM     38  O   UNL     1      21.814  -1.144  33.107  1.00  0.00    -0.507 OA
ATOM     39  H   UNL     1      21.174  -0.339  33.297  1.00  0.00     0.293 HD
ENDBRANCH  30  38
BRANCH  35  40
ATOM     40  C   UNL     1      23.622   2.109  27.521  1.00  0.00    -0.003 A 
ATOM     41  C   UNL     1      22.520   2.276  26.670  1.00  0.00     0.057 A 
ATOM     42  C   UNL     1      24.785   2.740  27.164  1.00  0.00     0.011 A 
ATOM     43  C   UNL     1      22.565   3.223  25.582  1.00  0.00     0.158 A 
ATOM     44  C   UNL     1      24.840   3.724  26.126  1.00  0.00     0.051 A 
ATOM     45  C   UNL     1      23.712   3.937  25.332  1.00  0.00     0.160 A 
BRANCH  43  46
ATOM     46  O   UNL     1      21.425   3.360  24.796  1.00  0.00    -0.504 OA
ATOM     47  H   UNL     1      20.805   2.570  24.563  1.00  0.00     0.293 HD
ENDBRANCH  43  46
BRANCH  45  48
ATOM     48  O   UNL     1      23.688   4.890  24.243  1.00  0.00    -0.493 OA
ATOM     49  C   UNL     1      23.477   6.289  24.443  1.00  0.00     0.278 C 
ENDBRANCH  45  48
ENDBRANCH  35  40
ENDBRANCH  26  27
ENDBRANCH   5  26
BRANCH   4  50
ATOM     50  O   UNL     1      17.969  -2.222  31.001  1.00  0.00    -0.384 OA
ATOM     51  H   UNL     1      18.963  -1.912  31.060  1.00  0.00     0.211 HD
ENDBRANCH   4  50
TORSDOF 15
ENDMDL
MODEL 9
REMARK VINA RESULT:    -5.523      2.713     11.432
REMARK INTER + INTRA:         -10.406
REMARK INTER:                  -8.429
REMARK INTRA:                  -1.977
REMARK UNBOUND:                -1.331
REMARK SMILES COc1ccc([C@H]2CC(=O)c3c(O)cc(O[C@@H]4O[C@@H](CO[C@@H]5O[C@@H](C)[C@@H](O)[C@H](O)[C@H]5O)[C@@H](O)[C@H](O)[C@@H]4O)cc3O2)cc1O
REMARK SMILES IDX 19 1 32 2 34 3 36 4 17 5 18 6 20 7 21 8 22 9 25 10 24 11
REMARK SMILES IDX 26 12 23 13 28 14 30 15 27 16 29 18 31 20 33 22 35 24 16 26
REMARK SMILES IDX 15 27 14 28 38 29 12 30 39 31 11 32 40 33 9 34 7 35 10 36
REMARK SMILES IDX 8 37 13 38 6 40 41 41 5 42 42 43 4 44 3 45 43 46 2 48 1 49
REMARK SMILES IDX 37 50
REMARK H PARENT 27 17 29 19 31 21 33 23 35 25 13 39 43 47 37 51
REMARK Flexibility Score: inf
ROOT
ATOM      1  C   UNL     1      20.055  -1.608  31.411  1.00  0.00     0.180 C 
ATOM      2  C   UNL     1      21.165  -2.708  31.387  1.00  0.00     0.177 C 
ATOM      3  C   UNL     1      22.395  -2.072  30.862  1.00  0.00     0.180 C 
ATOM      4  C   UNL     1      22.335  -1.423  29.392  1.00  0.00     0.214 C 
ATOM      5  C   UNL     1      21.236  -0.368  29.694  1.00  0.00     0.339 C 
ATOM      6  O   UNL     1      20.036  -1.039  30.131  1.00  0.00    -0.332 OA
ENDROOT
BRANCH   1   7
ATOM      7  C   UNL     1      18.618  -1.896  31.962  1.00  0.00     0.198 C 
BRANCH   7   8
ATOM      8  O   UNL     1      17.884  -3.128  31.878  1.00  0.00    -0.347 OA
BRANCH   8   9
ATOM      9  C   UNL     1      17.030  -3.302  30.747  1.00  0.00     0.281 C 
ATOM     10  C   UNL     1      17.688  -6.966  30.498  1.00  0.00     0.041 C 
ATOM     11  C   UNL     1      17.923  -5.428  30.439  1.00  0.00     0.150 C 
ATOM     12  C   UNL     1      18.287  -5.056  28.908  1.00  0.00     0.174 C 
ATOM     13  O   UNL     1      16.704  -4.722  30.650  1.00  0.00    -0.344 OA
ATOM     14  C   UNL     1      18.088  -3.554  28.267  1.00  0.00     0.179 C 
ATOM     15  C   UNL     1      17.373  -2.660  29.321  1.00  0.00     0.202 C 
BRANCH  12  16
ATOM     16  O   UNL     1      17.668  -6.006  28.056  1.00  0.00    -0.388 OA
ATOM     17  H   UNL     1      18.466  -6.424  27.607  1.00  0.00     0.211 HD
ENDBRANCH  12  16
BRANCH  14  18
ATOM     18  O   UNL     1      19.382  -3.083  27.931  1.00  0.00    -0.387 OA
ATOM     19  H   UNL     1      19.979  -3.839  27.846  1.00  0.00     0.211 HD
ENDBRANCH  14  18
BRANCH  15  20
ATOM     20  O   UNL     1      16.174  -2.042  28.720  1.00  0.00    -0.385 OA
ATOM     21  H   UNL     1      15.826  -1.449  29.443  1.00  0.00     0.211 HD
ENDBRANCH  15  20
ENDBRANCH   8   9
ENDBRANCH   7   8
ENDBRANCH   1   7
BRANCH   2  22
ATOM     22  O   UNL     1      20.895  -3.851  30.480  1.00  0.00    -0.387 OA
ATOM     23  H   UNL     1      20.180  -4.443  30.785  1.00  0.00     0.211 HD
ENDBRANCH   2  22
BRANCH   3  24
ATOM     24  O   UNL     1      23.236  -1.511  31.857  1.00  0.00    -0.387 OA
ATOM     25  H   UNL     1      23.483  -2.231  32.565  1.00  0.00     0.211 HD
ENDBRANCH   3  24
BRANCH   5  26
ATOM     26  O   UNL     1      21.530   0.765  30.467  1.00  0.00    -0.462 OA
BRANCH  26  27
ATOM     27  C   UNL     1      21.253   2.061  29.922  1.00  0.00     0.130 A 
ATOM     28  C   UNL     1      20.187   2.914  30.451  1.00  0.00     0.093 A 
ATOM     29  C   UNL     1      21.915   2.561  28.786  1.00  0.00     0.094 A 
ATOM     30  C   UNL     1      19.825   4.109  29.704  1.00  0.00     0.133 A 
ATOM     31  C   UNL     1      21.653   3.822  28.234  1.00  0.00     0.138 A 
ATOM     32  C   UNL     1      20.675   4.647  28.720  1.00  0.00     0.102 A 
ATOM     33  O   UNL     1      22.504   4.196  27.142  1.00  0.00    -0.484 OA
ATOM     34  C   UNL     1      20.352   5.918  27.976  1.00  0.00     0.174 C 
ATOM     35  C   UNL     1      22.643   5.576  26.834  1.00  0.00     0.211 C 
ATOM     36  O   UNL     1      19.457   6.706  28.330  1.00  0.00    -0.294 OA
ATOM     37  C   UNL     1      21.240   6.240  26.752  1.00  0.00     0.131 C 
BRANCH  30  38
ATOM     38  O   UNL     1      18.512   4.614  29.864  1.00  0.00    -0.507 OA
ATOM     39  H   UNL     1      18.467   5.553  30.322  1.00  0.00     0.293 HD
ENDBRANCH  30  38
BRANCH  35  40
ATOM     40  C   UNL     1      23.549   5.721  25.568  1.00  0.00    -0.003 A 
ATOM     41  C   UNL     1      24.185   4.578  25.061  1.00  0.00     0.057 A 
ATOM     42  C   UNL     1      23.870   6.920  24.987  1.00  0.00     0.011 A 
ATOM     43  C   UNL     1      24.986   4.650  23.864  1.00  0.00     0.158 A 
ATOM     44  C   UNL     1      24.614   7.011  23.768  1.00  0.00     0.051 A 
ATOM     45  C   UNL     1      25.181   5.854  23.231  1.00  0.00     0.160 A 
BRANCH  43  46
ATOM     46  O   UNL     1      25.563   3.472  23.400  1.00  0.00    -0.504 OA
ATOM     47  H   UNL     1      26.377   3.456  22.767  1.00  0.00     0.293 HD
ENDBRANCH  43  46
BRANCH  45  48
ATOM     48  O   UNL     1      25.973   5.858  22.019  1.00  0.00    -0.493 OA
ATOM     49  C   UNL     1      27.171   6.624  21.880  1.00  0.00     0.278 C 
ENDBRANCH  45  48
ENDBRANCH  35  40
ENDBRANCH  26  27
ENDBRANCH   5  26
BRANCH   4  50
ATOM     50  O   UNL     1      23.781  -1.111  29.226  1.00  0.00    -0.384 OA
ATOM     51  H   UNL     1      23.864  -0.259  28.629  1.00  0.00     0.211 HD
ENDBRANCH   4  50
TORSDOF 15
ENDMDL
