MODEL 1
REMARK VINA RESULT:     9.902      0.000      0.000
REMARK INTER + INTRA:          11.879
REMARK INTER:                  12.217
REMARK INTRA:                  -0.338
REMARK UNBOUND:                -0.338
REMARK SMILES Oc1cc(O)c2cc(O)c(-c3cc(O)c(O)c(O)c3)[o+]c2c1.[Cl-]
REMARK SMILES IDX 10 1 20 2 21 3 22 4 2 5 3 6 4 7 6 8 7 9 8 10 11 11 12 12
REMARK SMILES IDX 13 13 19 14 15 15 17 16 14 17 16 19 18 21 9 23 1 25 5 27
REMARK H PARENT 14 18 16 20 18 22 9 24 1 26 5 28
REMARK Flexibility Score: inf
ROOT
ATOM      1  C   UNL     1      11.973  21.696  -0.363  1.00  0.00     0.402 A 
ATOM      2  O   UNL     1      10.936  21.326  -1.110  1.00  0.00    -0.202 OA
ATOM      3  C   UNL     1      11.044  20.980  -2.389  1.00  0.00     0.368 A 
ATOM      4  C   UNL     1       9.895  20.609  -3.093  1.00  0.00     0.162 A 
ATOM      5  C   UNL     1       9.978  20.245  -4.436  1.00  0.00     0.128 A 
ATOM      6  C   UNL     1      11.218  20.251  -5.085  1.00  0.00     0.093 A 
ATOM      7  C   UNL     1      12.384  20.619  -4.403  1.00  0.00     0.136 A 
ATOM      8  C   UNL     1      12.304  20.988  -3.035  1.00  0.00     0.125 A 
ATOM      9  C   UNL     1      13.420  21.358  -2.268  1.00  0.00     0.078 A 
ATOM     10  C   UNL     1      13.264  21.705  -0.923  1.00  0.00     0.223 A 
ENDROOT
BRANCH   1  11
ATOM     11  C   UNL     1      11.723  22.068   1.048  1.00  0.00     0.091 A 
ATOM     12  C   UNL     1      12.006  21.182   2.100  1.00  0.00     0.068 A 
ATOM     13  C   UNL     1      11.788  21.552   3.432  1.00  0.00     0.162 A 
ATOM     14  C   UNL     1      11.248  23.352   1.348  1.00  0.00     0.068 A 
ATOM     15  C   UNL     1      11.282  22.842   3.726  1.00  0.00     0.200 A 
ATOM     16  C   UNL     1      11.020  23.737   2.672  1.00  0.00     0.162 A 
BRANCH  13  17
ATOM     17  O   UNL     1      12.093  20.617   4.422  1.00  0.00    -0.504 OA
ATOM     18  H   UNL     1      11.675  20.608   5.341  1.00  0.00     0.293 HD
ENDBRANCH  13  17
BRANCH  15  19
ATOM     19  O   UNL     1      11.032  23.264   5.034  1.00  0.00    -0.502 OA
ATOM     20  H   UNL     1      10.838  24.219   5.294  1.00  0.00     0.293 HD
ENDBRANCH  15  19
BRANCH  16  21
ATOM     21  O   UNL     1      10.531  25.019   2.921  1.00  0.00    -0.504 OA
ATOM     22  H   UNL     1      10.061  25.261   3.786  1.00  0.00     0.293 HD
ENDBRANCH  16  21
ENDBRANCH   1  11
BRANCH  10  23
ATOM     23  O   UNL     1      14.379  22.025  -0.148  1.00  0.00    -0.500 OA
ATOM     24  H   UNL     1      15.322  21.928  -0.507  1.00  0.00     0.294 HD
ENDBRANCH  10  23
BRANCH   5  25
ATOM     25  O   UNL     1       8.820  19.877  -5.121  1.00  0.00    -0.507 OA
ATOM     26  H   UNL     1       8.747  18.987  -5.597  1.00  0.00     0.293 HD
ENDBRANCH   5  25
BRANCH   7  27
ATOM     27  O   UNL     1      13.582  20.603  -5.122  1.00  0.00    -0.507 OA
ATOM     28  H   UNL     1      13.977  19.780  -5.553  1.00  0.00     0.293 HD
ENDBRANCH   7  27
TORSDOF 7
ENDMDL
MODEL 2
REMARK VINA RESULT:    10.932      1.660      7.072
REMARK INTER + INTRA:          13.150
REMARK INTER:                  13.065
REMARK INTRA:                   0.085
REMARK UNBOUND:                -0.338
REMARK SMILES Oc1cc(O)c2cc(O)c(-c3cc(O)c(O)c(O)c3)[o+]c2c1.[Cl-]
REMARK SMILES IDX 10 1 20 2 21 3 22 4 2 5 3 6 4 7 6 8 7 9 8 10 11 11 12 12
REMARK SMILES IDX 13 13 19 14 15 15 17 16 14 17 16 19 18 21 9 23 1 25 5 27
REMARK H PARENT 14 18 16 20 18 22 9 24 1 26 5 28
REMARK Flexibility Score: inf
ROOT
ATOM      1  C   UNL     1      11.785  22.051   0.166  1.00  0.00     0.402 A 
ATOM      2  O   UNL     1      11.421  21.240   1.156  1.00  0.00    -0.202 OA
ATOM      3  C   UNL     1      11.685  21.485   2.436  1.00  0.00     0.368 A 
ATOM      4  C   UNL     1      11.264  20.570   3.404  1.00  0.00     0.162 A 
ATOM      5  C   UNL     1      11.530  20.799   4.754  1.00  0.00     0.128 A 
ATOM      6  C   UNL     1      12.222  21.952   5.141  1.00  0.00     0.093 A 
ATOM      7  C   UNL     1      12.655  22.884   4.190  1.00  0.00     0.136 A 
ATOM      8  C   UNL     1      12.385  22.655   2.817  1.00  0.00     0.125 A 
ATOM      9  C   UNL     1      12.768  23.540   1.795  1.00  0.00     0.078 A 
ATOM     10  C   UNL     1      12.462  23.250   0.463  1.00  0.00     0.223 A 
ENDROOT
BRANCH   1  11
ATOM     11  C   UNL     1      11.442  21.663  -1.220  1.00  0.00     0.091 A 
ATOM     12  C   UNL     1      12.306  21.937  -2.293  1.00  0.00     0.068 A 
ATOM     13  C   UNL     1      11.983  21.544  -3.597  1.00  0.00     0.162 A 
ATOM     14  C   UNL     1      10.257  20.957  -1.465  1.00  0.00     0.068 A 
ATOM     15  C   UNL     1      10.771  20.855  -3.840  1.00  0.00     0.200 A 
ATOM     16  C   UNL     1       9.916  20.561  -2.761  1.00  0.00     0.162 A 
BRANCH  13  17
ATOM     17  O   UNL     1      12.893  21.852  -4.610  1.00  0.00    -0.504 OA
ATOM     18  H   UNL     1      12.690  22.464  -5.388  1.00  0.00     0.293 HD
ENDBRANCH  13  17
BRANCH  15  19
ATOM     19  O   UNL     1      10.388  20.450  -5.121  1.00  0.00    -0.502 OA
ATOM     20  H   UNL     1       9.600  20.830  -5.624  1.00  0.00     0.293 HD
ENDBRANCH  15  19
BRANCH  16  21
ATOM     21  O   UNL     1       8.717  19.875  -2.958  1.00  0.00    -0.504 OA
ATOM     22  H   UNL     1       8.350  19.221  -2.277  1.00  0.00     0.293 HD
ENDBRANCH  16  21
ENDBRANCH   1  11
BRANCH  10  23
ATOM     23  O   UNL     1      12.799  24.152  -0.546  1.00  0.00    -0.500 OA
ATOM     24  H   UNL     1      12.602  25.142  -0.461  1.00  0.00     0.294 HD
ENDBRANCH  10  23
BRANCH   5  25
ATOM     25  O   UNL     1      11.101  19.875   5.705  1.00  0.00    -0.507 OA
ATOM     26  H   UNL     1      10.534  20.154   6.496  1.00  0.00     0.293 HD
ENDBRANCH   5  25
BRANCH   7  27
ATOM     27  O   UNL     1      13.343  24.008   4.658  1.00  0.00    -0.507 OA
ATOM     28  H   UNL     1      13.854  24.042   5.528  1.00  0.00     0.293 HD
ENDBRANCH   7  27
TORSDOF 7
ENDMDL
MODEL 3
REMARK VINA RESULT:    11.071      1.715      7.034
REMARK INTER + INTRA:          13.322
REMARK INTER:                  13.094
REMARK INTRA:                   0.228
REMARK UNBOUND:                -0.338
REMARK SMILES Oc1cc(O)c2cc(O)c(-c3cc(O)c(O)c(O)c3)[o+]c2c1.[Cl-]
REMARK SMILES IDX 10 1 20 2 21 3 22 4 2 5 3 6 4 7 6 8 7 9 8 10 11 11 12 12
REMARK SMILES IDX 13 13 19 14 15 15 17 16 14 17 16 19 18 21 9 23 1 25 5 27
REMARK H PARENT 14 18 16 20 18 22 9 24 1 26 5 28
REMARK Flexibility Score: inf
ROOT
ATOM      1  C   UNL     1      11.789  22.056   0.256  1.00  0.00     0.402 A 
ATOM      2  O   UNL     1      11.431  21.244   1.247  1.00  0.00    -0.202 OA
ATOM      3  C   UNL     1      11.698  21.488   2.526  1.00  0.00     0.368 A 
ATOM      4  C   UNL     1      11.283  20.572   3.495  1.00  0.00     0.162 A 
ATOM      5  C   UNL     1      11.553  20.801   4.844  1.00  0.00     0.128 A 
ATOM      6  C   UNL     1      12.244  21.955   5.230  1.00  0.00     0.093 A 
ATOM      7  C   UNL     1      12.672  22.889   4.278  1.00  0.00     0.136 A 
ATOM      8  C   UNL     1      12.397  22.660   2.905  1.00  0.00     0.125 A 
ATOM      9  C   UNL     1      12.775  23.546   1.883  1.00  0.00     0.078 A 
ATOM     10  C   UNL     1      12.465  23.256   0.552  1.00  0.00     0.223 A 
ENDROOT
BRANCH   1  11
ATOM     11  C   UNL     1      11.442  21.668  -1.129  1.00  0.00     0.091 A 
ATOM     12  C   UNL     1      10.275  20.942  -1.415  1.00  0.00     0.068 A 
ATOM     13  C   UNL     1       9.943  20.600  -2.731  1.00  0.00     0.162 A 
ATOM     14  C   UNL     1      12.262  22.083  -2.187  1.00  0.00     0.068 A 
ATOM     15  C   UNL     1      10.791  20.999  -3.792  1.00  0.00     0.200 A 
ATOM     16  C   UNL     1      11.948  21.747  -3.507  1.00  0.00     0.162 A 
BRANCH  13  17
ATOM     17  O   UNL     1       8.767  19.877  -2.936  1.00  0.00    -0.504 OA
ATOM     18  H   UNL     1       7.929  20.261  -3.349  1.00  0.00     0.293 HD
ENDBRANCH  13  17
BRANCH  15  19
ATOM     19  O   UNL     1      10.519  20.677  -5.125  1.00  0.00    -0.502 OA
ATOM     20  H   UNL     1      10.264  19.755  -5.445  1.00  0.00     0.293 HD
ENDBRANCH  15  19
BRANCH  16  21
ATOM     21  O   UNL     1      12.804  22.168  -4.526  1.00  0.00    -0.504 OA
ATOM     22  H   UNL     1      12.554  22.099  -5.505  1.00  0.00     0.293 HD
ENDBRANCH  16  21
ENDBRANCH   1  11
BRANCH  10  23
ATOM     23  O   UNL     1      12.796  24.159  -0.458  1.00  0.00    -0.500 OA
ATOM     24  H   UNL     1      12.323  24.152  -1.354  1.00  0.00     0.294 HD
ENDBRANCH  10  23
BRANCH   5  25
ATOM     25  O   UNL     1      11.130  19.875   5.796  1.00  0.00    -0.507 OA
ATOM     26  H   UNL     1      11.779  19.450   6.446  1.00  0.00     0.293 HD
ENDBRANCH   5  25
BRANCH   7  27
ATOM     27  O   UNL     1      13.360  24.013   4.743  1.00  0.00    -0.507 OA
ATOM     28  H   UNL     1      14.209  23.977   5.287  1.00  0.00     0.293 HD
ENDBRANCH   7  27
TORSDOF 7
ENDMDL
MODEL 4
REMARK VINA RESULT:    11.592      2.088      3.376
REMARK INTER + INTRA:          13.964
REMARK INTER:                  14.251
REMARK INTRA:                  -0.287
REMARK UNBOUND:                -0.338
REMARK SMILES Oc1cc(O)c2cc(O)c(-c3cc(O)c(O)c(O)c3)[o+]c2c1.[Cl-]
REMARK SMILES IDX 10 1 20 2 21 3 22 4 2 5 3 6 4 7 6 8 7 9 8 10 11 11 12 12
REMARK SMILES IDX 13 13 19 14 15 15 17 16 14 17 16 19 18 21 9 23 1 25 5 27
REMARK H PARENT 14 18 16 20 18 22 9 24 1 26 5 28
REMARK Flexibility Score: inf
ROOT
ATOM      1  C   UNL     1      11.742  22.935   1.369  1.00  0.00     0.402 A 
ATOM      2  O   UNL     1      12.314  22.183   0.432  1.00  0.00    -0.202 OA
ATOM      3  C   UNL     1      12.236  22.450  -0.868  1.00  0.00     0.368 A 
ATOM      4  C   UNL     1      12.868  21.597  -1.776  1.00  0.00     0.162 A 
ATOM      5  C   UNL     1      12.801  21.851  -3.146  1.00  0.00     0.128 A 
ATOM      6  C   UNL     1      12.095  22.965  -3.614  1.00  0.00     0.093 A 
ATOM      7  C   UNL     1      11.452  23.834  -2.724  1.00  0.00     0.136 A 
ATOM      8  C   UNL     1      11.521  23.581  -1.330  1.00  0.00     0.125 A 
ATOM      9  C   UNL     1      10.919  24.404  -0.364  1.00  0.00     0.078 A 
ATOM     10  C   UNL     1      11.034  24.093   0.993  1.00  0.00     0.223 A 
ENDROOT
BRANCH   1  11
ATOM     11  C   UNL     1      11.892  22.528   2.784  1.00  0.00     0.091 A 
ATOM     12  C   UNL     1      11.232  21.399   3.295  1.00  0.00     0.068 A 
ATOM     13  C   UNL     1      11.399  21.008   4.628  1.00  0.00     0.162 A 
ATOM     14  C   UNL     1      12.756  23.247   3.620  1.00  0.00     0.068 A 
ATOM     15  C   UNL     1      12.253  21.756   5.474  1.00  0.00     0.200 A 
ATOM     16  C   UNL     1      12.932  22.874   4.955  1.00  0.00     0.162 A 
BRANCH  13  17
ATOM     17  O   UNL     1      10.709  19.875   5.063  1.00  0.00    -0.504 OA
ATOM     18  H   UNL     1      10.645  19.014   4.539  1.00  0.00     0.293 HD
ENDBRANCH  13  17
BRANCH  15  19
ATOM     19  O   UNL     1      12.450  21.423   6.817  1.00  0.00    -0.502 OA
ATOM     20  H   UNL     1      12.252  22.041   7.589  1.00  0.00     0.293 HD
ENDBRANCH  15  19
BRANCH  16  21
ATOM     21  O   UNL     1      13.790  23.631   5.754  1.00  0.00    -0.504 OA
ATOM     22  H   UNL     1      14.435  24.309   5.365  1.00  0.00     0.293 HD
ENDBRANCH  16  21
ENDBRANCH   1  11
BRANCH  10  23
ATOM     23  O   UNL     1      10.479  24.937   1.955  1.00  0.00    -0.500 OA
ATOM     24  H   UNL     1      10.812  24.943   2.913  1.00  0.00     0.294 HD
ENDBRANCH  10  23
BRANCH   5  25
ATOM     25  O   UNL     1      13.438  20.989  -4.037  1.00  0.00    -0.507 OA
ATOM     26  H   UNL     1      13.378  19.983  -3.935  1.00  0.00     0.293 HD
ENDBRANCH   5  25
BRANCH   7  27
ATOM     27  O   UNL     1      10.765  24.922  -3.271  1.00  0.00    -0.507 OA
ATOM     28  H   UNL     1      11.034  25.397  -4.121  1.00  0.00     0.293 HD
ENDBRANCH   7  27
TORSDOF 7
ENDMDL
MODEL 5
REMARK VINA RESULT:    12.454      2.161      7.160
REMARK INTER + INTRA:          15.027
REMARK INTER:                  14.653
REMARK INTRA:                   0.374
REMARK UNBOUND:                -0.338
REMARK SMILES Oc1cc(O)c2cc(O)c(-c3cc(O)c(O)c(O)c3)[o+]c2c1.[Cl-]
REMARK SMILES IDX 10 1 20 2 21 3 22 4 2 5 3 6 4 7 6 8 7 9 8 10 11 11 12 12
REMARK SMILES IDX 13 13 19 14 15 15 17 16 14 17 16 19 18 21 9 23 1 25 5 27
REMARK H PARENT 14 18 16 20 18 22 9 24 1 26 5 28
REMARK Flexibility Score: inf
ROOT
ATOM      1  C   UNL     1      11.849  22.103   0.255  1.00  0.00     0.402 A 
ATOM      2  O   UNL     1      12.223  22.950   1.211  1.00  0.00    -0.202 OA
ATOM      3  C   UNL     1      12.188  22.652   2.505  1.00  0.00     0.368 A 
ATOM      4  C   UNL     1      12.598  23.612   3.435  1.00  0.00     0.162 A 
ATOM      5  C   UNL     1      12.569  23.328   4.800  1.00  0.00     0.128 A 
ATOM      6  C   UNL     1      12.126  22.076   5.243  1.00  0.00     0.093 A 
ATOM      7  C   UNL     1      11.709  21.098   4.331  1.00  0.00     0.136 A 
ATOM      8  C   UNL     1      11.740  21.382   2.942  1.00  0.00     0.125 A 
ATOM      9  C   UNL     1      11.354  20.460   1.955  1.00  0.00     0.078 A 
ATOM     10  C   UNL     1      11.416  20.810   0.604  1.00  0.00     0.223 A 
ENDROOT
BRANCH   1  11
ATOM     11  C   UNL     1      11.925  22.556  -1.152  1.00  0.00     0.091 A 
ATOM     12  C   UNL     1      11.449  21.758  -2.205  1.00  0.00     0.068 A 
ATOM     13  C   UNL     1      11.504  22.205  -3.530  1.00  0.00     0.162 A 
ATOM     14  C   UNL     1      12.427  23.832  -1.439  1.00  0.00     0.068 A 
ATOM     15  C   UNL     1      12.038  23.484  -3.815  1.00  0.00     0.200 A 
ATOM     16  C   UNL     1      12.493  24.293  -2.757  1.00  0.00     0.162 A 
BRANCH  13  17
ATOM     17  O   UNL     1      11.012  21.354  -4.521  1.00  0.00    -0.504 OA
ATOM     18  H   UNL     1      10.059  21.023  -4.563  1.00  0.00     0.293 HD
ENDBRANCH  13  17
BRANCH  15  19
ATOM     19  O   UNL     1      12.131  23.980  -5.118  1.00  0.00    -0.502 OA
ATOM     20  H   UNL     1      11.554  23.668  -5.885  1.00  0.00     0.293 HD
ENDBRANCH  15  19
BRANCH  16  21
ATOM     21  O   UNL     1      13.018  25.564  -2.996  1.00  0.00    -0.504 OA
ATOM     22  H   UNL     1      12.962  26.011  -3.904  1.00  0.00     0.293 HD
ENDBRANCH  16  21
ENDBRANCH   1  11
BRANCH  10  23
ATOM     23  O   UNL     1      11.080  19.877  -0.378  1.00  0.00    -0.500 OA
ATOM     24  H   UNL     1      10.133  19.533  -0.482  1.00  0.00     0.294 HD
ENDBRANCH  10  23
BRANCH   5  25
ATOM     25  O   UNL     1      12.983  24.297   5.712  1.00  0.00    -0.507 OA
ATOM     26  H   UNL     1      12.881  24.163   6.711  1.00  0.00     0.293 HD
ENDBRANCH   5  25
BRANCH   7  27
ATOM     27  O   UNL     1      11.278  19.875   4.853  1.00  0.00    -0.507 OA
ATOM     28  H   UNL     1      11.304  19.000   4.350  1.00  0.00     0.293 HD
ENDBRANCH   7  27
TORSDOF 7
ENDMDL
