MODEL 1
REMARK VINA RESULT:    -7.169      0.000      0.000
REMARK INTER + INTRA:          -8.135
REMARK INTER:                  -8.007
REMARK INTRA:                  -0.127
REMARK UNBOUND:                -0.127
REMARK SMILES O=C([O-])C=Cc1ccccc1
REMARK SMILES IDX 4 1 5 2 2 3 1 4 3 5 6 6 7 7 11 8 8 9 10 10 9 11
REMARK H PARENT
REMARK Flexibility Score: inf
ROOT
ATOM      1  C   UNL     1     -18.985 -22.995 -46.160  1.00  0.00     0.025 C 
ATOM      2  C   UNL     1     -20.104 -22.379 -45.752  1.00  0.00     0.010 C 
ENDROOT
BRANCH   1   3
ATOM      3  C   UNL     1     -18.149 -22.464 -47.251  1.00  0.00     0.064 C 
ATOM      4  O   UNL     1     -18.569 -22.430 -48.438  1.00  0.00    -0.545 OA
ATOM      5  O   UNL     1     -16.875 -21.992 -46.966  1.00  0.00    -0.545 OA
ENDBRANCH   1   3
BRANCH   2   6
ATOM      6  C   UNL     1     -20.990 -22.862 -44.658  1.00  0.00    -0.026 A 
ATOM      7  C   UNL     1     -21.682 -24.092 -44.705  1.00  0.00     0.008 A 
ATOM      8  C   UNL     1     -21.144 -22.047 -43.521  1.00  0.00     0.008 A 
ATOM      9  C   UNL     1     -22.501 -24.485 -43.640  1.00  0.00     0.001 A 
ATOM     10  C   UNL     1     -21.963 -22.447 -42.461  1.00  0.00     0.001 A 
ATOM     11  C   UNL     1     -22.640 -23.664 -42.520  1.00  0.00     0.000 A 
ENDBRANCH   2   6
TORSDOF 2
ENDMDL
MODEL 2
REMARK VINA RESULT:    -6.021      4.824      6.174
REMARK INTER + INTRA:          -6.852
REMARK INTER:                  -6.718
REMARK INTRA:                  -0.134
REMARK UNBOUND:                -0.127
REMARK SMILES O=C([O-])C=Cc1ccccc1
REMARK SMILES IDX 4 1 5 2 2 3 1 4 3 5 6 6 7 7 11 8 8 9 10 10 9 11
REMARK H PARENT
REMARK Flexibility Score: inf
ROOT
ATOM      1  C   UNL     1     -23.329 -25.663 -42.095  1.00  0.00     0.025 C 
ATOM      2  C   UNL     1     -22.818 -24.425 -42.010  1.00  0.00     0.010 C 
ENDROOT
BRANCH   1   3
ATOM      3  C   UNL     1     -23.869 -26.371 -40.921  1.00  0.00     0.064 C 
ATOM      4  O   UNL     1     -24.125 -25.758 -39.850  1.00  0.00    -0.545 OA
ATOM      5  O   UNL     1     -24.101 -27.737 -40.996  1.00  0.00    -0.545 OA
ENDBRANCH   1   3
BRANCH   2   6
ATOM      6  C   UNL     1     -22.259 -23.657 -43.156  1.00  0.00    -0.026 A 
ATOM      7  C   UNL     1     -22.308 -24.109 -44.493  1.00  0.00     0.008 A 
ATOM      8  C   UNL     1     -21.649 -22.417 -42.887  1.00  0.00     0.008 A 
ATOM      9  C   UNL     1     -21.760 -23.336 -45.522  1.00  0.00     0.001 A 
ATOM     10  C   UNL     1     -21.105 -21.650 -43.922  1.00  0.00     0.001 A 
ATOM     11  C   UNL     1     -21.161 -22.109 -45.238  1.00  0.00     0.000 A 
ENDBRANCH   2   6
TORSDOF 2
ENDMDL
MODEL 3
REMARK VINA RESULT:    -6.018      4.791      6.309
REMARK INTER + INTRA:          -6.849
REMARK INTER:                  -6.703
REMARK INTRA:                  -0.146
REMARK UNBOUND:                -0.127
REMARK SMILES O=C([O-])C=Cc1ccccc1
REMARK SMILES IDX 4 1 5 2 2 3 1 4 3 5 6 6 7 7 11 8 8 9 10 10 9 11
REMARK H PARENT
REMARK Flexibility Score: inf
ROOT
ATOM      1  C   UNL     1     -23.203 -25.632 -42.099  1.00  0.00     0.025 C 
ATOM      2  C   UNL     1     -22.931 -24.319 -42.046  1.00  0.00     0.010 C 
ENDROOT
BRANCH   1   3
ATOM      3  C   UNL     1     -23.838 -26.348 -40.979  1.00  0.00     0.064 C 
ATOM      4  O   UNL     1     -24.125 -25.756 -39.905  1.00  0.00    -0.545 OA
ATOM      5  O   UNL     1     -24.125 -27.700 -41.109  1.00  0.00    -0.545 OA
ENDBRANCH   1   3
BRANCH   2   6
ATOM      6  C   UNL     1     -22.293 -23.538 -43.141  1.00  0.00    -0.026 A 
ATOM      7  C   UNL     1     -21.704 -22.269 -42.948  1.00  0.00     0.008 A 
ATOM      8  C   UNL     1     -22.281 -24.096 -44.432  1.00  0.00     0.008 A 
ATOM      9  C   UNL     1     -21.123 -21.588 -44.024  1.00  0.00     0.001 A 
ATOM     10  C   UNL     1     -21.697 -23.410 -45.502  1.00  0.00     0.001 A 
ATOM     11  C   UNL     1     -21.119 -22.158 -45.297  1.00  0.00     0.000 A 
ENDBRANCH   2   6
TORSDOF 2
ENDMDL
MODEL 4
REMARK VINA RESULT:    -5.189      2.017      3.236
REMARK INTER + INTRA:          -5.922
REMARK INTER:                  -5.791
REMARK INTRA:                  -0.131
REMARK UNBOUND:                -0.127
REMARK SMILES O=C([O-])C=Cc1ccccc1
REMARK SMILES IDX 4 1 5 2 2 3 1 4 3 5 6 6 7 7 11 8 8 9 10 10 9 11
REMARK H PARENT
REMARK Flexibility Score: inf
ROOT
ATOM      1  C   UNL     1     -21.170 -22.721 -44.491  1.00  0.00     0.025 C 
ATOM      2  C   UNL     1     -22.291 -23.457 -44.520  1.00  0.00     0.010 C 
ENDROOT
BRANCH   1   3
ATOM      3  C   UNL     1     -20.746 -21.891 -45.631  1.00  0.00     0.064 C 
ATOM      4  O   UNL     1     -21.393 -20.863 -45.966  1.00  0.00    -0.545 OA
ATOM      5  O   UNL     1     -19.615 -22.248 -46.352  1.00  0.00    -0.545 OA
ENDBRANCH   1   3
BRANCH   2   6
ATOM      6  C   UNL     1     -22.774 -24.314 -43.403  1.00  0.00    -0.026 A 
ATOM      7  C   UNL     1     -22.413 -24.108 -42.053  1.00  0.00     0.008 A 
ATOM      8  C   UNL     1     -23.633 -25.385 -43.713  1.00  0.00     0.008 A 
ATOM      9  C   UNL     1     -22.903 -24.953 -41.052  1.00  0.00     0.001 A 
ATOM     10  C   UNL     1     -24.120 -26.225 -42.707  1.00  0.00     0.001 A 
ATOM     11  C   UNL     1     -23.755 -26.009 -41.378  1.00  0.00     0.000 A 
ENDBRANCH   2   6
TORSDOF 2
ENDMDL
MODEL 5
REMARK VINA RESULT:    -5.122      3.802      4.875
REMARK INTER + INTRA:          -5.847
REMARK INTER:                  -5.716
REMARK INTRA:                  -0.132
REMARK UNBOUND:                -0.127
REMARK SMILES O=C([O-])C=Cc1ccccc1
REMARK SMILES IDX 4 1 5 2 2 3 1 4 3 5 6 6 7 7 11 8 8 9 10 10 9 11
REMARK H PARENT
REMARK Flexibility Score: inf
ROOT
ATOM      1  C   UNL     1     -23.233 -25.449 -45.688  1.00  0.00     0.025 C 
ATOM      2  C   UNL     1     -22.893 -25.334 -44.395  1.00  0.00     0.010 C 
ENDROOT
BRANCH   1   3
ATOM      3  C   UNL     1     -23.847 -26.673 -46.232  1.00  0.00     0.064 C 
ATOM      4  O   UNL     1     -24.124 -27.651 -45.487  1.00  0.00    -0.545 OA
ATOM      5  O   UNL     1     -24.125 -26.751 -47.589  1.00  0.00    -0.545 OA
ENDBRANCH   1   3
BRANCH   2   6
ATOM      6  C   UNL     1     -22.272 -24.127 -43.784  1.00  0.00    -0.026 A 
ATOM      7  C   UNL     1     -21.298 -23.340 -44.437  1.00  0.00     0.008 A 
ATOM      8  C   UNL     1     -22.677 -23.758 -42.488  1.00  0.00     0.008 A 
ATOM      9  C   UNL     1     -20.754 -22.218 -43.803  1.00  0.00     0.001 A 
ATOM     10  C   UNL     1     -22.129 -22.634 -41.861  1.00  0.00     0.001 A 
ATOM     11  C   UNL     1     -21.169 -21.865 -42.518  1.00  0.00     0.000 A 
ENDBRANCH   2   6
TORSDOF 2
ENDMDL
MODEL 6
REMARK VINA RESULT:    -4.876      4.611      6.134
REMARK INTER + INTRA:          -5.573
REMARK INTER:                  -5.447
REMARK INTRA:                  -0.127
REMARK UNBOUND:                -0.127
REMARK SMILES O=C([O-])C=Cc1ccccc1
REMARK SMILES IDX 4 1 5 2 2 3 1 4 3 5 6 6 7 7 11 8 8 9 10 10 9 11
REMARK H PARENT
REMARK Flexibility Score: inf
ROOT
ATOM      1  C   UNL     1     -22.694 -25.071 -41.688  1.00  0.00     0.025 C 
ATOM      2  C   UNL     1     -22.936 -24.691 -42.951  1.00  0.00     0.010 C 
ENDROOT
BRANCH   1   3
ATOM      3  C   UNL     1     -23.642 -25.897 -40.921  1.00  0.00     0.064 C 
ATOM      4  O   UNL     1     -24.027 -27.018 -41.350  1.00  0.00    -0.545 OA
ATOM      5  O   UNL     1     -24.123 -25.432 -39.705  1.00  0.00    -0.545 OA
ENDBRANCH   1   3
BRANCH   2   6
ATOM      6  C   UNL     1     -22.020 -23.859 -43.779  1.00  0.00    -0.026 A 
ATOM      7  C   UNL     1     -21.864 -22.466 -43.604  1.00  0.00     0.008 A 
ATOM      8  C   UNL     1     -21.275 -24.498 -44.788  1.00  0.00     0.008 A 
ATOM      9  C   UNL     1     -20.986 -21.744 -44.419  1.00  0.00     0.001 A 
ATOM     10  C   UNL     1     -20.398 -23.770 -45.598  1.00  0.00     0.001 A 
ATOM     11  C   UNL     1     -20.254 -22.394 -45.414  1.00  0.00     0.000 A 
ENDBRANCH   2   6
TORSDOF 2
ENDMDL
MODEL 7
REMARK VINA RESULT:    -4.276      1.288      2.147
REMARK INTER + INTRA:          -4.903
REMARK INTER:                  -4.771
REMARK INTRA:                  -0.132
REMARK UNBOUND:                -0.127
REMARK SMILES O=C([O-])C=Cc1ccccc1
REMARK SMILES IDX 4 1 5 2 2 3 1 4 3 5 6 6 7 7 11 8 8 9 10 10 9 11
REMARK H PARENT
REMARK Flexibility Score: inf
ROOT
ATOM      1  C   UNL     1     -19.896 -23.617 -45.882  1.00  0.00     0.025 C 
ATOM      2  C   UNL     1     -20.787 -23.152 -44.993  1.00  0.00     0.010 C 
ENDROOT
BRANCH   1   3
ATOM      3  C   UNL     1     -18.790 -22.789 -46.391  1.00  0.00     0.064 C 
ATOM      4  O   UNL     1     -18.988 -21.895 -47.257  1.00  0.00    -0.545 OA
ATOM      5  O   UNL     1     -17.504 -22.997 -45.909  1.00  0.00    -0.545 OA
ENDBRANCH   1   3
BRANCH   2   6
ATOM      6  C   UNL     1     -21.924 -23.936 -44.439  1.00  0.00    -0.026 A 
ATOM      7  C   UNL     1     -22.063 -24.240 -43.067  1.00  0.00     0.008 A 
ATOM      8  C   UNL     1     -22.907 -24.399 -45.333  1.00  0.00     0.008 A 
ATOM      9  C   UNL     1     -23.158 -24.984 -42.614  1.00  0.00     0.001 A 
ATOM     10  C   UNL     1     -23.999 -25.141 -44.873  1.00  0.00     0.001 A 
ATOM     11  C   UNL     1     -24.124 -25.433 -43.515  1.00  0.00     0.000 A 
ENDBRANCH   2   6
TORSDOF 2
ENDMDL
