MODEL 1
REMARK VINA RESULT:    -6.587      0.000      0.000
REMARK INTER + INTRA:         -10.936
REMARK INTER:                  -9.860
REMARK INTRA:                  -1.076
REMARK UNBOUND:                -1.076
REMARK SMILES COC(=O)C1=CO[C@@H](O[C@@H]2O[C@H](CO)[C@@H](O)[C@H](O)[C@H]2O)[C@@H]2C(CO)=CC[C@@H]12
REMARK SMILES IDX 9 1 8 2 5 3 6 4 27 5 7 6 21 7 26 8 22 9 25 10 3 11 4 12 2 13
REMARK SMILES IDX 1 14 23 15 24 16 10 18 19 19 11 20 17 21 12 22 15 23 20 24
REMARK SMILES IDX 18 26 13 28 14 29 16 31
REMARK H PARENT 24 17 20 25 18 27 14 30 16 32
REMARK Flexibility Score: inf
ROOT
ATOM      1  O   UNL     1       8.922  12.885 -15.683  1.00  0.00    -0.310 OA
ENDROOT
BRANCH   1   2
ATOM      2  C   UNL     1       8.264  11.660 -15.372  1.00  0.00     0.316 C 
ATOM      3  C   UNL     1       7.408   9.732 -13.341  1.00  0.00     0.076 C 
ATOM      4  C   UNL     1       6.856  10.965 -13.401  1.00  0.00     0.202 C 
ATOM      5  C   UNL     1       8.304   9.349 -14.499  1.00  0.00     0.047 C 
ATOM      6  O   UNL     1       7.212  11.886 -14.410  1.00  0.00    -0.471 OA
ATOM      7  C   UNL     1       9.190  10.529 -14.867  1.00  0.00     0.094 C 
ATOM      8  C   UNL     1       9.305   8.201 -14.401  1.00  0.00     0.037 C 
ATOM      9  C   UNL     1      10.178   9.879 -15.785  1.00  0.00    -0.039 C 
ATOM     10  C   UNL     1      10.291   8.587 -15.465  1.00  0.00    -0.024 C 
BRANCH   3  11
ATOM     11  C   UNL     1       6.966   8.754 -12.319  1.00  0.00     0.337 C 
ATOM     12  O   UNL     1       6.563   7.610 -12.666  1.00  0.00    -0.246 OA
BRANCH  11  13
ATOM     13  O   UNL     1       7.025   9.082 -10.961  1.00  0.00    -0.466 OA
ATOM     14  C   UNL     1       7.034   8.107  -9.929  1.00  0.00     0.282 C 
ENDBRANCH  11  13
ENDBRANCH   3  11
BRANCH   9  15
ATOM     15  C   UNL     1      11.100  10.585 -16.739  1.00  0.00     0.187 C 
BRANCH  15  16
ATOM     16  O   UNL     1      11.520  11.803 -16.187  1.00  0.00    -0.392 OA
ATOM     17  H   UNL     1      11.670  12.413 -16.957  1.00  0.00     0.211 HD
ENDBRANCH  15  16
ENDBRANCH   9  15
ENDBRANCH   1   2
BRANCH   1  18
ATOM     18  C   UNL     1       8.482  13.498 -16.893  1.00  0.00     0.286 C 
ATOM     19  C   UNL     1       8.716  15.034 -16.798  1.00  0.00     0.202 C 
ATOM     20  O   UNL     1       9.152  12.954 -18.024  1.00  0.00    -0.341 OA
ATOM     21  C   UNL     1       9.602  15.587 -17.955  1.00  0.00     0.179 C 
ATOM     22  C   UNL     1       8.656  13.548 -19.204  1.00  0.00     0.178 C 
ATOM     23  C   UNL     1       9.262  14.969 -19.348  1.00  0.00     0.177 C 
BRANCH  19  24
ATOM     24  O   UNL     1       7.495  15.726 -16.701  1.00  0.00    -0.385 OA
ATOM     25  H   UNL     1       7.686  16.644 -16.402  1.00  0.00     0.211 HD
ENDBRANCH  19  24
BRANCH  21  26
ATOM     26  O   UNL     1      10.944  15.287 -17.644  1.00  0.00    -0.387 OA
ATOM     27  H   UNL     1      11.038  15.291 -16.649  1.00  0.00     0.211 HD
ENDBRANCH  21  26
BRANCH  22  28
ATOM     28  C   UNL     1       8.949  12.601 -20.379  1.00  0.00     0.191 C 
BRANCH  28  29
ATOM     29  O   UNL     1       9.680  11.463 -19.992  1.00  0.00    -0.394 OA
ATOM     30  H   UNL     1      10.524  11.790 -19.582  1.00  0.00     0.210 HD
ENDBRANCH  28  29
ENDBRANCH  22  28
BRANCH  23  31
ATOM     31  O   UNL     1       8.425  15.817 -20.093  1.00  0.00    -0.387 OA
ATOM     32  H   UNL     1       7.832  16.297 -19.462  1.00  0.00     0.211 HD
ENDBRANCH  23  31
ENDBRANCH   1  18
TORSDOF 11
ENDMDL
MODEL 2
REMARK VINA RESULT:    -6.412      2.620      7.826
REMARK INTER + INTRA:         -10.673
REMARK INTER:                  -9.283
REMARK INTRA:                  -1.390
REMARK UNBOUND:                -1.076
REMARK SMILES COC(=O)C1=CO[C@@H](O[C@@H]2O[C@H](CO)[C@@H](O)[C@H](O)[C@H]2O)[C@@H]2C(CO)=CC[C@@H]12
REMARK SMILES IDX 9 1 8 2 5 3 6 4 27 5 7 6 21 7 26 8 22 9 25 10 3 11 4 12 2 13
REMARK SMILES IDX 1 14 23 15 24 16 10 18 19 19 11 20 17 21 12 22 15 23 20 24
REMARK SMILES IDX 18 26 13 28 14 29 16 31
REMARK H PARENT 24 17 20 25 18 27 14 30 16 32
REMARK Flexibility Score: inf
ROOT
ATOM      1  O   UNL     1       8.997  11.101 -18.473  1.00  0.00    -0.310 OA
ENDROOT
BRANCH   1   2
ATOM      2  C   UNL     1       8.595  12.454 -18.664  1.00  0.00     0.316 C 
ATOM      3  C   UNL     1       8.740  14.899 -20.270  1.00  0.00     0.076 C 
ATOM      4  C   UNL     1       8.134  13.789 -20.752  1.00  0.00     0.202 C 
ATOM      5  C   UNL     1       9.123  14.863 -18.806  1.00  0.00     0.047 C 
ATOM      6  O   UNL     1       8.001  12.622 -19.969  1.00  0.00    -0.471 OA
ATOM      7  C   UNL     1       9.713  13.504 -18.468  1.00  0.00     0.094 C 
ATOM      8  C   UNL     1      10.148  15.827 -18.215  1.00  0.00     0.037 C 
ATOM      9  C   UNL     1      10.293  13.764 -17.112  1.00  0.00    -0.039 C 
ATOM     10  C   UNL     1      10.603  15.059 -17.009  1.00  0.00    -0.024 C 
BRANCH   3  11
ATOM     11  C   UNL     1       8.803  16.138 -21.080  1.00  0.00     0.337 C 
ATOM     12  O   UNL     1       8.133  17.153 -20.742  1.00  0.00    -0.246 OA
BRANCH  11  13
ATOM     13  O   UNL     1       9.632  16.201 -22.204  1.00  0.00    -0.466 OA
ATOM     14  C   UNL     1       9.134  16.321 -23.527  1.00  0.00     0.282 C 
ENDBRANCH  11  13
ENDBRANCH   3  11
BRANCH   9  15
ATOM     15  C   UNL     1      10.713  12.723 -16.113  1.00  0.00     0.187 C 
BRANCH  15  16
ATOM     16  O   UNL     1      11.407  11.691 -16.758  1.00  0.00    -0.392 OA
ATOM     17  H   UNL     1      12.280  12.079 -17.032  1.00  0.00     0.211 HD
ENDBRANCH  15  16
ENDBRANCH   9  15
ENDBRANCH   1   2
BRANCH   1  18
ATOM     18  C   UNL     1       8.327  10.433 -17.407  1.00  0.00     0.286 C 
ATOM     19  C   UNL     1       7.034   9.765 -17.959  1.00  0.00     0.202 C 
ATOM     20  O   UNL     1       9.170   9.467 -16.789  1.00  0.00    -0.341 OA
ATOM     21  C   UNL     1       6.979   8.230 -17.690  1.00  0.00     0.179 C 
ATOM     22  C   UNL     1       8.491   8.864 -15.709  1.00  0.00     0.178 C 
ATOM     23  C   UNL     1       7.474   7.832 -16.264  1.00  0.00     0.177 C 
BRANCH  19  24
ATOM     24  O   UNL     1       5.884  10.419 -17.480  1.00  0.00    -0.385 OA
ATOM     25  H   UNL     1       6.069  10.729 -16.564  1.00  0.00     0.211 HD
ENDBRANCH  19  24
BRANCH  21  26
ATOM     26  O   UNL     1       7.802   7.601 -18.646  1.00  0.00    -0.387 OA
ATOM     27  H   UNL     1       8.096   8.293 -19.303  1.00  0.00     0.211 HD
ENDBRANCH  21  26
BRANCH  22  28
ATOM     28  C   UNL     1       9.540   8.281 -14.747  1.00  0.00     0.191 C 
BRANCH  28  29
ATOM     29  O   UNL     1       9.122   7.078 -14.150  1.00  0.00    -0.394 OA
ATOM     30  H   UNL     1       8.168   6.952 -14.396  1.00  0.00     0.210 HD
ENDBRANCH  28  29
ENDBRANCH  22  28
BRANCH  23  31
ATOM     31  O   UNL     1       6.396   7.640 -15.383  1.00  0.00    -0.387 OA
ATOM     32  H   UNL     1       6.581   8.150 -14.555  1.00  0.00     0.211 HD
ENDBRANCH  23  31
ENDBRANCH   1  18
TORSDOF 11
ENDMDL
MODEL 3
REMARK VINA RESULT:    -6.407      2.016      7.726
REMARK INTER + INTRA:         -10.666
REMARK INTER:                  -9.564
REMARK INTRA:                  -1.102
REMARK UNBOUND:                -1.076
REMARK SMILES COC(=O)C1=CO[C@@H](O[C@@H]2O[C@H](CO)[C@@H](O)[C@H](O)[C@H]2O)[C@@H]2C(CO)=CC[C@@H]12
REMARK SMILES IDX 9 1 8 2 5 3 6 4 27 5 7 6 21 7 26 8 22 9 25 10 3 11 4 12 2 13
REMARK SMILES IDX 1 14 23 15 24 16 10 18 19 19 11 20 17 21 12 22 15 23 20 24
REMARK SMILES IDX 18 26 13 28 14 29 16 31
REMARK H PARENT 24 17 20 25 18 27 14 30 16 32
REMARK Flexibility Score: inf
ROOT
ATOM      1  O   UNL     1       8.935  11.331 -17.554  1.00  0.00    -0.310 OA
ENDROOT
BRANCH   1   2
ATOM      2  C   UNL     1       8.569  12.635 -17.994  1.00  0.00     0.316 C 
ATOM      3  C   UNL     1       8.549  14.635 -20.133  1.00  0.00     0.076 C 
ATOM      4  C   UNL     1       7.820  13.501 -20.240  1.00  0.00     0.202 C 
ATOM      5  C   UNL     1       9.174  14.898 -18.780  1.00  0.00     0.047 C 
ATOM      6  O   UNL     1       7.769  12.554 -19.193  1.00  0.00    -0.471 OA
ATOM      7  C   UNL     1       9.751  13.605 -18.227  1.00  0.00     0.094 C 
ATOM      8  C   UNL     1      10.328  15.880 -18.600  1.00  0.00     0.037 C 
ATOM      9  C   UNL     1      10.565  14.113 -17.078  1.00  0.00    -0.039 C 
ATOM     10  C   UNL     1      10.947  15.367 -17.332  1.00  0.00    -0.024 C 
BRANCH   3  11
ATOM     11  C   UNL     1       8.530  15.650 -21.213  1.00  0.00     0.337 C 
ATOM     12  O   UNL     1       8.133  16.824 -20.973  1.00  0.00    -0.246 OA
BRANCH  11  13
ATOM     13  O   UNL     1       8.983  15.323 -22.494  1.00  0.00    -0.466 OA
ATOM     14  C   UNL     1       9.363  16.298 -23.453  1.00  0.00     0.282 C 
ENDBRANCH  11  13
ENDBRANCH   3  11
BRANCH   9  15
ATOM     15  C   UNL     1      11.101  13.293 -15.939  1.00  0.00     0.187 C 
BRANCH  15  16
ATOM     16  O   UNL     1      11.505  12.034 -16.403  1.00  0.00    -0.392 OA
ATOM     17  H   UNL     1      10.674  11.566 -16.681  1.00  0.00     0.211 HD
ENDBRANCH  15  16
ENDBRANCH   9  15
ENDBRANCH   1   2
BRANCH   1  18
ATOM     18  C   UNL     1       8.157  10.837 -16.466  1.00  0.00     0.286 C 
ATOM     19  C   UNL     1       8.179   9.280 -16.493  1.00  0.00     0.202 C 
ATOM     20  O   UNL     1       8.638  11.327 -15.220  1.00  0.00    -0.341 OA
ATOM     21  C   UNL     1       8.701   8.656 -15.163  1.00  0.00     0.179 C 
ATOM     22  C   UNL     1       7.815  10.858 -14.174  1.00  0.00     0.178 C 
ATOM     23  C   UNL     1       8.160   9.373 -13.886  1.00  0.00     0.177 C 
BRANCH  19  24
ATOM     24  O   UNL     1       6.920   8.764 -16.851  1.00  0.00    -0.385 OA
ATOM     25  H   UNL     1       7.029   7.808 -17.057  1.00  0.00     0.211 HD
ENDBRANCH  19  24
BRANCH  21  26
ATOM     26  O   UNL     1      10.107   8.750 -15.172  1.00  0.00    -0.387 OA
ATOM     27  H   UNL     1      10.361   9.515 -15.762  1.00  0.00     0.211 HD
ENDBRANCH  21  26
BRANCH  22  28
ATOM     28  C   UNL     1       7.981  11.803 -12.972  1.00  0.00     0.191 C 
BRANCH  28  29
ATOM     29  O   UNL     1       8.919  12.824 -13.207  1.00  0.00    -0.394 OA
ATOM     30  H   UNL     1       8.451  13.528 -13.730  1.00  0.00     0.210 HD
ENDBRANCH  28  29
ENDBRANCH  22  28
BRANCH  23  31
ATOM     31  O   UNL     1       7.066   8.683 -13.337  1.00  0.00    -0.387 OA
ATOM     32  H   UNL     1       7.391   8.158 -12.563  1.00  0.00     0.211 HD
ENDBRANCH  23  31
ENDBRANCH   1  18
TORSDOF 11
ENDMDL
MODEL 4
REMARK VINA RESULT:    -6.352      2.290      8.338
REMARK INTER + INTRA:         -10.584
REMARK INTER:                  -9.367
REMARK INTRA:                  -1.217
REMARK UNBOUND:                -1.076
REMARK SMILES COC(=O)C1=CO[C@@H](O[C@@H]2O[C@H](CO)[C@@H](O)[C@H](O)[C@H]2O)[C@@H]2C(CO)=CC[C@@H]12
REMARK SMILES IDX 9 1 8 2 5 3 6 4 27 5 7 6 21 7 26 8 22 9 25 10 3 11 4 12 2 13
REMARK SMILES IDX 1 14 23 15 24 16 10 18 19 19 11 20 17 21 12 22 15 23 20 24
REMARK SMILES IDX 18 26 13 28 14 29 16 31
REMARK H PARENT 24 17 20 25 18 27 14 30 16 32
REMARK Flexibility Score: inf
ROOT
ATOM      1  O   UNL     1       9.602  12.781 -18.308  1.00  0.00    -0.310 OA
ENDROOT
BRANCH   1   2
ATOM      2  C   UNL     1       8.856  13.617 -19.187  1.00  0.00     0.316 C 
ATOM      3  C   UNL     1       8.840  15.474 -21.452  1.00  0.00     0.076 C 
ATOM      4  C   UNL     1       9.148  14.169 -21.629  1.00  0.00     0.202 C 
ATOM      5  C   UNL     1       8.299  15.849 -20.089  1.00  0.00     0.047 C 
ATOM      6  O   UNL     1       9.102  13.247 -20.561  1.00  0.00    -0.471 OA
ATOM      7  C   UNL     1       9.097  15.134 -19.011  1.00  0.00     0.094 C 
ATOM      8  C   UNL     1       8.287  17.292 -19.593  1.00  0.00     0.037 C 
ATOM      9  C   UNL     1       8.633  15.848 -17.779  1.00  0.00    -0.039 C 
ATOM     10  C   UNL     1       8.251  17.085 -18.107  1.00  0.00    -0.024 C 
BRANCH   3  11
ATOM     11  C   UNL     1       8.822  16.410 -22.601  1.00  0.00     0.337 C 
ATOM     12  O   UNL     1       7.931  17.300 -22.682  1.00  0.00    -0.246 OA
BRANCH  11  13
ATOM     13  O   UNL     1       9.813  16.333 -23.584  1.00  0.00    -0.466 OA
ATOM     14  C   UNL     1       9.523  16.156 -24.962  1.00  0.00     0.282 C 
ENDBRANCH  11  13
ENDBRANCH   3  11
BRANCH   9  15
ATOM     15  C   UNL     1       8.803  15.375 -16.363  1.00  0.00     0.187 C 
BRANCH  15  16
ATOM     16  O   UNL     1      10.102  14.884 -16.174  1.00  0.00    -0.392 OA
ATOM     17  H   UNL     1      10.704  15.519 -16.644  1.00  0.00     0.211 HD
ENDBRANCH  15  16
ENDBRANCH   9  15
ENDBRANCH   1   2
BRANCH   1  18
ATOM     18  C   UNL     1       8.803  11.964 -17.454  1.00  0.00     0.286 C 
ATOM     19  C   UNL     1       8.904  10.485 -17.928  1.00  0.00     0.202 C 
ATOM     20  O   UNL     1       9.205  12.088 -16.094  1.00  0.00    -0.341 OA
ATOM     21  C   UNL     1       9.398   9.519 -16.808  1.00  0.00     0.179 C 
ATOM     22  C   UNL     1       8.362  11.306 -15.276  1.00  0.00     0.178 C 
ATOM     23  C   UNL     1       8.767   9.815 -15.410  1.00  0.00     0.177 C 
BRANCH  19  24
ATOM     24  O   UNL     1       7.688  10.051 -18.489  1.00  0.00    -0.385 OA
ATOM     25  H   UNL     1       7.185  10.846 -18.780  1.00  0.00     0.211 HD
ENDBRANCH  19  24
BRANCH  21  26
ATOM     26  O   UNL     1      10.797   9.662 -16.711  1.00  0.00    -0.387 OA
ATOM     27  H   UNL     1      10.995  10.615 -16.487  1.00  0.00     0.211 HD
ENDBRANCH  21  26
BRANCH  22  28
ATOM     28  C   UNL     1       8.429  11.865 -13.845  1.00  0.00     0.191 C 
BRANCH  28  29
ATOM     29  O   UNL     1       9.175  13.054 -13.760  1.00  0.00    -0.394 OA
ATOM     30  H   UNL     1       9.216  13.434 -14.677  1.00  0.00     0.210 HD
ENDBRANCH  28  29
ENDBRANCH  22  28
BRANCH  23  31
ATOM     31  O   UNL     1       7.687   8.957 -15.146  1.00  0.00    -0.387 OA
ATOM     32  H   UNL     1       6.854   9.416 -15.422  1.00  0.00     0.211 HD
ENDBRANCH  23  31
ENDBRANCH   1  18
TORSDOF 11
ENDMDL
MODEL 5
REMARK VINA RESULT:    -6.262      2.103      3.791
REMARK INTER + INTRA:         -10.449
REMARK INTER:                  -9.037
REMARK INTRA:                  -1.412
REMARK UNBOUND:                -1.076
REMARK SMILES COC(=O)C1=CO[C@@H](O[C@@H]2O[C@H](CO)[C@@H](O)[C@H](O)[C@H]2O)[C@@H]2C(CO)=CC[C@@H]12
REMARK SMILES IDX 9 1 8 2 5 3 6 4 27 5 7 6 21 7 26 8 22 9 25 10 3 11 4 12 2 13
REMARK SMILES IDX 1 14 23 15 24 16 10 18 19 19 11 20 17 21 12 22 15 23 20 24
REMARK SMILES IDX 18 26 13 28 14 29 16 31
REMARK H PARENT 24 17 20 25 18 27 14 30 16 32
REMARK Flexibility Score: inf
ROOT
ATOM      1  O   UNL     1       7.298  12.210 -16.013  1.00  0.00    -0.310 OA
ENDROOT
BRANCH   1   2
ATOM      2  C   UNL     1       7.817  10.944 -15.617  1.00  0.00     0.316 C 
ATOM      3  C   UNL     1       7.484   8.038 -15.492  1.00  0.00     0.076 C 
ATOM      4  C   UNL     1       7.667   8.663 -16.677  1.00  0.00     0.202 C 
ATOM      5  C   UNL     1       7.686   8.887 -14.255  1.00  0.00     0.047 C 
ATOM      6  O   UNL     1       7.890  10.055 -16.752  1.00  0.00    -0.471 OA
ATOM      7  C   UNL     1       7.050  10.251 -14.467  1.00  0.00     0.094 C 
ATOM      8  C   UNL     1       7.139   8.473 -12.892  1.00  0.00     0.037 C 
ATOM      9  C   UNL     1       7.081  10.809 -13.078  1.00  0.00    -0.039 C 
ATOM     10  C   UNL     1       7.055   9.803 -12.200  1.00  0.00    -0.024 C 
BRANCH   3  11
ATOM     11  C   UNL     1       7.326   6.565 -15.430  1.00  0.00     0.337 C 
ATOM     12  O   UNL     1       8.155   5.864 -14.787  1.00  0.00    -0.246 OA
BRANCH  11  13
ATOM     13  O   UNL     1       6.237   5.949 -16.054  1.00  0.00    -0.466 OA
ATOM     14  C   UNL     1       6.007   4.549 -16.003  1.00  0.00     0.282 C 
ENDBRANCH  11  13
ENDBRANCH   3  11
BRANCH   9  15
ATOM     15  C   UNL     1       6.904  12.252 -12.697  1.00  0.00     0.187 C 
BRANCH  15  16
ATOM     16  O   UNL     1       8.075  12.737 -12.097  1.00  0.00    -0.392 OA
ATOM     17  H   UNL     1       8.819  12.200 -12.479  1.00  0.00     0.211 HD
ENDBRANCH  15  16
ENDBRANCH   9  15
ENDBRANCH   1   2
BRANCH   1  18
ATOM     18  C   UNL     1       8.276  13.243 -16.112  1.00  0.00     0.286 C 
ATOM     19  C   UNL     1       9.552  12.809 -15.333  1.00  0.00     0.202 C 
ATOM     20  O   UNL     1       8.588  13.533 -17.470  1.00  0.00    -0.341 OA
ATOM     21  C   UNL     1      10.837  12.814 -16.217  1.00  0.00     0.179 C 
ATOM     22  C   UNL     1       9.519  14.591 -17.530  1.00  0.00     0.178 C 
ATOM     23  C   UNL     1      10.927  14.045 -17.173  1.00  0.00     0.177 C 
BRANCH  19  24
ATOM     24  O   UNL     1       9.719  13.582 -14.169  1.00  0.00    -0.385 OA
ATOM     25  H   UNL     1       8.834  13.714 -13.760  1.00  0.00     0.211 HD
ENDBRANCH  19  24
BRANCH  21  26
ATOM     26  O   UNL     1      10.821  11.638 -16.995  1.00  0.00    -0.387 OA
ATOM     27  H   UNL     1      11.441  10.980 -16.571  1.00  0.00     0.211 HD
ENDBRANCH  21  26
BRANCH  22  28
ATOM     28  C   UNL     1       9.415  15.245 -18.917  1.00  0.00     0.191 C 
BRANCH  28  29
ATOM     29  O   UNL     1      10.525  16.054 -19.223  1.00  0.00    -0.394 OA
ATOM     30  H   UNL     1      11.299  15.677 -18.726  1.00  0.00     0.210 HD
ENDBRANCH  28  29
ENDBRANCH  22  28
BRANCH  23  31
ATOM     31  O   UNL     1      11.753  15.048 -16.637  1.00  0.00    -0.387 OA
ATOM     32  H   UNL     1      12.486  14.609 -16.138  1.00  0.00     0.211 HD
ENDBRANCH  23  31
ENDBRANCH   1  18
TORSDOF 11
ENDMDL
MODEL 6
REMARK VINA RESULT:    -6.217      1.998      3.059
REMARK INTER + INTRA:         -10.381
REMARK INTER:                  -9.483
REMARK INTRA:                  -0.898
REMARK UNBOUND:                -1.076
REMARK SMILES COC(=O)C1=CO[C@@H](O[C@@H]2O[C@H](CO)[C@@H](O)[C@H](O)[C@H]2O)[C@@H]2C(CO)=CC[C@@H]12
REMARK SMILES IDX 9 1 8 2 5 3 6 4 27 5 7 6 21 7 26 8 22 9 25 10 3 11 4 12 2 13
REMARK SMILES IDX 1 14 23 15 24 16 10 18 19 19 11 20 17 21 12 22 15 23 20 24
REMARK SMILES IDX 18 26 13 28 14 29 16 31
REMARK H PARENT 24 17 20 25 18 27 14 30 16 32
REMARK Flexibility Score: inf
ROOT
ATOM      1  O   UNL     1      10.078  11.470 -17.349  1.00  0.00    -0.310 OA
ENDROOT
BRANCH   1   2
ATOM      2  C   UNL     1       9.854  10.696 -16.174  1.00  0.00     0.316 C 
ATOM      3  C   UNL     1       8.104   8.895 -14.667  1.00  0.00     0.076 C 
ATOM      4  C   UNL     1       8.693   8.488 -15.815  1.00  0.00     0.202 C 
ATOM      5  C   UNL     1       8.577  10.222 -14.113  1.00  0.00     0.047 C 
ATOM      6  O   UNL     1       9.587   9.321 -16.522  1.00  0.00    -0.471 OA
ATOM      7  C   UNL     1       8.732  11.221 -15.248  1.00  0.00     0.094 C 
ATOM      8  C   UNL     1       7.763  11.007 -13.089  1.00  0.00     0.037 C 
ATOM      9  C   UNL     1       8.897  12.502 -14.492  1.00  0.00    -0.039 C 
ATOM     10  C   UNL     1       8.284  12.396 -13.310  1.00  0.00    -0.024 C 
BRANCH   3  11
ATOM     11  C   UNL     1       7.228   7.978 -13.900  1.00  0.00     0.337 C 
ATOM     12  O   UNL     1       6.209   7.471 -14.445  1.00  0.00    -0.246 OA
BRANCH  11  13
ATOM     13  O   UNL     1       7.544   7.644 -12.580  1.00  0.00    -0.466 OA
ATOM     14  C   UNL     1       6.663   7.874 -11.492  1.00  0.00     0.282 C 
ENDBRANCH  11  13
ENDBRANCH   3  11
BRANCH   9  15
ATOM     15  C   UNL     1       9.426  13.796 -15.044  1.00  0.00     0.187 C 
BRANCH  15  16
ATOM     16  O   UNL     1      10.806  13.694 -15.266  1.00  0.00    -0.392 OA
ATOM     17  H   UNL     1      10.934  12.872 -15.810  1.00  0.00     0.211 HD
ENDBRANCH  15  16
ENDBRANCH   9  15
ENDBRANCH   1   2
BRANCH   1  18
ATOM     18  C   UNL     1       8.892  11.985 -17.949  1.00  0.00     0.286 C 
ATOM     19  C   UNL     1       9.279  13.107 -18.957  1.00  0.00     0.202 C 
ATOM     20  O   UNL     1       8.150  10.958 -18.597  1.00  0.00    -0.341 OA
ATOM     21  C   UNL     1       8.753  12.836 -20.400  1.00  0.00     0.179 C 
ATOM     22  C   UNL     1       6.961  11.495 -19.134  1.00  0.00     0.178 C 
ATOM     23  C   UNL     1       7.299  12.270 -20.435  1.00  0.00     0.177 C 
BRANCH  19  24
ATOM     24  O   UNL     1       8.876  14.370 -18.485  1.00  0.00    -0.385 OA
ATOM     25  H   UNL     1       8.300  14.782 -19.169  1.00  0.00     0.211 HD
ENDBRANCH  19  24
BRANCH  21  26
ATOM     26  O   UNL     1       9.618  11.897 -20.998  1.00  0.00    -0.387 OA
ATOM     27  H   UNL     1       9.066  11.286 -21.563  1.00  0.00     0.211 HD
ENDBRANCH  21  26
BRANCH  22  28
ATOM     28  C   UNL     1       5.953  10.348 -19.312  1.00  0.00     0.191 C 
BRANCH  28  29
ATOM     29  O   UNL     1       6.525   9.082 -19.094  1.00  0.00    -0.394 OA
ATOM     30  H   UNL     1       7.505   9.221 -19.006  1.00  0.00     0.210 HD
ENDBRANCH  28  29
ENDBRANCH  22  28
BRANCH  23  31
ATOM     31  O   UNL     1       6.362  13.285 -20.694  1.00  0.00    -0.387 OA
ATOM     32  H   UNL     1       6.509  14.014 -20.040  1.00  0.00     0.211 HD
ENDBRANCH  23  31
ENDBRANCH   1  18
TORSDOF 11
ENDMDL
MODEL 7
REMARK VINA RESULT:    -6.200      1.197      2.036
REMARK INTER + INTRA:         -10.356
REMARK INTER:                  -9.428
REMARK INTRA:                  -0.929
REMARK UNBOUND:                -1.076
REMARK SMILES COC(=O)C1=CO[C@@H](O[C@@H]2O[C@H](CO)[C@@H](O)[C@H](O)[C@H]2O)[C@@H]2C(CO)=CC[C@@H]12
REMARK SMILES IDX 9 1 8 2 5 3 6 4 27 5 7 6 21 7 26 8 22 9 25 10 3 11 4 12 2 13
REMARK SMILES IDX 1 14 23 15 24 16 10 18 19 19 11 20 17 21 12 22 15 23 20 24
REMARK SMILES IDX 18 26 13 28 14 29 16 31
REMARK H PARENT 24 17 20 25 18 27 14 30 16 32
REMARK Flexibility Score: inf
ROOT
ATOM      1  O   UNL     1       8.338  12.897 -15.795  1.00  0.00    -0.310 OA
ENDROOT
BRANCH   1   2
ATOM      2  C   UNL     1       7.832  11.610 -15.452  1.00  0.00     0.316 C 
ATOM      3  C   UNL     1       7.166   9.663 -13.369  1.00  0.00     0.076 C 
ATOM      4  C   UNL     1       6.463  10.812 -13.493  1.00  0.00     0.202 C 
ATOM      5  C   UNL     1       8.140   9.357 -14.486  1.00  0.00     0.047 C 
ATOM      6  O   UNL     1       6.730  11.734 -14.528  1.00  0.00    -0.471 OA
ATOM      7  C   UNL     1       8.879  10.627 -14.878  1.00  0.00     0.094 C 
ATOM      8  C   UNL     1       9.275   8.351 -14.317  1.00  0.00     0.037 C 
ATOM      9  C   UNL     1       9.970  10.077 -15.743  1.00  0.00    -0.039 C 
ATOM     10  C   UNL     1      10.237   8.823 -15.369  1.00  0.00    -0.024 C 
BRANCH   3  11
ATOM     11  C   UNL     1       6.821   8.674 -12.320  1.00  0.00     0.337 C 
ATOM     12  O   UNL     1       6.479   7.502 -12.641  1.00  0.00    -0.246 OA
BRANCH  11  13
ATOM     13  O   UNL     1       6.904   9.025 -10.969  1.00  0.00    -0.466 OA
ATOM     14  C   UNL     1       7.248   8.099  -9.950  1.00  0.00     0.282 C 
ENDBRANCH  11  13
ENDBRANCH   3  11
BRANCH   9  15
ATOM     15  C   UNL     1      10.824  10.861 -16.699  1.00  0.00     0.187 C 
BRANCH  15  16
ATOM     16  O   UNL     1      11.374  11.974 -16.050  1.00  0.00    -0.392 OA
ATOM     17  H   UNL     1      12.176  11.640 -15.568  1.00  0.00     0.211 HD
ENDBRANCH  15  16
ENDBRANCH   9  15
ENDBRANCH   1   2
BRANCH   1  18
ATOM     18  C   UNL     1       8.378  13.160 -17.196  1.00  0.00     0.286 C 
ATOM     19  C   UNL     1       6.939  13.033 -17.777  1.00  0.00     0.202 C 
ATOM     20  O   UNL     1       8.921  14.447 -17.467  1.00  0.00    -0.341 OA
ATOM     21  C   UNL     1       6.464  14.324 -18.513  1.00  0.00     0.179 C 
ATOM     22  C   UNL     1       8.992  14.651 -18.861  1.00  0.00     0.178 C 
ATOM     23  C   UNL     1       7.573  14.978 -19.397  1.00  0.00     0.177 C 
BRANCH  19  24
ATOM     24  O   UNL     1       6.825  11.895 -18.597  1.00  0.00    -0.385 OA
ATOM     25  H   UNL     1       6.503  12.187 -19.481  1.00  0.00     0.211 HD
ENDBRANCH  19  24
BRANCH  21  26
ATOM     26  O   UNL     1       6.066  15.251 -17.529  1.00  0.00    -0.387 OA
ATOM     27  H   UNL     1       6.460  16.139 -17.763  1.00  0.00     0.211 HD
ENDBRANCH  21  26
BRANCH  22  28
ATOM     28  C   UNL     1      10.049  15.732 -19.136  1.00  0.00     0.191 C 
BRANCH  28  29
ATOM     29  O   UNL     1       9.775  16.479 -20.297  1.00  0.00    -0.394 OA
ATOM     30  H   UNL     1      10.559  17.070 -20.449  1.00  0.00     0.210 HD
ENDBRANCH  28  29
ENDBRANCH  22  28
BRANCH  23  31
ATOM     31  O   UNL     1       7.430  14.614 -20.747  1.00  0.00    -0.387 OA
ATOM     32  H   UNL     1       7.091  15.401 -21.243  1.00  0.00     0.211 HD
ENDBRANCH  23  31
ENDBRANCH   1  18
TORSDOF 11
ENDMDL
MODEL 8
REMARK VINA RESULT:    -6.124      2.104      7.480
REMARK INTER + INTRA:         -10.242
REMARK INTER:                  -8.835
REMARK INTRA:                  -1.407
REMARK UNBOUND:                -1.076
REMARK SMILES COC(=O)C1=CO[C@@H](O[C@@H]2O[C@H](CO)[C@@H](O)[C@H](O)[C@H]2O)[C@@H]2C(CO)=CC[C@@H]12
REMARK SMILES IDX 9 1 8 2 5 3 6 4 27 5 7 6 21 7 26 8 22 9 25 10 3 11 4 12 2 13
REMARK SMILES IDX 1 14 23 15 24 16 10 18 19 19 11 20 17 21 12 22 15 23 20 24
REMARK SMILES IDX 18 26 13 28 14 29 16 31
REMARK H PARENT 24 17 20 25 18 27 14 30 16 32
REMARK Flexibility Score: inf
ROOT
ATOM      1  O   UNL     1       7.426  12.582 -17.855  1.00  0.00    -0.310 OA
ENDROOT
BRANCH   1   2
ATOM      2  C   UNL     1       8.224  13.740 -18.082  1.00  0.00     0.316 C 
ATOM      3  C   UNL     1       8.372  16.647 -18.405  1.00  0.00     0.076 C 
ATOM      4  C   UNL     1       8.047  16.099 -17.211  1.00  0.00     0.202 C 
ATOM      5  C   UNL     1       8.860  15.685 -19.466  1.00  0.00     0.047 C 
ATOM      6  O   UNL     1       8.030  14.700 -17.021  1.00  0.00    -0.471 OA
ATOM      7  C   UNL     1       8.003  14.430 -19.448  1.00  0.00     0.094 C 
ATOM      8  C   UNL     1       8.877  16.056 -20.946  1.00  0.00     0.037 C 
ATOM      9  C   UNL     1       8.427  13.766 -20.721  1.00  0.00    -0.039 C 
ATOM     10  C   UNL     1       8.846  14.697 -21.583  1.00  0.00    -0.024 C 
BRANCH   3  11
ATOM     11  C   UNL     1       8.456  18.118 -18.562  1.00  0.00     0.337 C 
ATOM     12  O   UNL     1       9.581  18.688 -18.610  1.00  0.00    -0.246 OA
BRANCH  11  13
ATOM     13  O   UNL     1       7.290  18.879 -18.694  1.00  0.00    -0.466 OA
ATOM     14  C   UNL     1       6.979  19.971 -17.843  1.00  0.00     0.282 C 
ENDBRANCH  11  13
ENDBRANCH   3  11
BRANCH   9  15
ATOM     15  C   UNL     1       8.187  12.331 -21.096  1.00  0.00     0.187 C 
BRANCH  15  16
ATOM     16  O   UNL     1       9.410  11.671 -21.277  1.00  0.00    -0.392 OA
ATOM     17  H   UNL     1      10.109  12.303 -20.961  1.00  0.00     0.211 HD
ENDBRANCH  15  16
ENDBRANCH   9  15
ENDBRANCH   1   2
BRANCH   1  18
ATOM     18  C   UNL     1       8.164  11.424 -17.472  1.00  0.00     0.286 C 
ATOM     19  C   UNL     1       9.679  11.686 -17.715  1.00  0.00     0.202 C 
ATOM     20  O   UNL     1       7.923  11.081 -16.112  1.00  0.00    -0.341 OA
ATOM     21  C   UNL     1      10.544  11.495 -16.432  1.00  0.00     0.179 C 
ATOM     22  C   UNL     1       8.630   9.904 -15.785  1.00  0.00     0.178 C 
ATOM     23  C   UNL     1      10.127  10.254 -15.581  1.00  0.00     0.177 C 
BRANCH  19  24
ATOM     24  O   UNL     1      10.160  10.909 -18.786  1.00  0.00    -0.385 OA
ATOM     25  H   UNL     1      10.905  10.358 -18.453  1.00  0.00     0.211 HD
ENDBRANCH  19  24
BRANCH  21  26
ATOM     26  O   UNL     1      10.394  12.654 -15.643  1.00  0.00    -0.387 OA
ATOM     27  H   UNL     1      10.586  12.408 -14.694  1.00  0.00     0.211 HD
ENDBRANCH  21  26
BRANCH  22  28
ATOM     28  C   UNL     1       7.948   9.257 -14.569  1.00  0.00     0.191 C 
BRANCH  28  29
ATOM     29  O   UNL     1       8.802   8.389 -13.864  1.00  0.00    -0.394 OA
ATOM     30  H   UNL     1       8.220   7.762 -13.359  1.00  0.00     0.210 HD
ENDBRANCH  28  29
ENDBRANCH  22  28
BRANCH  23  31
ATOM     31  O   UNL     1      10.959   9.152 -15.844  1.00  0.00    -0.387 OA
ATOM     32  H   UNL     1      10.933   8.553 -15.057  1.00  0.00     0.211 HD
ENDBRANCH  23  31
ENDBRANCH   1  18
TORSDOF 11
ENDMDL
MODEL 9
REMARK VINA RESULT:    -6.071      1.689      3.471
REMARK INTER + INTRA:         -10.164
REMARK INTER:                  -8.504
REMARK INTRA:                  -1.659
REMARK UNBOUND:                -1.076
REMARK SMILES COC(=O)C1=CO[C@@H](O[C@@H]2O[C@H](CO)[C@@H](O)[C@H](O)[C@H]2O)[C@@H]2C(CO)=CC[C@@H]12
REMARK SMILES IDX 9 1 8 2 5 3 6 4 27 5 7 6 21 7 26 8 22 9 25 10 3 11 4 12 2 13
REMARK SMILES IDX 1 14 23 15 24 16 10 18 19 19 11 20 17 21 12 22 15 23 20 24
REMARK SMILES IDX 18 26 13 28 14 29 16 31
REMARK H PARENT 24 17 20 25 18 27 14 30 16 32
REMARK Flexibility Score: inf
ROOT
ATOM      1  O   UNL     1       7.978  11.870 -17.353  1.00  0.00    -0.310 OA
ENDROOT
BRANCH   1   2
ATOM      2  C   UNL     1       8.143  11.218 -16.097  1.00  0.00     0.316 C 
ATOM      3  C   UNL     1       7.486   8.960 -14.352  1.00  0.00     0.076 C 
ATOM      4  C   UNL     1       8.223   8.777 -15.471  1.00  0.00     0.202 C 
ATOM      5  C   UNL     1       7.226  10.397 -13.955  1.00  0.00     0.047 C 
ATOM      6  O   UNL     1       8.601   9.862 -16.292  1.00  0.00    -0.471 OA
ATOM      7  C   UNL     1       6.889  11.213 -15.192  1.00  0.00     0.094 C 
ATOM      8  C   UNL     1       6.108  10.779 -12.989  1.00  0.00     0.037 C 
ATOM      9  C   UNL     1       6.380  12.481 -14.579  1.00  0.00    -0.039 C 
ATOM     10  C   UNL     1       5.875  12.212 -13.372  1.00  0.00    -0.024 C 
BRANCH   3  11
ATOM     11  C   UNL     1       7.163   7.817 -13.464  1.00  0.00     0.337 C 
ATOM     12  O   UNL     1       6.577   6.800 -13.927  1.00  0.00    -0.246 OA
BRANCH  11  13
ATOM     13  O   UNL     1       7.538   7.846 -12.117  1.00  0.00    -0.466 OA
ATOM     14  C   UNL     1       6.608   7.714 -11.053  1.00  0.00     0.282 C 
ENDBRANCH  11  13
ENDBRANCH   3  11
BRANCH   9  15
ATOM     15  C   UNL     1       6.209  13.799 -15.280  1.00  0.00     0.187 C 
BRANCH  15  16
ATOM     16  O   UNL     1       7.351  14.591 -15.097  1.00  0.00    -0.392 OA
ATOM     17  H   UNL     1       7.301  14.930 -14.165  1.00  0.00     0.211 HD
ENDBRANCH  15  16
ENDBRANCH   9  15
ENDBRANCH   1   2
BRANCH   1  18
ATOM     18  C   UNL     1       9.042  12.753 -17.701  1.00  0.00     0.286 C 
ATOM     19  C   UNL     1       8.599  13.628 -18.910  1.00  0.00     0.202 C 
ATOM     20  O   UNL     1       9.420  13.569 -16.598  1.00  0.00    -0.341 OA
ATOM     21  C   UNL     1       8.693  15.158 -18.621  1.00  0.00     0.179 C 
ATOM     22  C   UNL     1      10.506  14.392 -16.965  1.00  0.00     0.178 C 
ATOM     23  C   UNL     1       9.981  15.563 -17.836  1.00  0.00     0.177 C 
BRANCH  19  24
ATOM     24  O   UNL     1       9.307  13.275 -20.074  1.00  0.00    -0.385 OA
ATOM     25  H   UNL     1       8.652  13.118 -20.793  1.00  0.00     0.211 HD
ENDBRANCH  19  24
BRANCH  21  26
ATOM     26  O   UNL     1       7.566  15.515 -17.853  1.00  0.00    -0.387 OA
ATOM     27  H   UNL     1       7.468  16.508 -17.892  1.00  0.00     0.211 HD
ENDBRANCH  21  26
BRANCH  22  28
ATOM     28  C   UNL     1      11.238  14.821 -15.683  1.00  0.00     0.191 C 
BRANCH  28  29
ATOM     29  O   UNL     1      10.385  14.895 -14.567  1.00  0.00    -0.394 OA
ATOM     30  H   UNL     1       9.630  14.273 -14.742  1.00  0.00     0.210 HD
ENDBRANCH  28  29
ENDBRANCH  22  28
BRANCH  23  31
ATOM     31  O   UNL     1      10.974  16.053 -18.702  1.00  0.00    -0.387 OA
ATOM     32  H   UNL     1      11.188  16.981 -18.431  1.00  0.00     0.211 HD
ENDBRANCH  23  31
ENDBRANCH   1  18
TORSDOF 11
ENDMDL
