MODEL 1
REMARK VINA RESULT:    -3.971      0.000      0.000
REMARK INTER + INTRA:          -5.209
REMARK INTER:                  -5.597
REMARK INTRA:                   0.387
REMARK UNBOUND:                 0.387
REMARK SMILES CC1=CCC(=C(C)C)C(=O)CC(C)=CCC1
REMARK SMILES IDX 12 1 14 2 13 3 15 4 16 5 2 6 1 7 3 8 11 10 9 11 10 12 5 13
REMARK SMILES IDX 6 14 7 15 8 16 4 17
REMARK H PARENT
REMARK Flexibility Score: 60.00
ROOT
ATOM      1  C   UNL     1      13.167 -34.227 -27.502  1.00  0.00    -0.070 C 
ATOM      2  C   UNL     1      13.677 -35.457 -27.746  1.00  0.00    -0.027 C 
ATOM      3  C   UNL     1      13.795 -33.402 -26.408  1.00  0.00     0.039 C 
ENDROOT
BRANCH   2   4
ATOM      4  C   UNL     1      13.137 -36.438 -28.762  1.00  0.00     0.032 C 
BRANCH   4   5
ATOM      5  C   UNL     1      13.927 -36.383 -30.078  1.00  0.00     0.034 C 
BRANCH   5   6
ATOM      6  C   UNL     1      13.044 -36.387 -31.320  1.00  0.00    -0.077 C 
ATOM      7  C   UNL     1      12.468 -37.696 -31.798  1.00  0.00     0.039 C 
ATOM      8  C   UNL     1      12.764 -35.275 -32.037  1.00  0.00    -0.023 CG0
ATOM      9  G   UNL     1      13.184 -33.869 -31.674  1.00  0.00     0.000 G0
ENDBRANCH   5   6
ENDBRANCH   4   5
ENDBRANCH   2   4
BRANCH   1  10
ATOM     10  C   UNL     1      12.000 -33.648 -28.279  1.00  0.00     0.111 C 
BRANCH  10  11
ATOM     11  C   UNL     1      12.481 -32.793 -29.418  1.00  0.00     0.163 C 
ATOM     12  O   UNL     1      13.157 -31.759 -29.171  1.00  0.00    -0.294 OA
BRANCH  11  13
ATOM     13  C   UNL     1      12.145 -33.122 -30.827  1.00  0.00    -0.002 C 
ATOM     14  C   UNL     1      10.939 -32.764 -31.346  1.00  0.00    -0.069 C 
ATOM     15  C   UNL     1       9.883 -32.102 -30.490  1.00  0.00     0.039 C 
ATOM     16  C   UNL     1      10.595 -33.051 -32.791  1.00  0.00     0.039 C 
BRANCH  13  17
ATOM     17  C   UNL     1      13.171 -33.860 -31.681  1.00  0.00     0.066 CG0
ATOM     18  G   UNL     1      12.761 -35.271 -32.036  1.00  0.00     0.000 G0
ENDBRANCH  13  17
ENDBRANCH  11  13
ENDBRANCH  10  11
ENDBRANCH   1  10
TORSDOF 0
ENDMDL
MODEL 2
REMARK VINA RESULT:    -3.592      1.346      1.835
REMARK INTER + INTRA:          -4.674
REMARK INTER:                  -6.206
REMARK INTRA:                   1.531
REMARK UNBOUND:                 0.387
REMARK SMILES CC1=CCC(=C(C)C)C(=O)CC(C)=CCC1
REMARK SMILES IDX 12 1 14 2 13 3 15 4 16 5 2 6 1 7 3 8 11 10 9 11 10 12 5 13
REMARK SMILES IDX 6 14 7 15 8 16 4 17
REMARK H PARENT
REMARK Flexibility Score: 60.00
ROOT
ATOM      1  C   UNL     1      12.403 -34.570 -27.871  1.00  0.00    -0.070 C 
ATOM      2  C   UNL     1      13.527 -35.294 -28.080  1.00  0.00    -0.027 C 
ATOM      3  C   UNL     1      12.354 -33.666 -26.666  1.00  0.00     0.039 C 
ENDROOT
BRANCH   2   4
ATOM      4  C   UNL     1      13.727 -36.289 -29.201  1.00  0.00     0.032 C 
BRANCH   4   5
ATOM      5  C   UNL     1      13.630 -35.618 -30.578  1.00  0.00     0.034 C 
BRANCH   5   6
ATOM      6  C   UNL     1      12.473 -36.129 -31.426  1.00  0.00    -0.077 C 
ATOM      7  C   UNL     1      12.219 -37.615 -31.489  1.00  0.00     0.039 C 
ATOM      8  C   UNL     1      11.667 -35.321 -32.150  1.00  0.00    -0.023 CG0
ATOM      9  G   UNL     1      11.716 -33.810 -32.154  1.00  0.00     0.000 G0
ENDBRANCH   5   6
ENDBRANCH   4   5
ENDBRANCH   2   4
BRANCH   1  10
ATOM     10  C   UNL     1      11.200 -34.627 -28.793  1.00  0.00     0.111 C 
BRANCH  10  11
ATOM     11  C   UNL     1      11.122 -33.399 -29.657  1.00  0.00     0.163 C 
ATOM     12  O   UNL     1      10.232 -32.538 -29.427  1.00  0.00    -0.294 OA
BRANCH  11  13
ATOM     13  C   UNL     1      12.051 -33.196 -30.797  1.00  0.00    -0.002 C 
ATOM     14  C   UNL     1      13.198 -32.483 -30.629  1.00  0.00    -0.069 C 
ATOM     15  C   UNL     1      13.517 -31.811 -29.312  1.00  0.00     0.039 C 
ATOM     16  C   UNL     1      14.179 -32.302 -31.766  1.00  0.00     0.039 C 
BRANCH  13  17
ATOM     17  C   UNL     1      11.705 -33.802 -32.153  1.00  0.00     0.066 CG0
ATOM     18  G   UNL     1      11.690 -35.314 -32.156  1.00  0.00     0.000 G0
ENDBRANCH  13  17
ENDBRANCH  11  13
ENDBRANCH  10  11
ENDBRANCH   1  10
TORSDOF 0
ENDMDL
MODEL 3
REMARK VINA RESULT:    -3.379      1.962      4.884
REMARK INTER + INTRA:          -4.374
REMARK INTER:                  -6.375
REMARK INTRA:                   2.001
REMARK UNBOUND:                 0.387
REMARK SMILES CC1=CCC(=C(C)C)C(=O)CC(C)=CCC1
REMARK SMILES IDX 12 1 14 2 13 3 15 4 16 5 2 6 1 7 3 8 11 10 9 11 10 12 5 13
REMARK SMILES IDX 6 14 7 15 8 16 4 17
REMARK H PARENT
REMARK Flexibility Score: 60.00
ROOT
ATOM      1  C   UNL     1      10.792 -32.917 -31.982  1.00  0.00    -0.070 C 
ATOM      2  C   UNL     1       9.875 -33.053 -30.996  1.00  0.00    -0.027 C 
ATOM      3  C   UNL     1      10.362 -32.248 -33.263  1.00  0.00     0.039 C 
ENDROOT
BRANCH   2   4
ATOM      4  C   UNL     1      10.115 -33.746 -29.673  1.00  0.00     0.032 C 
BRANCH   4   5
ATOM      5  C   UNL     1      11.024 -32.916 -28.756  1.00  0.00     0.034 C 
BRANCH   5   6
ATOM      6  C   UNL     1      11.803 -33.753 -27.749  1.00  0.00    -0.077 C 
ATOM      7  C   UNL     1      11.268 -33.883 -26.344  1.00  0.00     0.039 C 
ATOM      8  C   UNL     1      12.968 -34.373 -28.040  1.00  0.00    -0.023 CG0
ATOM      9  G   UNL     1      13.618 -34.421 -29.404  1.00  0.00     0.000 G0
ENDBRANCH   5   6
ENDBRANCH   4   5
ENDBRANCH   2   4
BRANCH   1  10
ATOM     10  C   UNL     1      12.222 -33.404 -31.854  1.00  0.00     0.111 C 
BRANCH  10  11
ATOM     11  C   UNL     1      12.266 -34.875 -31.543  1.00  0.00     0.163 C 
ATOM     12  O   UNL     1      11.624 -35.679 -32.270  1.00  0.00    -0.294 OA
BRANCH  11  13
ATOM     13  C   UNL     1      13.023 -35.395 -30.376  1.00  0.00    -0.002 C 
ATOM     14  C   UNL     1      13.170 -36.737 -30.197  1.00  0.00    -0.069 C 
ATOM     15  C   UNL     1      12.504 -37.729 -31.124  1.00  0.00     0.039 C 
ATOM     16  C   UNL     1      13.974 -37.286 -29.040  1.00  0.00     0.039 C 
BRANCH  13  17
ATOM     17  C   UNL     1      13.634 -34.408 -29.388  1.00  0.00     0.066 CG0
ATOM     18  G   UNL     1      12.941 -34.387 -28.044  1.00  0.00     0.000 G0
ENDBRANCH  13  17
ENDBRANCH  11  13
ENDBRANCH  10  11
ENDBRANCH   1  10
TORSDOF 0
ENDMDL
MODEL 4
REMARK VINA RESULT:    -3.344      1.645      2.562
REMARK INTER + INTRA:          -4.326
REMARK INTER:                  -6.195
REMARK INTRA:                   1.869
REMARK UNBOUND:                 0.387
REMARK SMILES CC1=CCC(=C(C)C)C(=O)CC(C)=CCC1
REMARK SMILES IDX 12 1 14 2 13 3 15 4 16 5 2 6 1 7 3 8 11 10 9 11 10 12 5 13
REMARK SMILES IDX 6 14 7 15 8 16 4 17
REMARK H PARENT
REMARK Flexibility Score: 60.00
ROOT
ATOM      1  C   UNL     1      11.485 -33.947 -28.090  1.00  0.00    -0.070 C 
ATOM      2  C   UNL     1      10.385 -34.144 -28.853  1.00  0.00    -0.027 C 
ATOM      3  C   UNL     1      11.306 -33.864 -26.595  1.00  0.00     0.039 C 
ENDROOT
BRANCH   2   4
ATOM      4  C   UNL     1      10.370 -34.196 -30.364  1.00  0.00     0.032 C 
BRANCH   4   5
ATOM      5  C   UNL     1      10.574 -35.626 -30.884  1.00  0.00     0.034 C 
BRANCH   5   6
ATOM      6  C   UNL     1      11.990 -35.902 -31.372  1.00  0.00    -0.077 C 
ATOM      7  C   UNL     1      12.476 -37.330 -31.421  1.00  0.00     0.039 C 
ATOM      8  C   UNL     1      12.852 -34.929 -31.745  1.00  0.00    -0.023 CG0
ATOM      9  G   UNL     1      12.524 -33.456 -31.836  1.00  0.00     0.000 G0
ENDBRANCH   5   6
ENDBRANCH   4   5
ENDBRANCH   2   4
BRANCH   1  10
ATOM     10  C   UNL     1      12.879 -33.808 -28.670  1.00  0.00     0.111 C 
BRANCH  10  11
ATOM     11  C   UNL     1      13.010 -32.538 -29.464  1.00  0.00     0.163 C 
ATOM     12  O   UNL     1      12.808 -31.432 -28.896  1.00  0.00    -0.294 OA
BRANCH  11  13
ATOM     13  C   UNL     1      13.337 -32.563 -30.913  1.00  0.00    -0.002 C 
ATOM     14  C   UNL     1      14.359 -31.804 -31.397  1.00  0.00    -0.069 C 
ATOM     15  C   UNL     1      15.128 -30.860 -30.500  1.00  0.00     0.039 C 
ATOM     16  C   UNL     1      14.737 -31.849 -32.861  1.00  0.00     0.039 C 
BRANCH  13  17
ATOM     17  C   UNL     1      12.519 -33.451 -31.844  1.00  0.00     0.066 CG0
ATOM     18  G   UNL     1      12.876 -34.917 -31.751  1.00  0.00     0.000 G0
ENDBRANCH  13  17
ENDBRANCH  11  13
ENDBRANCH  10  11
ENDBRANCH   1  10
TORSDOF 0
ENDMDL
MODEL 5
REMARK VINA RESULT:    -3.268      1.774      3.731
REMARK INTER + INTRA:          -4.218
REMARK INTER:                  -4.993
REMARK INTRA:                   0.774
REMARK UNBOUND:                 0.387
REMARK SMILES CC1=CCC(=C(C)C)C(=O)CC(C)=CCC1
REMARK SMILES IDX 12 1 14 2 13 3 15 4 16 5 2 6 1 7 3 8 11 10 9 11 10 12 5 13
REMARK SMILES IDX 6 14 7 15 8 16 4 17
REMARK H PARENT
REMARK Flexibility Score: 60.00
ROOT
ATOM      1  C   UNL     1      13.085 -35.816 -29.324  1.00  0.00    -0.070 C 
ATOM      2  C   UNL     1      13.416 -35.964 -30.628  1.00  0.00    -0.027 C 
ATOM      3  C   UNL     1      14.112 -36.188 -28.285  1.00  0.00     0.039 C 
ENDROOT
BRANCH   2   4
ATOM      4  C   UNL     1      12.495 -35.695 -31.797  1.00  0.00     0.032 C 
BRANCH   4   5
ATOM      5  C   UNL     1      12.084 -34.217 -31.865  1.00  0.00     0.034 C 
BRANCH   5   6
ATOM      6  C   UNL     1      13.249 -33.251 -31.690  1.00  0.00    -0.077 C 
ATOM      7  C   UNL     1      14.350 -33.247 -32.721  1.00  0.00     0.039 C 
ATOM      8  C   UNL     1      13.362 -32.405 -30.642  1.00  0.00    -0.023 CG0
ATOM      9  G   UNL     1      12.329 -32.211 -29.556  1.00  0.00     0.000 G0
ENDBRANCH   5   6
ENDBRANCH   4   5
ENDBRANCH   2   4
BRANCH   1  10
ATOM     10  C   UNL     1      11.737 -35.292 -28.868  1.00  0.00     0.111 C 
BRANCH  10  11
ATOM     11  C   UNL     1      11.899 -34.158 -27.895  1.00  0.00     0.163 C 
ATOM     12  O   UNL     1      11.358 -34.237 -26.760  1.00  0.00    -0.294 OA
BRANCH  11  13
ATOM     13  C   UNL     1      12.656 -32.932 -28.256  1.00  0.00    -0.002 C 
ATOM     14  C   UNL     1      13.639 -32.467 -27.438  1.00  0.00    -0.069 C 
ATOM     15  C   UNL     1      13.932 -33.129 -26.110  1.00  0.00     0.039 C 
ATOM     16  C   UNL     1      14.451 -31.246 -27.809  1.00  0.00     0.039 C 
BRANCH  13  17
ATOM     17  C   UNL     1      12.318 -32.208 -29.555  1.00  0.00     0.066 CG0
ATOM     18  G   UNL     1      13.354 -32.395 -30.640  1.00  0.00     0.000 G0
ENDBRANCH  13  17
ENDBRANCH  11  13
ENDBRANCH  10  11
ENDBRANCH   1  10
TORSDOF 0
ENDMDL
MODEL 6
REMARK VINA RESULT:    -3.170      2.155      4.316
REMARK INTER + INTRA:          -4.080
REMARK INTER:                  -4.974
REMARK INTRA:                   0.894
REMARK UNBOUND:                 0.387
REMARK SMILES CC1=CCC(=C(C)C)C(=O)CC(C)=CCC1
REMARK SMILES IDX 12 1 14 2 13 3 15 4 16 5 2 6 1 7 3 8 11 10 9 11 10 12 5 13
REMARK SMILES IDX 6 14 7 15 8 16 4 17
REMARK H PARENT
REMARK Flexibility Score: 60.00
ROOT
ATOM      1  C   UNL     1      11.476 -35.532 -30.999  1.00  0.00    -0.070 C 
ATOM      2  C   UNL     1      10.568 -35.097 -30.095  1.00  0.00    -0.027 C 
ATOM      3  C   UNL     1      11.948 -36.961 -30.899  1.00  0.00     0.039 C 
ENDROOT
BRANCH   2   4
ATOM      4  C   UNL     1      10.028 -33.687 -30.011  1.00  0.00     0.032 C 
BRANCH   4   5
ATOM      5  C   UNL     1      10.516 -32.969 -28.744  1.00  0.00     0.034 C 
BRANCH   5   6
ATOM      6  C   UNL     1      11.938 -33.337 -28.342  1.00  0.00    -0.077 C 
ATOM      7  C   UNL     1      12.149 -34.173 -27.104  1.00  0.00     0.039 C 
ATOM      8  C   UNL     1      13.033 -32.935 -29.027  1.00  0.00    -0.023 CG0
ATOM      9  G   UNL     1      13.019 -32.162 -30.326  1.00  0.00     0.000 G0
ENDBRANCH   5   6
ENDBRANCH   4   5
ENDBRANCH   2   4
BRANCH   1  10
ATOM     10  C   UNL     1      12.033 -34.651 -32.100  1.00  0.00     0.111 C 
BRANCH  10  11
ATOM     11  C   UNL     1      13.452 -34.250 -31.805  1.00  0.00     0.163 C 
ATOM     12  O   UNL     1      14.358 -35.124 -31.832  1.00  0.00    -0.294 OA
BRANCH  11  13
ATOM     13  C   UNL     1      13.801 -32.851 -31.449  1.00  0.00    -0.002 C 
ATOM     14  C   UNL     1      14.784 -32.196 -32.125  1.00  0.00    -0.069 C 
ATOM     15  C   UNL     1      15.600 -32.893 -33.191  1.00  0.00     0.039 C 
ATOM     16  C   UNL     1      15.125 -30.757 -31.807  1.00  0.00     0.039 C 
BRANCH  13  17
ATOM     17  C   UNL     1      13.041 -32.161 -30.322  1.00  0.00     0.066 CG0
ATOM     18  G   UNL     1      13.044 -32.936 -29.024  1.00  0.00     0.000 G0
ENDBRANCH  13  17
ENDBRANCH  11  13
ENDBRANCH  10  11
ENDBRANCH   1  10
TORSDOF 0
ENDMDL
MODEL 7
REMARK VINA RESULT:    -3.102      1.800      3.158
REMARK INTER + INTRA:          -3.985
REMARK INTER:                  -5.751
REMARK INTRA:                   1.767
REMARK UNBOUND:                 0.387
REMARK SMILES CC1=CCC(=C(C)C)C(=O)CC(C)=CCC1
REMARK SMILES IDX 12 1 14 2 13 3 15 4 16 5 2 6 1 7 3 8 11 10 9 11 10 12 5 13
REMARK SMILES IDX 6 14 7 15 8 16 4 17
REMARK H PARENT
REMARK Flexibility Score: 60.00
ROOT
ATOM      1  C   UNL     1      10.623 -33.084 -29.297  1.00  0.00    -0.070 C 
ATOM      2  C   UNL     1      11.639 -33.063 -28.404  1.00  0.00    -0.027 C 
ATOM      3  C   UNL     1       9.887 -31.795 -29.564  1.00  0.00     0.039 C 
ENDROOT
BRANCH   2   4
ATOM      4  C   UNL     1      12.445 -34.268 -27.974  1.00  0.00     0.032 C 
BRANCH   4   5
ATOM      5  C   UNL     1      12.055 -35.524 -28.767  1.00  0.00     0.034 C 
BRANCH   5   6
ATOM      6  C   UNL     1      13.248 -36.289 -29.324  1.00  0.00    -0.077 C 
ATOM      7  C   UNL     1      14.315 -36.767 -28.370  1.00  0.00     0.039 C 
ATOM      8  C   UNL     1      13.418 -36.547 -30.641  1.00  0.00    -0.023 CG0
ATOM      9  G   UNL     1      12.427 -36.218 -31.733  1.00  0.00     0.000 G0
ENDBRANCH   5   6
ENDBRANCH   4   5
ENDBRANCH   2   4
BRANCH   1  10
ATOM     10  C   UNL     1      10.197 -34.338 -30.036  1.00  0.00     0.111 C 
BRANCH  10  11
ATOM     11  C   UNL     1      10.680 -34.315 -31.460  1.00  0.00     0.163 C 
ATOM     12  O   UNL     1       9.886 -33.974 -32.376  1.00  0.00    -0.294 OA
BRANCH  11  13
ATOM     13  C   UNL     1      12.065 -34.721 -31.812  1.00  0.00    -0.002 C 
ATOM     14  C   UNL     1      12.985 -33.782 -32.168  1.00  0.00    -0.069 C 
ATOM     15  C   UNL     1      12.607 -32.324 -32.296  1.00  0.00     0.039 C 
ATOM     16  C   UNL     1      14.412 -34.170 -32.487  1.00  0.00     0.039 C 
BRANCH  13  17
ATOM     17  C   UNL     1      12.441 -36.198 -31.764  1.00  0.00     0.066 CG0
ATOM     18  G   UNL     1      13.410 -36.540 -30.656  1.00  0.00     0.000 G0
ENDBRANCH  13  17
ENDBRANCH  11  13
ENDBRANCH  10  11
ENDBRANCH   1  10
TORSDOF 0
ENDMDL
MODEL 8
REMARK VINA RESULT:    -3.087      1.855      3.740
REMARK INTER + INTRA:          -3.963
REMARK INTER:                  -5.696
REMARK INTRA:                   1.734
REMARK UNBOUND:                 0.387
REMARK SMILES CC1=CCC(=C(C)C)C(=O)CC(C)=CCC1
REMARK SMILES IDX 12 1 14 2 13 3 15 4 16 5 2 6 1 7 3 8 11 10 9 11 10 12 5 13
REMARK SMILES IDX 6 14 7 15 8 16 4 17
REMARK H PARENT
REMARK Flexibility Score: 60.00
ROOT
ATOM      1  C   UNL     1      12.973 -32.295 -29.380  1.00  0.00    -0.070 C 
ATOM      2  C   UNL     1      13.744 -32.143 -30.482  1.00  0.00    -0.027 C 
ATOM      3  C   UNL     1      13.626 -32.141 -28.030  1.00  0.00     0.039 C 
ENDROOT
BRANCH   2   4
ATOM      4  C   UNL     1      13.271 -32.318 -31.907  1.00  0.00     0.032 C 
BRANCH   4   5
ATOM      5  C   UNL     1      12.523 -33.645 -32.097  1.00  0.00     0.034 C 
BRANCH   5   6
ATOM      6  C   UNL     1      11.053 -33.471 -32.458  1.00  0.00    -0.077 C 
ATOM      7  C   UNL     1      10.670 -32.400 -33.449  1.00  0.00     0.039 C 
ATOM      8  C   UNL     1      10.061 -34.215 -31.918  1.00  0.00    -0.023 CG0
ATOM      9  G   UNL     1      10.254 -35.379 -30.973  1.00  0.00     0.000 G0
ENDBRANCH   5   6
ENDBRANCH   4   5
ENDBRANCH   2   4
BRANCH   1  10
ATOM     10  C   UNL     1      11.491 -32.609 -29.445  1.00  0.00     0.111 C 
BRANCH  10  11
ATOM     11  C   UNL     1      11.216 -34.016 -28.992  1.00  0.00     0.163 C 
ATOM     12  O   UNL     1      10.908 -34.228 -27.789  1.00  0.00    -0.294 OA
BRANCH  11  13
ATOM     13  C   UNL     1      11.336 -35.165 -29.925  1.00  0.00    -0.002 C 
ATOM     14  C   UNL     1      12.400 -36.010 -29.841  1.00  0.00    -0.069 C 
ATOM     15  C   UNL     1      13.524 -35.758 -28.861  1.00  0.00     0.039 C 
ATOM     16  C   UNL     1      12.517 -37.211 -30.752  1.00  0.00     0.039 C 
BRANCH  13  17
ATOM     17  C   UNL     1      10.249 -35.387 -30.972  1.00  0.00     0.066 CG0
ATOM     18  G   UNL     1      10.075 -34.223 -31.921  1.00  0.00     0.000 G0
ENDBRANCH  13  17
ENDBRANCH  11  13
ENDBRANCH  10  11
ENDBRANCH   1  10
TORSDOF 0
ENDMDL
MODEL 9
REMARK VINA RESULT:    -3.075      1.804      3.742
REMARK INTER + INTRA:          -3.947
REMARK INTER:                  -5.167
REMARK INTRA:                   1.220
REMARK UNBOUND:                 0.387
REMARK SMILES CC1=CCC(=C(C)C)C(=O)CC(C)=CCC1
REMARK SMILES IDX 12 1 14 2 13 3 15 4 16 5 2 6 1 7 3 8 11 10 9 11 10 12 5 13
REMARK SMILES IDX 6 14 7 15 8 16 4 17
REMARK H PARENT
REMARK Flexibility Score: 60.00
ROOT
ATOM      1  C   UNL     1      12.793 -33.567 -31.433  1.00  0.00    -0.070 C 
ATOM      2  C   UNL     1      13.245 -34.797 -31.770  1.00  0.00    -0.027 C 
ATOM      3  C   UNL     1      13.766 -32.416 -31.473  1.00  0.00     0.039 C 
ENDROOT
BRANCH   2   4
ATOM      4  C   UNL     1      12.426 -36.067 -31.731  1.00  0.00     0.032 C 
BRANCH   4   5
ATOM      5  C   UNL     1      11.842 -36.323 -30.334  1.00  0.00     0.034 C 
BRANCH   5   6
ATOM      6  C   UNL     1      12.889 -36.331 -29.228  1.00  0.00    -0.077 C 
ATOM      7  C   UNL     1      14.052 -37.286 -29.335  1.00  0.00     0.039 C 
ATOM      8  C   UNL     1      12.822 -35.539 -28.134  1.00  0.00    -0.023 CG0
ATOM      9  G   UNL     1      11.780 -34.471 -27.887  1.00  0.00     0.000 G0
ENDBRANCH   5   6
ENDBRANCH   4   5
ENDBRANCH   2   4
BRANCH   1  10
ATOM     10  C   UNL     1      11.358 -33.299 -31.019  1.00  0.00     0.111 C 
BRANCH  10  11
ATOM     11  C   UNL     1      11.299 -32.642 -29.668  1.00  0.00     0.163 C 
ATOM     12  O   UNL     1      10.561 -31.634 -29.504  1.00  0.00    -0.294 OA
BRANCH  11  13
ATOM     13  C   UNL     1      12.120 -33.135 -28.533  1.00  0.00    -0.002 C 
ATOM     14  C   UNL     1      13.166 -32.397 -28.072  1.00  0.00    -0.069 C 
ATOM     15  C   UNL     1      13.574 -31.107 -28.748  1.00  0.00     0.039 C 
ATOM     16  C   UNL     1      13.987 -32.860 -26.888  1.00  0.00     0.039 C 
BRANCH  13  17
ATOM     17  C   UNL     1      11.769 -34.473 -27.890  1.00  0.00     0.066 CG0
ATOM     18  G   UNL     1      12.806 -35.548 -28.126  1.00  0.00     0.000 G0
ENDBRANCH  13  17
ENDBRANCH  11  13
ENDBRANCH  10  11
ENDBRANCH   1  10
TORSDOF 0
ENDMDL
