MODEL 1
REMARK VINA RESULT:    -3.153      0.000      0.000
REMARK INTER + INTRA:          -6.951
REMARK INTER:                  -5.457
REMARK INTRA:                  -1.494
REMARK UNBOUND:                -1.494
REMARK SMILES CCCCCCCCCCCCCCO
REMARK SMILES IDX 8 1 7 2 6 3 5 4 4 5 3 6 2 7 1 8 9 9 10 10 11 11 12 12 13 13
REMARK SMILES IDX 14 14 15 15
REMARK H PARENT 15 16
REMARK Flexibility Score: inf
ROOT
ATOM      1  C   UNL     1     169.724 173.544 161.189  1.00  0.00     0.000 C 
ENDROOT
BRANCH   1   2
ATOM      2  C   UNL     1     169.436 174.584 162.288  1.00  0.00    -0.000 C 
BRANCH   2   3
ATOM      3  C   UNL     1     167.932 174.847 162.482  1.00  0.00    -0.000 C 
BRANCH   3   4
ATOM      4  C   UNL     1     167.292 173.866 163.476  1.00  0.00    -0.000 C 
BRANCH   4   5
ATOM      5  C   UNL     1     166.150 173.049 162.847  1.00  0.00    -0.000 C 
BRANCH   5   6
ATOM      6  C   UNL     1     166.559 171.584 162.585  1.00  0.00    -0.000 C 
BRANCH   6   7
ATOM      7  C   UNL     1     166.741 171.255 161.094  1.00  0.00    -0.003 C 
ATOM      8  C   UNL     1     166.267 172.375 160.170  1.00  0.00     0.004 C 
ENDBRANCH   6   7
ENDBRANCH   5   6
ENDBRANCH   4   5
ENDBRANCH   3   4
ENDBRANCH   2   3
ENDBRANCH   1   2
BRANCH   1   9
ATOM      9  C   UNL     1     170.379 172.238 161.682  1.00  0.00     0.000 C 
BRANCH   9  10
ATOM     10  C   UNL     1     170.732 172.210 163.182  1.00  0.00     0.000 C 
BRANCH  10  11
ATOM     11  C   UNL     1     172.190 171.822 163.503  1.00  0.00     0.000 C 
BRANCH  11  12
ATOM     12  C   UNL     1     173.037 171.421 162.282  1.00  0.00     0.002 C 
BRANCH  12  13
ATOM     13  C   UNL     1     174.346 172.219 162.175  1.00  0.00     0.028 C 
BRANCH  13  14
ATOM     14  C   UNL     1     175.301 171.603 161.147  1.00  0.00     0.156 C 
BRANCH  14  15
ATOM     15  O   UNL     1     175.356 170.210 161.285  1.00  0.00    -0.396 OA
ATOM     16  H   UNL     1     176.290 169.940 161.083  1.00  0.00     0.210 HD
ENDBRANCH  14  15
ENDBRANCH  13  14
ENDBRANCH  12  13
ENDBRANCH  11  12
ENDBRANCH  10  11
ENDBRANCH   9  10
ENDBRANCH   1   9
TORSDOF 13
ENDMDL
MODEL 2
REMARK VINA RESULT:    -3.064      1.055      1.771
REMARK INTER + INTRA:          -6.798
REMARK INTER:                  -5.442
REMARK INTRA:                  -1.356
REMARK UNBOUND:                -1.494
REMARK SMILES CCCCCCCCCCCCCCO
REMARK SMILES IDX 8 1 7 2 6 3 5 4 4 5 3 6 2 7 1 8 9 9 10 10 11 11 12 12 13 13
REMARK SMILES IDX 14 14 15 15
REMARK H PARENT 15 16
REMARK Flexibility Score: inf
ROOT
ATOM      1  C   UNL     1     170.072 173.238 163.644  1.00  0.00     0.000 C 
ENDROOT
BRANCH   1   2
ATOM      2  C   UNL     1     168.646 173.461 164.179  1.00  0.00    -0.000 C 
BRANCH   2   3
ATOM      3  C   UNL     1     167.739 174.193 163.174  1.00  0.00    -0.000 C 
BRANCH   3   4
ATOM      4  C   UNL     1     166.456 173.405 162.866  1.00  0.00    -0.000 C 
BRANCH   4   5
ATOM      5  C   UNL     1     166.745 171.983 162.354  1.00  0.00    -0.000 C 
BRANCH   5   6
ATOM      6  C   UNL     1     167.115 171.969 160.855  1.00  0.00    -0.000 C 
BRANCH   6   7
ATOM      7  C   UNL     1     168.596 171.652 160.591  1.00  0.00    -0.003 C 
ATOM      8  C   UNL     1     169.376 172.843 160.040  1.00  0.00     0.004 C 
ENDBRANCH   6   7
ENDBRANCH   5   6
ENDBRANCH   4   5
ENDBRANCH   3   4
ENDBRANCH   2   3
ENDBRANCH   1   2
BRANCH   1   9
ATOM      9  C   UNL     1     170.619 171.806 163.820  1.00  0.00     0.000 C 
BRANCH   9  10
ATOM     10  C   UNL     1     172.129 171.647 163.556  1.00  0.00     0.000 C 
BRANCH  10  11
ATOM     11  C   UNL     1     172.531 171.612 162.068  1.00  0.00     0.000 C 
BRANCH  11  12
ATOM     12  C   UNL     1     173.618 172.624 161.666  1.00  0.00     0.002 C 
BRANCH  12  13
ATOM     13  C   UNL     1     175.022 172.002 161.607  1.00  0.00     0.028 C 
BRANCH  13  14
ATOM     14  C   UNL     1     175.060 170.779 160.684  1.00  0.00     0.156 C 
BRANCH  14  15
ATOM     15  O   UNL     1     176.143 169.947 160.999  1.00  0.00    -0.396 OA
ATOM     16  H   UNL     1     176.931 170.309 160.516  1.00  0.00     0.210 HD
ENDBRANCH  14  15
ENDBRANCH  13  14
ENDBRANCH  12  13
ENDBRANCH  11  12
ENDBRANCH  10  11
ENDBRANCH   9  10
ENDBRANCH   1   9
TORSDOF 13
ENDMDL
MODEL 3
REMARK VINA RESULT:    -3.019      1.869      3.218
REMARK INTER + INTRA:          -6.719
REMARK INTER:                  -4.607
REMARK INTRA:                  -2.112
REMARK UNBOUND:                -1.494
REMARK SMILES CCCCCCCCCCCCCCO
REMARK SMILES IDX 8 1 7 2 6 3 5 4 4 5 3 6 2 7 1 8 9 9 10 10 11 11 12 12 13 13
REMARK SMILES IDX 14 14 15 15
REMARK H PARENT 15 16
REMARK Flexibility Score: inf
ROOT
ATOM      1  C   UNL     1     167.124 175.358 161.573  1.00  0.00     0.000 C 
ENDROOT
BRANCH   1   2
ATOM      2  C   UNL     1     167.503 175.142 160.096  1.00  0.00    -0.000 C 
BRANCH   2   3
ATOM      3  C   UNL     1     168.295 173.843 159.867  1.00  0.00    -0.000 C 
BRANCH   3   4
ATOM      4  C   UNL     1     167.377 172.624 159.689  1.00  0.00    -0.000 C 
BRANCH   4   5
ATOM      5  C   UNL     1     167.616 171.543 160.759  1.00  0.00    -0.000 C 
BRANCH   5   6
ATOM      6  C   UNL     1     166.350 171.264 161.596  1.00  0.00    -0.000 C 
BRANCH   6   7
ATOM      7  C   UNL     1     165.106 172.019 161.098  1.00  0.00    -0.003 C 
ATOM      8  C   UNL     1     164.551 173.003 162.126  1.00  0.00     0.004 C 
ENDBRANCH   6   7
ENDBRANCH   5   6
ENDBRANCH   4   5
ENDBRANCH   3   4
ENDBRANCH   2   3
ENDBRANCH   1   2
BRANCH   1   9
ATOM      9  C   UNL     1     168.233 175.014 162.589  1.00  0.00     0.000 C 
BRANCH   9  10
ATOM     10  C   UNL     1     167.852 173.945 163.632  1.00  0.00     0.000 C 
BRANCH  10  11
ATOM     11  C   UNL     1     168.924 172.865 163.880  1.00  0.00     0.000 C 
BRANCH  11  12
ATOM     12  C   UNL     1     170.342 173.240 163.415  1.00  0.00     0.002 C 
BRANCH  12  13
ATOM     13  C   UNL     1     170.930 172.230 162.417  1.00  0.00     0.028 C 
BRANCH  13  14
ATOM     14  C   UNL     1     172.257 171.648 162.916  1.00  0.00     0.156 C 
BRANCH  14  15
ATOM     15  O   UNL     1     172.096 171.035 164.167  1.00  0.00    -0.396 OA
ATOM     16  H   UNL     1     172.490 170.127 164.091  1.00  0.00     0.210 HD
ENDBRANCH  14  15
ENDBRANCH  13  14
ENDBRANCH  12  13
ENDBRANCH  11  12
ENDBRANCH  10  11
ENDBRANCH   9  10
ENDBRANCH   1   9
TORSDOF 13
ENDMDL
MODEL 4
REMARK VINA RESULT:    -3.001      2.255      3.468
REMARK INTER + INTRA:          -6.688
REMARK INTER:                  -4.690
REMARK INTRA:                  -1.998
REMARK UNBOUND:                -1.494
REMARK SMILES CCCCCCCCCCCCCCO
REMARK SMILES IDX 8 1 7 2 6 3 5 4 4 5 3 6 2 7 1 8 9 9 10 10 11 11 12 12 13 13
REMARK SMILES IDX 14 14 15 15
REMARK H PARENT 15 16
REMARK Flexibility Score: inf
ROOT
ATOM      1  C   UNL     1     166.834 175.523 161.902  1.00  0.00     0.000 C 
ENDROOT
BRANCH   1   2
ATOM      2  C   UNL     1     165.595 174.954 161.187  1.00  0.00    -0.000 C 
BRANCH   2   3
ATOM      3  C   UNL     1     164.660 174.182 162.135  1.00  0.00    -0.000 C 
BRANCH   3   4
ATOM      4  C   UNL     1     165.335 172.939 162.735  1.00  0.00    -0.000 C 
BRANCH   4   5
ATOM      5  C   UNL     1     165.431 171.777 161.730  1.00  0.00    -0.000 C 
BRANCH   5   6
ATOM      6  C   UNL     1     166.894 171.403 161.412  1.00  0.00    -0.000 C 
BRANCH   6   7
ATOM      7  C   UNL     1     167.340 171.816 159.999  1.00  0.00    -0.003 C 
ATOM      8  C   UNL     1     168.839 171.634 159.767  1.00  0.00     0.004 C 
ENDBRANCH   6   7
ENDBRANCH   5   6
ENDBRANCH   4   5
ENDBRANCH   3   4
ENDBRANCH   2   3
ENDBRANCH   1   2
BRANCH   1   9
ATOM      9  C   UNL     1     168.188 175.014 161.368  1.00  0.00     0.000 C 
BRANCH   9  10
ATOM     10  C   UNL     1     169.226 174.662 162.452  1.00  0.00     0.000 C 
BRANCH  10  11
ATOM     11  C   UNL     1     168.679 173.844 163.638  1.00  0.00     0.000 C 
BRANCH  11  12
ATOM     12  C   UNL     1     169.358 172.480 163.853  1.00  0.00     0.002 C 
BRANCH  12  13
ATOM     13  C   UNL     1     170.575 172.268 162.939  1.00  0.00     0.028 C 
BRANCH  13  14
ATOM     14  C   UNL     1     171.892 172.379 163.714  1.00  0.00     0.156 C 
BRANCH  14  15
ATOM     15  O   UNL     1     171.996 173.625 164.349  1.00  0.00    -0.396 OA
ATOM     16  H   UNL     1     171.252 174.183 164.003  1.00  0.00     0.210 HD
ENDBRANCH  14  15
ENDBRANCH  13  14
ENDBRANCH  12  13
ENDBRANCH  11  12
ENDBRANCH  10  11
ENDBRANCH   9  10
ENDBRANCH   1   9
TORSDOF 13
ENDMDL
MODEL 5
REMARK VINA RESULT:    -2.947     11.840     14.579
REMARK INTER + INTRA:          -6.594
REMARK INTER:                  -6.118
REMARK INTRA:                  -0.477
REMARK UNBOUND:                -1.494
REMARK SMILES CCCCCCCCCCCCCCO
REMARK SMILES IDX 8 1 7 2 6 3 5 4 4 5 3 6 2 7 1 8 9 9 10 10 11 11 12 12 13 13
REMARK SMILES IDX 14 14 15 15
REMARK H PARENT 15 16
REMARK Flexibility Score: inf
ROOT
ATOM      1  C   UNL     1     159.236 162.075 164.715  1.00  0.00     0.000 C 
ENDROOT
BRANCH   1   2
ATOM      2  C   UNL     1     158.875 163.462 164.153  1.00  0.00    -0.000 C 
BRANCH   2   3
ATOM      3  C   UNL     1     159.529 163.743 162.789  1.00  0.00    -0.000 C 
BRANCH   3   4
ATOM      4  C   UNL     1     158.915 164.965 162.088  1.00  0.00    -0.000 C 
BRANCH   4   5
ATOM      5  C   UNL     1     159.797 166.220 162.210  1.00  0.00    -0.000 C 
BRANCH   5   6
ATOM      6  C   UNL     1     159.760 167.083 160.931  1.00  0.00    -0.000 C 
BRANCH   6   7
ATOM      7  C   UNL     1     159.594 168.586 161.209  1.00  0.00    -0.003 C 
ATOM      8  C   UNL     1     160.099 169.466 160.067  1.00  0.00     0.004 C 
ENDBRANCH   6   7
ENDBRANCH   5   6
ENDBRANCH   4   5
ENDBRANCH   3   4
ENDBRANCH   2   3
ENDBRANCH   1   2
BRANCH   1   9
ATOM      9  C   UNL     1     160.732 161.709 164.640  1.00  0.00     0.000 C 
BRANCH   9  10
ATOM     10  C   UNL     1     161.157 160.518 165.522  1.00  0.00     0.000 C 
BRANCH  10  11
ATOM     11  C   UNL     1     160.906 160.703 167.032  1.00  0.00     0.000 C 
BRANCH  11  12
ATOM     12  C   UNL     1     161.779 161.775 167.709  1.00  0.00     0.002 C 
BRANCH  12  13
ATOM     13  C   UNL     1     161.077 162.455 168.895  1.00  0.00     0.028 C 
BRANCH  13  14
ATOM     14  C   UNL     1     160.282 161.450 169.734  1.00  0.00     0.156 C 
BRANCH  14  15
ATOM     15  O   UNL     1     159.135 162.046 170.276  1.00  0.00    -0.396 OA
ATOM     16  H   UNL     1     159.298 163.025 170.280  1.00  0.00     0.210 HD
ENDBRANCH  14  15
ENDBRANCH  13  14
ENDBRANCH  12  13
ENDBRANCH  11  12
ENDBRANCH  10  11
ENDBRANCH   9  10
ENDBRANCH   1   9
TORSDOF 13
ENDMDL
MODEL 6
REMARK VINA RESULT:    -2.944      2.161      3.423
REMARK INTER + INTRA:          -6.589
REMARK INTER:                  -4.794
REMARK INTRA:                  -1.795
REMARK UNBOUND:                -1.494
REMARK SMILES CCCCCCCCCCCCCCO
REMARK SMILES IDX 8 1 7 2 6 3 5 4 4 5 3 6 2 7 1 8 9 9 10 10 11 11 12 12 13 13
REMARK SMILES IDX 14 14 15 15
REMARK H PARENT 15 16
REMARK Flexibility Score: inf
ROOT
ATOM      1  C   UNL     1     168.015 172.254 163.652  1.00  0.00     0.000 C 
ENDROOT
BRANCH   1   2
ATOM      2  C   UNL     1     167.092 172.421 162.431  1.00  0.00    -0.000 C 
BRANCH   2   3
ATOM      3  C   UNL     1     165.664 172.847 162.816  1.00  0.00    -0.000 C 
BRANCH   3   4
ATOM      4  C   UNL     1     165.313 174.249 162.292  1.00  0.00    -0.000 C 
BRANCH   4   5
ATOM      5  C   UNL     1     166.428 174.848 161.417  1.00  0.00    -0.000 C 
BRANCH   5   6
ATOM      6  C   UNL     1     167.031 176.125 162.039  1.00  0.00    -0.000 C 
BRANCH   6   7
ATOM      7  C   UNL     1     168.414 176.491 161.473  1.00  0.00    -0.003 C 
ATOM      8  C   UNL     1     168.983 175.421 160.544  1.00  0.00     0.004 C 
ENDBRANCH   6   7
ENDBRANCH   5   6
ENDBRANCH   4   5
ENDBRANCH   3   4
ENDBRANCH   2   3
ENDBRANCH   1   2
BRANCH   1   9
ATOM      9  C   UNL     1     168.765 173.530 164.083  1.00  0.00     0.000 C 
BRANCH   9  10
ATOM     10  C   UNL     1     170.197 173.664 163.529  1.00  0.00     0.000 C 
BRANCH  10  11
ATOM     11  C   UNL     1     171.086 172.417 163.711  1.00  0.00     0.000 C 
BRANCH  11  12
ATOM     12  C   UNL     1     171.610 171.799 162.402  1.00  0.00     0.002 C 
BRANCH  12  13
ATOM     13  C   UNL     1     170.795 172.227 161.171  1.00  0.00     0.028 C 
BRANCH  13  14
ATOM     14  C   UNL     1     171.694 172.799 160.070  1.00  0.00     0.156 C 
BRANCH  14  15
ATOM     15  O   UNL     1     172.565 173.769 160.586  1.00  0.00    -0.396 OA
ATOM     16  H   UNL     1     173.274 173.280 161.080  1.00  0.00     0.210 HD
ENDBRANCH  14  15
ENDBRANCH  13  14
ENDBRANCH  12  13
ENDBRANCH  11  12
ENDBRANCH  10  11
ENDBRANCH   9  10
ENDBRANCH   1   9
TORSDOF 13
ENDMDL
MODEL 7
REMARK VINA RESULT:    -2.917      2.139      2.837
REMARK INTER + INTRA:          -6.542
REMARK INTER:                  -4.602
REMARK INTRA:                  -1.940
REMARK UNBOUND:                -1.494
REMARK SMILES CCCCCCCCCCCCCCO
REMARK SMILES IDX 8 1 7 2 6 3 5 4 4 5 3 6 2 7 1 8 9 9 10 10 11 11 12 12 13 13
REMARK SMILES IDX 14 14 15 15
REMARK H PARENT 15 16
REMARK Flexibility Score: inf
ROOT
ATOM      1  C   UNL     1     168.010 175.379 161.710  1.00  0.00     0.000 C 
ENDROOT
BRANCH   1   2
ATOM      2  C   UNL     1     168.573 174.742 162.993  1.00  0.00    -0.000 C 
BRANCH   2   3
ATOM      3  C   UNL     1     167.622 173.701 163.611  1.00  0.00    -0.000 C 
BRANCH   3   4
ATOM      4  C   UNL     1     166.177 173.864 163.112  1.00  0.00    -0.000 C 
BRANCH   4   5
ATOM      5  C   UNL     1     165.635 172.586 162.447  1.00  0.00    -0.000 C 
BRANCH   5   6
ATOM      6  C   UNL     1     166.730 171.512 162.274  1.00  0.00    -0.000 C 
BRANCH   6   7
ATOM      7  C   UNL     1     167.103 171.247 160.805  1.00  0.00    -0.003 C 
ATOM      8  C   UNL     1     166.265 172.056 159.818  1.00  0.00     0.004 C 
ENDBRANCH   6   7
ENDBRANCH   5   6
ENDBRANCH   4   5
ENDBRANCH   3   4
ENDBRANCH   2   3
ENDBRANCH   1   2
BRANCH   1   9
ATOM      9  C   UNL     1     168.618 174.848 160.396  1.00  0.00     0.000 C 
BRANCH   9  10
ATOM     10  C   UNL     1     170.115 174.486 160.469  1.00  0.00     0.000 C 
BRANCH  10  11
ATOM     11  C   UNL     1     170.428 172.981 160.357  1.00  0.00     0.000 C 
BRANCH  11  12
ATOM     12  C   UNL     1     171.543 172.480 161.293  1.00  0.00     0.002 C 
BRANCH  12  13
ATOM     13  C   UNL     1     171.002 171.908 162.614  1.00  0.00     0.028 C 
BRANCH  13  14
ATOM     14  C   UNL     1     171.864 172.331 163.808  1.00  0.00     0.156 C 
BRANCH  14  15
ATOM     15  O   UNL     1     171.684 173.690 164.100  1.00  0.00    -0.396 OA
ATOM     16  H   UNL     1     172.361 173.926 164.786  1.00  0.00     0.210 HD
ENDBRANCH  14  15
ENDBRANCH  13  14
ENDBRANCH  12  13
ENDBRANCH  11  12
ENDBRANCH  10  11
ENDBRANCH   9  10
ENDBRANCH   1   9
TORSDOF 13
ENDMDL
MODEL 8
REMARK VINA RESULT:    -2.895      1.544      3.286
REMARK INTER + INTRA:          -6.504
REMARK INTER:                  -4.619
REMARK INTRA:                  -1.885
REMARK UNBOUND:                -1.494
REMARK SMILES CCCCCCCCCCCCCCO
REMARK SMILES IDX 8 1 7 2 6 3 5 4 4 5 3 6 2 7 1 8 9 9 10 10 11 11 12 12 13 13
REMARK SMILES IDX 14 14 15 15
REMARK H PARENT 15 16
REMARK Flexibility Score: inf
ROOT
ATOM      1  C   UNL     1     168.127 172.279 163.517  1.00  0.00     0.000 C 
ENDROOT
BRANCH   1   2
ATOM      2  C   UNL     1     167.373 172.607 162.216  1.00  0.00    -0.000 C 
BRANCH   2   3
ATOM      3  C   UNL     1     168.049 172.011 160.968  1.00  0.00    -0.000 C 
BRANCH   3   4
ATOM      4  C   UNL     1     168.277 173.062 159.870  1.00  0.00    -0.000 C 
BRANCH   4   5
ATOM      5  C   UNL     1     169.689 173.672 159.920  1.00  0.00    -0.000 C 
BRANCH   5   6
ATOM      6  C   UNL     1     169.656 175.192 160.187  1.00  0.00    -0.000 C 
BRANCH   6   7
ATOM      7  C   UNL     1     168.243 175.740 160.447  1.00  0.00    -0.003 C 
ATOM      8  C   UNL     1     168.064 176.291 161.860  1.00  0.00     0.004 C 
ENDBRANCH   6   7
ENDBRANCH   5   6
ENDBRANCH   4   5
ENDBRANCH   3   4
ENDBRANCH   2   3
ENDBRANCH   1   2
BRANCH   1   9
ATOM      9  C   UNL     1     168.847 173.475 164.174  1.00  0.00     0.000 C 
BRANCH   9  10
ATOM     10  C   UNL     1     170.223 173.820 163.571  1.00  0.00     0.000 C 
BRANCH  10  11
ATOM     11  C   UNL     1     171.353 172.829 163.917  1.00  0.00     0.000 C 
BRANCH  11  12
ATOM     12  C   UNL     1     171.704 171.830 162.801  1.00  0.00     0.002 C 
BRANCH  12  13
ATOM     13  C   UNL     1     172.636 172.427 161.735  1.00  0.00     0.028 C 
BRANCH  13  14
ATOM     14  C   UNL     1     174.110 172.283 162.128  1.00  0.00     0.156 C 
BRANCH  14  15
ATOM     15  O   UNL     1     174.497 170.936 162.138  1.00  0.00    -0.396 OA
ATOM     16  H   UNL     1     174.050 170.506 161.362  1.00  0.00     0.210 HD
ENDBRANCH  14  15
ENDBRANCH  13  14
ENDBRANCH  12  13
ENDBRANCH  11  12
ENDBRANCH  10  11
ENDBRANCH   9  10
ENDBRANCH   1   9
TORSDOF 13
ENDMDL
MODEL 9
REMARK VINA RESULT:    -2.807      2.773      4.889
REMARK INTER + INTRA:          -6.352
REMARK INTER:                  -4.277
REMARK INTRA:                  -2.075
REMARK UNBOUND:                -1.494
REMARK SMILES CCCCCCCCCCCCCCO
REMARK SMILES IDX 8 1 7 2 6 3 5 4 4 5 3 6 2 7 1 8 9 9 10 10 11 11 12 12 13 13
REMARK SMILES IDX 14 14 15 15
REMARK H PARENT 15 16
REMARK Flexibility Score: inf
ROOT
ATOM      1  C   UNL     1     166.294 172.067 160.092  1.00  0.00     0.000 C 
ENDROOT
BRANCH   1   2
ATOM      2  C   UNL     1     167.691 171.437 159.938  1.00  0.00    -0.000 C 
BRANCH   2   3
ATOM      3  C   UNL     1     168.697 172.376 159.249  1.00  0.00    -0.000 C 
BRANCH   3   4
ATOM      4  C   UNL     1     169.720 172.960 160.236  1.00  0.00    -0.000 C 
BRANCH   4   5
ATOM      5  C   UNL     1     169.610 174.490 160.363  1.00  0.00    -0.000 C 
BRANCH   5   6
ATOM      6  C   UNL     1     168.389 175.050 159.603  1.00  0.00    -0.000 C 
BRANCH   6   7
ATOM      7  C   UNL     1     167.404 175.815 160.502  1.00  0.00    -0.003 C 
ATOM      8  C   UNL     1     168.094 176.611 161.607  1.00  0.00     0.004 C 
ENDBRANCH   6   7
ENDBRANCH   5   6
ENDBRANCH   4   5
ENDBRANCH   3   4
ENDBRANCH   2   3
ENDBRANCH   1   2
BRANCH   1   9
ATOM      9  C   UNL     1     165.666 171.928 161.494  1.00  0.00     0.000 C 
BRANCH   9  10
ATOM     10  C   UNL     1     166.664 172.011 162.667  1.00  0.00     0.000 C 
BRANCH  10  11
ATOM     11  C   UNL     1     166.873 173.425 163.247  1.00  0.00     0.000 C 
BRANCH  11  12
ATOM     12  C   UNL     1     168.295 173.711 163.761  1.00  0.00     0.002 C 
BRANCH  12  13
ATOM     13  C   UNL     1     169.165 172.447 163.844  1.00  0.00     0.028 C 
BRANCH  13  14
ATOM     14  C   UNL     1     170.653 172.773 163.680  1.00  0.00     0.156 C 
BRANCH  14  15
ATOM     15  O   UNL     1     170.887 174.145 163.848  1.00  0.00    -0.396 OA
ATOM     16  H   UNL     1     170.884 174.547 162.941  1.00  0.00     0.210 HD
ENDBRANCH  14  15
ENDBRANCH  13  14
ENDBRANCH  12  13
ENDBRANCH  11  12
ENDBRANCH  10  11
ENDBRANCH   9  10
ENDBRANCH   1   9
TORSDOF 13
ENDMDL
