MODEL 1
REMARK VINA RESULT:    17.427      0.000      0.000
REMARK INTER + INTRA:          25.361
REMARK INTER:                  24.558
REMARK INTRA:                   0.803
REMARK UNBOUND:                 0.803
REMARK SMILES CC1=CCC(=C(C)C)C(=O)CC(C)=CCC1
REMARK SMILES IDX 12 1 14 2 13 3 15 4 16 5 2 6 1 7 3 8 11 10 9 11 10 12 5 13
REMARK SMILES IDX 6 14 7 15 8 16 4 17
REMARK H PARENT
REMARK Flexibility Score: 60.00
ROOT
ATOM      1  C   UNL     1      32.890  11.248  40.621  1.00  0.00    -0.070 C 
ATOM      2  C   UNL     1      32.968   9.950  40.244  1.00  0.00    -0.027 C 
ATOM      3  C   UNL     1      32.636  11.551  42.075  1.00  0.00     0.039 C 
ENDROOT
BRANCH   2   4
ATOM      4  C   UNL     1      33.360   9.472  38.869  1.00  0.00     0.032 C 
BRANCH   4   5
ATOM      5  C   UNL     1      34.874   9.244  38.811  1.00  0.00     0.034 C 
BRANCH   5   6
ATOM      6  C   UNL     1      35.509   9.213  40.187  1.00  0.00    -0.077 C 
ATOM      7  C   UNL     1      35.491   7.918  40.962  1.00  0.00     0.039 C 
ATOM      8  C   UNL     1      36.033  10.305  40.797  1.00  0.00    -0.023 CG0
ATOM      9  G   UNL     1      36.216  11.692  40.206  1.00  0.00     0.000 G0
ENDBRANCH   5   6
ENDBRANCH   4   5
ENDBRANCH   2   4
BRANCH   1  10
ATOM     10  C   UNL     1      33.025  12.406  39.653  1.00  0.00     0.111 C 
BRANCH  10  11
ATOM     11  C   UNL     1      34.187  13.303  40.006  1.00  0.00     0.163 C 
ATOM     12  O   UNL     1      34.144  14.491  39.585  1.00  0.00    -0.294 OA
BRANCH  11  13
ATOM     13  C   UNL     1      35.380  12.852  40.799  1.00  0.00    -0.002 C 
ATOM     14  C   UNL     1      35.767  13.534  41.920  1.00  0.00    -0.069 C 
ATOM     15  C   UNL     1      37.084  13.258  42.611  1.00  0.00     0.039 C 
ATOM     16  C   UNL     1      34.873  14.571  42.563  1.00  0.00     0.039 C 
BRANCH  13  17
ATOM     17  C   UNL     1      36.239  11.735  40.218  1.00  0.00     0.066 CG0
ATOM     18  G   UNL     1      36.030  10.348  40.798  1.00  0.00     0.000 G0
ENDBRANCH  13  17
ENDBRANCH  11  13
ENDBRANCH  10  11
ENDBRANCH   1  10
TORSDOF 0
ENDMDL
MODEL 2
REMARK VINA RESULT:    19.038      1.806      3.343
REMARK INTER + INTRA:          27.632
REMARK INTER:                  25.005
REMARK INTRA:                   2.627
REMARK UNBOUND:                 0.803
REMARK SMILES CC1=CCC(=C(C)C)C(=O)CC(C)=CCC1
REMARK SMILES IDX 12 1 14 2 13 3 15 4 16 5 2 6 1 7 3 8 11 10 9 11 10 12 5 13
REMARK SMILES IDX 6 14 7 15 8 16 4 17
REMARK H PARENT
REMARK Flexibility Score: 60.00
ROOT
ATOM      1  C   UNL     1      35.097  10.183  40.318  1.00  0.00    -0.070 C 
ATOM      2  C   UNL     1      33.870   9.706  40.000  1.00  0.00    -0.027 C 
ATOM      3  C   UNL     1      36.263   9.772  39.456  1.00  0.00     0.039 C 
ENDROOT
BRANCH   2   4
ATOM      4  C   UNL     1      32.582  10.129  40.659  1.00  0.00     0.032 C 
BRANCH   4   5
ATOM      5  C   UNL     1      32.569  11.650  40.845  1.00  0.00     0.034 C 
BRANCH   5   6
ATOM      6  C   UNL     1      32.943  12.392  39.578  1.00  0.00    -0.077 C 
ATOM      7  C   UNL     1      32.533  11.806  38.249  1.00  0.00     0.039 C 
ATOM      8  C   UNL     1      33.691  13.524  39.563  1.00  0.00    -0.023 CG0
ATOM      9  G   UNL     1      34.169  14.328  40.759  1.00  0.00     0.000 G0
ENDBRANCH   5   6
ENDBRANCH   4   5
ENDBRANCH   2   4
BRANCH   1  10
ATOM     10  C   UNL     1      35.356  11.090  41.504  1.00  0.00     0.111 C 
BRANCH  10  11
ATOM     11  C   UNL     1      35.924  12.423  41.080  1.00  0.00     0.163 C 
ATOM     12  O   UNL     1      36.931  12.403  40.320  1.00  0.00    -0.294 OA
BRANCH  11  13
ATOM     13  C   UNL     1      35.374  13.746  41.528  1.00  0.00    -0.002 C 
ATOM     14  C   UNL     1      35.826  14.334  42.679  1.00  0.00    -0.069 C 
ATOM     15  C   UNL     1      35.143  15.539  43.286  1.00  0.00     0.039 C 
ATOM     16  C   UNL     1      37.069  13.838  43.383  1.00  0.00     0.039 C 
BRANCH  13  17
ATOM     17  C   UNL     1      34.182  14.315  40.767  1.00  0.00     0.066 CG0
ATOM     18  G   UNL     1      33.705  13.521  39.564  1.00  0.00     0.000 G0
ENDBRANCH  13  17
ENDBRANCH  11  13
ENDBRANCH  10  11
ENDBRANCH   1  10
TORSDOF 0
ENDMDL
MODEL 3
REMARK VINA RESULT:    20.269      1.608      2.914
REMARK INTER + INTRA:          29.367
REMARK INTER:                  27.975
REMARK INTRA:                   1.392
REMARK UNBOUND:                 0.803
REMARK SMILES CC1=CCC(=C(C)C)C(=O)CC(C)=CCC1
REMARK SMILES IDX 12 1 14 2 13 3 15 4 16 5 2 6 1 7 3 8 11 10 9 11 10 12 5 13
REMARK SMILES IDX 6 14 7 15 8 16 4 17
REMARK H PARENT
REMARK Flexibility Score: 60.00
ROOT
ATOM      1  C   UNL     1      35.619  11.699  39.627  1.00  0.00    -0.070 C 
ATOM      2  C   UNL     1      35.072  10.465  39.726  1.00  0.00    -0.027 C 
ATOM      3  C   UNL     1      37.121  11.815  39.680  1.00  0.00     0.039 C 
ENDROOT
BRANCH   2   4
ATOM      4  C   UNL     1      33.608  10.152  39.545  1.00  0.00     0.032 C 
BRANCH   4   5
ATOM      5  C   UNL     1      33.010   9.681  40.875  1.00  0.00     0.034 C 
BRANCH   5   6
ATOM      6  C   UNL     1      32.335  10.805  41.637  1.00  0.00    -0.077 C 
ATOM      7  C   UNL     1      30.828  10.877  41.634  1.00  0.00     0.039 C 
ATOM      8  C   UNL     1      33.013  11.798  42.266  1.00  0.00    -0.023 CG0
ATOM      9  G   UNL     1      34.515  11.912  42.455  1.00  0.00     0.000 G0
ENDBRANCH   5   6
ENDBRANCH   4   5
ENDBRANCH   2   4
BRANCH   1  10
ATOM     10  C   UNL     1      34.798  12.965  39.487  1.00  0.00     0.111 C 
BRANCH  10  11
ATOM     11  C   UNL     1      34.879  13.829  40.723  1.00  0.00     0.163 C 
ATOM     12  O   UNL     1      34.741  15.073  40.564  1.00  0.00    -0.294 OA
BRANCH  11  13
ATOM     13  C   UNL     1      35.131  13.292  42.102  1.00  0.00    -0.002 C 
ATOM     14  C   UNL     1      36.012  13.919  42.941  1.00  0.00    -0.069 C 
ATOM     15  C   UNL     1      36.469  13.290  44.239  1.00  0.00     0.039 C 
ATOM     16  C   UNL     1      36.541  15.303  42.641  1.00  0.00     0.039 C 
BRANCH  13  17
ATOM     17  C   UNL     1      34.522  11.942  42.462  1.00  0.00     0.066 CG0
ATOM     18  G   UNL     1      33.023  11.802  42.266  1.00  0.00     0.000 G0
ENDBRANCH  13  17
ENDBRANCH  11  13
ENDBRANCH  10  11
ENDBRANCH   1  10
TORSDOF 0
ENDMDL
