MODEL 1
REMARK VINA RESULT:     9.512      0.000      0.000
REMARK INTER + INTRA:          18.111
REMARK INTER:                  18.410
REMARK INTRA:                  -0.299
REMARK UNBOUND:                -0.299
REMARK SMILES CCCCCCCCCCCCCCCCCC(=O)[O-]
REMARK SMILES IDX 10 1 11 2 12 3 13 4 14 5 15 6 16 7 17 8 18 9 19 10 20 11
REMARK SMILES IDX 9 12 8 13 7 14 6 15 5 16 4 17 3 18 2 19 1 20
REMARK H PARENT
REMARK Flexibility Score: inf
ROOT
ATOM      1  C   UNL     1       9.593 -30.904 -14.608  1.00  0.00     0.000 C 
ENDROOT
BRANCH   1   2
ATOM      2  C   UNL     1       9.498 -32.092 -15.582  1.00  0.00     0.000 C 
BRANCH   2   3
ATOM      3  C   UNL     1       9.275 -31.707 -17.059  1.00  0.00     0.000 C 
BRANCH   3   4
ATOM      4  C   UNL     1       9.736 -30.276 -17.405  1.00  0.00     0.000 C 
BRANCH   4   5
ATOM      5  C   UNL     1       8.906 -29.659 -18.546  1.00  0.00     0.000 C 
BRANCH   5   6
ATOM      6  C   UNL     1       7.673 -28.900 -18.030  1.00  0.00     0.000 C 
BRANCH   6   7
ATOM      7  C   UNL     1       6.477 -29.011 -18.988  1.00  0.00     0.006 C 
BRANCH   7   8
ATOM      8  C   UNL     1       6.606 -28.010 -20.140  1.00  0.00     0.053 C 
BRANCH   8   9
ATOM      9  C   UNL     1       6.761 -28.729 -21.443  1.00  0.00     0.041 C 
ATOM     10  O   UNL     1       7.091 -29.945 -21.463  1.00  0.00    -0.550 OA
ATOM     11  O   UNL     1       6.589 -28.046 -22.639  1.00  0.00    -0.550 OA
ENDBRANCH   8   9
ENDBRANCH   7   8
ENDBRANCH   6   7
ENDBRANCH   5   6
ENDBRANCH   4   5
ENDBRANCH   3   4
ENDBRANCH   2   3
ENDBRANCH   1   2
BRANCH   1  12
ATOM     12  C   UNL     1       8.548 -29.814 -14.898  1.00  0.00     0.000 C 
BRANCH  12  13
ATOM     13  C   UNL     1       7.778 -29.380 -13.640  1.00  0.00    -0.000 C 
BRANCH  13  14
ATOM     14  C   UNL     1       8.471 -29.783 -12.321  1.00  0.00    -0.000 C 
BRANCH  14  15
ATOM     15  C   UNL     1       7.746 -29.214 -11.089  1.00  0.00    -0.000 C 
BRANCH  15  16
ATOM     16  C   UNL     1       8.509 -29.466  -9.778  1.00  0.00    -0.000 C 
BRANCH  16  17
ATOM     17  C   UNL     1      10.028 -29.262  -9.927  1.00  0.00    -0.000 C 
BRANCH  17  18
ATOM     18  C   UNL     1      10.475 -27.828  -9.593  1.00  0.00    -0.000 C 
BRANCH  18  19
ATOM     19  C   UNL     1       9.494 -27.031  -8.713  1.00  0.00    -0.003 C 
ATOM     20  C   UNL     1       8.770 -25.924  -9.478  1.00  0.00     0.004 C 
ENDBRANCH  18  19
ENDBRANCH  17  18
ENDBRANCH  16  17
ENDBRANCH  15  16
ENDBRANCH  14  15
ENDBRANCH  13  14
ENDBRANCH  12  13
ENDBRANCH   1  12
TORSDOF 16
ENDMDL
MODEL 2
REMARK VINA RESULT:     9.892      1.761      2.718
REMARK INTER + INTRA:          18.845
REMARK INTER:                  19.208
REMARK INTRA:                  -0.362
REMARK UNBOUND:                -0.299
REMARK SMILES CCCCCCCCCCCCCCCCCC(=O)[O-]
REMARK SMILES IDX 10 1 11 2 12 3 13 4 14 5 15 6 16 7 17 8 18 9 19 10 20 11
REMARK SMILES IDX 9 12 8 13 7 14 6 15 5 16 4 17 3 18 2 19 1 20
REMARK H PARENT
REMARK Flexibility Score: inf
ROOT
ATOM      1  C   UNL     1       9.589 -30.109 -13.504  1.00  0.00     0.000 C 
ENDROOT
BRANCH   1   2
ATOM      2  C   UNL     1       8.997 -31.126 -14.498  1.00  0.00     0.000 C 
BRANCH   2   3
ATOM      3  C   UNL     1       9.640 -31.115 -15.900  1.00  0.00     0.000 C 
BRANCH   3   4
ATOM      4  C   UNL     1       9.129 -29.979 -16.810  1.00  0.00     0.000 C 
BRANCH   4   5
ATOM      5  C   UNL     1       7.981 -29.187 -16.160  1.00  0.00     0.000 C 
BRANCH   5   6
ATOM      6  C   UNL     1       7.052 -28.540 -17.200  1.00  0.00     0.000 C 
BRANCH   6   7
ATOM      7  C   UNL     1       7.455 -28.889 -18.640  1.00  0.00     0.006 C 
BRANCH   7   8
ATOM      8  C   UNL     1       6.269 -28.725 -19.595  1.00  0.00     0.053 C 
BRANCH   8   9
ATOM      9  C   UNL     1       6.714 -28.886 -21.014  1.00  0.00     0.041 C 
ATOM     10  O   UNL     1       6.067 -28.343 -21.949  1.00  0.00    -0.550 OA
ATOM     11  O   UNL     1       7.815 -29.677 -21.312  1.00  0.00    -0.550 OA
ENDBRANCH   8   9
ENDBRANCH   7   8
ENDBRANCH   6   7
ENDBRANCH   5   6
ENDBRANCH   4   5
ENDBRANCH   3   4
ENDBRANCH   2   3
ENDBRANCH   1   2
BRANCH   1  12
ATOM     12  C   UNL     1       8.801 -30.040 -12.186  1.00  0.00     0.000 C 
BRANCH  12  13
ATOM     13  C   UNL     1       9.695 -29.724 -10.975  1.00  0.00    -0.000 C 
BRANCH  13  14
ATOM     14  C   UNL     1       8.951 -29.007  -9.828  1.00  0.00    -0.000 C 
BRANCH  14  15
ATOM     15  C   UNL     1       9.822 -27.931  -9.157  1.00  0.00    -0.000 C 
BRANCH  15  16
ATOM     16  C   UNL     1       9.076 -26.603  -8.952  1.00  0.00    -0.000 C 
BRANCH  16  17
ATOM     17  C   UNL     1       9.020 -26.175  -7.474  1.00  0.00    -0.000 C 
BRANCH  17  18
ATOM     18  C   UNL     1       8.205 -24.888  -7.254  1.00  0.00    -0.000 C 
BRANCH  18  19
ATOM     19  C   UNL     1       7.876 -24.571  -5.784  1.00  0.00    -0.003 C 
ATOM     20  C   UNL     1       6.375 -24.457  -5.519  1.00  0.00     0.004 C 
ENDBRANCH  18  19
ENDBRANCH  17  18
ENDBRANCH  16  17
ENDBRANCH  15  16
ENDBRANCH  14  15
ENDBRANCH  13  14
ENDBRANCH  12  13
ENDBRANCH   1  12
TORSDOF 16
ENDMDL
MODEL 3
REMARK VINA RESULT:    10.343      4.255      9.347
REMARK INTER + INTRA:          19.719
REMARK INTER:                  20.122
REMARK INTRA:                  -0.404
REMARK UNBOUND:                -0.299
REMARK SMILES CCCCCCCCCCCCCCCCCC(=O)[O-]
REMARK SMILES IDX 10 1 11 2 12 3 13 4 14 5 15 6 16 7 17 8 18 9 19 10 20 11
REMARK SMILES IDX 9 12 8 13 7 14 6 15 5 16 4 17 3 18 2 19 1 20
REMARK H PARENT
REMARK Flexibility Score: inf
ROOT
ATOM      1  C   UNL     1       9.164 -31.730 -15.426  1.00  0.00     0.000 C 
ENDROOT
BRANCH   1   2
ATOM      2  C   UNL     1       9.397 -30.435 -14.626  1.00  0.00     0.000 C 
BRANCH   2   3
ATOM      3  C   UNL     1       8.257 -29.400 -14.716  1.00  0.00     0.000 C 
BRANCH   3   4
ATOM      4  C   UNL     1       7.567 -29.114 -13.366  1.00  0.00     0.000 C 
BRANCH   4   5
ATOM      5  C   UNL     1       8.337 -29.725 -12.181  1.00  0.00     0.000 C 
BRANCH   5   6
ATOM      6  C   UNL     1       7.739 -29.325 -10.823  1.00  0.00     0.000 C 
BRANCH   6   7
ATOM      7  C   UNL     1       8.683 -28.424 -10.012  1.00  0.00     0.006 C 
BRANCH   7   8
ATOM      8  C   UNL     1      10.120 -28.950 -10.066  1.00  0.00     0.053 C 
BRANCH   8   9
ATOM      9  C   UNL     1      10.210 -30.294  -9.415  1.00  0.00     0.041 C 
ATOM     10  O   UNL     1       9.502 -30.562  -8.408  1.00  0.00    -0.550 OA
ATOM     11  O   UNL     1      11.112 -31.237  -9.890  1.00  0.00    -0.550 OA
ENDBRANCH   8   9
ENDBRANCH   7   8
ENDBRANCH   6   7
ENDBRANCH   5   6
ENDBRANCH   4   5
ENDBRANCH   3   4
ENDBRANCH   2   3
ENDBRANCH   1   2
BRANCH   1  12
ATOM     12  C   UNL     1       9.466 -31.564 -16.924  1.00  0.00     0.000 C 
BRANCH  12  13
ATOM     13  C   UNL     1       9.839 -30.120 -17.299  1.00  0.00    -0.000 C 
BRANCH  13  14
ATOM     14  C   UNL     1       8.987 -29.541 -18.448  1.00  0.00    -0.000 C 
BRANCH  14  15
ATOM     15  C   UNL     1       7.558 -29.199 -17.993  1.00  0.00    -0.000 C 
BRANCH  15  16
ATOM     16  C   UNL     1       6.751 -28.455 -19.070  1.00  0.00    -0.000 C 
BRANCH  16  17
ATOM     17  C   UNL     1       6.541 -29.296 -20.342  1.00  0.00    -0.000 C 
BRANCH  17  18
ATOM     18  C   UNL     1       7.208 -28.678 -21.584  1.00  0.00    -0.000 C 
BRANCH  18  19
ATOM     19  C   UNL     1       6.297 -28.564 -22.820  1.00  0.00    -0.003 C 
ATOM     20  C   UNL     1       5.880 -27.125 -23.125  1.00  0.00     0.004 C 
ENDBRANCH  18  19
ENDBRANCH  17  18
ENDBRANCH  16  17
ENDBRANCH  15  16
ENDBRANCH  14  15
ENDBRANCH  13  14
ENDBRANCH  12  13
ENDBRANCH   1  12
TORSDOF 16
ENDMDL
MODEL 4
REMARK VINA RESULT:    10.357      5.416     10.392
REMARK INTER + INTRA:          19.746
REMARK INTER:                  20.118
REMARK INTRA:                  -0.373
REMARK UNBOUND:                -0.299
REMARK SMILES CCCCCCCCCCCCCCCCCC(=O)[O-]
REMARK SMILES IDX 10 1 11 2 12 3 13 4 14 5 15 6 16 7 17 8 18 9 19 10 20 11
REMARK SMILES IDX 9 12 8 13 7 14 6 15 5 16 4 17 3 18 2 19 1 20
REMARK H PARENT
REMARK Flexibility Score: inf
ROOT
ATOM      1  C   UNL     1       9.252 -30.015 -14.281  1.00  0.00     0.000 C 
ENDROOT
BRANCH   1   2
ATOM      2  C   UNL     1       8.439 -30.082 -12.975  1.00  0.00     0.000 C 
BRANCH   2   3
ATOM      3  C   UNL     1       9.224 -29.714 -11.700  1.00  0.00     0.000 C 
BRANCH   3   4
ATOM      4  C   UNL     1       8.329 -29.265 -10.526  1.00  0.00     0.000 C 
BRANCH   4   5
ATOM      5  C   UNL     1       9.152 -28.864  -9.288  1.00  0.00     0.000 C 
BRANCH   5   6
ATOM      6  C   UNL     1       9.456 -27.359  -9.247  1.00  0.00     0.000 C 
BRANCH   6   7
ATOM      7  C   UNL     1       9.446 -26.801  -7.816  1.00  0.00     0.006 C 
BRANCH   7   8
ATOM      8  C   UNL     1       8.436 -25.658  -7.681  1.00  0.00     0.053 C 
BRANCH   8   9
ATOM      9  C   UNL     1       8.363 -25.188  -6.262  1.00  0.00     0.041 C 
ATOM     10  O   UNL     1       7.595 -24.242  -5.944  1.00  0.00    -0.550 OA
ATOM     11  O   UNL     1       9.181 -25.761  -5.298  1.00  0.00    -0.550 OA
ENDBRANCH   8   9
ENDBRANCH   7   8
ENDBRANCH   6   7
ENDBRANCH   5   6
ENDBRANCH   4   5
ENDBRANCH   3   4
ENDBRANCH   2   3
ENDBRANCH   1   2
BRANCH   1  12
ATOM     12  C   UNL     1       8.900 -31.149 -15.257  1.00  0.00     0.000 C 
BRANCH  12  13
ATOM     13  C   UNL     1       9.629 -31.019 -16.606  1.00  0.00    -0.000 C 
BRANCH  13  14
ATOM     14  C   UNL     1       9.204 -29.780 -17.420  1.00  0.00    -0.000 C 
BRANCH  14  15
ATOM     15  C   UNL     1       7.779 -29.316 -17.069  1.00  0.00    -0.000 C 
BRANCH  15  16
ATOM     16  C   UNL     1       7.009 -28.781 -18.287  1.00  0.00    -0.000 C 
BRANCH  16  17
ATOM     17  C   UNL     1       7.674 -29.158 -19.623  1.00  0.00    -0.000 C 
BRANCH  17  18
ATOM     18  C   UNL     1       6.654 -29.399 -20.751  1.00  0.00    -0.000 C 
BRANCH  18  19
ATOM     19  C   UNL     1       6.156 -28.126 -21.459  1.00  0.00    -0.003 C 
ATOM     20  C   UNL     1       6.600 -28.041 -22.919  1.00  0.00     0.004 C 
ENDBRANCH  18  19
ENDBRANCH  17  18
ENDBRANCH  16  17
ENDBRANCH  15  16
ENDBRANCH  14  15
ENDBRANCH  13  14
ENDBRANCH  12  13
ENDBRANCH   1  12
TORSDOF 16
ENDMDL
MODEL 5
REMARK VINA RESULT:    10.811      2.011      3.231
REMARK INTER + INTRA:          20.625
REMARK INTER:                  20.152
REMARK INTRA:                   0.473
REMARK UNBOUND:                -0.299
REMARK SMILES CCCCCCCCCCCCCCCCCC(=O)[O-]
REMARK SMILES IDX 10 1 11 2 12 3 13 4 14 5 15 6 16 7 17 8 18 9 19 10 20 11
REMARK SMILES IDX 9 12 8 13 7 14 6 15 5 16 4 17 3 18 2 19 1 20
REMARK H PARENT
REMARK Flexibility Score: inf
ROOT
ATOM      1  C   UNL     1       8.201 -29.996 -12.595  1.00  0.00     0.000 C 
ENDROOT
BRANCH   1   2
ATOM      2  C   UNL     1       8.771 -29.774 -14.007  1.00  0.00     0.000 C 
BRANCH   2   3
ATOM      3  C   UNL     1       9.608 -30.944 -14.563  1.00  0.00     0.000 C 
BRANCH   3   4
ATOM      4  C   UNL     1       9.291 -31.292 -16.033  1.00  0.00     0.000 C 
BRANCH   4   5
ATOM      5  C   UNL     1       9.723 -30.175 -17.000  1.00  0.00     0.000 C 
BRANCH   5   6
ATOM      6  C   UNL     1       8.738 -29.993 -18.165  1.00  0.00     0.000 C 
BRANCH   6   7
ATOM      7  C   UNL     1       7.725 -28.868 -17.903  1.00  0.00     0.006 C 
BRANCH   7   8
ATOM      8  C   UNL     1       6.576 -28.920 -18.913  1.00  0.00     0.053 C 
BRANCH   8   9
ATOM      9  C   UNL     1       7.110 -28.996 -20.309  1.00  0.00     0.041 C 
ATOM     10  O   UNL     1       8.206 -29.572 -20.540  1.00  0.00    -0.550 OA
ATOM     11  O   UNL     1       6.422 -28.387 -21.350  1.00  0.00    -0.550 OA
ENDBRANCH   8   9
ENDBRANCH   7   8
ENDBRANCH   6   7
ENDBRANCH   5   6
ENDBRANCH   4   5
ENDBRANCH   3   4
ENDBRANCH   2   3
ENDBRANCH   1   2
BRANCH   1  12
ATOM     12  C   UNL     1       9.237 -29.741 -11.489  1.00  0.00     0.000 C 
BRANCH  12  13
ATOM     13  C   UNL     1       8.601 -29.235 -10.183  1.00  0.00    -0.000 C 
BRANCH  13  14
ATOM     14  C   UNL     1       9.559 -28.392  -9.315  1.00  0.00    -0.000 C 
BRANCH  14  15
ATOM     15  C   UNL     1       9.113 -26.923  -9.221  1.00  0.00    -0.000 C 
BRANCH  15  16
ATOM     16  C   UNL     1       9.185 -26.367  -7.790  1.00  0.00    -0.000 C 
BRANCH  16  17
ATOM     17  C   UNL     1       8.407 -25.049  -7.625  1.00  0.00    -0.000 C 
BRANCH  17  18
ATOM     18  C   UNL     1       8.142 -24.691  -6.151  1.00  0.00    -0.000 C 
BRANCH  18  19
ATOM     19  C   UNL     1       6.698 -24.931  -5.674  1.00  0.00    -0.003 C 
ATOM     20  C   UNL     1       6.032 -23.669  -5.127  1.00  0.00     0.004 C 
ENDBRANCH  18  19
ENDBRANCH  17  18
ENDBRANCH  16  17
ENDBRANCH  15  16
ENDBRANCH  14  15
ENDBRANCH  13  14
ENDBRANCH  12  13
ENDBRANCH   1  12
TORSDOF 16
ENDMDL
MODEL 6
REMARK VINA RESULT:    10.863      1.026      1.949
REMARK INTER + INTRA:          20.726
REMARK INTER:                  20.520
REMARK INTRA:                   0.205
REMARK UNBOUND:                -0.299
REMARK SMILES CCCCCCCCCCCCCCCCCC(=O)[O-]
REMARK SMILES IDX 10 1 11 2 12 3 13 4 14 5 15 6 16 7 17 8 18 9 19 10 20 11
REMARK SMILES IDX 9 12 8 13 7 14 6 15 5 16 4 17 3 18 2 19 1 20
REMARK H PARENT
REMARK Flexibility Score: inf
ROOT
ATOM      1  C   UNL     1       9.276 -32.865 -15.806  1.00  0.00     0.000 C 
ENDROOT
BRANCH   1   2
ATOM      2  C   UNL     1       9.270 -32.110 -17.147  1.00  0.00     0.000 C 
BRANCH   2   3
ATOM      3  C   UNL     1       9.841 -30.678 -17.091  1.00  0.00     0.000 C 
BRANCH   3   4
ATOM      4  C   UNL     1       8.987 -29.638 -17.846  1.00  0.00     0.000 C 
BRANCH   4   5
ATOM      5  C   UNL     1       7.893 -29.027 -16.952  1.00  0.00     0.000 C 
BRANCH   5   6
ATOM      6  C   UNL     1       6.540 -28.915 -17.673  1.00  0.00     0.000 C 
BRANCH   6   7
ATOM      7  C   UNL     1       6.647 -28.147 -18.999  1.00  0.00     0.006 C 
BRANCH   7   8
ATOM      8  C   UNL     1       6.083 -28.975 -20.157  1.00  0.00     0.053 C 
BRANCH   8   9
ATOM      9  C   UNL     1       7.022 -28.953 -21.322  1.00  0.00     0.041 C 
ATOM     10  O   UNL     1       8.151 -29.508 -21.240  1.00  0.00    -0.550 OA
ATOM     11  O   UNL     1       6.673 -28.277 -22.483  1.00  0.00    -0.550 OA
ENDBRANCH   8   9
ENDBRANCH   7   8
ENDBRANCH   6   7
ENDBRANCH   5   6
ENDBRANCH   4   5
ENDBRANCH   3   4
ENDBRANCH   2   3
ENDBRANCH   1   2
BRANCH   1  12
ATOM     12  C   UNL     1       8.702 -32.028 -14.651  1.00  0.00     0.000 C 
BRANCH  12  13
ATOM     13  C   UNL     1       9.338 -30.631 -14.557  1.00  0.00    -0.000 C 
BRANCH  13  14
ATOM     14  C   UNL     1       8.484 -29.615 -13.770  1.00  0.00    -0.000 C 
BRANCH  14  15
ATOM     15  C   UNL     1       8.086 -30.146 -12.382  1.00  0.00    -0.000 C 
BRANCH  15  16
ATOM     16  C   UNL     1       7.766 -29.023 -11.383  1.00  0.00    -0.000 C 
BRANCH  16  17
ATOM     17  C   UNL     1       8.299 -29.317  -9.969  1.00  0.00    -0.000 C 
BRANCH  17  18
ATOM     18  C   UNL     1       9.534 -28.473  -9.607  1.00  0.00    -0.000 C 
BRANCH  18  19
ATOM     19  C   UNL     1      10.873 -29.026 -10.129  1.00  0.00    -0.003 C 
ATOM     20  C   UNL     1      10.939 -30.553 -10.105  1.00  0.00     0.004 C 
ENDBRANCH  18  19
ENDBRANCH  17  18
ENDBRANCH  16  17
ENDBRANCH  15  16
ENDBRANCH  14  15
ENDBRANCH  13  14
ENDBRANCH  12  13
ENDBRANCH   1  12
TORSDOF 16
ENDMDL
MODEL 7
REMARK VINA RESULT:    10.982      4.230      9.216
REMARK INTER + INTRA:          20.955
REMARK INTER:                  20.946
REMARK INTRA:                   0.009
REMARK UNBOUND:                -0.299
REMARK SMILES CCCCCCCCCCCCCCCCCC(=O)[O-]
REMARK SMILES IDX 10 1 11 2 12 3 13 4 14 5 15 6 16 7 17 8 18 9 19 10 20 11
REMARK SMILES IDX 9 12 8 13 7 14 6 15 5 16 4 17 3 18 2 19 1 20
REMARK H PARENT
REMARK Flexibility Score: inf
ROOT
ATOM      1  C   UNL     1       9.485 -32.017 -15.423  1.00  0.00     0.000 C 
ENDROOT
BRANCH   1   2
ATOM      2  C   UNL     1       9.558 -30.690 -14.646  1.00  0.00     0.000 C 
BRANCH   2   3
ATOM      3  C   UNL     1       8.413 -29.699 -14.939  1.00  0.00     0.000 C 
BRANCH   3   4
ATOM      4  C   UNL     1       7.819 -29.044 -13.675  1.00  0.00     0.000 C 
BRANCH   4   5
ATOM      5  C   UNL     1       7.902 -29.969 -12.447  1.00  0.00     0.000 C 
BRANCH   5   6
ATOM      6  C   UNL     1       8.003 -29.187 -11.128  1.00  0.00     0.000 C 
BRANCH   6   7
ATOM      7  C   UNL     1       9.126 -29.714 -10.222  1.00  0.00     0.006 C 
BRANCH   7   8
ATOM      8  C   UNL     1       9.244 -28.868  -8.951  1.00  0.00     0.053 C 
BRANCH   8   9
ATOM      9  C   UNL     1       9.737 -27.494  -9.281  1.00  0.00     0.041 C 
ATOM     10  O   UNL     1      10.932 -27.315  -9.637  1.00  0.00    -0.550 OA
ATOM     11  O   UNL     1       8.890 -26.402  -9.150  1.00  0.00    -0.550 OA
ENDBRANCH   8   9
ENDBRANCH   7   8
ENDBRANCH   6   7
ENDBRANCH   5   6
ENDBRANCH   4   5
ENDBRANCH   3   4
ENDBRANCH   2   3
ENDBRANCH   1   2
BRANCH   1  12
ATOM     12  C   UNL     1       9.276 -31.810 -16.932  1.00  0.00     0.000 C 
BRANCH  12  13
ATOM     13  C   UNL     1       9.815 -30.457 -17.426  1.00  0.00    -0.000 C 
BRANCH  13  14
ATOM     14  C   UNL     1       8.885 -29.754 -18.437  1.00  0.00    -0.000 C 
BRANCH  14  15
ATOM     15  C   UNL     1       7.704 -29.050 -17.745  1.00  0.00    -0.000 C 
BRANCH  15  16
ATOM     16  C   UNL     1       6.436 -29.018 -18.614  1.00  0.00    -0.000 C 
BRANCH  16  17
ATOM     17  C   UNL     1       6.625 -28.211 -19.911  1.00  0.00    -0.000 C 
BRANCH  17  18
ATOM     18  C   UNL     1       6.422 -29.059 -21.178  1.00  0.00    -0.000 C 
BRANCH  18  19
ATOM     19  C   UNL     1       6.914 -28.406 -22.483  1.00  0.00    -0.003 C 
ATOM     20  C   UNL     1       5.875 -27.481 -23.116  1.00  0.00     0.004 C 
ENDBRANCH  18  19
ENDBRANCH  17  18
ENDBRANCH  16  17
ENDBRANCH  15  16
ENDBRANCH  14  15
ENDBRANCH  13  14
ENDBRANCH  12  13
ENDBRANCH   1  12
TORSDOF 16
ENDMDL
MODEL 8
REMARK VINA RESULT:    11.164      1.147      2.013
REMARK INTER + INTRA:          21.307
REMARK INTER:                  20.788
REMARK INTRA:                   0.519
REMARK UNBOUND:                -0.299
REMARK SMILES CCCCCCCCCCCCCCCCCC(=O)[O-]
REMARK SMILES IDX 10 1 11 2 12 3 13 4 14 5 15 6 16 7 17 8 18 9 19 10 20 11
REMARK SMILES IDX 9 12 8 13 7 14 6 15 5 16 4 17 3 18 2 19 1 20
REMARK H PARENT
REMARK Flexibility Score: inf
ROOT
ATOM      1  C   UNL     1       8.780 -30.185 -14.319  1.00  0.00     0.000 C 
ENDROOT
BRANCH   1   2
ATOM      2  C   UNL     1       9.685 -31.221 -15.009  1.00  0.00     0.000 C 
BRANCH   2   3
ATOM      3  C   UNL     1       9.516 -31.318 -16.539  1.00  0.00     0.000 C 
BRANCH   3   4
ATOM      4  C   UNL     1       9.166 -29.975 -17.213  1.00  0.00     0.000 C 
BRANCH   4   5
ATOM      5  C   UNL     1       8.007 -29.254 -16.501  1.00  0.00     0.000 C 
BRANCH   5   6
ATOM      6  C   UNL     1       7.029 -28.597 -17.488  1.00  0.00     0.000 C 
BRANCH   6   7
ATOM      7  C   UNL     1       7.379 -28.908 -18.951  1.00  0.00     0.006 C 
BRANCH   7   8
ATOM      8  C   UNL     1       6.255 -28.462 -19.889  1.00  0.00     0.053 C 
BRANCH   8   9
ATOM      9  C   UNL     1       6.603 -28.775 -21.310  1.00  0.00     0.041 C 
ATOM     10  O   UNL     1       6.033 -28.167 -22.254  1.00  0.00    -0.550 OA
ATOM     11  O   UNL     1       7.524 -29.775 -21.595  1.00  0.00    -0.550 OA
ENDBRANCH   8   9
ENDBRANCH   7   8
ENDBRANCH   6   7
ENDBRANCH   5   6
ENDBRANCH   4   5
ENDBRANCH   3   4
ENDBRANCH   2   3
ENDBRANCH   1   2
BRANCH   1  12
ATOM     12  C   UNL     1       8.806 -30.301 -12.786  1.00  0.00     0.000 C 
BRANCH  12  13
ATOM     13  C   UNL     1      10.170 -29.926 -12.185  1.00  0.00    -0.000 C 
BRANCH  13  14
ATOM     14  C   UNL     1      10.237 -30.094 -10.652  1.00  0.00    -0.000 C 
BRANCH  14  15
ATOM     15  C   UNL     1       9.217 -29.199  -9.927  1.00  0.00    -0.000 C 
BRANCH  15  16
ATOM     16  C   UNL     1       9.858 -27.954  -9.294  1.00  0.00    -0.000 C 
BRANCH  16  17
ATOM     17  C   UNL     1       8.853 -26.806  -9.092  1.00  0.00    -0.000 C 
BRANCH  17  18
ATOM     18  C   UNL     1       9.389 -25.449  -9.582  1.00  0.00    -0.000 C 
BRANCH  18  19
ATOM     19  C   UNL     1       8.700 -24.896 -10.843  1.00  0.00    -0.003 C 
ATOM     20  C   UNL     1       9.308 -23.580 -11.327  1.00  0.00     0.004 C 
ENDBRANCH  18  19
ENDBRANCH  17  18
ENDBRANCH  16  17
ENDBRANCH  15  16
ENDBRANCH  14  15
ENDBRANCH  13  14
ENDBRANCH  12  13
ENDBRANCH   1  12
TORSDOF 16
ENDMDL
MODEL 9
REMARK VINA RESULT:    11.195      4.265      9.178
REMARK INTER + INTRA:          21.368
REMARK INTER:                  21.508
REMARK INTRA:                  -0.139
REMARK UNBOUND:                -0.299
REMARK SMILES CCCCCCCCCCCCCCCCCC(=O)[O-]
REMARK SMILES IDX 10 1 11 2 12 3 13 4 14 5 15 6 16 7 17 8 18 9 19 10 20 11
REMARK SMILES IDX 9 12 8 13 7 14 6 15 5 16 4 17 3 18 2 19 1 20
REMARK H PARENT
REMARK Flexibility Score: inf
ROOT
ATOM      1  C   UNL     1       9.938 -30.385 -17.196  1.00  0.00     0.000 C 
ENDROOT
BRANCH   1   2
ATOM      2  C   UNL     1       9.266 -31.644 -16.619  1.00  0.00     0.000 C 
BRANCH   2   3
ATOM      3  C   UNL     1       9.280 -31.742 -15.080  1.00  0.00     0.000 C 
BRANCH   3   4
ATOM      4  C   UNL     1       9.503 -30.389 -14.372  1.00  0.00     0.000 C 
BRANCH   4   5
ATOM      5  C   UNL     1       8.344 -30.032 -13.423  1.00  0.00     0.000 C 
BRANCH   5   6
ATOM      6  C   UNL     1       8.834 -29.406 -12.108  1.00  0.00     0.000 C 
BRANCH   6   7
ATOM      7  C   UNL     1       7.762 -29.445 -11.009  1.00  0.00     0.006 C 
BRANCH   7   8
ATOM      8  C   UNL     1       8.402 -29.603  -9.627  1.00  0.00     0.053 C 
BRANCH   8   9
ATOM      9  C   UNL     1       9.853 -29.241  -9.678  1.00  0.00     0.041 C 
ATOM     10  O   UNL     1      10.732 -30.143  -9.724  1.00  0.00    -0.550 OA
ATOM     11  O   UNL     1      10.240 -27.909  -9.626  1.00  0.00    -0.550 OA
ENDBRANCH   8   9
ENDBRANCH   7   8
ENDBRANCH   6   7
ENDBRANCH   5   6
ENDBRANCH   4   5
ENDBRANCH   3   4
ENDBRANCH   2   3
ENDBRANCH   1   2
BRANCH   1  12
ATOM     12  C   UNL     1       8.921 -29.348 -17.701  1.00  0.00     0.000 C 
BRANCH  12  13
ATOM     13  C   UNL     1       7.833 -29.030 -16.662  1.00  0.00    -0.000 C 
BRANCH  13  14
ATOM     14  C   UNL     1       6.519 -28.512 -17.284  1.00  0.00    -0.000 C 
BRANCH  14  15
ATOM     15  C   UNL     1       6.678 -28.174 -18.777  1.00  0.00    -0.000 C 
BRANCH  15  16
ATOM     16  C   UNL     1       6.241 -29.324 -19.698  1.00  0.00    -0.000 C 
BRANCH  16  17
ATOM     17  C   UNL     1       6.904 -29.258 -21.086  1.00  0.00    -0.000 C 
BRANCH  17  18
ATOM     18  C   UNL     1       5.884 -29.143 -22.232  1.00  0.00    -0.000 C 
BRANCH  18  19
ATOM     19  C   UNL     1       5.876 -27.787 -22.961  1.00  0.00    -0.003 C 
ATOM     20  C   UNL     1       7.272 -27.186 -23.121  1.00  0.00     0.004 C 
ENDBRANCH  18  19
ENDBRANCH  17  18
ENDBRANCH  16  17
ENDBRANCH  15  16
ENDBRANCH  14  15
ENDBRANCH  13  14
ENDBRANCH  12  13
ENDBRANCH   1  12
TORSDOF 16
ENDMDL
