MODEL 1
REMARK VINA RESULT:    -1.433      0.000      0.000
REMARK INTER + INTRA:          -1.726
REMARK INTER:                  -1.642
REMARK INTRA:                  -0.084
REMARK UNBOUND:                -0.084
REMARK SMILES COc1cc(C(=O)[O-])ccc1O
REMARK SMILES IDX 5 1 9 2 4 3 10 4 3 5 11 6 6 7 7 8 8 9 2 10 1 11 12 12
REMARK H PARENT 12 13
REMARK Flexibility Score: inf
ROOT
ATOM      1  C   UNL     1     151.228 133.417 143.284  1.00  0.00     0.001 A 
ATOM      2  C   UNL     1     152.562 133.636 143.665  1.00  0.00     0.014 A 
ATOM      3  C   UNL     1     150.265 133.163 144.277  1.00  0.00     0.060 A 
ATOM      4  C   UNL     1     152.926 133.600 145.012  1.00  0.00     0.051 A 
ATOM      5  C   UNL     1     150.628 133.127 145.638  1.00  0.00     0.161 A 
ATOM      6  C   UNL     1     151.969 133.348 145.999  1.00  0.00     0.157 A 
ENDROOT
BRANCH   1   7
ATOM      7  C   UNL     1     150.846 133.455 141.853  1.00  0.00     0.072 C 
ATOM      8  O   UNL     1     149.801 132.877 141.453  1.00  0.00    -0.545 OA
ATOM      9  O   UNL     1     151.638 134.130 140.930  1.00  0.00    -0.545 OA
ENDBRANCH   1   7
BRANCH   5  10
ATOM     10  O   UNL     1     149.689 132.875 146.653  1.00  0.00    -0.493 OA
ATOM     11  C   UNL     1     148.362 133.391 146.671  1.00  0.00     0.278 C 
ENDBRANCH   5  10
BRANCH   6  12
ATOM     12  O   UNL     1     152.372 133.322 147.334  1.00  0.00    -0.504 OA
ATOM     13  H   UNL     1     152.732 132.483 147.772  1.00  0.00     0.293 HD
ENDBRANCH   6  12
TORSDOF 3
ENDMDL
MODEL 2
REMARK VINA RESULT:    -1.269      1.902      2.720
REMARK INTER + INTRA:          -1.538
REMARK INTER:                  -1.442
REMARK INTRA:                  -0.096
REMARK UNBOUND:                -0.084
REMARK SMILES COc1cc(C(=O)[O-])ccc1O
REMARK SMILES IDX 5 1 9 2 4 3 10 4 3 5 11 6 6 7 7 8 8 9 2 10 1 11 12 12
REMARK H PARENT 12 13
REMARK Flexibility Score: inf
ROOT
ATOM      1  C   UNL     1     151.817 134.512 143.348  1.00  0.00     0.001 A 
ATOM      2  C   UNL     1     151.733 133.201 143.842  1.00  0.00     0.014 A 
ATOM      3  C   UNL     1     152.220 135.545 144.215  1.00  0.00     0.060 A 
ATOM      4  C   UNL     1     152.044 132.926 145.174  1.00  0.00     0.051 A 
ATOM      5  C   UNL     1     152.537 135.272 145.561  1.00  0.00     0.161 A 
ATOM      6  C   UNL     1     152.445 133.951 146.035  1.00  0.00     0.157 A 
ENDROOT
BRANCH   1   7
ATOM      7  C   UNL     1     151.486 134.799 141.934  1.00  0.00     0.072 C 
ATOM      8  O   UNL     1     152.386 134.804 141.052  1.00  0.00    -0.545 OA
ATOM      9  O   UNL     1     150.174 135.069 141.558  1.00  0.00    -0.545 OA
ENDBRANCH   1   7
BRANCH   5  10
ATOM     10  O   UNL     1     152.942 136.282 146.450  1.00  0.00    -0.493 OA
ATOM     11  C   UNL     1     152.055 137.159 147.136  1.00  0.00     0.278 C 
ENDBRANCH   5  10
BRANCH   6  12
ATOM     12  O   UNL     1     152.749 133.637 147.360  1.00  0.00    -0.504 OA
ATOM     13  H   UNL     1     153.522 134.066 147.852  1.00  0.00     0.293 HD
ENDBRANCH   6  12
TORSDOF 3
ENDMDL
MODEL 3
REMARK VINA RESULT:    -1.242      2.341      4.924
REMARK INTER + INTRA:          -1.508
REMARK INTER:                  -1.410
REMARK INTRA:                  -0.098
REMARK UNBOUND:                -0.084
REMARK SMILES COc1cc(C(=O)[O-])ccc1O
REMARK SMILES IDX 5 1 9 2 4 3 10 4 3 5 11 6 6 7 7 8 8 9 2 10 1 11 12 12
REMARK H PARENT 12 13
REMARK Flexibility Score: inf
ROOT
ATOM      1  C   UNL     1     152.167 134.062 146.132  1.00  0.00     0.001 A 
ATOM      2  C   UNL     1     152.205 133.106 145.104  1.00  0.00     0.014 A 
ATOM      3  C   UNL     1     152.454 135.405 145.829  1.00  0.00     0.060 A 
ATOM      4  C   UNL     1     152.524 133.485 143.799  1.00  0.00     0.051 A 
ATOM      5  C   UNL     1     152.775 135.793 144.513  1.00  0.00     0.161 A 
ATOM      6  C   UNL     1     152.808 134.820 143.497  1.00  0.00     0.157 A 
ENDROOT
BRANCH   1   7
ATOM      7  C   UNL     1     151.828 133.654 147.515  1.00  0.00     0.072 C 
ATOM      8  O   UNL     1     150.711 133.134 147.775  1.00  0.00    -0.545 OA
ATOM      9  O   UNL     1     152.741 133.842 148.548  1.00  0.00    -0.545 OA
ENDBRANCH   1   7
BRANCH   5  10
ATOM     10  O   UNL     1     153.066 137.127 144.179  1.00  0.00    -0.493 OA
ATOM     11  C   UNL     1     152.087 138.138 143.964  1.00  0.00     0.278 C 
ENDBRANCH   5  10
BRANCH   6  12
ATOM     12  O   UNL     1     153.122 135.160 142.181  1.00  0.00    -0.504 OA
ATOM     13  H   UNL     1     153.921 134.769 141.699  1.00  0.00     0.293 HD
ENDBRANCH   6  12
TORSDOF 3
ENDMDL
MODEL 4
REMARK VINA RESULT:    -1.234      1.125      4.290
REMARK INTER + INTRA:          -1.498
REMARK INTER:                  -1.397
REMARK INTRA:                  -0.102
REMARK UNBOUND:                -0.084
REMARK SMILES COc1cc(C(=O)[O-])ccc1O
REMARK SMILES IDX 5 1 9 2 4 3 10 4 3 5 11 6 6 7 7 8 8 9 2 10 1 11 12 12
REMARK H PARENT 12 13
REMARK Flexibility Score: inf
ROOT
ATOM      1  C   UNL     1     151.277 133.474 145.594  1.00  0.00     0.001 A 
ATOM      2  C   UNL     1     152.588 133.700 145.148  1.00  0.00     0.014 A 
ATOM      3  C   UNL     1     150.271 133.198 144.649  1.00  0.00     0.060 A 
ATOM      4  C   UNL     1     152.889 133.653 143.785  1.00  0.00     0.051 A 
ATOM      5  C   UNL     1     150.570 133.149 143.273  1.00  0.00     0.161 A 
ATOM      6  C   UNL     1     151.890 133.379 142.847  1.00  0.00     0.157 A 
ENDROOT
BRANCH   1   7
ATOM      7  C   UNL     1     150.962 133.525 147.040  1.00  0.00     0.072 C 
ATOM      8  O   UNL     1     151.869 133.364 147.899  1.00  0.00    -0.545 OA
ATOM      9  O   UNL     1     149.659 133.752 147.470  1.00  0.00    -0.545 OA
ENDBRANCH   1   7
BRANCH   5  10
ATOM     10  O   UNL     1     149.587 132.875 142.307  1.00  0.00    -0.493 OA
ATOM     11  C   UNL     1     148.600 133.805 141.872  1.00  0.00     0.278 C 
ENDBRANCH   5  10
BRANCH   6  12
ATOM     12  O   UNL     1     152.230 133.339 141.495  1.00  0.00    -0.504 OA
ATOM     13  H   UNL     1     151.533 133.389 140.762  1.00  0.00     0.293 HD
ENDBRANCH   6  12
TORSDOF 3
ENDMDL
MODEL 5
REMARK VINA RESULT:    -1.174      1.455      1.755
REMARK INTER + INTRA:          -1.431
REMARK INTER:                  -1.331
REMARK INTRA:                  -0.100
REMARK UNBOUND:                -0.084
REMARK SMILES COc1cc(C(=O)[O-])ccc1O
REMARK SMILES IDX 5 1 9 2 4 3 10 4 3 5 11 6 6 7 7 8 8 9 2 10 1 11 12 12
REMARK H PARENT 12 13
REMARK Flexibility Score: inf
ROOT
ATOM      1  C   UNL     1     149.651 133.449 143.460  1.00  0.00     0.001 A 
ATOM      2  C   UNL     1     150.984 133.246 143.070  1.00  0.00     0.014 A 
ATOM      3  C   UNL     1     149.361 133.656 144.821  1.00  0.00     0.060 A 
ATOM      4  C   UNL     1     152.006 133.249 144.020  1.00  0.00     0.051 A 
ATOM      5  C   UNL     1     150.389 133.660 145.784  1.00  0.00     0.161 A 
ATOM      6  C   UNL     1     151.718 133.455 145.372  1.00  0.00     0.157 A 
ENDROOT
BRANCH   1   7
ATOM      7  C   UNL     1     148.570 133.445 142.449  1.00  0.00     0.072 C 
ATOM      8  O   UNL     1     147.438 132.963 142.722  1.00  0.00    -0.545 OA
ATOM      9  O   UNL     1     148.789 133.974 141.181  1.00  0.00    -0.545 OA
ENDBRANCH   1   7
BRANCH   5  10
ATOM     10  O   UNL     1     150.130 133.864 147.150  1.00  0.00    -0.493 OA
ATOM     11  C   UNL     1     149.607 132.875 148.030  1.00  0.00     0.278 C 
ENDBRANCH   5  10
BRANCH   6  12
ATOM     12  O   UNL     1     152.767 133.451 146.292  1.00  0.00    -0.504 OA
ATOM     13  H   UNL     1     152.609 133.388 147.290  1.00  0.00     0.293 HD
ENDBRANCH   6  12
TORSDOF 3
ENDMDL
MODEL 6
REMARK VINA RESULT:    -1.168      1.882      2.159
REMARK INTER + INTRA:          -1.423
REMARK INTER:                  -1.321
REMARK INTRA:                  -0.103
REMARK UNBOUND:                -0.084
REMARK SMILES COc1cc(C(=O)[O-])ccc1O
REMARK SMILES IDX 5 1 9 2 4 3 10 4 3 5 11 6 6 7 7 8 8 9 2 10 1 11 12 12
REMARK H PARENT 12 13
REMARK Flexibility Score: inf
ROOT
ATOM      1  C   UNL     1     150.132 133.914 143.824  1.00  0.00     0.001 A 
ATOM      2  C   UNL     1     151.162 132.960 143.869  1.00  0.00     0.014 A 
ATOM      3  C   UNL     1     149.956 134.783 144.916  1.00  0.00     0.060 A 
ATOM      4  C   UNL     1     151.998 132.876 144.984  1.00  0.00     0.051 A 
ATOM      5  C   UNL     1     150.799 134.703 146.043  1.00  0.00     0.161 A 
ATOM      6  C   UNL     1     151.824 133.740 146.068  1.00  0.00     0.157 A 
ENDROOT
BRANCH   1   7
ATOM      7  C   UNL     1     149.247 133.999 142.640  1.00  0.00     0.072 C 
ATOM      8  O   UNL     1     148.126 134.569 142.717  1.00  0.00    -0.545 OA
ATOM      9  O   UNL     1     149.642 133.450 141.424  1.00  0.00    -0.545 OA
ENDBRANCH   1   7
BRANCH   5  10
ATOM     10  O   UNL     1     150.647 135.557 147.148  1.00  0.00    -0.493 OA
ATOM     11  C   UNL     1     151.172 136.878 147.226  1.00  0.00     0.278 C 
ENDBRANCH   5  10
BRANCH   6  12
ATOM     12  O   UNL     1     152.680 133.625 147.164  1.00  0.00    -0.504 OA
ATOM     13  H   UNL     1     152.976 134.429 147.703  1.00  0.00     0.293 HD
ENDBRANCH   6  12
TORSDOF 3
ENDMDL
MODEL 7
REMARK VINA RESULT:    -1.153      1.590      1.744
REMARK INTER + INTRA:          -1.406
REMARK INTER:                  -1.330
REMARK INTRA:                  -0.077
REMARK UNBOUND:                -0.084
REMARK SMILES COc1cc(C(=O)[O-])ccc1O
REMARK SMILES IDX 5 1 9 2 4 3 10 4 3 5 11 6 6 7 7 8 8 9 2 10 1 11 12 12
REMARK H PARENT 12 13
REMARK Flexibility Score: inf
ROOT
ATOM      1  C   UNL     1     151.200 134.658 142.321  1.00  0.00     0.001 A 
ATOM      2  C   UNL     1     152.500 134.130 142.276  1.00  0.00     0.014 A 
ATOM      3  C   UNL     1     150.536 134.739 143.559  1.00  0.00     0.060 A 
ATOM      4  C   UNL     1     153.124 133.690 143.444  1.00  0.00     0.051 A 
ATOM      5  C   UNL     1     151.162 134.297 144.741  1.00  0.00     0.161 A 
ATOM      6  C   UNL     1     152.465 133.770 144.674  1.00  0.00     0.157 A 
ENDROOT
BRANCH   1   7
ATOM      7  C   UNL     1     150.541 135.123 141.079  1.00  0.00     0.072 C 
ATOM      8  O   UNL     1     150.069 134.296 140.254  1.00  0.00    -0.545 OA
ATOM      9  O   UNL     1     150.434 136.482 140.804  1.00  0.00    -0.545 OA
ENDBRANCH   1   7
BRANCH   5  10
ATOM     10  O   UNL     1     150.525 134.365 145.992  1.00  0.00    -0.493 OA
ATOM     11  C   UNL     1     149.129 134.176 146.199  1.00  0.00     0.278 C 
ENDBRANCH   5  10
BRANCH   6  12
ATOM     12  O   UNL     1     153.122 133.321 145.820  1.00  0.00    -0.504 OA
ATOM     13  H   UNL     1     153.541 132.401 145.876  1.00  0.00     0.293 HD
ENDBRANCH   6  12
TORSDOF 3
ENDMDL
MODEL 8
REMARK VINA RESULT:    -1.066      2.262      3.751
REMARK INTER + INTRA:          -1.307
REMARK INTER:                  -1.212
REMARK INTRA:                  -0.094
REMARK UNBOUND:                -0.084
REMARK SMILES COc1cc(C(=O)[O-])ccc1O
REMARK SMILES IDX 5 1 9 2 4 3 10 4 3 5 11 6 6 7 7 8 8 9 2 10 1 11 12 12
REMARK H PARENT 12 13
REMARK Flexibility Score: inf
ROOT
ATOM      1  C   UNL     1     149.244 133.355 145.865  1.00  0.00     0.001 A 
ATOM      2  C   UNL     1     149.306 133.217 147.260  1.00  0.00     0.014 A 
ATOM      3  C   UNL     1     150.430 133.594 145.147  1.00  0.00     0.060 A 
ATOM      4  C   UNL     1     150.528 133.316 147.926  1.00  0.00     0.051 A 
ATOM      5  C   UNL     1     151.667 133.694 145.815  1.00  0.00     0.161 A 
ATOM      6  C   UNL     1     151.707 133.553 147.213  1.00  0.00     0.157 A 
ENDROOT
BRANCH   1   7
ATOM      7  C   UNL     1     147.944 133.250 145.163  1.00  0.00     0.072 C 
ATOM      8  O   UNL     1     146.864 133.450 145.780  1.00  0.00    -0.545 OA
ATOM      9  O   UNL     1     147.897 132.927 143.811  1.00  0.00    -0.545 OA
ENDBRANCH   1   7
BRANCH   5  10
ATOM     10  O   UNL     1     152.868 133.932 145.125  1.00  0.00    -0.493 OA
ATOM     11  C   UNL     1     153.125 135.079 144.322  1.00  0.00     0.278 C 
ENDBRANCH   5  10
BRANCH   6  12
ATOM     12  O   UNL     1     152.910 133.645 147.914  1.00  0.00    -0.504 OA
ATOM     13  H   UNL     1     153.139 134.446 148.489  1.00  0.00     0.293 HD
ENDBRANCH   6  12
TORSDOF 3
ENDMDL
