MODEL 1
REMARK VINA RESULT:    -3.843      0.000      0.000
REMARK INTER + INTRA:          -8.362
REMARK INTER:                  -6.540
REMARK INTRA:                  -1.822
REMARK UNBOUND:                -1.822
REMARK SMILES CCCCCCCCCCCCCC(=O)[O-]
REMARK SMILES IDX 8 1 9 2 10 3 11 4 12 5 13 6 14 7 15 8 16 9 7 10 6 11 5 12
REMARK SMILES IDX 4 13 3 14 2 15 1 16
REMARK H PARENT
REMARK Flexibility Score: inf
ROOT
ATOM      1  C   UNL     1       5.866  36.120  -1.823  1.00  0.00     0.000 C 
ENDROOT
BRANCH   1   2
ATOM      2  C   UNL     1       6.964  35.412  -2.634  1.00  0.00     0.000 C 
BRANCH   2   3
ATOM      3  C   UNL     1       6.703  33.904  -2.809  1.00  0.00     0.000 C 
BRANCH   3   4
ATOM      4  C   UNL     1       7.946  33.005  -2.681  1.00  0.00     0.000 C 
BRANCH   4   5
ATOM      5  C   UNL     1       8.784  33.314  -1.430  1.00  0.00     0.006 C 
BRANCH   5   6
ATOM      6  C   UNL     1      10.274  33.019  -1.643  1.00  0.00     0.053 C 
BRANCH   6   7
ATOM      7  C   UNL     1      10.632  31.627  -1.223  1.00  0.00     0.041 C 
ATOM      8  O   UNL     1      11.548  31.001  -1.818  1.00  0.00    -0.550 OA
ATOM      9  O   UNL     1       9.972  31.031  -0.156  1.00  0.00    -0.550 OA
ENDBRANCH   6   7
ENDBRANCH   5   6
ENDBRANCH   4   5
ENDBRANCH   3   4
ENDBRANCH   2   3
ENDBRANCH   1   2
BRANCH   1  10
ATOM     10  C   UNL     1       5.339  35.256  -0.665  1.00  0.00     0.000 C 
BRANCH  10  11
ATOM     11  C   UNL     1       5.766  35.793   0.712  1.00  0.00    -0.000 C 
BRANCH  11  12
ATOM     12  C   UNL     1       7.137  35.257   1.156  1.00  0.00    -0.000 C 
BRANCH  12  13
ATOM     13  C   UNL     1       8.258  36.302   1.011  1.00  0.00    -0.000 C 
BRANCH  13  14
ATOM     14  C   UNL     1       9.656  35.703   1.233  1.00  0.00    -0.000 C 
BRANCH  14  15
ATOM     15  C   UNL     1      10.702  36.260   0.255  1.00  0.00    -0.003 C 
ATOM     16  C   UNL     1      10.036  36.836  -0.991  1.00  0.00     0.004 C 
ENDBRANCH  14  15
ENDBRANCH  13  14
ENDBRANCH  12  13
ENDBRANCH  11  12
ENDBRANCH  10  11
ENDBRANCH   1  10
TORSDOF 12
ENDMDL
MODEL 2
REMARK VINA RESULT:    -3.811      1.837      3.137
REMARK INTER + INTRA:          -8.307
REMARK INTER:                  -6.723
REMARK INTRA:                  -1.584
REMARK UNBOUND:                -1.822
REMARK SMILES CCCCCCCCCCCCCC(=O)[O-]
REMARK SMILES IDX 8 1 9 2 10 3 11 4 12 5 13 6 14 7 15 8 16 9 7 10 6 11 5 12
REMARK SMILES IDX 4 13 3 14 2 15 1 16
REMARK H PARENT
REMARK Flexibility Score: inf
ROOT
ATOM      1  C   UNL     1       7.896  36.351   1.002  1.00  0.00     0.000 C 
ENDROOT
BRANCH   1   2
ATOM      2  C   UNL     1       7.114  36.756  -0.259  1.00  0.00     0.000 C 
BRANCH   2   3
ATOM      3  C   UNL     1       7.478  35.903  -1.489  1.00  0.00     0.000 C 
BRANCH   3   4
ATOM      4  C   UNL     1       7.043  34.428  -1.414  1.00  0.00     0.000 C 
BRANCH   4   5
ATOM      5  C   UNL     1       8.160  33.452  -1.822  1.00  0.00     0.006 C 
BRANCH   5   6
ATOM      6  C   UNL     1       9.081  33.102  -0.646  1.00  0.00     0.053 C 
BRANCH   6   7
ATOM      7  C   UNL     1      10.516  33.019  -1.068  1.00  0.00     0.041 C 
ATOM      8  O   UNL     1      11.112  31.911  -1.075  1.00  0.00    -0.550 OA
ATOM      9  O   UNL     1      11.186  34.164  -1.480  1.00  0.00    -0.550 OA
ENDBRANCH   6   7
ENDBRANCH   5   6
ENDBRANCH   4   5
ENDBRANCH   3   4
ENDBRANCH   2   3
ENDBRANCH   1   2
BRANCH   1  10
ATOM     10  C   UNL     1       8.393  37.568   1.803  1.00  0.00     0.000 C 
BRANCH  10  11
ATOM     11  C   UNL     1       9.914  37.540   2.031  1.00  0.00    -0.000 C 
BRANCH  11  12
ATOM     12  C   UNL     1      10.640  36.581   1.072  1.00  0.00    -0.000 C 
BRANCH  12  13
ATOM     13  C   UNL     1      11.526  37.319   0.053  1.00  0.00    -0.000 C 
BRANCH  13  14
ATOM     14  C   UNL     1      10.707  38.107  -0.981  1.00  0.00    -0.000 C 
BRANCH  14  15
ATOM     15  C   UNL     1      11.047  39.605  -0.991  1.00  0.00    -0.003 C 
ATOM     16  C   UNL     1       9.994  40.412  -0.235  1.00  0.00     0.004 C 
ENDBRANCH  14  15
ENDBRANCH  13  14
ENDBRANCH  12  13
ENDBRANCH  11  12
ENDBRANCH  10  11
ENDBRANCH   1  10
TORSDOF 12
ENDMDL
MODEL 3
REMARK VINA RESULT:    -3.795      3.547      5.859
REMARK INTER + INTRA:          -8.280
REMARK INTER:                  -6.484
REMARK INTRA:                  -1.797
REMARK UNBOUND:                -1.822
REMARK SMILES CCCCCCCCCCCCCC(=O)[O-]
REMARK SMILES IDX 8 1 9 2 10 3 11 4 12 5 13 6 14 7 15 8 16 9 7 10 6 11 5 12
REMARK SMILES IDX 4 13 3 14 2 15 1 16
REMARK H PARENT
REMARK Flexibility Score: inf
ROOT
ATOM      1  C   UNL     1       7.964  34.748   0.960  1.00  0.00     0.000 C 
ENDROOT
BRANCH   1   2
ATOM      2  C   UNL     1       8.364  36.205   1.249  1.00  0.00     0.000 C 
BRANCH   2   3
ATOM      3  C   UNL     1       7.682  37.212   0.305  1.00  0.00     0.000 C 
BRANCH   3   4
ATOM      4  C   UNL     1       8.486  37.573  -0.957  1.00  0.00     0.000 C 
BRANCH   4   5
ATOM      5  C   UNL     1      10.004  37.426  -0.764  1.00  0.00     0.006 C 
BRANCH   5   6
ATOM      6  C   UNL     1      10.740  38.763  -0.924  1.00  0.00     0.053 C 
BRANCH   6   7
ATOM      7  C   UNL     1      10.245  39.791   0.046  1.00  0.00     0.041 C 
ATOM      8  O   UNL     1       9.789  40.888  -0.371  1.00  0.00    -0.550 OA
ATOM      9  O   UNL     1      10.262  39.526   1.409  1.00  0.00    -0.550 OA
ENDBRANCH   6   7
ENDBRANCH   5   6
ENDBRANCH   4   5
ENDBRANCH   3   4
ENDBRANCH   2   3
ENDBRANCH   1   2
BRANCH   1  10
ATOM     10  C   UNL     1       9.098  33.946   0.298  1.00  0.00     0.000 C 
BRANCH  10  11
ATOM     11  C   UNL     1       8.641  33.232  -0.987  1.00  0.00    -0.000 C 
BRANCH  11  12
ATOM     12  C   UNL     1       7.910  34.173  -1.958  1.00  0.00    -0.000 C 
BRANCH  12  13
ATOM     13  C   UNL     1       6.868  33.441  -2.823  1.00  0.00    -0.000 C 
BRANCH  13  14
ATOM     14  C   UNL     1       5.424  33.772  -2.414  1.00  0.00    -0.000 C 
BRANCH  14  15
ATOM     15  C   UNL     1       5.242  35.245  -2.018  1.00  0.00    -0.003 C 
ATOM     16  C   UNL     1       4.637  35.367  -0.623  1.00  0.00     0.004 C 
ENDBRANCH  14  15
ENDBRANCH  13  14
ENDBRANCH  12  13
ENDBRANCH  11  12
ENDBRANCH  10  11
ENDBRANCH   1  10
TORSDOF 12
ENDMDL
MODEL 4
REMARK VINA RESULT:    -3.778      1.623      3.925
REMARK INTER + INTRA:          -8.251
REMARK INTER:                  -6.486
REMARK INTRA:                  -1.765
REMARK UNBOUND:                -1.822
REMARK SMILES CCCCCCCCCCCCCC(=O)[O-]
REMARK SMILES IDX 8 1 9 2 10 3 11 4 12 5 13 6 14 7 15 8 16 9 7 10 6 11 5 12
REMARK SMILES IDX 4 13 3 14 2 15 1 16
REMARK H PARENT
REMARK Flexibility Score: inf
ROOT
ATOM      1  C   UNL     1       6.770  34.683  -0.387  1.00  0.00     0.000 C 
ENDROOT
BRANCH   1   2
ATOM      2  C   UNL     1       7.594  35.959  -0.142  1.00  0.00     0.000 C 
BRANCH   2   3
ATOM      3  C   UNL     1       8.435  36.372  -1.364  1.00  0.00     0.000 C 
BRANCH   3   4
ATOM      4  C   UNL     1       9.959  36.331  -1.153  1.00  0.00     0.000 C 
BRANCH   4   5
ATOM      5  C   UNL     1      10.423  35.091  -0.371  1.00  0.00     0.006 C 
BRANCH   5   6
ATOM      6  C   UNL     1      10.996  34.005  -1.292  1.00  0.00     0.053 C 
BRANCH   6   7
ATOM      7  C   UNL     1      10.273  32.703  -1.134  1.00  0.00     0.041 C 
ATOM      8  O   UNL     1       9.506  32.518  -0.153  1.00  0.00    -0.550 OA
ATOM      9  O   UNL     1      10.426  31.703  -2.086  1.00  0.00    -0.550 OA
ENDBRANCH   6   7
ENDBRANCH   5   6
ENDBRANCH   4   5
ENDBRANCH   3   4
ENDBRANCH   2   3
ENDBRANCH   1   2
BRANCH   1  10
ATOM     10  C   UNL     1       6.892  34.171  -1.832  1.00  0.00     0.000 C 
BRANCH  10  11
ATOM     11  C   UNL     1       5.529  34.069  -2.539  1.00  0.00    -0.000 C 
BRANCH  11  12
ATOM     12  C   UNL     1       4.357  34.451  -1.619  1.00  0.00    -0.000 C 
BRANCH  12  13
ATOM     13  C   UNL     1       3.645  35.740  -2.067  1.00  0.00    -0.000 C 
BRANCH  13  14
ATOM     14  C   UNL     1       3.511  36.765  -0.931  1.00  0.00    -0.000 C 
BRANCH  14  15
ATOM     15  C   UNL     1       4.225  38.090  -1.239  1.00  0.00    -0.003 C 
ATOM     16  C   UNL     1       5.269  37.908  -2.337  1.00  0.00     0.004 C 
ENDBRANCH  14  15
ENDBRANCH  13  14
ENDBRANCH  12  13
ENDBRANCH  11  12
ENDBRANCH  10  11
ENDBRANCH   1  10
TORSDOF 12
ENDMDL
MODEL 5
REMARK VINA RESULT:    -3.741      2.472      4.285
REMARK INTER + INTRA:          -8.188
REMARK INTER:                  -6.280
REMARK INTRA:                  -1.908
REMARK UNBOUND:                -1.822
REMARK SMILES CCCCCCCCCCCCCC(=O)[O-]
REMARK SMILES IDX 8 1 9 2 10 3 11 4 12 5 13 6 14 7 15 8 16 9 7 10 6 11 5 12
REMARK SMILES IDX 4 13 3 14 2 15 1 16
REMARK H PARENT
REMARK Flexibility Score: inf
ROOT
ATOM      1  C   UNL     1       8.430  38.205   2.297  1.00  0.00     0.000 C 
ENDROOT
BRANCH   1   2
ATOM      2  C   UNL     1       7.256  37.768   1.405  1.00  0.00     0.000 C 
BRANCH   2   3
ATOM      3  C   UNL     1       7.437  36.352   0.826  1.00  0.00     0.000 C 
BRANCH   3   4
ATOM      4  C   UNL     1       7.322  36.251  -0.705  1.00  0.00     0.000 C 
BRANCH   4   5
ATOM      5  C   UNL     1       8.610  35.741  -1.372  1.00  0.00     0.006 C 
BRANCH   5   6
ATOM      6  C   UNL     1       9.332  34.695  -0.512  1.00  0.00     0.053 C 
BRANCH   6   7
ATOM      7  C   UNL     1       8.962  33.298  -0.907  1.00  0.00     0.041 C 
ATOM      8  O   UNL     1       9.341  32.320  -0.210  1.00  0.00    -0.550 OA
ATOM      9  O   UNL     1       8.174  33.079  -2.030  1.00  0.00    -0.550 OA
ENDBRANCH   6   7
ENDBRANCH   5   6
ENDBRANCH   4   5
ENDBRANCH   3   4
ENDBRANCH   2   3
ENDBRANCH   1   2
BRANCH   1  10
ATOM     10  C   UNL     1       9.686  37.343   2.083  1.00  0.00     0.000 C 
BRANCH  10  11
ATOM     11  C   UNL     1      10.898  38.172   1.624  1.00  0.00    -0.000 C 
BRANCH  11  12
ATOM     12  C   UNL     1      11.294  37.884   0.166  1.00  0.00    -0.000 C 
BRANCH  12  13
ATOM     13  C   UNL     1      10.479  38.711  -0.845  1.00  0.00    -0.000 C 
BRANCH  13  14
ATOM     14  C   UNL     1      11.035  40.131  -1.031  1.00  0.00    -0.000 C 
BRANCH  14  15
ATOM     15  C   UNL     1      10.227  41.190  -0.267  1.00  0.00    -0.003 C 
ATOM     16  C   UNL     1       8.742  40.837  -0.246  1.00  0.00     0.004 C 
ENDBRANCH  14  15
ENDBRANCH  13  14
ENDBRANCH  12  13
ENDBRANCH  11  12
ENDBRANCH  10  11
ENDBRANCH   1  10
TORSDOF 12
ENDMDL
MODEL 6
REMARK VINA RESULT:    -3.735      2.966      5.273
REMARK INTER + INTRA:          -8.177
REMARK INTER:                  -6.332
REMARK INTRA:                  -1.845
REMARK UNBOUND:                -1.822
REMARK SMILES CCCCCCCCCCCCCC(=O)[O-]
REMARK SMILES IDX 8 1 9 2 10 3 11 4 12 5 13 6 14 7 15 8 16 9 7 10 6 11 5 12
REMARK SMILES IDX 4 13 3 14 2 15 1 16
REMARK H PARENT
REMARK Flexibility Score: inf
ROOT
ATOM      1  C   UNL     1       8.498  33.793  -0.842  1.00  0.00     0.000 C 
ENDROOT
BRANCH   1   2
ATOM      2  C   UNL     1      10.000  34.052  -0.633  1.00  0.00     0.000 C 
BRANCH   2   3
ATOM      3  C   UNL     1      10.422  35.480  -1.026  1.00  0.00     0.000 C 
BRANCH   3   4
ATOM      4  C   UNL     1       9.268  36.490  -1.159  1.00  0.00     0.000 C 
BRANCH   4   5
ATOM      5  C   UNL     1       9.675  37.920  -0.766  1.00  0.00     0.006 C 
BRANCH   5   6
ATOM      6  C   UNL     1       8.806  38.479   0.369  1.00  0.00     0.053 C 
BRANCH   6   7
ATOM      7  C   UNL     1       9.402  38.201   1.715  1.00  0.00     0.041 C 
ATOM      8  O   UNL     1       8.675  38.201   2.742  1.00  0.00    -0.550 OA
ATOM      9  O   UNL     1      10.756  37.914   1.830  1.00  0.00    -0.550 OA
ENDBRANCH   6   7
ENDBRANCH   5   6
ENDBRANCH   4   5
ENDBRANCH   3   4
ENDBRANCH   2   3
ENDBRANCH   1   2
BRANCH   1  10
ATOM     10  C   UNL     1       8.208  33.031  -2.147  1.00  0.00     0.000 C 
BRANCH  10  11
ATOM     11  C   UNL     1       7.062  33.665  -2.956  1.00  0.00    -0.000 C 
BRANCH  11  12
ATOM     12  C   UNL     1       5.927  34.189  -2.061  1.00  0.00    -0.000 C 
BRANCH  12  13
ATOM     13  C   UNL     1       5.658  35.691  -2.263  1.00  0.00    -0.000 C 
BRANCH  13  14
ATOM     14  C   UNL     1       5.654  36.473  -0.940  1.00  0.00    -0.000 C 
BRANCH  14  15
ATOM     15  C   UNL     1       5.338  35.586   0.273  1.00  0.00    -0.003 C 
ATOM     16  C   UNL     1       6.430  35.696   1.333  1.00  0.00     0.004 C 
ENDBRANCH  14  15
ENDBRANCH  13  14
ENDBRANCH  12  13
ENDBRANCH  11  12
ENDBRANCH  10  11
ENDBRANCH   1  10
TORSDOF 12
ENDMDL
MODEL 7
REMARK VINA RESULT:    -3.730      1.221      3.593
REMARK INTER + INTRA:          -8.169
REMARK INTER:                  -6.337
REMARK INTRA:                  -1.832
REMARK UNBOUND:                -1.822
REMARK SMILES CCCCCCCCCCCCCC(=O)[O-]
REMARK SMILES IDX 8 1 9 2 10 3 11 4 12 5 13 6 14 7 15 8 16 9 7 10 6 11 5 12
REMARK SMILES IDX 4 13 3 14 2 15 1 16
REMARK H PARENT
REMARK Flexibility Score: inf
ROOT
ATOM      1  C   UNL     1       7.737  36.811   1.063  1.00  0.00     0.000 C 
ENDROOT
BRANCH   1   2
ATOM      2  C   UNL     1       7.422  35.317   1.255  1.00  0.00     0.000 C 
BRANCH   2   3
ATOM      3  C   UNL     1       8.472  34.396   0.608  1.00  0.00     0.000 C 
BRANCH   3   4
ATOM      4  C   UNL     1       9.509  35.107  -0.280  1.00  0.00     0.000 C 
BRANCH   4   5
ATOM      5  C   UNL     1      10.471  34.131  -0.978  1.00  0.00     0.006 C 
BRANCH   5   6
ATOM      6  C   UNL     1       9.735  32.938  -1.600  1.00  0.00     0.053 C 
BRANCH   6   7
ATOM      7  C   UNL     1      10.320  31.631  -1.159  1.00  0.00     0.041 C 
ATOM      8  O   UNL     1       9.910  31.076  -0.106  1.00  0.00    -0.550 OA
ATOM      9  O   UNL     1      11.299  31.013  -1.927  1.00  0.00    -0.550 OA
ENDBRANCH   6   7
ENDBRANCH   5   6
ENDBRANCH   4   5
ENDBRANCH   3   4
ENDBRANCH   2   3
ENDBRANCH   1   2
BRANCH   1  10
ATOM     10  C   UNL     1       6.472  37.687   1.082  1.00  0.00     0.000 C 
BRANCH  10  11
ATOM     11  C   UNL     1       5.596  37.484  -0.166  1.00  0.00    -0.000 C 
BRANCH  11  12
ATOM     12  C   UNL     1       6.400  37.575  -1.474  1.00  0.00    -0.000 C 
BRANCH  12  13
ATOM     13  C   UNL     1       5.872  36.623  -2.563  1.00  0.00    -0.000 C 
BRANCH  13  14
ATOM     14  C   UNL     1       6.833  35.458  -2.845  1.00  0.00    -0.000 C 
BRANCH  14  15
ATOM     15  C   UNL     1       6.298  34.110  -2.337  1.00  0.00    -0.003 C 
ATOM     16  C   UNL     1       4.789  34.170  -2.111  1.00  0.00     0.004 C 
ENDBRANCH  14  15
ENDBRANCH  13  14
ENDBRANCH  12  13
ENDBRANCH  11  12
ENDBRANCH  10  11
ENDBRANCH   1  10
TORSDOF 12
ENDMDL
MODEL 8
REMARK VINA RESULT:    -3.687      3.063      4.981
REMARK INTER + INTRA:          -8.096
REMARK INTER:                  -6.124
REMARK INTRA:                  -1.972
REMARK UNBOUND:                -1.822
REMARK SMILES CCCCCCCCCCCCCC(=O)[O-]
REMARK SMILES IDX 8 1 9 2 10 3 11 4 12 5 13 6 14 7 15 8 16 9 7 10 6 11 5 12
REMARK SMILES IDX 4 13 3 14 2 15 1 16
REMARK H PARENT
REMARK Flexibility Score: inf
ROOT
ATOM      1  C   UNL     1       4.367  36.776  -0.048  1.00  0.00     0.000 C 
ENDROOT
BRANCH   1   2
ATOM      2  C   UNL     1       4.788  35.635   0.895  1.00  0.00     0.000 C 
BRANCH   2   3
ATOM      3  C   UNL     1       6.316  35.510   1.040  1.00  0.00     0.000 C 
BRANCH   3   4
ATOM      4  C   UNL     1       7.110  36.793   0.735  1.00  0.00     0.000 C 
BRANCH   4   5
ATOM      5  C   UNL     1       8.563  36.515   0.315  1.00  0.00     0.006 C 
BRANCH   5   6
ATOM      6  C   UNL     1       9.051  37.491  -0.763  1.00  0.00     0.053 C 
BRANCH   6   7
ATOM      7  C   UNL     1      10.178  38.346  -0.270  1.00  0.00     0.041 C 
ATOM      8  O   UNL     1      10.895  38.982  -1.086  1.00  0.00    -0.550 OA
ATOM      9  O   UNL     1      10.419  38.460   1.093  1.00  0.00    -0.550 OA
ENDBRANCH   6   7
ENDBRANCH   5   6
ENDBRANCH   4   5
ENDBRANCH   3   4
ENDBRANCH   2   3
ENDBRANCH   1   2
BRANCH   1  10
ATOM     10  C   UNL     1       3.389  36.309  -1.138  1.00  0.00     0.000 C 
BRANCH  10  11
ATOM     11  C   UNL     1       4.077  36.109  -2.500  1.00  0.00    -0.000 C 
BRANCH  11  12
ATOM     12  C   UNL     1       5.458  36.782  -2.569  1.00  0.00    -0.000 C 
BRANCH  12  13
ATOM     13  C   UNL     1       6.591  35.783  -2.864  1.00  0.00    -0.000 C 
BRANCH  13  14
ATOM     14  C   UNL     1       6.224  34.343  -2.474  1.00  0.00    -0.000 C 
BRANCH  14  15
ATOM     15  C   UNL     1       7.384  33.357  -2.685  1.00  0.00    -0.003 C 
ATOM     16  C   UNL     1       8.331  33.361  -1.488  1.00  0.00     0.004 C 
ENDBRANCH  14  15
ENDBRANCH  13  14
ENDBRANCH  12  13
ENDBRANCH  11  12
ENDBRANCH  10  11
ENDBRANCH   1  10
TORSDOF 12
ENDMDL
MODEL 9
REMARK VINA RESULT:    -3.647      2.754      3.803
REMARK INTER + INTRA:          -8.028
REMARK INTER:                  -6.400
REMARK INTRA:                  -1.628
REMARK UNBOUND:                -1.822
REMARK SMILES CCCCCCCCCCCCCC(=O)[O-]
REMARK SMILES IDX 8 1 9 2 10 3 11 4 12 5 13 6 14 7 15 8 16 9 7 10 6 11 5 12
REMARK SMILES IDX 4 13 3 14 2 15 1 16
REMARK H PARENT
REMARK Flexibility Score: inf
ROOT
ATOM      1  C   UNL     1       7.658  37.143   0.856  1.00  0.00     0.000 C 
ENDROOT
BRANCH   1   2
ATOM      2  C   UNL     1       8.193  37.457  -0.552  1.00  0.00     0.000 C 
BRANCH   2   3
ATOM      3  C   UNL     1       8.538  36.192  -1.358  1.00  0.00     0.000 C 
BRANCH   3   4
ATOM      4  C   UNL     1      10.029  35.811  -1.373  1.00  0.00     0.000 C 
BRANCH   4   5
ATOM      5  C   UNL     1      10.371  34.684  -0.384  1.00  0.00     0.006 C 
BRANCH   5   6
ATOM      6  C   UNL     1       9.292  33.593  -0.354  1.00  0.00     0.053 C 
BRANCH   6   7
ATOM      7  C   UNL     1       9.757  32.332  -1.014  1.00  0.00     0.041 C 
ATOM      8  O   UNL     1       9.948  32.300  -2.258  1.00  0.00    -0.550 OA
ATOM      9  O   UNL     1      10.005  31.198  -0.251  1.00  0.00    -0.550 OA
ENDBRANCH   6   7
ENDBRANCH   5   6
ENDBRANCH   4   5
ENDBRANCH   3   4
ENDBRANCH   2   3
ENDBRANCH   1   2
BRANCH   1  10
ATOM     10  C   UNL     1       8.475  37.829   1.964  1.00  0.00     0.000 C 
BRANCH  10  11
ATOM     11  C   UNL     1       9.992  37.687   1.750  1.00  0.00    -0.000 C 
BRANCH  11  12
ATOM     12  C   UNL     1      10.750  39.001   2.000  1.00  0.00    -0.000 C 
BRANCH  12  13
ATOM     13  C   UNL     1       9.808  40.205   2.180  1.00  0.00    -0.000 C 
BRANCH  13  14
ATOM     14  C   UNL     1      10.000  41.272   1.091  1.00  0.00    -0.000 C 
BRANCH  14  15
ATOM     15  C   UNL     1       9.363  40.874  -0.249  1.00  0.00    -0.003 C 
ATOM     16  C   UNL     1       7.861  41.145  -0.245  1.00  0.00     0.004 C 
ENDBRANCH  14  15
ENDBRANCH  13  14
ENDBRANCH  12  13
ENDBRANCH  11  12
ENDBRANCH  10  11
ENDBRANCH   1  10
TORSDOF 12
ENDMDL
