MODEL 1
REMARK VINA RESULT:    -4.707      0.000      0.000
REMARK INTER + INTRA:          -4.707
REMARK INTER:                  -4.707
REMARK INTRA:                   0.000
REMARK UNBOUND:                 0.000
REMARK SMILES CC1(C)[C@@H]2CC[C@@]1(C)C(=O)C2
REMARK SMILES IDX 1 1 2 2 4 3 5 4 6 5 7 6 9 7 10 8 11 9 8 10 3 11
REMARK H PARENT
REMARK Flexibility Score: inf
ROOT
ATOM      1  C   UNL     1      29.044  -8.648  73.208  1.00  0.00     0.012 C 
ATOM      2  C   UNL     1      29.156  -9.020  71.697  1.00  0.00    -0.020 C 
ATOM      3  C   UNL     1      28.601  -7.930  70.749  1.00  0.00     0.003 C 
ATOM      4  C   UNL     1      28.987  -8.472  69.344  1.00  0.00     0.005 C 
ATOM      5  C   UNL     1      30.360  -9.143  69.596  1.00  0.00     0.015 C 
ATOM      6  C   UNL     1      30.579  -8.910  71.109  1.00  0.00     0.032 C 
ATOM      7  C   UNL     1      30.821  -7.427  71.239  1.00  0.00     0.139 C 
ATOM      8  O   UNL     1      31.904  -6.888  71.412  1.00  0.00    -0.299 OA
ATOM      9  C   UNL     1      29.526  -6.710  71.015  1.00  0.00     0.080 C 
ATOM     10  C   UNL     1      31.652  -9.799  71.748  1.00  0.00     0.020 C 
ATOM     11  C   UNL     1      28.468 -10.408  71.533  1.00  0.00     0.012 C 
ENDROOT
TORSDOF 0
ENDMDL
MODEL 2
REMARK VINA RESULT:    -4.559      1.386      2.515
REMARK INTER + INTRA:          -4.559
REMARK INTER:                  -4.559
REMARK INTRA:                   0.000
REMARK UNBOUND:                 0.000
REMARK SMILES CC1(C)[C@@H]2CC[C@@]1(C)C(=O)C2
REMARK SMILES IDX 1 1 2 2 4 3 5 4 6 5 7 6 9 7 10 8 11 9 8 10 3 11
REMARK H PARENT
REMARK Flexibility Score: inf
ROOT
ATOM      1  C   UNL     1      29.501  -6.400  70.653  1.00  0.00     0.012 C 
ATOM      2  C   UNL     1      29.470  -7.733  71.464  1.00  0.00    -0.020 C 
ATOM      3  C   UNL     1      28.444  -8.760  70.926  1.00  0.00     0.003 C 
ATOM      4  C   UNL     1      28.742 -10.020  71.787  1.00  0.00     0.005 C 
ATOM      5  C   UNL     1      30.278  -9.963  71.968  1.00  0.00     0.015 C 
ATOM      6  C   UNL     1      30.663  -8.677  71.199  1.00  0.00     0.032 C 
ATOM      7  C   UNL     1      30.436  -9.014  69.747  1.00  0.00     0.139 C 
ATOM      8  O   UNL     1      31.302  -9.277  68.926  1.00  0.00    -0.299 OA
ATOM      9  C   UNL     1      28.961  -9.077  69.495  1.00  0.00     0.080 C 
ATOM     10  C   UNL     1      32.055  -8.125  71.526  1.00  0.00     0.020 C 
ATOM     11  C   UNL     1      29.245  -7.338  72.954  1.00  0.00     0.012 C 
ENDROOT
TORSDOF 0
ENDMDL
MODEL 3
REMARK VINA RESULT:    -4.406      1.537      2.675
REMARK INTER + INTRA:          -4.406
REMARK INTER:                  -4.406
REMARK INTRA:                   0.000
REMARK UNBOUND:                 0.000
REMARK SMILES CC1(C)[C@@H]2CC[C@@]1(C)C(=O)C2
REMARK SMILES IDX 1 1 2 2 4 3 5 4 6 5 7 6 9 7 10 8 11 9 8 10 3 11
REMARK H PARENT
REMARK Flexibility Score: inf
ROOT
ATOM      1  C   UNL     1      31.142  -9.873  72.000  1.00  0.00     0.012 C 
ATOM      2  C   UNL     1      30.468  -9.115  70.815  1.00  0.00    -0.020 C 
ATOM      3  C   UNL     1      29.122  -9.737  70.369  1.00  0.00     0.003 C 
ATOM      4  C   UNL     1      28.603  -8.710  69.323  1.00  0.00     0.005 C 
ATOM      5  C   UNL     1      29.071  -7.354  69.906  1.00  0.00     0.015 C 
ATOM      6  C   UNL     1      29.804  -7.776  71.201  1.00  0.00     0.032 C 
ATOM      7  C   UNL     1      28.712  -8.259  72.122  1.00  0.00     0.139 C 
ATOM      8  O   UNL     1      28.245  -7.645  73.068  1.00  0.00    -0.299 OA
ATOM      9  C   UNL     1      28.216  -9.580  71.622  1.00  0.00     0.080 C 
ATOM     10  C   UNL     1      30.725  -6.704  71.796  1.00  0.00     0.020 C 
ATOM     11  C   UNL     1      31.532  -9.034  69.680  1.00  0.00     0.012 C 
ENDROOT
TORSDOF 0
ENDMDL
MODEL 4
REMARK VINA RESULT:    -4.281      1.839      3.165
REMARK INTER + INTRA:          -4.281
REMARK INTER:                  -4.281
REMARK INTRA:                   0.000
REMARK UNBOUND:                 0.000
REMARK SMILES CC1(C)[C@@H]2CC[C@@]1(C)C(=O)C2
REMARK SMILES IDX 1 1 2 2 4 3 5 4 6 5 7 6 9 7 10 8 11 9 8 10 3 11
REMARK H PARENT
REMARK Flexibility Score: inf
ROOT
ATOM      1  C   UNL     1      31.565  -9.253  69.427  1.00  0.00     0.012 C 
ATOM      2  C   UNL     1      30.975  -8.353  70.556  1.00  0.00    -0.020 C 
ATOM      3  C   UNL     1      29.786  -7.478  70.092  1.00  0.00     0.003 C 
ATOM      4  C   UNL     1      29.298  -6.834  71.420  1.00  0.00     0.005 C 
ATOM      5  C   UNL     1      29.519  -7.964  72.456  1.00  0.00     0.015 C 
ATOM      6  C   UNL     1      30.112  -9.103  71.593  1.00  0.00     0.032 C 
ATOM      7  C   UNL     1      28.969  -9.564  70.725  1.00  0.00     0.139 C 
ATOM      8  O   UNL     1      28.308 -10.579  70.886  1.00  0.00    -0.299 OA
ATOM      9  C   UNL     1      28.704  -8.517  69.688  1.00  0.00     0.080 C 
ATOM     10  C   UNL     1      30.811 -10.213  72.388  1.00  0.00     0.020 C 
ATOM     11  C   UNL     1      32.168  -7.538  71.140  1.00  0.00     0.012 C 
ENDROOT
TORSDOF 0
ENDMDL
MODEL 5
REMARK VINA RESULT:    -4.159      1.879      3.256
REMARK INTER + INTRA:          -4.159
REMARK INTER:                  -4.159
REMARK INTRA:                   0.000
REMARK UNBOUND:                 0.000
REMARK SMILES CC1(C)[C@@H]2CC[C@@]1(C)C(=O)C2
REMARK SMILES IDX 1 1 2 2 4 3 5 4 6 5 7 6 9 7 10 8 11 9 8 10 3 11
REMARK H PARENT
REMARK Flexibility Score: inf
ROOT
ATOM      1  C   UNL     1      29.215  -7.296  72.492  1.00  0.00     0.012 C 
ATOM      2  C   UNL     1      30.264  -7.815  71.459  1.00  0.00    -0.020 C 
ATOM      3  C   UNL     1      31.171  -8.941  72.011  1.00  0.00     0.003 C 
ATOM      4  C   UNL     1      31.977  -9.374  70.755  1.00  0.00     0.005 C 
ATOM      5  C   UNL     1      30.944  -9.229  69.611  1.00  0.00     0.015 C 
ATOM      6  C   UNL     1      29.684  -8.723  70.354  1.00  0.00     0.032 C 
ATOM      7  C   UNL     1      29.221  -9.901  71.173  1.00  0.00     0.139 C 
ATOM      8  O   UNL     1      28.278 -10.632  70.913  1.00  0.00    -0.299 OA
ATOM      9  C   UNL     1      30.175 -10.096  72.311  1.00  0.00     0.080 C 
ATOM     10  C   UNL     1      28.612  -8.101  69.451  1.00  0.00     0.020 C 
ATOM     11  C   UNL     1      31.045  -6.563  70.959  1.00  0.00     0.012 C 
ENDROOT
TORSDOF 0
ENDMDL
MODEL 6
REMARK VINA RESULT:    -4.154      1.509      2.343
REMARK INTER + INTRA:          -4.154
REMARK INTER:                  -4.154
REMARK INTRA:                   0.000
REMARK UNBOUND:                 0.000
REMARK SMILES CC1(C)[C@@H]2CC[C@@]1(C)C(=O)C2
REMARK SMILES IDX 1 1 2 2 4 3 5 4 6 5 7 6 9 7 10 8 11 9 8 10 3 11
REMARK H PARENT
REMARK Flexibility Score: inf
ROOT
ATOM      1  C   UNL     1      30.109 -10.190  72.377  1.00  0.00     0.012 C 
ATOM      2  C   UNL     1      29.478  -8.921  71.725  1.00  0.00    -0.020 C 
ATOM      3  C   UNL     1      30.362  -7.657  71.849  1.00  0.00     0.003 C 
ATOM      4  C   UNL     1      29.592  -6.617  70.988  1.00  0.00     0.005 C 
ATOM      5  C   UNL     1      29.024  -7.476  69.832  1.00  0.00     0.015 C 
ATOM      6  C   UNL     1      29.530  -8.895  70.183  1.00  0.00     0.032 C 
ATOM      7  C   UNL     1      31.020  -8.840  69.954  1.00  0.00     0.139 C 
ATOM      8  O   UNL     1      31.618  -9.304  68.995  1.00  0.00    -0.299 OA
ATOM      9  C   UNL     1      31.641  -8.027  71.047  1.00  0.00     0.080 C 
ATOM     10  C   UNL     1      28.806 -10.034  69.456  1.00  0.00     0.020 C 
ATOM     11  C   UNL     1      28.060  -8.762  72.351  1.00  0.00     0.012 C 
ENDROOT
TORSDOF 0
ENDMDL
MODEL 7
REMARK VINA RESULT:    -3.815      1.457      2.851
REMARK INTER + INTRA:          -3.815
REMARK INTER:                  -3.815
REMARK INTRA:                   0.000
REMARK UNBOUND:                 0.000
REMARK SMILES CC1(C)[C@@H]2CC[C@@]1(C)C(=O)C2
REMARK SMILES IDX 1 1 2 2 4 3 5 4 6 5 7 6 9 7 10 8 11 9 8 10 3 11
REMARK H PARENT
REMARK Flexibility Score: inf
ROOT
ATOM      1  C   UNL     1      31.425  -6.808  71.688  1.00  0.00     0.012 C 
ATOM      2  C   UNL     1      30.166  -7.466  71.043  1.00  0.00    -0.020 C 
ATOM      3  C   UNL     1      30.497  -8.418  69.869  1.00  0.00     0.003 C 
ATOM      4  C   UNL     1      29.115  -9.047  69.540  1.00  0.00     0.005 C 
ATOM      5  C   UNL     1      28.452  -9.178  70.933  1.00  0.00     0.015 C 
ATOM      6  C   UNL     1      29.532  -8.599  71.878  1.00  0.00     0.032 C 
ATOM      7  C   UNL     1      30.645  -9.617  71.860  1.00  0.00     0.139 C 
ATOM      8  O   UNL     1      30.891 -10.429  72.738  1.00  0.00    -0.299 OA
ATOM      9  C   UNL     1      31.341  -9.540  70.536  1.00  0.00     0.080 C 
ATOM     10  C   UNL     1      29.027  -8.218  73.275  1.00  0.00     0.020 C 
ATOM     11  C   UNL     1      29.207  -6.299  70.659  1.00  0.00     0.012 C 
ENDROOT
TORSDOF 0
ENDMDL
MODEL 8
REMARK VINA RESULT:    -3.778      1.467      2.806
REMARK INTER + INTRA:          -3.778
REMARK INTER:                  -3.778
REMARK INTRA:                   0.000
REMARK UNBOUND:                 0.000
REMARK SMILES CC1(C)[C@@H]2CC[C@@]1(C)C(=O)C2
REMARK SMILES IDX 1 1 2 2 4 3 5 4 6 5 7 6 9 7 10 8 11 9 8 10 3 11
REMARK H PARENT
REMARK Flexibility Score: inf
ROOT
ATOM      1  C   UNL     1      28.684  -8.015  69.395  1.00  0.00     0.012 C 
ATOM      2  C   UNL     1      29.903  -8.704  70.083  1.00  0.00    -0.020 C 
ATOM      3  C   UNL     1      30.927  -7.704  70.673  1.00  0.00     0.003 C 
ATOM      4  C   UNL     1      31.917  -8.636  71.426  1.00  0.00     0.005 C 
ATOM      5  C   UNL     1      30.995  -9.750  71.978  1.00  0.00     0.015 C 
ATOM      6  C   UNL     1      29.600  -9.322  71.464  1.00  0.00     0.032 C 
ATOM      7  C   UNL     1      29.261  -8.084  72.257  1.00  0.00     0.139 C 
ATOM      8  O   UNL     1      28.486  -8.023  73.198  1.00  0.00    -0.299 OA
ATOM      9  C   UNL     1      30.115  -6.955  71.767  1.00  0.00     0.080 C 
ATOM     10  C   UNL     1      28.535 -10.424  71.500  1.00  0.00     0.020 C 
ATOM     11  C   UNL     1      30.510  -9.679  69.030  1.00  0.00     0.012 C 
ENDROOT
TORSDOF 0
ENDMDL
MODEL 9
REMARK VINA RESULT:    -3.739      3.050      4.659
REMARK INTER + INTRA:          -3.739
REMARK INTER:                  -3.739
REMARK INTRA:                   0.000
REMARK UNBOUND:                 0.000
REMARK SMILES CC1(C)[C@@H]2CC[C@@]1(C)C(=O)C2
REMARK SMILES IDX 1 1 2 2 4 3 5 4 6 5 7 6 9 7 10 8 11 9 8 10 3 11
REMARK H PARENT
REMARK Flexibility Score: inf
ROOT
ATOM      1  C   UNL     1      31.869  -8.893  68.998  1.00  0.00     0.012 C 
ATOM      2  C   UNL     1      32.869  -8.769  70.190  1.00  0.00    -0.020 C 
ATOM      3  C   UNL     1      34.322  -9.152  69.820  1.00  0.00     0.003 C 
ATOM      4  C   UNL     1      35.110  -8.780  71.107  1.00  0.00     0.005 C 
ATOM      5  C   UNL     1      34.381  -7.508  71.605  1.00  0.00     0.015 C 
ATOM      6  C   UNL     1      33.265  -7.321  70.549  1.00  0.00     0.032 C 
ATOM      7  C   UNL     1      33.990  -6.908  69.293  1.00  0.00     0.139 C 
ATOM      8  O   UNL     1      34.051  -5.777  68.837  1.00  0.00    -0.299 OA
ATOM      9  C   UNL     1      34.715  -8.099  68.747  1.00  0.00     0.080 C 
ATOM     10  C   UNL     1      32.127  -6.387  70.976  1.00  0.00     0.020 C 
ATOM     11  C   UNL     1      32.272  -9.611  71.356  1.00  0.00     0.012 C 
ENDROOT
TORSDOF 0
ENDMDL
