MODEL 1
REMARK VINA RESULT:    11.357      0.000      0.000
REMARK INTER + INTRA:          15.235
REMARK INTER:                  15.673
REMARK INTRA:                  -0.438
REMARK UNBOUND:                -0.438
REMARK SMILES CC[C@H](CC[C@H](C)[C@H]1CC[C@@H]2[C@H]3CC=C4C[C@@H](O)CC[C@]4(C)[C@@H]3CC[C@@]21C)C(C)C
REMARK SMILES IDX 5 1 4 2 3 3 2 4 1 5 28 6 29 7 30 8 6 9 7 10 8 11 9 12 26 13
REMARK SMILES IDX 10 14 11 15 25 16 27 17 12 18 24 19 23 20 13 21 21 22 14 23
REMARK SMILES IDX 15 24 20 25 22 26 16 27 19 28 17 29 18 30
REMARK H PARENT 18 31
REMARK Flexibility Score: inf
ROOT
ATOM      1  C   UNL     1      79.251  36.111  50.493  1.00  0.00     0.004 C 
ENDROOT
BRANCH   1   2
ATOM      2  C   UNL     1      80.532  35.252  50.580  1.00  0.00     0.004 C 
BRANCH   2   3
ATOM      3  C   UNL     1      80.235  33.777  50.975  1.00  0.00    -0.009 C 
BRANCH   3   4
ATOM      4  C   UNL     1      80.592  32.821  49.800  1.00  0.00     0.000 C 
ATOM      5  C   UNL     1      80.735  33.546  48.460  1.00  0.00     0.004 C 
ENDBRANCH   3   4
BRANCH   3   6
ATOM      6  C   UNL     1      80.942  33.356  52.308  1.00  0.00    -0.014 C 
ATOM      7  C   UNL     1      81.035  34.486  53.348  1.00  0.00     0.007 C 
ATOM      8  C   UNL     1      80.281  32.115  52.931  1.00  0.00     0.007 C 
ENDBRANCH   3   6
ENDBRANCH   2   3
ENDBRANCH   1   2
BRANCH   1   9
ATOM      9  C   UNL     1      77.948  35.272  50.365  1.00  0.00    -0.011 C 
ATOM     10  C   UNL     1      76.805  36.125  49.765  1.00  0.00     0.008 C 
BRANCH   9  11
ATOM     11  C   UNL     1      77.605  34.584  51.746  1.00  0.00    -0.002 C 
ATOM     12  C   UNL     1      77.798  35.519  52.950  1.00  0.00     0.005 C 
ATOM     13  C   UNL     1      76.173  33.974  51.955  1.00  0.00    -0.026 C 
ATOM     14  C   UNL     1      76.406  35.900  53.456  1.00  0.00     0.005 C 
ATOM     15  C   UNL     1      75.378  35.144  52.595  1.00  0.00    -0.001 C 
ATOM     16  C   UNL     1      76.285  32.730  52.931  1.00  0.00     0.007 C 
ATOM     17  C   UNL     1      75.526  33.509  50.624  1.00  0.00     0.012 C 
ATOM     18  C   UNL     1      74.079  34.773  53.391  1.00  0.00     0.000 C 
ATOM     19  C   UNL     1      75.304  32.712  54.115  1.00  0.00     0.005 C 
ATOM     20  C   UNL     1      73.936  33.270  53.701  1.00  0.00     0.003 C 
ATOM     21  C   UNL     1      72.800  35.213  52.667  1.00  0.00     0.031 C 
ATOM     22  C   UNL     1      72.754  32.993  54.711  1.00  0.00    -0.008 C 
ATOM     23  C   UNL     1      71.593  34.920  53.516  1.00  0.00    -0.027 C 
ATOM     24  C   UNL     1      71.555  33.921  54.432  1.00  0.00    -0.065 C 
ATOM     25  C   UNL     1      73.195  33.224  56.190  1.00  0.00     0.014 C 
ATOM     26  C   UNL     1      72.296  31.523  54.521  1.00  0.00     0.016 C 
ATOM     27  C   UNL     1      70.388  33.860  55.393  1.00  0.00     0.063 C 
ATOM     28  C   UNL     1      72.028  33.175  57.198  1.00  0.00     0.033 C 
ATOM     29  C   UNL     1      70.889  34.140  56.814  1.00  0.00     0.118 C 
BRANCH  29  30
ATOM     30  O   UNL     1      69.820  33.996  57.713  1.00  0.00    -0.393 OA
ATOM     31  H   UNL     1      69.840  34.789  58.309  1.00  0.00     0.210 HD
ENDBRANCH  29  30
ENDBRANCH   9  11
ENDBRANCH   1   9
TORSDOF 7
ENDMDL
MODEL 2
REMARK VINA RESULT:    12.216      2.812      8.347
REMARK INTER + INTRA:          16.419
REMARK INTER:                  13.999
REMARK INTRA:                   2.420
REMARK UNBOUND:                -0.438
REMARK SMILES CC[C@H](CC[C@H](C)[C@H]1CC[C@@H]2[C@H]3CC=C4C[C@@H](O)CC[C@]4(C)[C@@H]3CC[C@@]21C)C(C)C
REMARK SMILES IDX 5 1 4 2 3 3 2 4 1 5 28 6 29 7 30 8 6 9 7 10 8 11 9 12 26 13
REMARK SMILES IDX 10 14 11 15 25 16 27 17 12 18 24 19 23 20 13 21 21 22 14 23
REMARK SMILES IDX 15 24 20 25 22 26 16 27 19 28 17 29 18 30
REMARK H PARENT 18 31
REMARK Flexibility Score: inf
ROOT
ATOM      1  C   UNL     1      70.643  34.254  55.138  1.00  0.00     0.004 C 
ENDROOT
BRANCH   1   2
ATOM      2  C   UNL     1      71.572  34.553  56.336  1.00  0.00     0.004 C 
BRANCH   2   3
ATOM      3  C   UNL     1      71.071  33.902  57.656  1.00  0.00    -0.009 C 
BRANCH   3   4
ATOM      4  C   UNL     1      69.568  33.518  57.534  1.00  0.00     0.000 C 
ATOM      5  C   UNL     1      68.726  34.603  56.858  1.00  0.00     0.004 C 
ENDBRANCH   3   4
BRANCH   3   6
ATOM      6  C   UNL     1      71.951  32.684  58.100  1.00  0.00    -0.014 C 
ATOM      7  C   UNL     1      73.178  32.442  57.202  1.00  0.00     0.007 C 
ATOM      8  C   UNL     1      72.387  32.806  59.570  1.00  0.00     0.007 C 
ENDBRANCH   3   6
ENDBRANCH   2   3
ENDBRANCH   1   2
BRANCH   1   9
ATOM      9  C   UNL     1      71.405  34.042  53.799  1.00  0.00    -0.011 C 
ATOM     10  C   UNL     1      71.729  32.544  53.585  1.00  0.00     0.008 C 
BRANCH   9  11
ATOM     11  C   UNL     1      72.655  35.006  53.724  1.00  0.00    -0.002 C 
ATOM     12  C   UNL     1      73.384  35.152  55.070  1.00  0.00     0.005 C 
ATOM     13  C   UNL     1      73.798  34.688  52.697  1.00  0.00    -0.026 C 
ATOM     14  C   UNL     1      74.701  34.383  54.957  1.00  0.00     0.005 C 
ATOM     15  C   UNL     1      74.792  33.828  53.524  1.00  0.00    -0.001 C 
ATOM     16  C   UNL     1      74.451  36.052  52.219  1.00  0.00     0.007 C 
ATOM     17  C   UNL     1      73.281  33.919  51.452  1.00  0.00     0.012 C 
ATOM     18  C   UNL     1      76.268  33.741  53.001  1.00  0.00     0.000 C 
ATOM     19  C   UNL     1      75.985  36.125  52.287  1.00  0.00     0.005 C 
ATOM     20  C   UNL     1      76.614  34.777  51.913  1.00  0.00     0.003 C 
ATOM     21  C   UNL     1      76.611  32.356  52.440  1.00  0.00     0.031 C 
ATOM     22  C   UNL     1      78.163  34.809  51.612  1.00  0.00    -0.008 C 
ATOM     23  C   UNL     1      78.062  32.300  52.043  1.00  0.00    -0.027 C 
ATOM     24  C   UNL     1      78.769  33.391  51.661  1.00  0.00    -0.065 C 
ATOM     25  C   UNL     1      78.934  35.687  52.647  1.00  0.00     0.014 C 
ATOM     26  C   UNL     1      78.362  35.382  50.183  1.00  0.00     0.016 C 
ATOM     27  C   UNL     1      80.270  33.269  51.510  1.00  0.00     0.063 C 
ATOM     28  C   UNL     1      80.468  35.581  52.527  1.00  0.00     0.033 C 
ATOM     29  C   UNL     1      80.956  34.121  52.585  1.00  0.00     0.118 C 
BRANCH  29  30
ATOM     30  O   UNL     1      82.345  34.074  52.388  1.00  0.00    -0.393 OA
ATOM     31  H   UNL     1      82.625  34.986  52.113  1.00  0.00     0.210 HD
ENDBRANCH  29  30
ENDBRANCH   9  11
ENDBRANCH   1   9
TORSDOF 7
ENDMDL
MODEL 3
REMARK VINA RESULT:    13.609      1.295      2.809
REMARK INTER + INTRA:          18.342
REMARK INTER:                  18.242
REMARK INTRA:                   0.099
REMARK UNBOUND:                -0.438
REMARK SMILES CC[C@H](CC[C@H](C)[C@H]1CC[C@@H]2[C@H]3CC=C4C[C@@H](O)CC[C@]4(C)[C@@H]3CC[C@@]21C)C(C)C
REMARK SMILES IDX 5 1 4 2 3 3 2 4 1 5 28 6 29 7 30 8 6 9 7 10 8 11 9 12 26 13
REMARK SMILES IDX 10 14 11 15 25 16 27 17 12 18 24 19 23 20 13 21 21 22 14 23
REMARK SMILES IDX 15 24 20 25 22 26 16 27 19 28 17 29 18 30
REMARK H PARENT 18 31
REMARK Flexibility Score: inf
ROOT
ATOM      1  C   UNL     1      77.880  34.694  51.159  1.00  0.00     0.004 C 
ENDROOT
BRANCH   1   2
ATOM      2  C   UNL     1      79.154  35.195  50.441  1.00  0.00     0.004 C 
BRANCH   2   3
ATOM      3  C   UNL     1      80.452  34.564  51.020  1.00  0.00    -0.009 C 
BRANCH   3   4
ATOM      4  C   UNL     1      80.467  34.687  52.571  1.00  0.00     0.000 C 
ATOM      5  C   UNL     1      80.738  36.112  53.057  1.00  0.00     0.004 C 
ENDBRANCH   3   4
BRANCH   3   6
ATOM      6  C   UNL     1      80.665  33.085  50.548  1.00  0.00    -0.014 C 
ATOM      7  C   UNL     1      79.789  32.062  51.292  1.00  0.00     0.007 C 
ATOM      8  C   UNL     1      80.472  32.943  49.029  1.00  0.00     0.007 C 
ENDBRANCH   3   6
ENDBRANCH   2   3
ENDBRANCH   1   2
BRANCH   1   9
ATOM      9  C   UNL     1      76.561  35.150  50.472  1.00  0.00    -0.011 C 
ATOM     10  C   UNL     1      76.863  36.025  49.233  1.00  0.00     0.008 C 
BRANCH   9  11
ATOM     11  C   UNL     1      75.595  35.813  51.531  1.00  0.00    -0.002 C 
ATOM     12  C   UNL     1      74.199  36.119  50.966  1.00  0.00     0.005 C 
ATOM     13  C   UNL     1      75.310  35.057  52.877  1.00  0.00    -0.026 C 
ATOM     14  C   UNL     1      73.230  35.107  51.578  1.00  0.00     0.005 C 
ATOM     15  C   UNL     1      74.033  34.233  52.560  1.00  0.00    -0.001 C 
ATOM     16  C   UNL     1      75.057  36.125  54.021  1.00  0.00     0.007 C 
ATOM     17  C   UNL     1      76.486  34.138  53.302  1.00  0.00     0.012 C 
ATOM     18  C   UNL     1      73.174  33.748  53.779  1.00  0.00     0.000 C 
ATOM     19  C   UNL     1      73.793  35.915  54.871  1.00  0.00     0.005 C 
ATOM     20  C   UNL     1      73.539  34.423  55.116  1.00  0.00     0.003 C 
ATOM     21  C   UNL     1      73.262  32.232  53.993  1.00  0.00     0.031 C 
ATOM     22  C   UNL     1      72.486  34.087  56.244  1.00  0.00    -0.008 C 
ATOM     23  C   UNL     1      72.347  31.810  55.110  1.00  0.00    -0.027 C 
ATOM     24  C   UNL     1      71.997  32.629  56.132  1.00  0.00    -0.065 C 
ATOM     25  C   UNL     1      71.233  35.013  56.156  1.00  0.00     0.014 C 
ATOM     26  C   UNL     1      73.182  34.271  57.619  1.00  0.00     0.016 C 
ATOM     27  C   UNL     1      70.894  32.190  57.071  1.00  0.00     0.063 C 
ATOM     28  C   UNL     1      70.085  34.591  57.095  1.00  0.00     0.033 C 
ATOM     29  C   UNL     1      69.685  33.116  56.896  1.00  0.00     0.118 C 
BRANCH  29  30
ATOM     30  O   UNL     1      68.698  32.760  57.829  1.00  0.00    -0.393 OA
ATOM     31  H   UNL     1      67.846  33.158  57.510  1.00  0.00     0.210 HD
ENDBRANCH  29  30
ENDBRANCH   9  11
ENDBRANCH   1   9
TORSDOF 7
ENDMDL
