MODEL 1
REMARK VINA RESULT:    -3.208      0.000      0.000
REMARK INTER + INTRA:         -13.580
REMARK INTER:                  -8.084
REMARK INTRA:                  -5.496
REMARK UNBOUND:                -5.496
REMARK SMILES CCCCCCCCCCCCCCCCCCCCCCCCCCCC(=O)[O-]
REMARK SMILES IDX 15 1 16 2 17 3 18 4 19 5 20 6 21 7 22 8 23 9 24 10 25 11
REMARK SMILES IDX 26 12 27 13 28 14 29 15 30 16 14 17 13 18 12 19 11 20 10 21
REMARK SMILES IDX 9 22 8 23 7 24 6 25 5 26 4 27 3 28 2 29 1 30
REMARK H PARENT
REMARK Flexibility Score: inf
ROOT
ATOM      1  C   UNL     1      -6.523  39.480  45.788  1.00  0.00     0.000 C 
ENDROOT
BRANCH   1   2
ATOM      2  C   UNL     1      -7.710  38.943  46.602  1.00  0.00     0.000 C 
BRANCH   2   3
ATOM      3  C   UNL     1      -8.572  37.943  45.811  1.00  0.00     0.000 C 
BRANCH   3   4
ATOM      4  C   UNL     1      -7.810  36.640  45.483  1.00  0.00     0.000 C 
BRANCH   4   5
ATOM      5  C   UNL     1      -7.826  35.603  46.623  1.00  0.00     0.000 C 
BRANCH   5   6
ATOM      6  C   UNL     1      -6.480  35.398  47.337  1.00  0.00     0.000 C 
BRANCH   6   7
ATOM      7  C   UNL     1      -5.310  36.077  46.610  1.00  0.00     0.000 C 
BRANCH   7   8
ATOM      8  C   UNL     1      -4.271  35.042  46.151  1.00  0.00     0.000 C 
BRANCH   8   9
ATOM      9  C   UNL     1      -4.397  34.686  44.654  1.00  0.00     0.000 C 
BRANCH   9  10
ATOM     10  C   UNL     1      -4.500  33.173  44.372  1.00  0.00     0.000 C 
BRANCH  10  11
ATOM     11  C   UNL     1      -5.919  32.673  44.049  1.00  0.00     0.000 C 
BRANCH  11  12
ATOM     12  C   UNL     1      -6.791  33.723  43.323  1.00  0.00     0.006 C 
BRANCH  12  13
ATOM     13  C   UNL     1      -8.289  33.506  43.562  1.00  0.00     0.053 C 
BRANCH  13  14
ATOM     14  C   UNL     1      -8.868  32.630  42.497  1.00  0.00     0.041 C 
ATOM     15  O   UNL     1      -9.633  31.678  42.804  1.00  0.00    -0.550 OA
ATOM     16  O   UNL     1      -8.604  32.896  41.157  1.00  0.00    -0.550 OA
ENDBRANCH  13  14
ENDBRANCH  12  13
ENDBRANCH  11  12
ENDBRANCH  10  11
ENDBRANCH   9  10
ENDBRANCH   8   9
ENDBRANCH   7   8
ENDBRANCH   6   7
ENDBRANCH   5   6
ENDBRANCH   4   5
ENDBRANCH   3   4
ENDBRANCH   2   3
ENDBRANCH   1   2
BRANCH   1  17
ATOM     17  C   UNL     1      -6.956  40.085  44.441  1.00  0.00     0.000 C 
BRANCH  17  18
ATOM     18  C   UNL     1      -6.295  39.383  43.236  1.00  0.00     0.000 C 
BRANCH  18  19
ATOM     19  C   UNL     1      -5.081  38.509  43.610  1.00  0.00     0.000 C 
BRANCH  19  20
ATOM     20  C   UNL     1      -4.763  37.368  42.626  1.00  0.00     0.000 C 
BRANCH  20  21
ATOM     21  C   UNL     1      -4.001  37.792  41.356  1.00  0.00     0.000 C 
BRANCH  21  22
ATOM     22  C   UNL     1      -3.974  36.702  40.276  1.00  0.00    -0.000 C 
BRANCH  22  23
ATOM     23  C   UNL     1      -3.896  35.307  40.910  1.00  0.00    -0.000 C 
BRANCH  23  24
ATOM     24  C   UNL     1      -2.503  34.695  40.729  1.00  0.00    -0.000 C 
BRANCH  24  25
ATOM     25  C   UNL     1      -1.909  34.271  42.081  1.00  0.00    -0.000 C 
BRANCH  25  26
ATOM     26  C   UNL     1      -0.678  35.103  42.473  1.00  0.00    -0.000 C 
BRANCH  26  27
ATOM     27  C   UNL     1      -1.044  36.526  42.930  1.00  0.00    -0.000 C 
BRANCH  27  28
ATOM     28  C   UNL     1      -0.994  36.677  44.465  1.00  0.00    -0.000 C 
BRANCH  28  29
ATOM     29  C   UNL     1      -1.731  37.922  44.986  1.00  0.00    -0.003 C 
ATOM     30  C   UNL     1      -1.978  37.885  46.492  1.00  0.00     0.004 C 
ENDBRANCH  28  29
ENDBRANCH  27  28
ENDBRANCH  26  27
ENDBRANCH  25  26
ENDBRANCH  24  25
ENDBRANCH  23  24
ENDBRANCH  22  23
ENDBRANCH  21  22
ENDBRANCH  20  21
ENDBRANCH  19  20
ENDBRANCH  18  19
ENDBRANCH  17  18
ENDBRANCH   1  17
TORSDOF 26
ENDMDL
MODEL 2
REMARK VINA RESULT:    -3.147      1.531      4.969
REMARK INTER + INTRA:         -13.426
REMARK INTER:                  -8.510
REMARK INTRA:                  -4.916
REMARK UNBOUND:                -5.496
REMARK SMILES CCCCCCCCCCCCCCCCCCCCCCCCCCCC(=O)[O-]
REMARK SMILES IDX 15 1 16 2 17 3 18 4 19 5 20 6 21 7 22 8 23 9 24 10 25 11
REMARK SMILES IDX 26 12 27 13 28 14 29 15 30 16 14 17 13 18 12 19 11 20 10 21
REMARK SMILES IDX 9 22 8 23 7 24 6 25 5 26 4 27 3 28 2 29 1 30
REMARK H PARENT
REMARK Flexibility Score: inf
ROOT
ATOM      1  C   UNL     1      -4.158  37.157  42.721  1.00  0.00     0.000 C 
ENDROOT
BRANCH   1   2
ATOM      2  C   UNL     1      -3.983  37.403  41.214  1.00  0.00     0.000 C 
BRANCH   2   3
ATOM      3  C   UNL     1      -3.883  36.098  40.404  1.00  0.00     0.000 C 
BRANCH   3   4
ATOM      4  C   UNL     1      -2.766  35.167  40.924  1.00  0.00     0.000 C 
BRANCH   4   5
ATOM      5  C   UNL     1      -3.263  33.773  41.352  1.00  0.00     0.000 C 
BRANCH   5   6
ATOM      6  C   UNL     1      -3.370  33.556  42.871  1.00  0.00     0.000 C 
BRANCH   6   7
ATOM      7  C   UNL     1      -4.770  33.104  43.312  1.00  0.00     0.000 C 
BRANCH   7   8
ATOM      8  C   UNL     1      -5.858  33.757  42.444  1.00  0.00     0.000 C 
BRANCH   8   9
ATOM      9  C   UNL     1      -7.223  33.849  43.159  1.00  0.00     0.000 C 
BRANCH   9  10
ATOM     10  C   UNL     1      -7.455  32.753  44.218  1.00  0.00     0.000 C 
BRANCH  10  11
ATOM     11  C   UNL     1      -8.874  32.722  44.814  1.00  0.00     0.000 C 
BRANCH  11  12
ATOM     12  C   UNL     1      -9.750  31.576  44.257  1.00  0.00     0.006 C 
BRANCH  12  13
ATOM     13  C   UNL     1      -9.451  31.274  42.784  1.00  0.00     0.053 C 
BRANCH  13  14
ATOM     14  C   UNL     1      -9.859  29.876  42.443  1.00  0.00     0.041 C 
ATOM     15  O   UNL     1     -10.051  29.545  41.243  1.00  0.00    -0.550 OA
ATOM     16  O   UNL     1      -9.977  28.921  43.447  1.00  0.00    -0.550 OA
ENDBRANCH  13  14
ENDBRANCH  12  13
ENDBRANCH  11  12
ENDBRANCH  10  11
ENDBRANCH   9  10
ENDBRANCH   8   9
ENDBRANCH   7   8
ENDBRANCH   6   7
ENDBRANCH   5   6
ENDBRANCH   4   5
ENDBRANCH   3   4
ENDBRANCH   2   3
ENDBRANCH   1   2
BRANCH   1  17
ATOM     17  C   UNL     1      -5.560  37.545  43.224  1.00  0.00     0.000 C 
BRANCH  17  18
ATOM     18  C   UNL     1      -5.818  39.065  43.147  1.00  0.00     0.000 C 
BRANCH  18  19
ATOM     19  C   UNL     1      -7.046  39.532  43.952  1.00  0.00     0.000 C 
BRANCH  19  20
ATOM     20  C   UNL     1      -6.845  39.603  45.477  1.00  0.00     0.000 C 
BRANCH  20  21
ATOM     21  C   UNL     1      -7.826  38.754  46.307  1.00  0.00     0.000 C 
BRANCH  21  22
ATOM     22  C   UNL     1      -8.703  37.832  45.447  1.00  0.00    -0.000 C 
BRANCH  22  23
ATOM     23  C   UNL     1      -8.137  36.406  45.424  1.00  0.00    -0.000 C 
BRANCH  23  24
ATOM     24  C   UNL     1      -7.391  36.086  46.723  1.00  0.00    -0.000 C 
BRANCH  24  25
ATOM     25  C   UNL     1      -6.073  35.351  46.434  1.00  0.00    -0.000 C 
BRANCH  25  26
ATOM     26  C   UNL     1      -4.860  36.294  46.425  1.00  0.00    -0.000 C 
BRANCH  26  27
ATOM     27  C   UNL     1      -4.759  37.143  47.704  1.00  0.00    -0.000 C 
BRANCH  27  28
ATOM     28  C   UNL     1      -4.040  38.486  47.456  1.00  0.00    -0.000 C 
BRANCH  28  29
ATOM     29  C   UNL     1      -3.331  38.563  46.093  1.00  0.00    -0.003 C 
ATOM     30  C   UNL     1      -1.828  38.805  46.212  1.00  0.00     0.004 C 
ENDBRANCH  28  29
ENDBRANCH  27  28
ENDBRANCH  26  27
ENDBRANCH  25  26
ENDBRANCH  24  25
ENDBRANCH  23  24
ENDBRANCH  22  23
ENDBRANCH  21  22
ENDBRANCH  20  21
ENDBRANCH  19  20
ENDBRANCH  18  19
ENDBRANCH  17  18
ENDBRANCH   1  17
TORSDOF 26
ENDMDL
MODEL 3
REMARK VINA RESULT:    -3.126      1.603      3.717
REMARK INTER + INTRA:         -13.373
REMARK INTER:                  -8.589
REMARK INTRA:                  -4.784
REMARK UNBOUND:                -5.496
REMARK SMILES CCCCCCCCCCCCCCCCCCCCCCCCCCCC(=O)[O-]
REMARK SMILES IDX 15 1 16 2 17 3 18 4 19 5 20 6 21 7 22 8 23 9 24 10 25 11
REMARK SMILES IDX 26 12 27 13 28 14 29 15 30 16 14 17 13 18 12 19 11 20 10 21
REMARK SMILES IDX 9 22 8 23 7 24 6 25 5 26 4 27 3 28 2 29 1 30
REMARK H PARENT
REMARK Flexibility Score: inf
ROOT
ATOM      1  C   UNL     1      -5.086  37.766  42.663  1.00  0.00     0.000 C 
ENDROOT
BRANCH   1   2
ATOM      2  C   UNL     1      -5.577  39.095  43.259  1.00  0.00     0.000 C 
BRANCH   2   3
ATOM      3  C   UNL     1      -7.007  39.004  43.820  1.00  0.00     0.000 C 
BRANCH   3   4
ATOM      4  C   UNL     1      -7.147  39.700  45.191  1.00  0.00     0.000 C 
BRANCH   4   5
ATOM      5  C   UNL     1      -7.879  38.854  46.251  1.00  0.00     0.000 C 
BRANCH   5   6
ATOM      6  C   UNL     1      -8.405  37.498  45.752  1.00  0.00     0.000 C 
BRANCH   6   7
ATOM      7  C   UNL     1      -7.829  36.310  46.538  1.00  0.00     0.000 C 
BRANCH   7   8
ATOM      8  C   UNL     1      -7.751  35.053  45.658  1.00  0.00     0.000 C 
BRANCH   8   9
ATOM      9  C   UNL     1      -7.354  35.364  44.198  1.00  0.00     0.000 C 
BRANCH   9  10
ATOM     10  C   UNL     1      -7.378  34.138  43.264  1.00  0.00     0.000 C 
BRANCH  10  11
ATOM     11  C   UNL     1      -8.109  32.909  43.832  1.00  0.00     0.000 C 
BRANCH  11  12
ATOM     12  C   UNL     1      -9.334  32.478  42.992  1.00  0.00     0.006 C 
BRANCH  12  13
ATOM     13  C   UNL     1     -10.422  31.812  43.842  1.00  0.00     0.053 C 
BRANCH  13  14
ATOM     14  C   UNL     1     -10.621  30.392  43.417  1.00  0.00     0.041 C 
ATOM     15  O   UNL     1     -11.391  29.637  44.068  1.00  0.00    -0.550 OA
ATOM     16  O   UNL     1      -9.996  29.914  42.270  1.00  0.00    -0.550 OA
ENDBRANCH  13  14
ENDBRANCH  12  13
ENDBRANCH  11  12
ENDBRANCH  10  11
ENDBRANCH   9  10
ENDBRANCH   8   9
ENDBRANCH   7   8
ENDBRANCH   6   7
ENDBRANCH   5   6
ENDBRANCH   4   5
ENDBRANCH   3   4
ENDBRANCH   2   3
ENDBRANCH   1   2
BRANCH   1  17
ATOM     17  C   UNL     1      -3.677  37.878  42.053  1.00  0.00     0.000 C 
BRANCH  17  18
ATOM     18  C   UNL     1      -3.652  37.523  40.551  1.00  0.00     0.000 C 
BRANCH  18  19
ATOM     19  C   UNL     1      -3.838  36.020  40.261  1.00  0.00     0.000 C 
BRANCH  19  20
ATOM     20  C   UNL     1      -2.607  35.138  40.544  1.00  0.00     0.000 C 
BRANCH  20  21
ATOM     21  C   UNL     1      -2.899  33.835  41.312  1.00  0.00     0.000 C 
BRANCH  21  22
ATOM     22  C   UNL     1      -3.946  34.010  42.421  1.00  0.00    -0.000 C 
BRANCH  22  23
ATOM     23  C   UNL     1      -3.294  34.520  43.712  1.00  0.00    -0.000 C 
BRANCH  23  24
ATOM     24  C   UNL     1      -4.004  33.959  44.949  1.00  0.00    -0.000 C 
BRANCH  24  25
ATOM     25  C   UNL     1      -4.081  35.013  46.064  1.00  0.00    -0.000 C 
BRANCH  25  26
ATOM     26  C   UNL     1      -3.953  36.448  45.531  1.00  0.00    -0.000 C 
BRANCH  26  27
ATOM     27  C   UNL     1      -4.365  37.506  46.570  1.00  0.00    -0.000 C 
BRANCH  27  28
ATOM     28  C   UNL     1      -3.322  37.650  47.700  1.00  0.00    -0.000 C 
BRANCH  28  29
ATOM     29  C   UNL     1      -3.930  37.572  49.111  1.00  0.00    -0.003 C 
ATOM     30  C   UNL     1      -5.442  37.362  49.101  1.00  0.00     0.004 C 
ENDBRANCH  28  29
ENDBRANCH  27  28
ENDBRANCH  26  27
ENDBRANCH  25  26
ENDBRANCH  24  25
ENDBRANCH  23  24
ENDBRANCH  22  23
ENDBRANCH  21  22
ENDBRANCH  20  21
ENDBRANCH  19  20
ENDBRANCH  18  19
ENDBRANCH  17  18
ENDBRANCH   1  17
TORSDOF 26
ENDMDL
MODEL 4
REMARK VINA RESULT:    -3.120      2.529      4.395
REMARK INTER + INTRA:         -13.357
REMARK INTER:                  -8.734
REMARK INTRA:                  -4.623
REMARK UNBOUND:                -5.496
REMARK SMILES CCCCCCCCCCCCCCCCCCCCCCCCCCCC(=O)[O-]
REMARK SMILES IDX 15 1 16 2 17 3 18 4 19 5 20 6 21 7 22 8 23 9 24 10 25 11
REMARK SMILES IDX 26 12 27 13 28 14 29 15 30 16 14 17 13 18 12 19 11 20 10 21
REMARK SMILES IDX 9 22 8 23 7 24 6 25 5 26 4 27 3 28 2 29 1 30
REMARK H PARENT
REMARK Flexibility Score: inf
ROOT
ATOM      1  C   UNL     1      -7.615  36.730  46.367  1.00  0.00     0.000 C 
ENDROOT
BRANCH   1   2
ATOM      2  C   UNL     1      -7.675  35.298  45.813  1.00  0.00     0.000 C 
BRANCH   2   3
ATOM      3  C   UNL     1      -7.438  35.237  44.293  1.00  0.00     0.000 C 
BRANCH   3   4
ATOM      4  C   UNL     1      -7.905  33.900  43.678  1.00  0.00     0.000 C 
BRANCH   4   5
ATOM      5  C   UNL     1      -7.005  33.389  42.535  1.00  0.00     0.000 C 
BRANCH   5   6
ATOM      6  C   UNL     1      -5.499  33.380  42.845  1.00  0.00     0.000 C 
BRANCH   6   7
ATOM      7  C   UNL     1      -5.125  32.388  43.957  1.00  0.00     0.000 C 
BRANCH   7   8
ATOM      8  C   UNL     1      -4.468  33.112  45.142  1.00  0.00     0.000 C 
BRANCH   8   9
ATOM      9  C   UNL     1      -3.202  33.899  44.740  1.00  0.00     0.000 C 
BRANCH   9  10
ATOM     10  C   UNL     1      -1.929  33.477  45.502  1.00  0.00     0.000 C 
BRANCH  10  11
ATOM     11  C   UNL     1      -1.664  31.961  45.523  1.00  0.00     0.000 C 
BRANCH  11  12
ATOM     12  C   UNL     1      -1.024  31.431  44.219  1.00  0.00     0.006 C 
BRANCH  12  13
ATOM     13  C   UNL     1      -1.121  29.905  44.098  1.00  0.00     0.053 C 
BRANCH  13  14
ATOM     14  C   UNL     1      -2.304  29.521  43.267  1.00  0.00     0.041 C 
ATOM     15  O   UNL     1      -2.193  29.413  42.017  1.00  0.00    -0.550 OA
ATOM     16  O   UNL     1      -3.519  29.231  43.878  1.00  0.00    -0.550 OA
ENDBRANCH  13  14
ENDBRANCH  12  13
ENDBRANCH  11  12
ENDBRANCH  10  11
ENDBRANCH   9  10
ENDBRANCH   8   9
ENDBRANCH   7   8
ENDBRANCH   6   7
ENDBRANCH   5   6
ENDBRANCH   4   5
ENDBRANCH   3   4
ENDBRANCH   2   3
ENDBRANCH   1   2
BRANCH   1  17
ATOM     17  C   UNL     1      -8.471  37.716  45.551  1.00  0.00     0.000 C 
BRANCH  17  18
ATOM     18  C   UNL     1      -8.125  39.190  45.850  1.00  0.00     0.000 C 
BRANCH  18  19
ATOM     19  C   UNL     1      -7.335  39.887  44.725  1.00  0.00     0.000 C 
BRANCH  19  20
ATOM     20  C   UNL     1      -6.799  38.955  43.622  1.00  0.00     0.000 C 
BRANCH  20  21
ATOM     21  C   UNL     1      -5.273  38.996  43.415  1.00  0.00     0.000 C 
BRANCH  21  22
ATOM     22  C   UNL     1      -4.578  37.681  43.799  1.00  0.00    -0.000 C 
BRANCH  22  23
ATOM     23  C   UNL     1      -4.580  36.698  42.621  1.00  0.00    -0.000 C 
BRANCH  23  24
ATOM     24  C   UNL     1      -4.035  37.357  41.349  1.00  0.00    -0.000 C 
BRANCH  24  25
ATOM     25  C   UNL     1      -3.930  36.339  40.204  1.00  0.00    -0.000 C 
BRANCH  25  26
ATOM     26  C   UNL     1      -2.565  35.637  40.160  1.00  0.00    -0.000 C 
BRANCH  26  27
ATOM     27  C   UNL     1      -2.610  34.214  40.745  1.00  0.00    -0.000 C 
BRANCH  27  28
ATOM     28  C   UNL     1      -1.347  33.882  41.568  1.00  0.00    -0.000 C 
BRANCH  28  29
ATOM     29  C   UNL     1      -0.668  35.119  42.178  1.00  0.00    -0.003 C 
ATOM     30  C   UNL     1       0.515  34.770  43.079  1.00  0.00     0.004 C 
ENDBRANCH  28  29
ENDBRANCH  27  28
ENDBRANCH  26  27
ENDBRANCH  25  26
ENDBRANCH  24  25
ENDBRANCH  23  24
ENDBRANCH  22  23
ENDBRANCH  21  22
ENDBRANCH  20  21
ENDBRANCH  19  20
ENDBRANCH  18  19
ENDBRANCH  17  18
ENDBRANCH   1  17
TORSDOF 26
ENDMDL
MODEL 5
REMARK VINA RESULT:    -3.117      2.539      6.455
REMARK INTER + INTRA:         -13.351
REMARK INTER:                  -9.063
REMARK INTRA:                  -4.288
REMARK UNBOUND:                -5.496
REMARK SMILES CCCCCCCCCCCCCCCCCCCCCCCCCCCC(=O)[O-]
REMARK SMILES IDX 15 1 16 2 17 3 18 4 19 5 20 6 21 7 22 8 23 9 24 10 25 11
REMARK SMILES IDX 26 12 27 13 28 14 29 15 30 16 14 17 13 18 12 19 11 20 10 21
REMARK SMILES IDX 9 22 8 23 7 24 6 25 5 26 4 27 3 28 2 29 1 30
REMARK H PARENT
REMARK Flexibility Score: inf
ROOT
ATOM      1  C   UNL     1      -7.166  39.264  44.418  1.00  0.00     0.000 C 
ENDROOT
BRANCH   1   2
ATOM      2  C   UNL     1      -6.187  39.191  43.235  1.00  0.00     0.000 C 
BRANCH   2   3
ATOM      3  C   UNL     1      -4.726  39.433  43.655  1.00  0.00     0.000 C 
BRANCH   3   4
ATOM      4  C   UNL     1      -3.729  38.599  42.823  1.00  0.00     0.000 C 
BRANCH   4   5
ATOM      5  C   UNL     1      -4.382  37.448  42.034  1.00  0.00     0.000 C 
BRANCH   5   6
ATOM      6  C   UNL     1      -3.832  37.237  40.613  1.00  0.00     0.000 C 
BRANCH   6   7
ATOM      7  C   UNL     1      -3.298  35.815  40.386  1.00  0.00     0.000 C 
BRANCH   7   8
ATOM      8  C   UNL     1      -4.211  34.771  41.048  1.00  0.00     0.000 C 
BRANCH   8   9
ATOM      9  C   UNL     1      -3.426  33.622  41.717  1.00  0.00     0.000 C 
BRANCH   9  10
ATOM     10  C   UNL     1      -2.642  34.045  42.976  1.00  0.00     0.000 C 
BRANCH  10  11
ATOM     11  C   UNL     1      -1.114  34.088  42.800  1.00  0.00     0.000 C 
BRANCH  11  12
ATOM     12  C   UNL     1      -0.535  32.816  42.139  1.00  0.00     0.006 C 
BRANCH  12  13
ATOM     13  C   UNL     1      -0.537  31.611  43.087  1.00  0.00     0.053 C 
BRANCH  13  14
ATOM     14  C   UNL     1      -1.220  30.444  42.448  1.00  0.00     0.041 C 
ATOM     15  O   UNL     1      -0.576  29.667  41.695  1.00  0.00    -0.550 OA
ATOM     16  O   UNL     1      -2.558  30.182  42.725  1.00  0.00    -0.550 OA
ENDBRANCH  13  14
ENDBRANCH  12  13
ENDBRANCH  11  12
ENDBRANCH  10  11
ENDBRANCH   9  10
ENDBRANCH   8   9
ENDBRANCH   7   8
ENDBRANCH   6   7
ENDBRANCH   5   6
ENDBRANCH   4   5
ENDBRANCH   3   4
ENDBRANCH   2   3
ENDBRANCH   1   2
BRANCH   1  17
ATOM     17  C   UNL     1      -8.078  38.027  44.506  1.00  0.00     0.000 C 
BRANCH  17  18
ATOM     18  C   UNL     1      -8.428  37.652  45.962  1.00  0.00     0.000 C 
BRANCH  18  19
ATOM     19  C   UNL     1      -7.392  38.132  46.998  1.00  0.00     0.000 C 
BRANCH  19  20
ATOM     20  C   UNL     1      -6.343  37.084  47.414  1.00  0.00     0.000 C 
BRANCH  20  21
ATOM     21  C   UNL     1      -4.935  37.298  46.828  1.00  0.00     0.000 C 
BRANCH  21  22
ATOM     22  C   UNL     1      -4.439  36.104  45.998  1.00  0.00    -0.000 C 
BRANCH  22  23
ATOM     23  C   UNL     1      -5.367  35.845  44.805  1.00  0.00    -0.000 C 
BRANCH  23  24
ATOM     24  C   UNL     1      -5.927  34.419  44.839  1.00  0.00    -0.000 C 
BRANCH  24  25
ATOM     25  C   UNL     1      -7.245  34.327  44.056  1.00  0.00    -0.000 C 
BRANCH  25  26
ATOM     26  C   UNL     1      -7.151  33.383  42.848  1.00  0.00    -0.000 C 
BRANCH  26  27
ATOM     27  C   UNL     1      -8.520  33.112  42.198  1.00  0.00    -0.000 C 
BRANCH  27  28
ATOM     28  C   UNL     1      -9.433  32.254  43.100  1.00  0.00    -0.000 C 
BRANCH  28  29
ATOM     29  C   UNL     1      -9.689  30.841  42.550  1.00  0.00    -0.003 C 
ATOM     30  C   UNL     1     -10.682  30.042  43.391  1.00  0.00     0.004 C 
ENDBRANCH  28  29
ENDBRANCH  27  28
ENDBRANCH  26  27
ENDBRANCH  25  26
ENDBRANCH  24  25
ENDBRANCH  23  24
ENDBRANCH  22  23
ENDBRANCH  21  22
ENDBRANCH  20  21
ENDBRANCH  19  20
ENDBRANCH  18  19
ENDBRANCH  17  18
ENDBRANCH   1  17
TORSDOF 26
ENDMDL
MODEL 6
REMARK VINA RESULT:    -3.093      2.063      5.404
REMARK INTER + INTRA:         -13.289
REMARK INTER:                  -8.800
REMARK INTRA:                  -4.489
REMARK UNBOUND:                -5.496
REMARK SMILES CCCCCCCCCCCCCCCCCCCCCCCCCCCC(=O)[O-]
REMARK SMILES IDX 15 1 16 2 17 3 18 4 19 5 20 6 21 7 22 8 23 9 24 10 25 11
REMARK SMILES IDX 26 12 27 13 28 14 29 15 30 16 14 17 13 18 12 19 11 20 10 21
REMARK SMILES IDX 9 22 8 23 7 24 6 25 5 26 4 27 3 28 2 29 1 30
REMARK H PARENT
REMARK Flexibility Score: inf
ROOT
ATOM      1  C   UNL     1      -6.988  39.246  43.684  1.00  0.00     0.000 C 
ENDROOT
BRANCH   1   2
ATOM      2  C   UNL     1      -5.474  39.010  43.577  1.00  0.00     0.000 C 
BRANCH   2   3
ATOM      3  C   UNL     1      -5.125  37.671  42.904  1.00  0.00     0.000 C 
BRANCH   3   4
ATOM      4  C   UNL     1      -3.788  37.729  42.134  1.00  0.00     0.000 C 
BRANCH   4   5
ATOM      5  C   UNL     1      -3.941  37.609  40.605  1.00  0.00     0.000 C 
BRANCH   5   6
ATOM      6  C   UNL     1      -3.924  36.172  40.058  1.00  0.00     0.000 C 
BRANCH   6   7
ATOM      7  C   UNL     1      -2.654  35.401  40.449  1.00  0.00     0.000 C 
BRANCH   7   8
ATOM      8  C   UNL     1      -3.002  34.135  41.247  1.00  0.00     0.000 C 
BRANCH   8   9
ATOM      9  C   UNL     1      -4.467  34.113  41.732  1.00  0.00     0.000 C 
BRANCH   9  10
ATOM     10  C   UNL     1      -4.622  34.034  43.265  1.00  0.00     0.000 C 
BRANCH  10  11
ATOM     11  C   UNL     1      -5.893  33.312  43.747  1.00  0.00     0.000 C 
BRANCH  11  12
ATOM     12  C   UNL     1      -7.200  34.022  43.327  1.00  0.00     0.006 C 
BRANCH  12  13
ATOM     13  C   UNL     1      -8.436  33.423  44.008  1.00  0.00     0.053 C 
BRANCH  13  14
ATOM     14  C   UNL     1      -9.225  32.605  43.035  1.00  0.00     0.041 C 
ATOM     15  O   UNL     1     -10.179  31.887  43.436  1.00  0.00    -0.550 OA
ATOM     16  O   UNL     1      -8.942  32.677  41.675  1.00  0.00    -0.550 OA
ENDBRANCH  13  14
ENDBRANCH  12  13
ENDBRANCH  11  12
ENDBRANCH  10  11
ENDBRANCH   9  10
ENDBRANCH   8   9
ENDBRANCH   7   8
ENDBRANCH   6   7
ENDBRANCH   5   6
ENDBRANCH   4   5
ENDBRANCH   3   4
ENDBRANCH   2   3
ENDBRANCH   1   2
BRANCH   1  17
ATOM     17  C   UNL     1      -7.461  39.397  45.141  1.00  0.00     0.000 C 
BRANCH  17  18
ATOM     18  C   UNL     1      -8.463  38.299  45.556  1.00  0.00     0.000 C 
BRANCH  18  19
ATOM     19  C   UNL     1      -7.927  36.864  45.378  1.00  0.00     0.000 C 
BRANCH  19  20
ATOM     20  C   UNL     1      -7.495  36.157  46.677  1.00  0.00     0.000 C 
BRANCH  20  21
ATOM     21  C   UNL     1      -6.030  35.683  46.707  1.00  0.00     0.000 C 
BRANCH  21  22
ATOM     22  C   UNL     1      -5.022  36.829  46.536  1.00  0.00    -0.000 C 
BRANCH  22  23
ATOM     23  C   UNL     1      -5.186  37.872  47.648  1.00  0.00    -0.000 C 
BRANCH  23  24
ATOM     24  C   UNL     1      -3.828  38.282  48.228  1.00  0.00    -0.000 C 
BRANCH  24  25
ATOM     25  C   UNL     1      -3.891  38.381  49.759  1.00  0.00    -0.000 C 
BRANCH  25  26
ATOM     26  C   UNL     1      -5.107  37.652  50.350  1.00  0.00    -0.000 C 
BRANCH  26  27
ATOM     27  C   UNL     1      -4.760  36.250  50.880  1.00  0.00    -0.000 C 
BRANCH  27  28
ATOM     28  C   UNL     1      -3.252  36.092  51.166  1.00  0.00    -0.000 C 
BRANCH  28  29
ATOM     29  C   UNL     1      -2.559  35.059  50.262  1.00  0.00    -0.003 C 
ATOM     30  C   UNL     1      -3.495  34.453  49.219  1.00  0.00     0.004 C 
ENDBRANCH  28  29
ENDBRANCH  27  28
ENDBRANCH  26  27
ENDBRANCH  25  26
ENDBRANCH  24  25
ENDBRANCH  23  24
ENDBRANCH  22  23
ENDBRANCH  21  22
ENDBRANCH  20  21
ENDBRANCH  19  20
ENDBRANCH  18  19
ENDBRANCH  17  18
ENDBRANCH   1  17
TORSDOF 26
ENDMDL
MODEL 7
REMARK VINA RESULT:    -3.089      2.805      5.356
REMARK INTER + INTRA:         -13.279
REMARK INTER:                  -8.287
REMARK INTRA:                  -4.992
REMARK UNBOUND:                -5.496
REMARK SMILES CCCCCCCCCCCCCCCCCCCCCCCCCCCC(=O)[O-]
REMARK SMILES IDX 15 1 16 2 17 3 18 4 19 5 20 6 21 7 22 8 23 9 24 10 25 11
REMARK SMILES IDX 26 12 27 13 28 14 29 15 30 16 14 17 13 18 12 19 11 20 10 21
REMARK SMILES IDX 9 22 8 23 7 24 6 25 5 26 4 27 3 28 2 29 1 30
REMARK H PARENT
REMARK Flexibility Score: inf
ROOT
ATOM      1  C   UNL     1      -5.706  35.971  45.379  1.00  0.00     0.000 C 
ENDROOT
BRANCH   1   2
ATOM      2  C   UNL     1      -6.295  35.808  43.970  1.00  0.00     0.000 C 
BRANCH   2   3
ATOM      3  C   UNL     1      -5.531  34.778  43.119  1.00  0.00     0.000 C 
BRANCH   3   4
ATOM      4  C   UNL     1      -6.381  33.529  42.802  1.00  0.00     0.000 C 
BRANCH   4   5
ATOM      5  C   UNL     1      -7.852  33.645  43.245  1.00  0.00     0.000 C 
BRANCH   5   6
ATOM      6  C   UNL     1      -8.369  32.479  44.104  1.00  0.00     0.000 C 
BRANCH   6   7
ATOM      7  C   UNL     1      -8.489  32.842  45.592  1.00  0.00     0.000 C 
BRANCH   7   8
ATOM      8  C   UNL     1      -7.138  32.685  46.307  1.00  0.00     0.000 C 
BRANCH   8   9
ATOM      9  C   UNL     1      -6.339  31.456  45.822  1.00  0.00     0.000 C 
BRANCH   9  10
ATOM     10  C   UNL     1      -4.844  31.737  45.566  1.00  0.00     0.000 C 
BRANCH  10  11
ATOM     11  C   UNL     1      -4.166  30.770  44.579  1.00  0.00     0.000 C 
BRANCH  11  12
ATOM     12  C   UNL     1      -2.641  30.641  44.795  1.00  0.00     0.006 C 
BRANCH  12  13
ATOM     13  C   UNL     1      -1.847  31.684  43.999  1.00  0.00     0.053 C 
BRANCH  13  14
ATOM     14  C   UNL     1      -0.754  31.026  43.218  1.00  0.00     0.041 C 
ATOM     15  O   UNL     1      -0.648  31.231  41.980  1.00  0.00    -0.550 OA
ATOM     16  O   UNL     1       0.181  30.227  43.867  1.00  0.00    -0.550 OA
ENDBRANCH  13  14
ENDBRANCH  12  13
ENDBRANCH  11  12
ENDBRANCH  10  11
ENDBRANCH   9  10
ENDBRANCH   8   9
ENDBRANCH   7   8
ENDBRANCH   6   7
ENDBRANCH   5   6
ENDBRANCH   4   5
ENDBRANCH   3   4
ENDBRANCH   2   3
ENDBRANCH   1   2
BRANCH   1  17
ATOM     17  C   UNL     1      -6.771  36.350  46.424  1.00  0.00     0.000 C 
BRANCH  17  18
ATOM     18  C   UNL     1      -8.138  36.675  45.786  1.00  0.00     0.000 C 
BRANCH  18  19
ATOM     19  C   UNL     1      -8.533  38.163  45.876  1.00  0.00     0.000 C 
BRANCH  19  20
ATOM     20  C   UNL     1      -7.514  39.072  46.589  1.00  0.00     0.000 C 
BRANCH  20  21
ATOM     21  C   UNL     1      -6.685  39.980  45.661  1.00  0.00     0.000 C 
BRANCH  21  22
ATOM     22  C   UNL     1      -7.203  39.998  44.216  1.00  0.00    -0.000 C 
BRANCH  22  23
ATOM     23  C   UNL     1      -6.193  39.342  43.266  1.00  0.00    -0.000 C 
BRANCH  23  24
ATOM     24  C   UNL     1      -4.802  39.263  43.905  1.00  0.00    -0.000 C 
BRANCH  24  25
ATOM     25  C   UNL     1      -3.817  38.524  42.988  1.00  0.00    -0.000 C 
BRANCH  25  26
ATOM     26  C   UNL     1      -4.482  37.996  41.707  1.00  0.00    -0.000 C 
BRANCH  26  27
ATOM     27  C   UNL     1      -3.460  37.594  40.630  1.00  0.00    -0.000 C 
BRANCH  27  28
ATOM     28  C   UNL     1      -3.665  36.143  40.145  1.00  0.00    -0.000 C 
BRANCH  28  29
ATOM     29  C   UNL     1      -2.421  35.254  40.318  1.00  0.00    -0.003 C 
ATOM     30  C   UNL     1      -2.706  33.968  41.089  1.00  0.00     0.004 C 
ENDBRANCH  28  29
ENDBRANCH  27  28
ENDBRANCH  26  27
ENDBRANCH  25  26
ENDBRANCH  24  25
ENDBRANCH  23  24
ENDBRANCH  22  23
ENDBRANCH  21  22
ENDBRANCH  20  21
ENDBRANCH  19  20
ENDBRANCH  18  19
ENDBRANCH  17  18
ENDBRANCH   1  17
TORSDOF 26
ENDMDL
MODEL 8
REMARK VINA RESULT:    -3.058      2.803      6.360
REMARK INTER + INTRA:         -13.203
REMARK INTER:                  -8.233
REMARK INTRA:                  -4.969
REMARK UNBOUND:                -5.496
REMARK SMILES CCCCCCCCCCCCCCCCCCCCCCCCCCCC(=O)[O-]
REMARK SMILES IDX 15 1 16 2 17 3 18 4 19 5 20 6 21 7 22 8 23 9 24 10 25 11
REMARK SMILES IDX 26 12 27 13 28 14 29 15 30 16 14 17 13 18 12 19 11 20 10 21
REMARK SMILES IDX 9 22 8 23 7 24 6 25 5 26 4 27 3 28 2 29 1 30
REMARK H PARENT
REMARK Flexibility Score: inf
ROOT
ATOM      1  C   UNL     1      -5.509  39.234  43.612  1.00  0.00     0.000 C 
ENDROOT
BRANCH   1   2
ATOM      2  C   UNL     1      -5.207  37.812  43.115  1.00  0.00     0.000 C 
BRANCH   2   3
ATOM      3  C   UNL     1      -3.768  37.657  42.591  1.00  0.00     0.000 C 
BRANCH   3   4
ATOM      4  C   UNL     1      -3.665  37.907  41.071  1.00  0.00     0.000 C 
BRANCH   4   5
ATOM      5  C   UNL     1      -3.924  36.655  40.212  1.00  0.00     0.000 C 
BRANCH   5   6
ATOM      6  C   UNL     1      -2.694  35.765  39.967  1.00  0.00     0.000 C 
BRANCH   6   7
ATOM      7  C   UNL     1      -2.638  34.554  40.909  1.00  0.00     0.000 C 
BRANCH   7   8
ATOM      8  C   UNL     1      -4.046  34.157  41.381  1.00  0.00     0.000 C 
BRANCH   8   9
ATOM      9  C   UNL     1      -4.149  34.015  42.915  1.00  0.00     0.000 C 
BRANCH   9  10
ATOM     10  C   UNL     1      -4.640  32.631  43.388  1.00  0.00     0.000 C 
BRANCH  10  11
ATOM     11  C   UNL     1      -3.981  32.121  44.681  1.00  0.00     0.000 C 
BRANCH  11  12
ATOM     12  C   UNL     1      -2.552  32.668  44.901  1.00  0.00     0.006 C 
BRANCH  12  13
ATOM     13  C   UNL     1      -1.482  31.794  44.237  1.00  0.00     0.053 C 
BRANCH  13  14
ATOM     14  C   UNL     1      -0.349  32.637  43.744  1.00  0.00     0.041 C 
ATOM     15  O   UNL     1      -0.505  33.877  43.583  1.00  0.00    -0.550 OA
ATOM     16  O   UNL     1       0.896  32.064  43.511  1.00  0.00    -0.550 OA
ENDBRANCH  13  14
ENDBRANCH  12  13
ENDBRANCH  11  12
ENDBRANCH  10  11
ENDBRANCH   9  10
ENDBRANCH   8   9
ENDBRANCH   7   8
ENDBRANCH   6   7
ENDBRANCH   5   6
ENDBRANCH   4   5
ENDBRANCH   3   4
ENDBRANCH   2   3
ENDBRANCH   1   2
BRANCH   1  17
ATOM     17  C   UNL     1      -7.017  39.492  43.783  1.00  0.00     0.000 C 
BRANCH  17  18
ATOM     18  C   UNL     1      -7.773  38.256  44.315  1.00  0.00     0.000 C 
BRANCH  18  19
ATOM     19  C   UNL     1      -8.227  38.384  45.782  1.00  0.00     0.000 C 
BRANCH  19  20
ATOM     20  C   UNL     1      -7.890  39.726  46.461  1.00  0.00     0.000 C 
BRANCH  20  21
ATOM     21  C   UNL     1      -6.785  39.658  47.531  1.00  0.00     0.000 C 
BRANCH  21  22
ATOM     22  C   UNL     1      -6.204  38.248  47.710  1.00  0.00    -0.000 C 
BRANCH  22  23
ATOM     23  C   UNL     1      -4.825  38.136  47.047  1.00  0.00    -0.000 C 
BRANCH  23  24
ATOM     24  C   UNL     1      -4.302  36.697  47.096  1.00  0.00    -0.000 C 
BRANCH  24  25
ATOM     25  C   UNL     1      -5.461  35.689  47.063  1.00  0.00    -0.000 C 
BRANCH  25  26
ATOM     26  C   UNL     1      -5.870  35.305  45.633  1.00  0.00    -0.000 C 
BRANCH  26  27
ATOM     27  C   UNL     1      -7.277  34.686  45.564  1.00  0.00    -0.000 C 
BRANCH  27  28
ATOM     28  C   UNL     1      -7.813  34.616  44.118  1.00  0.00    -0.000 C 
BRANCH  28  29
ATOM     29  C   UNL     1      -8.307  33.217  43.712  1.00  0.00    -0.003 C 
ATOM     30  C   UNL     1      -8.566  33.086  42.213  1.00  0.00     0.004 C 
ENDBRANCH  28  29
ENDBRANCH  27  28
ENDBRANCH  26  27
ENDBRANCH  25  26
ENDBRANCH  24  25
ENDBRANCH  23  24
ENDBRANCH  22  23
ENDBRANCH  21  22
ENDBRANCH  20  21
ENDBRANCH  19  20
ENDBRANCH  18  19
ENDBRANCH  17  18
ENDBRANCH   1  17
TORSDOF 26
ENDMDL
MODEL 9
REMARK VINA RESULT:    -3.039      2.550      6.057
REMARK INTER + INTRA:         -13.154
REMARK INTER:                  -7.799
REMARK INTRA:                  -5.355
REMARK UNBOUND:                -5.496
REMARK SMILES CCCCCCCCCCCCCCCCCCCCCCCCCCCC(=O)[O-]
REMARK SMILES IDX 15 1 16 2 17 3 18 4 19 5 20 6 21 7 22 8 23 9 24 10 25 11
REMARK SMILES IDX 26 12 27 13 28 14 29 15 30 16 14 17 13 18 12 19 11 20 10 21
REMARK SMILES IDX 9 22 8 23 7 24 6 25 5 26 4 27 3 28 2 29 1 30
REMARK H PARENT
REMARK Flexibility Score: inf
ROOT
ATOM      1  C   UNL     1      -4.969  37.304  47.174  1.00  0.00     0.000 C 
ENDROOT
BRANCH   1   2
ATOM      2  C   UNL     1      -4.085  38.364  46.497  1.00  0.00     0.000 C 
BRANCH   2   3
ATOM      3  C   UNL     1      -2.756  37.787  45.979  1.00  0.00     0.000 C 
BRANCH   3   4
ATOM      4  C   UNL     1      -2.946  36.893  44.734  1.00  0.00     0.000 C 
BRANCH   4   5
ATOM      5  C   UNL     1      -2.110  37.330  43.516  1.00  0.00     0.000 C 
BRANCH   5   6
ATOM      6  C   UNL     1      -2.731  38.452  42.668  1.00  0.00     0.000 C 
BRANCH   6   7
ATOM      7  C   UNL     1      -2.674  38.161  41.160  1.00  0.00     0.000 C 
BRANCH   7   8
ATOM      8  C   UNL     1      -3.983  37.522  40.673  1.00  0.00     0.000 C 
BRANCH   8   9
ATOM      9  C   UNL     1      -3.808  36.051  40.236  1.00  0.00     0.000 C 
BRANCH   9  10
ATOM     10  C   UNL     1      -4.100  35.024  41.350  1.00  0.00     0.000 C 
BRANCH  10  11
ATOM     11  C   UNL     1      -3.178  33.792  41.348  1.00  0.00     0.000 C 
BRANCH  11  12
ATOM     12  C   UNL     1      -1.729  34.108  41.785  1.00  0.00     0.006 C 
BRANCH  12  13
ATOM     13  C   UNL     1      -1.369  33.460  43.127  1.00  0.00     0.053 C 
BRANCH  13  14
ATOM     14  C   UNL     1      -0.872  32.065  42.918  1.00  0.00     0.041 C 
ATOM     15  O   UNL     1      -1.053  31.187  43.803  1.00  0.00    -0.550 OA
ATOM     16  O   UNL     1      -0.253  31.718  41.721  1.00  0.00    -0.550 OA
ENDBRANCH  13  14
ENDBRANCH  12  13
ENDBRANCH  11  12
ENDBRANCH  10  11
ENDBRANCH   9  10
ENDBRANCH   8   9
ENDBRANCH   7   8
ENDBRANCH   6   7
ENDBRANCH   5   6
ENDBRANCH   4   5
ENDBRANCH   3   4
ENDBRANCH   2   3
ENDBRANCH   1   2
BRANCH   1  17
ATOM     17  C   UNL     1      -6.261  37.902  47.762  1.00  0.00     0.000 C 
BRANCH  17  18
ATOM     18  C   UNL     1      -6.395  39.414  47.483  1.00  0.00     0.000 C 
BRANCH  18  19
ATOM     19  C   UNL     1      -7.543  39.773  46.520  1.00  0.00     0.000 C 
BRANCH  19  20
ATOM     20  C   UNL     1      -7.113  40.118  45.082  1.00  0.00     0.000 C 
BRANCH  20  21
ATOM     21  C   UNL     1      -7.437  39.044  44.026  1.00  0.00     0.000 C 
BRANCH  21  22
ATOM     22  C   UNL     1      -6.193  38.301  43.520  1.00  0.00    -0.000 C 
BRANCH  22  23
ATOM     23  C   UNL     1      -6.377  36.783  43.637  1.00  0.00    -0.000 C 
BRANCH  23  24
ATOM     24  C   UNL     1      -7.476  36.435  44.646  1.00  0.00    -0.000 C 
BRANCH  24  25
ATOM     25  C   UNL     1      -7.248  35.041  45.250  1.00  0.00    -0.000 C 
BRANCH  25  26
ATOM     26  C   UNL     1      -6.011  34.340  44.668  1.00  0.00    -0.000 C 
BRANCH  26  27
ATOM     27  C   UNL     1      -6.369  33.082  43.857  1.00  0.00    -0.000 C 
BRANCH  27  28
ATOM     28  C   UNL     1      -7.664  32.412  44.363  1.00  0.00    -0.000 C 
BRANCH  28  29
ATOM     29  C   UNL     1      -8.684  32.124  43.248  1.00  0.00    -0.003 C 
ATOM     30  C   UNL     1      -8.616  33.129  42.101  1.00  0.00     0.004 C 
ENDBRANCH  28  29
ENDBRANCH  27  28
ENDBRANCH  26  27
ENDBRANCH  25  26
ENDBRANCH  24  25
ENDBRANCH  23  24
ENDBRANCH  22  23
ENDBRANCH  21  22
ENDBRANCH  20  21
ENDBRANCH  19  20
ENDBRANCH  18  19
ENDBRANCH  17  18
ENDBRANCH   1  17
TORSDOF 26
ENDMDL
