MODEL 1
REMARK VINA RESULT:    -4.844      0.000      0.000
REMARK INTER + INTRA:          -5.148
REMARK INTER:                  -5.127
REMARK INTRA:                  -0.021
REMARK UNBOUND:                -0.021
REMARK SMILES O=C([O-])c1cccnc1
REMARK SMILES IDX 4 1 5 2 9 3 6 4 8 5 7 6 2 7 1 8 3 9
REMARK H PARENT
REMARK Flexibility Score: inf
ROOT
ATOM      1  C   UNL     1      -8.867  28.722  19.298  1.00  0.00     0.016 A 
ATOM      2  C   UNL     1      -7.965  28.366  20.315  1.00  0.00     0.013 A 
ATOM      3  C   UNL     1      -8.472  28.539  17.962  1.00  0.00     0.120 A 
ATOM      4  C   UNL     1      -6.712  27.846  19.990  1.00  0.00     0.021 A 
ATOM      5  N   UNL     1      -7.244  28.029  17.673  1.00  0.00    -0.264 NA
ATOM      6  C   UNL     1      -6.365  27.683  18.649  1.00  0.00     0.111 A 
ENDROOT
BRANCH   1   7
ATOM      7  C   UNL     1     -10.200  29.275  19.621  1.00  0.00     0.073 C 
ATOM      8  O   UNL     1     -10.719  30.162  18.892  1.00  0.00    -0.545 OA
ATOM      9  O   UNL     1     -10.899  28.822  20.733  1.00  0.00    -0.545 OA
ENDBRANCH   1   7
TORSDOF 1
ENDMDL
MODEL 2
REMARK VINA RESULT:    -4.824      2.887      3.655
REMARK INTER + INTRA:          -5.127
REMARK INTER:                  -5.107
REMARK INTRA:                  -0.020
REMARK UNBOUND:                -0.021
REMARK SMILES O=C([O-])c1cccnc1
REMARK SMILES IDX 4 1 5 2 9 3 6 4 8 5 7 6 2 7 1 8 3 9
REMARK H PARENT
REMARK Flexibility Score: inf
ROOT
ATOM      1  C   UNL     1      -7.492  28.219  19.314  1.00  0.00     0.016 A 
ATOM      2  C   UNL     1      -8.366  28.533  20.370  1.00  0.00     0.013 A 
ATOM      3  C   UNL     1      -7.930  28.440  17.998  1.00  0.00     0.120 A 
ATOM      4  C   UNL     1      -9.633  29.050  20.100  1.00  0.00     0.021 A 
ATOM      5  N   UNL     1      -9.172  28.945  17.762  1.00  0.00    -0.264 NA
ATOM      6  C   UNL     1     -10.023  29.251  18.776  1.00  0.00     0.111 A 
ENDROOT
BRANCH   1   7
ATOM      7  C   UNL     1      -6.145  27.671  19.578  1.00  0.00     0.073 C 
ATOM      8  O   UNL     1      -5.688  26.728  18.877  1.00  0.00    -0.545 OA
ATOM      9  O   UNL     1      -5.362  28.189  20.603  1.00  0.00    -0.545 OA
ENDBRANCH   1   7
TORSDOF 1
ENDMDL
MODEL 3
REMARK VINA RESULT:    -4.742      1.686      2.716
REMARK INTER + INTRA:          -5.040
REMARK INTER:                  -5.016
REMARK INTRA:                  -0.024
REMARK UNBOUND:                -0.021
REMARK SMILES O=C([O-])c1cccnc1
REMARK SMILES IDX 4 1 5 2 9 3 6 4 8 5 7 6 2 7 1 8 3 9
REMARK H PARENT
REMARK Flexibility Score: inf
ROOT
ATOM      1  C   UNL     1      -8.273  28.482  19.222  1.00  0.00     0.016 A 
ATOM      2  C   UNL     1      -9.468  28.728  18.526  1.00  0.00     0.013 A 
ATOM      3  C   UNL     1      -7.116  28.192  18.479  1.00  0.00     0.120 A 
ATOM      4  C   UNL     1      -9.490  28.681  17.131  1.00  0.00     0.021 A 
ATOM      5  N   UNL     1      -7.164  28.152  17.120  1.00  0.00    -0.264 NA
ATOM      6  C   UNL     1      -8.315  28.388  16.438  1.00  0.00     0.111 A 
ENDROOT
BRANCH   1   7
ATOM      7  C   UNL     1      -8.228  28.527  20.699  1.00  0.00     0.073 C 
ATOM      8  O   UNL     1      -9.294  28.530  21.372  1.00  0.00    -0.545 OA
ATOM      9  O   UNL     1      -7.009  28.565  21.366  1.00  0.00    -0.545 OA
ENDBRANCH   1   7
TORSDOF 1
ENDMDL
MODEL 4
REMARK VINA RESULT:    -4.713      1.877      2.643
REMARK INTER + INTRA:          -5.009
REMARK INTER:                  -4.986
REMARK INTRA:                  -0.023
REMARK UNBOUND:                -0.021
REMARK SMILES O=C([O-])c1cccnc1
REMARK SMILES IDX 4 1 5 2 9 3 6 4 8 5 7 6 2 7 1 8 3 9
REMARK H PARENT
REMARK Flexibility Score: inf
ROOT
ATOM      1  C   UNL     1      -8.341  28.595  19.200  1.00  0.00     0.016 A 
ATOM      2  C   UNL     1      -7.200  28.288  18.440  1.00  0.00     0.013 A 
ATOM      3  C   UNL     1      -9.512  28.976  18.523  1.00  0.00     0.120 A 
ATOM      4  C   UNL     1      -7.244  28.364  17.047  1.00  0.00     0.021 A 
ATOM      5  N   UNL     1      -9.528  29.043  17.164  1.00  0.00    -0.264 NA
ATOM      6  C   UNL     1      -8.429  28.748  16.420  1.00  0.00     0.111 A 
ENDROOT
BRANCH   1   7
ATOM      7  C   UNL     1      -8.316  28.521  20.677  1.00  0.00     0.073 C 
ATOM      8  O   UNL     1      -9.389  28.435  21.332  1.00  0.00    -0.545 OA
ATOM      9  O   UNL     1      -7.107  28.542  21.362  1.00  0.00    -0.545 OA
ENDBRANCH   1   7
TORSDOF 1
ENDMDL
MODEL 5
REMARK VINA RESULT:    -4.681      0.965      1.957
REMARK INTER + INTRA:          -4.975
REMARK INTER:                  -4.954
REMARK INTRA:                  -0.021
REMARK UNBOUND:                -0.021
REMARK SMILES O=C([O-])c1cccnc1
REMARK SMILES IDX 4 1 5 2 9 3 6 4 8 5 7 6 2 7 1 8 3 9
REMARK H PARENT
REMARK Flexibility Score: inf
ROOT
ATOM      1  C   UNL     1      -8.580  28.625  19.406  1.00  0.00     0.016 A 
ATOM      2  C   UNL     1      -8.321  28.542  18.028  1.00  0.00     0.013 A 
ATOM      3  C   UNL     1      -7.599  28.161  20.299  1.00  0.00     0.120 A 
ATOM      4  C   UNL     1      -7.115  28.009  17.572  1.00  0.00     0.021 A 
ATOM      5  N   UNL     1      -6.431  27.646  19.828  1.00  0.00    -0.264 NA
ATOM      6  C   UNL     1      -6.172  27.561  18.497  1.00  0.00     0.111 A 
ENDROOT
BRANCH   1   7
ATOM      7  C   UNL     1      -9.852  29.186  19.910  1.00  0.00     0.073 C 
ATOM      8  O   UNL     1     -10.384  28.729  20.957  1.00  0.00    -0.545 OA
ATOM      9  O   UNL     1     -10.478  30.227  19.235  1.00  0.00    -0.545 OA
ENDBRANCH   1   7
TORSDOF 1
ENDMDL
MODEL 6
REMARK VINA RESULT:    -4.605      2.981      3.941
REMARK INTER + INTRA:          -4.895
REMARK INTER:                  -4.876
REMARK INTRA:                  -0.019
REMARK UNBOUND:                -0.021
REMARK SMILES O=C([O-])c1cccnc1
REMARK SMILES IDX 4 1 5 2 9 3 6 4 8 5 7 6 2 7 1 8 3 9
REMARK H PARENT
REMARK Flexibility Score: inf
ROOT
ATOM      1  C   UNL     1      -7.721  28.303  19.176  1.00  0.00     0.016 A 
ATOM      2  C   UNL     1      -8.737  28.669  18.276  1.00  0.00     0.013 A 
ATOM      3  C   UNL     1      -8.018  28.290  20.549  1.00  0.00     0.120 A 
ATOM      4  C   UNL     1     -10.004  29.010  18.751  1.00  0.00     0.021 A 
ATOM      5  N   UNL     1      -9.262  28.628  20.986  1.00  0.00    -0.264 NA
ATOM      6  C   UNL     1     -10.250  28.983  20.123  1.00  0.00     0.111 A 
ENDROOT
BRANCH   1   7
ATOM      7  C   UNL     1      -6.371  27.937  18.694  1.00  0.00     0.073 C 
ATOM      8  O   UNL     1      -5.741  28.702  17.915  1.00  0.00    -0.545 OA
ATOM      9  O   UNL     1      -5.779  26.746  19.095  1.00  0.00    -0.545 OA
ENDBRANCH   1   7
TORSDOF 1
ENDMDL
MODEL 7
REMARK VINA RESULT:    -4.522      2.553      3.249
REMARK INTER + INTRA:          -4.807
REMARK INTER:                  -4.784
REMARK INTRA:                  -0.024
REMARK UNBOUND:                -0.021
REMARK SMILES O=C([O-])c1cccnc1
REMARK SMILES IDX 4 1 5 2 9 3 6 4 8 5 7 6 2 7 1 8 3 9
REMARK H PARENT
REMARK Flexibility Score: inf
ROOT
ATOM      1  C   UNL     1      -8.503  28.629  18.284  1.00  0.00     0.016 A 
ATOM      2  C   UNL     1      -7.530  28.258  19.228  1.00  0.00     0.013 A 
ATOM      3  C   UNL     1      -9.778  28.993  18.748  1.00  0.00     0.120 A 
ATOM      4  C   UNL     1      -7.839  28.255  20.588  1.00  0.00     0.021 A 
ATOM      5  N   UNL     1     -10.053  28.981  20.080  1.00  0.00    -0.264 NA
ATOM      6  C   UNL     1      -9.119  28.623  21.000  1.00  0.00     0.111 A 
ENDROOT
BRANCH   1   7
ATOM      7  C   UNL     1      -8.196  28.639  16.837  1.00  0.00     0.073 C 
ATOM      8  O   UNL     1      -9.068  28.994  16.000  1.00  0.00    -0.545 OA
ATOM      9  O   UNL     1      -6.939  28.259  16.382  1.00  0.00    -0.545 OA
ENDBRANCH   1   7
TORSDOF 1
ENDMDL
MODEL 8
REMARK VINA RESULT:    -4.465      2.243      2.891
REMARK INTER + INTRA:          -4.747
REMARK INTER:                  -4.729
REMARK INTRA:                  -0.018
REMARK UNBOUND:                -0.021
REMARK SMILES O=C([O-])c1cccnc1
REMARK SMILES IDX 4 1 5 2 9 3 6 4 8 5 7 6 2 7 1 8 3 9
REMARK H PARENT
REMARK Flexibility Score: inf
ROOT
ATOM      1  C   UNL     1      -8.613  28.623  17.994  1.00  0.00     0.016 A 
ATOM      2  C   UNL     1      -9.507  28.981  19.018  1.00  0.00     0.013 A 
ATOM      3  C   UNL     1      -7.306  28.251  18.350  1.00  0.00     0.120 A 
ATOM      4  C   UNL     1      -9.091  28.962  20.350  1.00  0.00     0.021 A 
ATOM      5  N   UNL     1      -6.926  28.242  19.656  1.00  0.00    -0.264 NA
ATOM      6  C   UNL     1      -7.783  28.586  20.653  1.00  0.00     0.111 A 
ENDROOT
BRANCH   1   7
ATOM      7  C   UNL     1      -9.034  28.636  16.577  1.00  0.00     0.073 C 
ATOM      8  O   UNL     1      -8.447  29.375  15.741  1.00  0.00    -0.545 OA
ATOM      9  O   UNL     1     -10.082  27.831  16.146  1.00  0.00    -0.545 OA
ENDBRANCH   1   7
TORSDOF 1
ENDMDL
MODEL 9
REMARK VINA RESULT:    -4.398      2.737      3.665
REMARK INTER + INTRA:          -4.676
REMARK INTER:                  -4.657
REMARK INTRA:                  -0.019
REMARK UNBOUND:                -0.021
REMARK SMILES O=C([O-])c1cccnc1
REMARK SMILES IDX 4 1 5 2 9 3 6 4 8 5 7 6 2 7 1 8 3 9
REMARK H PARENT
REMARK Flexibility Score: inf
ROOT
ATOM      1  C   UNL     1      -8.023  28.457  18.518  1.00  0.00     0.016 A 
ATOM      2  C   UNL     1      -9.374  28.826  18.626  1.00  0.00     0.013 A 
ATOM      3  C   UNL     1      -7.314  28.166  19.696  1.00  0.00     0.120 A 
ATOM      4  C   UNL     1      -9.983  28.900  19.880  1.00  0.00     0.021 A 
ATOM      5  N   UNL     1      -7.931  28.246  20.906  1.00  0.00    -0.264 NA
ATOM      6  C   UNL     1      -9.238  28.603  21.021  1.00  0.00     0.111 A 
ENDROOT
BRANCH   1   7
ATOM      7  C   UNL     1      -7.359  28.373  17.199  1.00  0.00     0.073 C 
ATOM      8  O   UNL     1      -7.882  27.715  16.260  1.00  0.00    -0.545 OA
ATOM      9  O   UNL     1      -6.149  29.020  16.978  1.00  0.00    -0.545 OA
ENDBRANCH   1   7
TORSDOF 1
ENDMDL
