MODEL 1
REMARK VINA RESULT:    -2.489      0.000      0.000
REMARK INTER + INTRA:          -2.489
REMARK INTER:                  -2.489
REMARK INTRA:                   0.000
REMARK UNBOUND:                 0.000
REMARK SMILES CC1=CC(=O)[C@H]2C[C@@H]1C2(C)C
REMARK SMILES IDX 1 1 2 2 3 3 4 4 5 5 6 6 7 7 8 8 9 9 10 10 11 11
REMARK H PARENT
REMARK Flexibility Score: inf
ROOT
ATOM      1  C   UNL     1      -2.623  13.516   5.500  1.00  0.00     0.040 C 
ATOM      2  C   UNL     1      -3.047  12.821   6.754  1.00  0.00    -0.066 C 
ATOM      3  C   UNL     1      -2.518  11.617   7.111  1.00  0.00     0.047 C 
ATOM      4  C   UNL     1      -3.048  11.009   8.374  1.00  0.00     0.159 C 
ATOM      5  O   UNL     1      -2.667   9.883   8.788  1.00  0.00    -0.295 OA
ATOM      6  C   UNL     1      -4.083  11.849   9.122  1.00  0.00     0.067 C 
ATOM      7  C   UNL     1      -3.483  13.272   9.125  1.00  0.00     0.021 C 
ATOM      8  C   UNL     1      -4.088  13.437   7.713  1.00  0.00     0.022 C 
ATOM      9  C   UNL     1      -5.139  12.357   8.100  1.00  0.00    -0.019 C 
ATOM     10  C   UNL     1      -5.629  11.378   6.995  1.00  0.00     0.012 C 
ATOM     11  C   UNL     1      -6.384  12.968   8.793  1.00  0.00     0.012 C 
ENDROOT
TORSDOF 0
ENDMDL
MODEL 2
REMARK VINA RESULT:    -2.446      1.875      3.223
REMARK INTER + INTRA:          -2.446
REMARK INTER:                  -2.446
REMARK INTRA:                   0.000
REMARK UNBOUND:                 0.000
REMARK SMILES CC1=CC(=O)[C@H]2C[C@@H]1C2(C)C
REMARK SMILES IDX 1 1 2 2 3 3 4 4 5 5 6 6 7 7 8 8 9 9 10 10 11 11
REMARK H PARENT
REMARK Flexibility Score: inf
ROOT
ATOM      1  C   UNL     1      -6.637  14.145   9.116  1.00  0.00     0.040 C 
ATOM      2  C   UNL     1      -5.383  13.681   8.447  1.00  0.00    -0.066 C 
ATOM      3  C   UNL     1      -5.027  14.138   7.213  1.00  0.00     0.047 C 
ATOM      4  C   UNL     1      -3.764  13.573   6.637  1.00  0.00     0.159 C 
ATOM      5  O   UNL     1      -3.350  13.887   5.490  1.00  0.00    -0.295 OA
ATOM      6  C   UNL     1      -3.014  12.591   7.537  1.00  0.00     0.067 C 
ATOM      7  C   UNL     1      -3.012  13.275   8.922  1.00  0.00     0.021 C 
ATOM      8  C   UNL     1      -4.423  12.679   9.123  1.00  0.00     0.022 C 
ATOM      9  C   UNL     1      -4.035  11.566   8.108  1.00  0.00    -0.019 C 
ATOM     10  C   UNL     1      -5.140  11.018   7.160  1.00  0.00     0.012 C 
ATOM     11  C   UNL     1      -3.341  10.360   8.791  1.00  0.00     0.012 C 
ENDROOT
TORSDOF 0
ENDMDL
MODEL 3
REMARK VINA RESULT:    -2.368      1.908      3.136
REMARK INTER + INTRA:          -2.368
REMARK INTER:                  -2.368
REMARK INTRA:                   0.000
REMARK UNBOUND:                 0.000
REMARK SMILES CC1=CC(=O)[C@H]2C[C@@H]1C2(C)C
REMARK SMILES IDX 1 1 2 2 3 3 4 4 5 5 6 6 7 7 8 8 9 9 10 10 11 11
REMARK H PARENT
REMARK Flexibility Score: inf
ROOT
ATOM      1  C   UNL     1      -3.320  14.000   5.297  1.00  0.00     0.040 C 
ATOM      2  C   UNL     1      -4.031  13.419   6.478  1.00  0.00    -0.066 C 
ATOM      3  C   UNL     1      -4.939  14.146   7.187  1.00  0.00     0.047 C 
ATOM      4  C   UNL     1      -5.560  13.461   8.367  1.00  0.00     0.159 C 
ATOM      5  O   UNL     1      -6.382  14.040   9.123  1.00  0.00    -0.295 OA
ATOM      6  C   UNL     1      -5.124  12.012   8.587  1.00  0.00     0.067 C 
ATOM      7  C   UNL     1      -5.196  11.378   7.180  1.00  0.00     0.021 C 
ATOM      8  C   UNL     1      -3.787  11.966   6.939  1.00  0.00     0.022 C 
ATOM      9  C   UNL     1      -3.575  11.940   8.479  1.00  0.00    -0.019 C 
ATOM     10  C   UNL     1      -2.735  13.079   9.125  1.00  0.00     0.012 C 
ATOM     11  C   UNL     1      -3.011  10.583   8.975  1.00  0.00     0.012 C 
ENDROOT
TORSDOF 0
ENDMDL
MODEL 4
REMARK VINA RESULT:    -2.287      1.798      3.009
REMARK INTER + INTRA:          -2.287
REMARK INTER:                  -2.287
REMARK INTRA:                   0.000
REMARK UNBOUND:                 0.000
REMARK SMILES CC1=CC(=O)[C@H]2C[C@@H]1C2(C)C
REMARK SMILES IDX 1 1 2 2 3 3 4 4 5 5 6 6 7 7 8 8 9 9 10 10 11 11
REMARK H PARENT
REMARK Flexibility Score: inf
ROOT
ATOM      1  C   UNL     1      -2.360  10.004   8.144  1.00  0.00     0.040 C 
ATOM      2  C   UNL     1      -3.143  11.154   7.596  1.00  0.00    -0.066 C 
ATOM      3  C   UNL     1      -2.609  12.000   6.671  1.00  0.00     0.047 C 
ATOM      4  C   UNL     1      -3.483  13.131   6.224  1.00  0.00     0.159 C 
ATOM      5  O   UNL     1      -3.090  14.000   5.403  1.00  0.00    -0.295 OA
ATOM      6  C   UNL     1      -4.885  13.157   6.834  1.00  0.00     0.067 C 
ATOM      7  C   UNL     1      -5.371  11.695   6.725  1.00  0.00     0.021 C 
ATOM      8  C   UNL     1      -4.597  11.431   8.036  1.00  0.00     0.022 C 
ATOM      9  C   UNL     1      -4.759  12.941   8.369  1.00  0.00    -0.019 C 
ATOM     10  C   UNL     1      -3.602  13.656   9.123  1.00  0.00     0.012 C 
ATOM     11  C   UNL     1      -6.084  13.241   9.117  1.00  0.00     0.012 C 
ENDROOT
TORSDOF 0
ENDMDL
MODEL 5
REMARK VINA RESULT:    -1.872      2.196      3.585
REMARK INTER + INTRA:          -1.872
REMARK INTER:                  -1.872
REMARK INTRA:                   0.000
REMARK UNBOUND:                 0.000
REMARK SMILES CC1=CC(=O)[C@H]2C[C@@H]1C2(C)C
REMARK SMILES IDX 1 1 2 2 3 3 4 4 5 5 6 6 7 7 8 8 9 9 10 10 11 11
REMARK H PARENT
REMARK Flexibility Score: inf
ROOT
ATOM      1  C   UNL     1      -6.751  12.433   4.992  1.00  0.00     0.040 C 
ATOM      2  C   UNL     1      -6.091  12.661   6.315  1.00  0.00    -0.066 C 
ATOM      3  C   UNL     1      -6.375  13.760   7.069  1.00  0.00     0.047 C 
ATOM      4  C   UNL     1      -5.625  13.890   8.359  1.00  0.00     0.159 C 
ATOM      5  O   UNL     1      -5.770  14.879   9.124  1.00  0.00    -0.295 OA
ATOM      6  C   UNL     1      -4.671  12.739   8.682  1.00  0.00     0.067 C 
ATOM      7  C   UNL     1      -5.494  11.469   8.373  1.00  0.00     0.021 C 
ATOM      8  C   UNL     1      -5.072  11.659   6.898  1.00  0.00     0.022 C 
ATOM      9  C   UNL     1      -3.824  12.430   7.414  1.00  0.00    -0.019 C 
ATOM     10  C   UNL     1      -3.296  13.625   6.569  1.00  0.00     0.012 C 
ATOM     11  C   UNL     1      -2.632  11.487   7.717  1.00  0.00     0.012 C 
ENDROOT
TORSDOF 0
ENDMDL
MODEL 6
REMARK VINA RESULT:    -0.913      1.949      2.954
REMARK INTER + INTRA:          -0.913
REMARK INTER:                  -0.913
REMARK INTRA:                   0.000
REMARK UNBOUND:                 0.000
REMARK SMILES CC1=CC(=O)[C@H]2C[C@@H]1C2(C)C
REMARK SMILES IDX 1 1 2 2 3 3 4 4 5 5 6 6 7 7 8 8 9 9 10 10 11 11
REMARK H PARENT
REMARK Flexibility Score: inf
ROOT
ATOM      1  C   UNL     1      -5.235  15.477   5.766  1.00  0.00     0.040 C 
ATOM      2  C   UNL     1      -4.936  14.093   6.247  1.00  0.00    -0.066 C 
ATOM      3  C   UNL     1      -5.834  13.079   6.094  1.00  0.00     0.047 C 
ATOM      4  C   UNL     1      -5.429  11.746   6.645  1.00  0.00     0.159 C 
ATOM      5  O   UNL     1      -6.187  10.742   6.600  1.00  0.00    -0.295 OA
ATOM      6  C   UNL     1      -4.033  11.690   7.266  1.00  0.00     0.067 C 
ATOM      7  C   UNL     1      -3.137  12.427   6.246  1.00  0.00     0.021 C 
ATOM      8  C   UNL     1      -3.594  13.739   6.922  1.00  0.00     0.022 C 
ATOM      9  C   UNL     1      -3.864  12.913   8.212  1.00  0.00    -0.019 C 
ATOM     10  C   UNL     1      -5.066  13.324   9.110  1.00  0.00     0.012 C 
ATOM     11  C   UNL     1      -2.607  12.794   9.111  1.00  0.00     0.012 C 
ENDROOT
TORSDOF 0
ENDMDL
MODEL 7
REMARK VINA RESULT:    -0.493      2.369      3.437
REMARK INTER + INTRA:          -0.493
REMARK INTER:                  -0.493
REMARK INTRA:                   0.000
REMARK UNBOUND:                 0.000
REMARK SMILES CC1=CC(=O)[C@H]2C[C@@H]1C2(C)C
REMARK SMILES IDX 1 1 2 2 3 3 4 4 5 5 6 6 7 7 8 8 9 9 10 10 11 11
REMARK H PARENT
REMARK Flexibility Score: inf
ROOT
ATOM      1  C   UNL     1      -3.084  11.415   8.826  1.00  0.00     0.040 C 
ATOM      2  C   UNL     1      -4.061  12.414   8.294  1.00  0.00    -0.066 C 
ATOM      3  C   UNL     1      -4.681  13.307   9.116  1.00  0.00     0.047 C 
ATOM      4  C   UNL     1      -5.661  14.235   8.467  1.00  0.00     0.159 C 
ATOM      5  O   UNL     1      -6.326  15.078   9.125  1.00  0.00    -0.295 OA
ATOM      6  C   UNL     1      -5.798  14.089   6.951  1.00  0.00     0.067 C 
ATOM      7  C   UNL     1      -4.341  14.003   6.447  1.00  0.00     0.021 C 
ATOM      8  C   UNL     1      -4.401  12.498   6.790  1.00  0.00     0.022 C 
ATOM      9  C   UNL     1      -5.945  12.577   6.612  1.00  0.00    -0.019 C 
ATOM     10  C   UNL     1      -6.837  11.697   7.533  1.00  0.00     0.012 C 
ATOM     11  C   UNL     1      -6.382  12.342   5.144  1.00  0.00     0.012 C 
ENDROOT
TORSDOF 0
ENDMDL
MODEL 8
REMARK VINA RESULT:    -0.419      1.004      1.147
REMARK INTER + INTRA:          -0.419
REMARK INTER:                  -0.419
REMARK INTRA:                   0.000
REMARK UNBOUND:                 0.000
REMARK SMILES CC1=CC(=O)[C@H]2C[C@@H]1C2(C)C
REMARK SMILES IDX 1 1 2 2 3 3 4 4 5 5 6 6 7 7 8 8 9 9 10 10 11 11
REMARK H PARENT
REMARK Flexibility Score: inf
ROOT
ATOM      1  C   UNL     1      -3.812  14.892   5.443  1.00  0.00     0.040 C 
ATOM      2  C   UNL     1      -3.756  13.730   6.383  1.00  0.00    -0.066 C 
ATOM      3  C   UNL     1      -2.968  12.648   6.129  1.00  0.00     0.047 C 
ATOM      4  C   UNL     1      -3.024  11.537   7.132  1.00  0.00     0.159 C 
ATOM      5  O   UNL     1      -2.372  10.470   6.989  1.00  0.00    -0.295 OA
ATOM      6  C   UNL     1      -3.926  11.789   8.340  1.00  0.00     0.067 C 
ATOM      7  C   UNL     1      -3.578  13.229   8.778  1.00  0.00     0.021 C 
ATOM      8  C   UNL     1      -4.572  13.706   7.694  1.00  0.00     0.022 C 
ATOM      9  C   UNL     1      -5.291  12.334   7.831  1.00  0.00    -0.019 C 
ATOM     10  C   UNL     1      -5.911  11.698   6.554  1.00  0.00     0.012 C 
ATOM     11  C   UNL     1      -6.373  12.344   8.941  1.00  0.00     0.012 C 
ENDROOT
TORSDOF 0
ENDMDL
MODEL 9
REMARK VINA RESULT:    -0.011      2.151      2.980
REMARK INTER + INTRA:          -0.011
REMARK INTER:                  -0.011
REMARK INTRA:                   0.000
REMARK UNBOUND:                 0.000
REMARK SMILES CC1=CC(=O)[C@H]2C[C@@H]1C2(C)C
REMARK SMILES IDX 1 1 2 2 3 3 4 4 5 5 6 6 7 7 8 8 9 9 10 10 11 11
REMARK H PARENT
REMARK Flexibility Score: inf
ROOT
ATOM      1  C   UNL     1      -2.475  12.037   8.108  1.00  0.00     0.040 C 
ATOM      2  C   UNL     1      -3.937  12.243   7.868  1.00  0.00    -0.066 C 
ATOM      3  C   UNL     1      -4.542  11.777   6.740  1.00  0.00     0.047 C 
ATOM      4  C   UNL     1      -6.004  12.074   6.602  1.00  0.00     0.159 C 
ATOM      5  O   UNL     1      -6.667  11.731   5.588  1.00  0.00    -0.295 OA
ATOM      6  C   UNL     1      -6.635  12.824   7.776  1.00  0.00     0.067 C 
ATOM      7  C   UNL     1      -6.094  12.092   9.024  1.00  0.00     0.021 C 
ATOM      8  C   UNL     1      -4.833  12.975   8.889  1.00  0.00     0.022 C 
ATOM      9  C   UNL     1      -5.715  14.021   8.149  1.00  0.00    -0.019 C 
ATOM     10  C   UNL     1      -5.069  14.843   6.997  1.00  0.00     0.012 C 
ATOM     11  C   UNL     1      -6.401  15.011   9.124  1.00  0.00     0.012 C 
ENDROOT
TORSDOF 0
ENDMDL
