MODEL 1
REMARK VINA RESULT:    -6.881      0.000      0.000
REMARK INTER + INTRA:          -6.881
REMARK INTER:                  -6.881
REMARK INTRA:                   0.000
REMARK UNBOUND:                 0.000
REMARK SMILES O=c1ccc2ccc3occc3c2o1
REMARK SMILES IDX 6 1 7 2 8 3 12 4 11 5 10 6 9 7 13 8 5 9 4 10 3 11 2 12 1 13
REMARK SMILES IDX 14 14
REMARK H PARENT
REMARK Flexibility Score: inf
ROOT
ATOM      1  C   UNL     1      71.369  39.449  -5.274  1.00  0.00     0.016 A 
ATOM      2  C   UNL     1      71.531  40.260  -4.134  1.00  0.00     0.048 A 
ATOM      3  C   UNL     1      72.603  41.151  -4.110  1.00  0.00     0.137 A 
ATOM      4  C   UNL     1      73.484  41.250  -5.153  1.00  0.00     0.064 A 
ATOM      5  C   UNL     1      74.407  42.210  -4.806  1.00  0.00     0.054 A 
ATOM      6  C   UNL     1      74.010  42.638  -3.545  1.00  0.00     0.196 A 
ATOM      7  O   UNL     1      72.929  41.986  -3.155  1.00  0.00    -0.464 OA
ATOM      8  C   UNL     1      73.359  40.464  -6.297  1.00  0.00     0.149 A 
ATOM      9  C   UNL     1      72.278  39.547  -6.355  1.00  0.00     0.018 A 
ATOM     10  C   UNL     1      72.147  38.757  -7.500  1.00  0.00     0.019 A 
ATOM     11  C   UNL     1      73.071  38.894  -8.537  1.00  0.00     0.094 A 
ATOM     12  C   UNL     1      74.112  39.823  -8.406  1.00  0.00     0.336 A 
ATOM     13  O   UNL     1      74.953  39.957  -9.332  1.00  0.00    -0.246 OA
ATOM     14  O   UNL     1      74.219  40.566  -7.307  1.00  0.00    -0.422 OA
ENDROOT
TORSDOF 0
ENDMDL
MODEL 2
REMARK VINA RESULT:    -6.798      2.279      5.702
REMARK INTER + INTRA:          -6.798
REMARK INTER:                  -6.798
REMARK INTRA:                   0.000
REMARK UNBOUND:                 0.000
REMARK SMILES O=c1ccc2ccc3occc3c2o1
REMARK SMILES IDX 6 1 7 2 8 3 12 4 11 5 10 6 9 7 13 8 5 9 4 10 3 11 2 12 1 13
REMARK SMILES IDX 14 14
REMARK H PARENT
REMARK Flexibility Score: inf
ROOT
ATOM      1  C   UNL     1      74.696  42.972  -5.193  1.00  0.00     0.016 A 
ATOM      2  C   UNL     1      74.282  41.746  -5.750  1.00  0.00     0.048 A 
ATOM      3  C   UNL     1      73.232  41.067  -5.134  1.00  0.00     0.137 A 
ATOM      4  C   UNL     1      72.607  41.560  -4.019  1.00  0.00     0.064 A 
ATOM      5  C   UNL     1      71.631  40.653  -3.675  1.00  0.00     0.054 A 
ATOM      6  C   UNL     1      71.733  39.649  -4.631  1.00  0.00     0.196 A 
ATOM      7  O   UNL     1      72.699  39.924  -5.489  1.00  0.00    -0.464 OA
ATOM      8  C   UNL     1      72.988  42.767  -3.438  1.00  0.00     0.149 A 
ATOM      9  C   UNL     1      74.053  43.485  -4.040  1.00  0.00     0.018 A 
ATOM     10  C   UNL     1      74.439  44.698  -3.462  1.00  0.00     0.019 A 
ATOM     11  C   UNL     1      73.773  45.158  -2.325  1.00  0.00     0.094 A 
ATOM     12  C   UNL     1      72.729  44.392  -1.789  1.00  0.00     0.336 A 
ATOM     13  O   UNL     1      72.119  44.794  -0.765  1.00  0.00    -0.246 OA
ATOM     14  O   UNL     1      72.377  43.240  -2.355  1.00  0.00    -0.422 OA
ENDROOT
TORSDOF 0
ENDMDL
MODEL 3
REMARK VINA RESULT:    -6.397      1.075      4.262
REMARK INTER + INTRA:          -6.397
REMARK INTER:                  -6.397
REMARK INTRA:                   0.000
REMARK UNBOUND:                 0.000
REMARK SMILES O=c1ccc2ccc3occc3c2o1
REMARK SMILES IDX 6 1 7 2 8 3 12 4 11 5 10 6 9 7 13 8 5 9 4 10 3 11 2 12 1 13
REMARK SMILES IDX 14 14
REMARK H PARENT
REMARK Flexibility Score: inf
ROOT
ATOM      1  C   UNL     1      71.460  39.028  -6.637  1.00  0.00     0.016 A 
ATOM      2  C   UNL     1      72.124  38.826  -7.862  1.00  0.00     0.048 A 
ATOM      3  C   UNL     1      73.322  39.505  -8.079  1.00  0.00     0.137 A 
ATOM      4  C   UNL     1      73.855  40.348  -7.141  1.00  0.00     0.064 A 
ATOM      5  C   UNL     1      75.024  40.846  -7.670  1.00  0.00     0.054 A 
ATOM      6  C   UNL     1      75.122  40.253  -8.923  1.00  0.00     0.196 A 
ATOM      7  O   UNL     1      74.089  39.458  -9.139  1.00  0.00    -0.464 OA
ATOM      8  C   UNL     1      73.229  40.574  -5.917  1.00  0.00     0.149 A 
ATOM      9  C   UNL     1      72.008  39.899  -5.663  1.00  0.00     0.018 A 
ATOM     10  C   UNL     1      71.375  40.121  -4.437  1.00  0.00     0.019 A 
ATOM     11  C   UNL     1      71.957  40.991  -3.513  1.00  0.00     0.094 A 
ATOM     12  C   UNL     1      73.166  41.621  -3.837  1.00  0.00     0.336 A 
ATOM     13  O   UNL     1      73.703  42.407  -3.014  1.00  0.00    -0.246 OA
ATOM     14  O   UNL     1      73.753  41.395  -5.010  1.00  0.00    -0.422 OA
ENDROOT
TORSDOF 0
ENDMDL
MODEL 4
REMARK VINA RESULT:    -6.123      1.762      4.708
REMARK INTER + INTRA:          -6.123
REMARK INTER:                  -6.123
REMARK INTRA:                   0.000
REMARK UNBOUND:                 0.000
REMARK SMILES O=c1ccc2ccc3occc3c2o1
REMARK SMILES IDX 6 1 7 2 8 3 12 4 11 5 10 6 9 7 13 8 5 9 4 10 3 11 2 12 1 13
REMARK SMILES IDX 14 14
REMARK H PARENT
REMARK Flexibility Score: inf
ROOT
ATOM      1  C   UNL     1      72.150  40.777  -4.002  1.00  0.00     0.016 A 
ATOM      2  C   UNL     1      72.475  39.993  -5.126  1.00  0.00     0.048 A 
ATOM      3  C   UNL     1      73.456  40.469  -5.995  1.00  0.00     0.137 A 
ATOM      4  C   UNL     1      74.097  41.659  -5.781  1.00  0.00     0.064 A 
ATOM      5  C   UNL     1      74.991  41.823  -6.814  1.00  0.00     0.054 A 
ATOM      6  C   UNL     1      74.827  40.690  -7.603  1.00  0.00     0.196 A 
ATOM      7  O   UNL     1      73.902  39.900  -7.087  1.00  0.00    -0.464 OA
ATOM      8  C   UNL     1      73.803  42.463  -4.682  1.00  0.00     0.149 A 
ATOM      9  C   UNL     1      72.810  42.009  -3.776  1.00  0.00     0.018 A 
ATOM     10  C   UNL     1      72.511  42.811  -2.671  1.00  0.00     0.019 A 
ATOM     11  C   UNL     1      73.191  44.018  -2.496  1.00  0.00     0.094 A 
ATOM     12  C   UNL     1      74.160  44.398  -3.434  1.00  0.00     0.336 A 
ATOM     13  O   UNL     1      74.781  45.482  -3.289  1.00  0.00    -0.246 OA
ATOM     14  O   UNL     1      74.429  43.619  -4.480  1.00  0.00    -0.422 OA
ENDROOT
TORSDOF 0
ENDMDL
MODEL 5
REMARK VINA RESULT:    -5.649      1.205      2.574
REMARK INTER + INTRA:          -5.649
REMARK INTER:                  -5.649
REMARK INTRA:                   0.000
REMARK UNBOUND:                 0.000
REMARK SMILES O=c1ccc2ccc3occc3c2o1
REMARK SMILES IDX 6 1 7 2 8 3 12 4 11 5 10 6 9 7 13 8 5 9 4 10 3 11 2 12 1 13
REMARK SMILES IDX 14 14
REMARK H PARENT
REMARK Flexibility Score: inf
ROOT
ATOM      1  C   UNL     1      75.110  42.238  -5.860  1.00  0.00     0.016 A 
ATOM      2  C   UNL     1      74.524  42.527  -4.612  1.00  0.00     0.048 A 
ATOM      3  C   UNL     1      73.400  41.795  -4.231  1.00  0.00     0.137 A 
ATOM      4  C   UNL     1      72.867  40.820  -5.030  1.00  0.00     0.064 A 
ATOM      5  C   UNL     1      71.779  40.305  -4.361  1.00  0.00     0.054 A 
ATOM      6  C   UNL     1      71.729  41.022  -3.171  1.00  0.00     0.196 A 
ATOM      7  O   UNL     1      72.710  41.906  -3.123  1.00  0.00    -0.464 OA
ATOM      8  C   UNL     1      73.417  40.505  -6.270  1.00  0.00     0.149 A 
ATOM      9  C   UNL     1      74.562  41.230  -6.690  1.00  0.00     0.018 A 
ATOM     10  C   UNL     1      75.120  40.918  -7.933  1.00  0.00     0.019 A 
ATOM     11  C   UNL     1      74.539  39.916  -8.712  1.00  0.00     0.094 A 
ATOM     12  C   UNL     1      73.409  39.244  -8.229  1.00  0.00     0.336 A 
ATOM     13  O   UNL     1      72.875  38.338  -8.920  1.00  0.00    -0.246 OA
ATOM     14  O   UNL     1      72.894  39.556  -7.042  1.00  0.00    -0.422 OA
ENDROOT
TORSDOF 0
ENDMDL
MODEL 6
REMARK VINA RESULT:    -5.571     12.614     15.266
REMARK INTER + INTRA:          -5.571
REMARK INTER:                  -5.571
REMARK INTRA:                   0.000
REMARK UNBOUND:                 0.000
REMARK SMILES O=c1ccc2ccc3occc3c2o1
REMARK SMILES IDX 6 1 7 2 8 3 12 4 11 5 10 6 9 7 13 8 5 9 4 10 3 11 2 12 1 13
REMARK SMILES IDX 14 14
REMARK H PARENT
REMARK Flexibility Score: inf
ROOT
ATOM      1  C   UNL     1      73.518  48.362   8.097  1.00  0.00     0.016 A 
ATOM      2  C   UNL     1      72.588  48.756   9.078  1.00  0.00     0.048 A 
ATOM      3  C   UNL     1      71.266  48.957   8.684  1.00  0.00     0.137 A 
ATOM      4  C   UNL     1      70.863  48.782   7.388  1.00  0.00     0.064 A 
ATOM      5  C   UNL     1      69.515  49.061   7.347  1.00  0.00     0.054 A 
ATOM      6  C   UNL     1      69.187  49.392   8.657  1.00  0.00     0.196 A 
ATOM      7  O   UNL     1      70.254  49.322   9.432  1.00  0.00    -0.464 OA
ATOM      8  C   UNL     1      71.753  48.394   6.389  1.00  0.00     0.149 A 
ATOM      9  C   UNL     1      73.106  48.180   6.754  1.00  0.00     0.018 A 
ATOM     10  C   UNL     1      74.003  47.789   5.756  1.00  0.00     0.019 A 
ATOM     11  C   UNL     1      73.545  47.625   4.448  1.00  0.00     0.094 A 
ATOM     12  C   UNL     1      72.192  47.855   4.165  1.00  0.00     0.336 A 
ATOM     13  O   UNL     1      71.764  47.711   2.991  1.00  0.00    -0.246 OA
ATOM     14  O   UNL     1      71.354  48.226   5.130  1.00  0.00    -0.422 OA
ENDROOT
TORSDOF 0
ENDMDL
MODEL 7
REMARK VINA RESULT:    -5.501     13.517     15.698
REMARK INTER + INTRA:          -5.501
REMARK INTER:                  -5.501
REMARK INTRA:                   0.000
REMARK UNBOUND:                 0.000
REMARK SMILES O=c1ccc2ccc3occc3c2o1
REMARK SMILES IDX 6 1 7 2 8 3 12 4 11 5 10 6 9 7 13 8 5 9 4 10 3 11 2 12 1 13
REMARK SMILES IDX 14 14
REMARK H PARENT
REMARK Flexibility Score: inf
ROOT
ATOM      1  C   UNL     1      70.626  49.354   8.779  1.00  0.00     0.016 A 
ATOM      2  C   UNL     1      71.539  48.870   9.736  1.00  0.00     0.048 A 
ATOM      3  C   UNL     1      72.636  48.137   9.283  1.00  0.00     0.137 A 
ATOM      4  C   UNL     1      72.837  47.885   7.953  1.00  0.00     0.064 A 
ATOM      5  C   UNL     1      73.995  47.147   7.857  1.00  0.00     0.054 A 
ATOM      6  C   UNL     1      74.426  47.000   9.170  1.00  0.00     0.196 A 
ATOM      7  O   UNL     1      73.593  47.602  10.000  1.00  0.00    -0.464 OA
ATOM      8  C   UNL     1      71.957  48.346   6.977  1.00  0.00     0.149 A 
ATOM      9  C   UNL     1      70.830  49.096   7.402  1.00  0.00     0.018 A 
ATOM     10  C   UNL     1      69.944  49.562   6.427  1.00  0.00     0.019 A 
ATOM     11  C   UNL     1      70.192  49.279   5.083  1.00  0.00     0.094 A 
ATOM     12  C   UNL     1      71.327  48.532   4.742  1.00  0.00     0.336 A 
ATOM     13  O   UNL     1      71.564  48.269   3.534  1.00  0.00    -0.246 OA
ATOM     14  O   UNL     1      72.159  48.098   5.685  1.00  0.00    -0.422 OA
ENDROOT
TORSDOF 0
ENDMDL
MODEL 8
REMARK VINA RESULT:    -5.342     13.782     16.013
REMARK INTER + INTRA:          -5.342
REMARK INTER:                  -5.342
REMARK INTRA:                   0.000
REMARK UNBOUND:                 0.000
REMARK SMILES O=c1ccc2ccc3occc3c2o1
REMARK SMILES IDX 6 1 7 2 8 3 12 4 11 5 10 6 9 7 13 8 5 9 4 10 3 11 2 12 1 13
REMARK SMILES IDX 14 14
REMARK H PARENT
REMARK Flexibility Score: inf
ROOT
ATOM      1  C   UNL     1      71.825  49.527   8.877  1.00  0.00     0.016 A 
ATOM      2  C   UNL     1      73.066  49.306   8.248  1.00  0.00     0.048 A 
ATOM      3  C   UNL     1      73.080  48.554   7.074  1.00  0.00     0.137 A 
ATOM      4  C   UNL     1      71.934  48.038   6.531  1.00  0.00     0.064 A 
ATOM      5  C   UNL     1      72.302  47.359   5.392  1.00  0.00     0.054 A 
ATOM      6  C   UNL     1      73.681  47.517   5.320  1.00  0.00     0.196 A 
ATOM      7  O   UNL     1      74.117  48.236   6.340  1.00  0.00    -0.464 OA
ATOM      8  C   UNL     1      70.689  48.234   7.124  1.00  0.00     0.149 A 
ATOM      9  C   UNL     1      70.637  48.995   8.320  1.00  0.00     0.018 A 
ATOM     10  C   UNL     1      69.390  49.197   8.919  1.00  0.00     0.019 A 
ATOM     11  C   UNL     1      68.250  48.649   8.328  1.00  0.00     0.094 A 
ATOM     12  C   UNL     1      68.382  47.909   7.145  1.00  0.00     0.336 A 
ATOM     13  O   UNL     1      67.363  47.410   6.602  1.00  0.00    -0.246 OA
ATOM     14  O   UNL     1      69.579  47.730   6.591  1.00  0.00    -0.422 OA
ENDROOT
TORSDOF 0
ENDMDL
MODEL 9
REMARK VINA RESULT:    -4.327     12.260     15.696
REMARK INTER + INTRA:          -4.327
REMARK INTER:                  -4.327
REMARK INTRA:                   0.000
REMARK UNBOUND:                 0.000
REMARK SMILES O=c1ccc2ccc3occc3c2o1
REMARK SMILES IDX 6 1 7 2 8 3 12 4 11 5 10 6 9 7 13 8 5 9 4 10 3 11 2 12 1 13
REMARK SMILES IDX 14 14
REMARK H PARENT
REMARK Flexibility Score: inf
ROOT
ATOM      1  C   UNL     1      70.028  49.577   6.448  1.00  0.00     0.016 A 
ATOM      2  C   UNL     1      70.247  49.271   5.091  1.00  0.00     0.048 A 
ATOM      3  C   UNL     1      71.355  48.490   4.765  1.00  0.00     0.137 A 
ATOM      4  C   UNL     1      72.217  48.024   5.721  1.00  0.00     0.064 A 
ATOM      5  C   UNL     1      73.186  47.298   5.065  1.00  0.00     0.054 A 
ATOM      6  C   UNL     1      72.833  47.376   3.723  1.00  0.00     0.196 A 
ATOM      7  O   UNL     1      71.734  48.095   3.575  1.00  0.00    -0.464 OA
ATOM      8  C   UNL     1      72.035  48.306   7.073  1.00  0.00     0.149 A 
ATOM      9  C   UNL     1      70.917  49.098   7.440  1.00  0.00     0.018 A 
ATOM     10  C   UNL     1      70.730  49.383   8.796  1.00  0.00     0.019 A 
ATOM     11  C   UNL     1      71.637  48.886   9.732  1.00  0.00     0.094 A 
ATOM     12  C   UNL     1      72.717  48.110   9.292  1.00  0.00     0.336 A 
ATOM     13  O   UNL     1      73.543  47.655  10.125  1.00  0.00    -0.246 OA
ATOM     14  O   UNL     1      72.878  47.849   7.996  1.00  0.00    -0.422 OA
ENDROOT
TORSDOF 0
ENDMDL
