MODEL 1
REMARK VINA RESULT:    -4.814      0.000      0.000
REMARK INTER + INTRA:          -6.787
REMARK INTER:                  -6.221
REMARK INTRA:                  -0.566
REMARK UNBOUND:                -0.566
REMARK SMILES CO[C@@]1(CO)O[C@@H](CO)[C@@H](O)[C@@H]1O
REMARK SMILES IDX 3 1 12 2 10 3 7 4 6 5 2 6 1 7 4 8 5 9 13 11 11 13 8 15 9 16
REMARK H PARENT 5 10 13 12 11 14 9 17
REMARK Flexibility Score: inf
ROOT
ATOM      1  C   UNL     1      60.887  -3.826  22.264  1.00  0.00     0.221 C 
ATOM      2  C   UNL     1      60.943  -4.215  20.751  1.00  0.00     0.207 C 
ATOM      3  C   UNL     1      62.427  -4.219  20.416  1.00  0.00     0.180 C 
ATOM      4  C   UNL     1      63.009  -3.378  21.545  1.00  0.00     0.179 C 
ATOM      5  O   UNL     1      62.221  -3.600  22.690  1.00  0.00    -0.337 OA
ENDROOT
BRANCH   1   6
ATOM      6  O   UNL     1      60.395  -4.919  23.038  1.00  0.00    -0.349 OA
ATOM      7  C   UNL     1      60.672  -4.807  24.424  1.00  0.00     0.198 C 
ENDBRANCH   1   6
BRANCH   1   8
ATOM      8  C   UNL     1      60.100  -2.515  22.559  1.00  0.00     0.224 C 
BRANCH   8   9
ATOM      9  O   UNL     1      58.743  -2.676  22.239  1.00  0.00    -0.391 OA
ATOM     10  H   UNL     1      58.293  -3.043  23.043  1.00  0.00     0.210 HD
ENDBRANCH   8   9
ENDBRANCH   1   8
BRANCH   2  11
ATOM     11  O   UNL     1      60.216  -3.335  19.923  1.00  0.00    -0.385 OA
ATOM     12  H   UNL     1      59.246  -3.487  20.075  1.00  0.00     0.211 HD
ENDBRANCH   2  11
BRANCH   3  13
ATOM     13  O   UNL     1      62.942  -5.531  20.402  1.00  0.00    -0.387 OA
ATOM     14  H   UNL     1      63.570  -5.628  21.165  1.00  0.00     0.211 HD
ENDBRANCH   3  13
BRANCH   4  15
ATOM     15  C   UNL     1      64.482  -3.680  21.843  1.00  0.00     0.191 C 
BRANCH  15  16
ATOM     16  O   UNL     1      65.192  -3.781  20.640  1.00  0.00    -0.394 OA
ATOM     17  H   UNL     1      65.764  -4.587  20.725  1.00  0.00     0.210 HD
ENDBRANCH  15  16
ENDBRANCH   4  15
TORSDOF 7
ENDMDL
MODEL 2
REMARK VINA RESULT:    -4.452     12.508     14.333
REMARK INTER + INTRA:          -6.320
REMARK INTER:                  -5.970
REMARK INTRA:                  -0.350
REMARK UNBOUND:                -0.566
REMARK SMILES CO[C@@]1(CO)O[C@@H](CO)[C@@H](O)[C@@H]1O
REMARK SMILES IDX 3 1 12 2 10 3 7 4 6 5 2 6 1 7 4 8 5 9 13 11 11 13 8 15 9 16
REMARK H PARENT 5 10 13 12 11 14 9 17
REMARK Flexibility Score: inf
ROOT
ATOM      1  C   UNL     1      52.811  -3.047  11.964  1.00  0.00     0.221 C 
ATOM      2  C   UNL     1      53.157  -4.084  10.846  1.00  0.00     0.207 C 
ATOM      3  C   UNL     1      52.736  -3.403   9.554  1.00  0.00     0.180 C 
ATOM      4  C   UNL     1      51.771  -2.337  10.057  1.00  0.00     0.179 C 
ATOM      5  O   UNL     1      52.217  -1.926  11.328  1.00  0.00    -0.337 OA
ENDROOT
BRANCH   1   6
ATOM      6  O   UNL     1      54.004  -2.573  12.586  1.00  0.00    -0.349 OA
ATOM      7  C   UNL     1      54.654  -3.545  13.389  1.00  0.00     0.198 C 
ENDBRANCH   1   6
BRANCH   1   8
ATOM      8  C   UNL     1      51.780  -3.558  13.013  1.00  0.00     0.224 C 
BRANCH   8   9
ATOM      9  O   UNL     1      50.610  -4.000  12.375  1.00  0.00    -0.391 OA
ATOM     10  H   UNL     1      50.462  -3.409  11.593  1.00  0.00     0.210 HD
ENDBRANCH   8   9
ENDBRANCH   1   8
BRANCH   2  11
ATOM     11  O   UNL     1      52.516  -5.328  11.023  1.00  0.00    -0.385 OA
ATOM     12  H   UNL     1      51.830  -5.231  11.734  1.00  0.00     0.211 HD
ENDBRANCH   2  11
BRANCH   3  13
ATOM     13  O   UNL     1      53.847  -2.850   8.884  1.00  0.00    -0.387 OA
ATOM     14  H   UNL     1      54.552  -3.547   8.822  1.00  0.00     0.211 HD
ENDBRANCH   3  13
BRANCH   4  15
ATOM     15  C   UNL     1      51.642  -1.129   9.121  1.00  0.00     0.191 C 
BRANCH  15  16
ATOM     16  O   UNL     1      52.688  -0.231   9.369  1.00  0.00    -0.394 OA
ATOM     17  H   UNL     1      52.280   0.546   9.832  1.00  0.00     0.210 HD
ENDBRANCH  15  16
ENDBRANCH   4  15
TORSDOF 7
ENDMDL
MODEL 3
REMARK VINA RESULT:    -4.435     12.874     14.771
REMARK INTER + INTRA:          -6.297
REMARK INTER:                  -5.870
REMARK INTRA:                  -0.427
REMARK UNBOUND:                -0.566
REMARK SMILES CO[C@@]1(CO)O[C@@H](CO)[C@@H](O)[C@@H]1O
REMARK SMILES IDX 3 1 12 2 10 3 7 4 6 5 2 6 1 7 4 8 5 9 13 11 11 13 8 15 9 16
REMARK H PARENT 5 10 13 12 11 14 9 17
REMARK Flexibility Score: inf
ROOT
ATOM      1  C   UNL     1      52.074  -3.014  11.575  1.00  0.00     0.221 C 
ATOM      2  C   UNL     1      53.602  -2.874  11.278  1.00  0.00     0.207 C 
ATOM      3  C   UNL     1      53.780  -3.507   9.907  1.00  0.00     0.180 C 
ATOM      4  C   UNL     1      52.525  -4.360   9.786  1.00  0.00     0.179 C 
ATOM      5  O   UNL     1      51.493  -3.699  10.477  1.00  0.00    -0.337 OA
ENDROOT
BRANCH   1   6
ATOM      6  O   UNL     1      51.459  -1.727  11.620  1.00  0.00    -0.349 OA
ATOM      7  C   UNL     1      52.363  -0.672  11.905  1.00  0.00     0.198 C 
ENDBRANCH   1   6
BRANCH   1   8
ATOM      8  C   UNL     1      51.743  -3.852  12.845  1.00  0.00     0.224 C 
BRANCH   8   9
ATOM      9  O   UNL     1      50.604  -4.643  12.626  1.00  0.00    -0.391 OA
ATOM     10  H   UNL     1      50.336  -4.516  11.679  1.00  0.00     0.210 HD
ENDBRANCH   8   9
ENDBRANCH   1   8
BRANCH   2  11
ATOM     11  O   UNL     1      54.417  -3.486  12.254  1.00  0.00    -0.385 OA
ATOM     12  H   UNL     1      55.063  -4.085  11.795  1.00  0.00     0.211 HD
ENDBRANCH   2  11
BRANCH   3  13
ATOM     13  O   UNL     1      53.862  -2.523   8.900  1.00  0.00    -0.387 OA
ATOM     14  H   UNL     1      54.776  -2.548   8.513  1.00  0.00     0.211 HD
ENDBRANCH   3  13
BRANCH   4  15
ATOM     15  C   UNL     1      52.105  -4.639   8.338  1.00  0.00     0.191 C 
BRANCH  15  16
ATOM     16  O   UNL     1      51.364  -3.555   7.848  1.00  0.00    -0.394 OA
ATOM     17  H   UNL     1      51.822  -3.262   7.018  1.00  0.00     0.210 HD
ENDBRANCH  15  16
ENDBRANCH   4  15
TORSDOF 7
ENDMDL
MODEL 4
REMARK VINA RESULT:    -4.387     13.458     15.455
REMARK INTER + INTRA:          -6.235
REMARK INTER:                  -5.844
REMARK INTRA:                  -0.391
REMARK UNBOUND:                -0.566
REMARK SMILES CO[C@@]1(CO)O[C@@H](CO)[C@@H](O)[C@@H]1O
REMARK SMILES IDX 3 1 12 2 10 3 7 4 6 5 2 6 1 7 4 8 5 9 13 11 11 13 8 15 9 16
REMARK H PARENT 5 10 13 12 11 14 9 17
REMARK Flexibility Score: inf
ROOT
ATOM      1  C   UNL     1      52.363  -3.603   9.042  1.00  0.00     0.221 C 
ATOM      2  C   UNL     1      53.318  -2.472   9.544  1.00  0.00     0.207 C 
ATOM      3  C   UNL     1      53.185  -2.509  11.058  1.00  0.00     0.180 C 
ATOM      4  C   UNL     1      51.865  -3.247  11.243  1.00  0.00     0.179 C 
ATOM      5  O   UNL     1      51.742  -4.167  10.185  1.00  0.00    -0.337 OA
ENDROOT
BRANCH   1   6
ATOM      6  O   UNL     1      53.115  -4.651   8.432  1.00  0.00    -0.349 OA
ATOM      7  C   UNL     1      54.481  -4.327   8.225  1.00  0.00     0.198 C 
ENDBRANCH   1   6
BRANCH   1   8
ATOM      8  C   UNL     1      51.215  -3.106   8.114  1.00  0.00     0.224 C 
BRANCH   8   9
ATOM      9  O   UNL     1      51.742  -2.581   6.923  1.00  0.00    -0.391 OA
ATOM     10  H   UNL     1      52.221  -1.745   7.158  1.00  0.00     0.210 HD
ENDBRANCH   8   9
ENDBRANCH   1   8
BRANCH   2  11
ATOM     11  O   UNL     1      53.003  -1.202   9.016  1.00  0.00    -0.385 OA
ATOM     12  H   UNL     1      53.784  -0.603   9.148  1.00  0.00     0.211 HD
ENDBRANCH   2  11
BRANCH   3  13
ATOM     13  O   UNL     1      54.270  -3.190  11.648  1.00  0.00    -0.387 OA
ATOM     14  H   UNL     1      55.110  -2.740  11.369  1.00  0.00     0.211 HD
ENDBRANCH   3  13
BRANCH   4  15
ATOM     15  C   UNL     1      51.742  -3.964  12.592  1.00  0.00     0.191 C 
BRANCH  15  16
ATOM     16  O   UNL     1      50.634  -4.821  12.567  1.00  0.00    -0.394 OA
ATOM     17  H   UNL     1      50.973  -5.699  12.251  1.00  0.00     0.210 HD
ENDBRANCH  15  16
ENDBRANCH   4  15
TORSDOF 7
ENDMDL
MODEL 5
REMARK VINA RESULT:    -4.375     12.789     14.790
REMARK INTER + INTRA:          -6.220
REMARK INTER:                  -5.838
REMARK INTRA:                  -0.383
REMARK UNBOUND:                -0.566
REMARK SMILES CO[C@@]1(CO)O[C@@H](CO)[C@@H](O)[C@@H]1O
REMARK SMILES IDX 3 1 12 2 10 3 7 4 6 5 2 6 1 7 4 8 5 9 13 11 11 13 8 15 9 16
REMARK H PARENT 5 10 13 12 11 14 9 17
REMARK Flexibility Score: inf
ROOT
ATOM      1  C   UNL     1      53.307  -3.071   9.744  1.00  0.00     0.221 C 
ATOM      2  C   UNL     1      51.957  -3.859   9.758  1.00  0.00     0.207 C 
ATOM      3  C   UNL     1      51.692  -4.132  11.230  1.00  0.00     0.180 C 
ATOM      4  C   UNL     1      53.077  -3.953  11.839  1.00  0.00     0.179 C 
ATOM      5  O   UNL     1      53.748  -2.969  11.089  1.00  0.00    -0.337 OA
ENDROOT
BRANCH   1   6
ATOM      6  O   UNL     1      53.097  -1.737   9.285  1.00  0.00    -0.349 OA
ATOM      7  C   UNL     1      51.796  -1.510   8.766  1.00  0.00     0.198 C 
ENDBRANCH   1   6
BRANCH   1   8
ATOM      8  C   UNL     1      54.451  -3.775   8.956  1.00  0.00     0.224 C 
BRANCH   8   9
ATOM      9  O   UNL     1      54.231  -3.667   7.573  1.00  0.00    -0.391 OA
ATOM     10  H   UNL     1      54.797  -2.922   7.244  1.00  0.00     0.210 HD
ENDBRANCH   8   9
ENDBRANCH   1   8
BRANCH   2  11
ATOM     11  O   UNL     1      51.998  -5.047   8.998  1.00  0.00    -0.385 OA
ATOM     12  H   UNL     1      52.714  -4.961   8.315  1.00  0.00     0.211 HD
ENDBRANCH   2  11
BRANCH   3  13
ATOM     13  O   UNL     1      50.752  -3.222  11.755  1.00  0.00    -0.387 OA
ATOM     14  H   UNL     1      49.913  -3.303  11.230  1.00  0.00     0.211 HD
ENDBRANCH   3  13
BRANCH   4  15
ATOM     15  C   UNL     1      53.054  -3.569  13.323  1.00  0.00     0.191 C 
BRANCH  15  16
ATOM     16  O   UNL     1      54.357  -3.604  13.836  1.00  0.00    -0.394 OA
ATOM     17  H   UNL     1      54.949  -3.817  13.069  1.00  0.00     0.210 HD
ENDBRANCH  15  16
ENDBRANCH   4  15
TORSDOF 7
ENDMDL
MODEL 6
REMARK VINA RESULT:    -4.345     11.931     13.664
REMARK INTER + INTRA:          -6.181
REMARK INTER:                  -6.079
REMARK INTRA:                  -0.103
REMARK UNBOUND:                -0.566
REMARK SMILES CO[C@@]1(CO)O[C@@H](CO)[C@@H](O)[C@@H]1O
REMARK SMILES IDX 3 1 12 2 10 3 7 4 6 5 2 6 1 7 4 8 5 9 13 11 11 13 8 15 9 16
REMARK H PARENT 5 10 13 12 11 14 9 17
REMARK Flexibility Score: inf
ROOT
ATOM      1  C   UNL     1      53.128  -3.079  12.349  1.00  0.00     0.221 C 
ATOM      2  C   UNL     1      51.852  -3.964  12.176  1.00  0.00     0.207 C 
ATOM      3  C   UNL     1      51.985  -4.551  10.780  1.00  0.00     0.180 C 
ATOM      4  C   UNL     1      52.983  -3.602  10.130  1.00  0.00     0.179 C 
ATOM      5  O   UNL     1      53.860  -3.153  11.136  1.00  0.00    -0.337 OA
ENDROOT
BRANCH   1   6
ATOM      6  O   UNL     1      53.972  -3.621  13.364  1.00  0.00    -0.349 OA
ATOM      7  C   UNL     1      55.146  -2.860  13.597  1.00  0.00     0.198 C 
ENDBRANCH   1   6
BRANCH   1   8
ATOM      8  C   UNL     1      52.832  -1.570  12.596  1.00  0.00     0.224 C 
BRANCH   8   9
ATOM      9  O   UNL     1      52.036  -1.052  11.562  1.00  0.00    -0.391 OA
ATOM     10  H   UNL     1      51.101  -1.331  11.744  1.00  0.00     0.210 HD
ENDBRANCH   8   9
ENDBRANCH   1   8
BRANCH   2  11
ATOM     11  O   UNL     1      50.649  -3.243  12.334  1.00  0.00    -0.385 OA
ATOM     12  H   UNL     1      50.834  -2.281  12.169  1.00  0.00     0.211 HD
ENDBRANCH   2  11
BRANCH   3  13
ATOM     13  O   UNL     1      52.460  -5.878  10.830  1.00  0.00    -0.387 OA
ATOM     14  H   UNL     1      53.416  -5.858  11.098  1.00  0.00     0.211 HD
ENDBRANCH   3  13
BRANCH   4  15
ATOM     15  C   UNL     1      53.772  -4.230   8.976  1.00  0.00     0.191 C 
BRANCH  15  16
ATOM     16  O   UNL     1      55.029  -3.619   8.880  1.00  0.00    -0.394 OA
ATOM     17  H   UNL     1      55.041  -3.149   8.006  1.00  0.00     0.210 HD
ENDBRANCH  15  16
ENDBRANCH   4  15
TORSDOF 7
ENDMDL
MODEL 7
REMARK VINA RESULT:    -4.344      1.306      3.968
REMARK INTER + INTRA:          -6.179
REMARK INTER:                  -5.985
REMARK INTRA:                  -0.195
REMARK UNBOUND:                -0.566
REMARK SMILES CO[C@@]1(CO)O[C@@H](CO)[C@@H](O)[C@@H]1O
REMARK SMILES IDX 3 1 12 2 10 3 7 4 6 5 2 6 1 7 4 8 5 9 13 11 11 13 8 15 9 16
REMARK H PARENT 5 10 13 12 11 14 9 17
REMARK Flexibility Score: inf
ROOT
ATOM      1  C   UNL     1      62.845  -4.292  21.935  1.00  0.00     0.221 C 
ATOM      2  C   UNL     1      61.877  -3.633  22.970  1.00  0.00     0.207 C 
ATOM      3  C   UNL     1      60.532  -3.597  22.260  1.00  0.00     0.180 C 
ATOM      4  C   UNL     1      60.940  -3.742  20.800  1.00  0.00     0.179 C 
ATOM      5  O   UNL     1      62.094  -4.547  20.759  1.00  0.00    -0.337 OA
ENDROOT
BRANCH   1   6
ATOM      6  O   UNL     1      63.292  -5.560  22.413  1.00  0.00    -0.349 OA
ATOM      7  C   UNL     1      64.123  -5.477  23.559  1.00  0.00     0.198 C 
ENDBRANCH   1   6
BRANCH   1   8
ATOM      8  C   UNL     1      64.039  -3.387  21.509  1.00  0.00     0.224 C 
BRANCH   8   9
ATOM      9  O   UNL     1      64.678  -3.920  20.378  1.00  0.00    -0.391 OA
ATOM     10  H   UNL     1      64.423  -4.877  20.321  1.00  0.00     0.210 HD
ENDBRANCH   8   9
ENDBRANCH   1   8
BRANCH   2  11
ATOM     11  O   UNL     1      62.292  -2.349  23.382  1.00  0.00    -0.385 OA
ATOM     12  H   UNL     1      62.914  -2.450  24.150  1.00  0.00     0.211 HD
ENDBRANCH   2  11
BRANCH   3  13
ATOM     13  O   UNL     1      59.700  -4.650  22.693  1.00  0.00    -0.387 OA
ATOM     14  H   UNL     1      58.848  -4.259  23.022  1.00  0.00     0.211 HD
ENDBRANCH   3  13
BRANCH   4  15
ATOM     15  C   UNL     1      59.843  -4.334  19.908  1.00  0.00     0.191 C 
BRANCH  15  16
ATOM     16  O   UNL     1      59.212  -3.306  19.196  1.00  0.00    -0.394 OA
ATOM     17  H   UNL     1      58.742  -3.744  18.440  1.00  0.00     0.210 HD
ENDBRANCH  15  16
ENDBRANCH   4  15
TORSDOF 7
ENDMDL
MODEL 8
REMARK VINA RESULT:    -4.304     12.418     14.280
REMARK INTER + INTRA:          -6.128
REMARK INTER:                  -5.810
REMARK INTRA:                  -0.318
REMARK UNBOUND:                -0.566
REMARK SMILES CO[C@@]1(CO)O[C@@H](CO)[C@@H](O)[C@@H]1O
REMARK SMILES IDX 3 1 12 2 10 3 7 4 6 5 2 6 1 7 4 8 5 9 13 11 11 13 8 15 9 16
REMARK H PARENT 5 10 13 12 11 14 9 17
REMARK Flexibility Score: inf
ROOT
ATOM      1  C   UNL     1      52.572  -2.622  11.825  1.00  0.00     0.221 C 
ATOM      2  C   UNL     1      52.068  -2.281  10.385  1.00  0.00     0.207 C 
ATOM      3  C   UNL     1      51.943  -0.766  10.377  1.00  0.00     0.180 C 
ATOM      4  C   UNL     1      51.881  -0.445  11.864  1.00  0.00     0.179 C 
ATOM      5  O   UNL     1      52.667  -1.399  12.538  1.00  0.00    -0.337 OA
ENDROOT
BRANCH   1   6
ATOM      6  O   UNL     1      53.891  -3.163  11.773  1.00  0.00    -0.349 OA
ATOM      7  C   UNL     1      54.579  -3.110  13.013  1.00  0.00     0.198 C 
ENDBRANCH   1   6
BRANCH   1   8
ATOM      8  C   UNL     1      51.609  -3.536  12.640  1.00  0.00     0.224 C 
BRANCH   8   9
ATOM      9  O   UNL     1      51.401  -4.750  11.967  1.00  0.00    -0.391 OA
ATOM     10  H   UNL     1      52.178  -5.334  12.168  1.00  0.00     0.210 HD
ENDBRANCH   8   9
ENDBRANCH   1   8
BRANCH   2  11
ATOM     11  O   UNL     1      50.851  -2.915  10.056  1.00  0.00    -0.385 OA
ATOM     12  H   UNL     1      50.956  -3.362   9.176  1.00  0.00     0.211 HD
ENDBRANCH   2  11
BRANCH   3  13
ATOM     13  O   UNL     1      53.050  -0.167   9.742  1.00  0.00    -0.387 OA
ATOM     14  H   UNL     1      53.619  -0.888   9.363  1.00  0.00     0.211 HD
ENDBRANCH   3  13
BRANCH   4  15
ATOM     15  C   UNL     1      52.352   0.973  12.210  1.00  0.00     0.191 C 
BRANCH  15  16
ATOM     16  O   UNL     1      51.554   1.494  13.238  1.00  0.00    -0.394 OA
ATOM     17  H   UNL     1      51.673   2.478  13.206  1.00  0.00     0.210 HD
ENDBRANCH  15  16
ENDBRANCH   4  15
TORSDOF 7
ENDMDL
MODEL 9
REMARK VINA RESULT:    -4.300      1.610      4.283
REMARK INTER + INTRA:          -6.123
REMARK INTER:                  -5.532
REMARK INTRA:                  -0.591
REMARK UNBOUND:                -0.566
REMARK SMILES CO[C@@]1(CO)O[C@@H](CO)[C@@H](O)[C@@H]1O
REMARK SMILES IDX 3 1 12 2 10 3 7 4 6 5 2 6 1 7 4 8 5 9 13 11 11 13 8 15 9 16
REMARK H PARENT 5 10 13 12 11 14 9 17
REMARK Flexibility Score: inf
ROOT
ATOM      1  C   UNL     1      63.080  -4.041  21.920  1.00  0.00     0.221 C 
ATOM      2  C   UNL     1      63.321  -5.150  22.995  1.00  0.00     0.207 C 
ATOM      3  C   UNL     1      62.419  -4.755  24.154  1.00  0.00     0.180 C 
ATOM      4  C   UNL     1      62.164  -3.281  23.869  1.00  0.00     0.179 C 
ATOM      5  O   UNL     1      62.162  -3.112  22.472  1.00  0.00    -0.337 OA
ENDROOT
BRANCH   1   6
ATOM      6  O   UNL     1      62.449  -4.598  20.768  1.00  0.00    -0.349 OA
ATOM      7  C   UNL     1      61.133  -4.116  20.549  1.00  0.00     0.198 C 
ENDBRANCH   1   6
BRANCH   1   8
ATOM      8  C   UNL     1      64.355  -3.230  21.540  1.00  0.00     0.224 C 
BRANCH   8   9
ATOM      9  O   UNL     1      65.120  -3.936  20.598  1.00  0.00    -0.391 OA
ATOM     10  H   UNL     1      65.863  -3.341  20.318  1.00  0.00     0.210 HD
ENDBRANCH   8   9
ENDBRANCH   1   8
BRANCH   2  11
ATOM     11  O   UNL     1      64.672  -5.259  23.389  1.00  0.00    -0.385 OA
ATOM     12  H   UNL     1      64.705  -5.675  24.291  1.00  0.00     0.211 HD
ENDBRANCH   2  11
BRANCH   3  13
ATOM     13  O   UNL     1      61.232  -5.516  24.156  1.00  0.00    -0.387 OA
ATOM     14  H   UNL     1      61.257  -6.136  23.380  1.00  0.00     0.211 HD
ENDBRANCH   3  13
BRANCH   4  15
ATOM     15  C   UNL     1      60.857  -2.753  24.473  1.00  0.00     0.191 C 
BRANCH  15  16
ATOM     16  O   UNL     1      59.830  -2.848  23.524  1.00  0.00    -0.394 OA
ATOM     17  H   UNL     1      60.259  -2.712  22.640  1.00  0.00     0.210 HD
ENDBRANCH  15  16
ENDBRANCH   4  15
TORSDOF 7
ENDMDL
