MODEL 1
REMARK VINA RESULT:    -3.616      0.000      0.000
REMARK INTER + INTRA:          -4.298
REMARK INTER:                  -4.144
REMARK INTRA:                  -0.154
REMARK UNBOUND:                -0.154
REMARK SMILES O=C([O-])C=Cc1ccc(O)cc1
REMARK SMILES IDX 6 1 7 2 12 3 8 4 11 5 9 6 5 7 4 8 2 9 1 10 3 11 10 12
REMARK H PARENT 10 13
REMARK Flexibility Score: inf
ROOT
ATOM      1  C   UNL     1     -16.808 -22.444   6.122  1.00  0.00    -0.025 A 
ATOM      2  C   UNL     1     -16.966 -23.833   6.303  1.00  0.00     0.012 A 
ATOM      3  C   UNL     1     -17.297 -21.854   4.945  1.00  0.00     0.012 A 
ATOM      4  C   UNL     1     -17.622 -24.602   5.338  1.00  0.00     0.047 A 
ATOM      5  C   UNL     1     -17.954 -22.626   3.982  1.00  0.00     0.047 A 
ATOM      6  C   UNL     1     -18.119 -24.003   4.177  1.00  0.00     0.115 A 
ENDROOT
BRANCH   1   7
ATOM      7  C   UNL     1     -16.110 -21.583   7.109  1.00  0.00     0.010 C 
ATOM      8  C   UNL     1     -15.843 -20.283   6.908  1.00  0.00     0.025 C 
BRANCH   8   9
ATOM      9  C   UNL     1     -15.137 -19.463   7.907  1.00  0.00     0.064 C 
ATOM     10  O   UNL     1     -14.869 -19.916   9.052  1.00  0.00    -0.545 OA
ATOM     11  O   UNL     1     -14.762 -18.167   7.582  1.00  0.00    -0.545 OA
ENDBRANCH   8   9
ENDBRANCH   1   7
BRANCH   6  12
ATOM     12  O   UNL     1     -18.772 -24.783   3.225  1.00  0.00    -0.508 OA
ATOM     13  H   UNL     1     -19.198 -25.670   3.468  1.00  0.00     0.293 HD
ENDBRANCH   6  12
TORSDOF 3
ENDMDL
MODEL 2
REMARK VINA RESULT:    -3.554      2.312      3.130
REMARK INTER + INTRA:          -4.227
REMARK INTER:                  -4.093
REMARK INTRA:                  -0.134
REMARK UNBOUND:                -0.154
REMARK SMILES O=C([O-])C=Cc1ccc(O)cc1
REMARK SMILES IDX 6 1 7 2 12 3 8 4 11 5 9 6 5 7 4 8 2 9 1 10 3 11 10 12
REMARK H PARENT 10 13
REMARK Flexibility Score: inf
ROOT
ATOM      1  C   UNL     1     -17.308 -22.903   3.698  1.00  0.00    -0.025 A 
ATOM      2  C   UNL     1     -18.003 -24.109   3.474  1.00  0.00     0.012 A 
ATOM      3  C   UNL     1     -16.386 -22.464   2.733  1.00  0.00     0.012 A 
ATOM      4  C   UNL     1     -17.795 -24.839   2.299  1.00  0.00     0.047 A 
ATOM      5  C   UNL     1     -16.180 -23.196   1.560  1.00  0.00     0.047 A 
ATOM      6  C   UNL     1     -16.887 -24.384   1.339  1.00  0.00     0.115 A 
ENDROOT
BRANCH   1   7
ATOM      7  C   UNL     1     -17.482 -22.097   4.931  1.00  0.00     0.010 C 
ATOM      8  C   UNL     1     -16.938 -22.417   6.115  1.00  0.00     0.025 C 
BRANCH   8   9
ATOM      9  C   UNL     1     -17.143 -21.598   7.321  1.00  0.00     0.064 C 
ATOM     10  O   UNL     1     -16.519 -20.517   7.490  1.00  0.00    -0.545 OA
ATOM     11  O   UNL     1     -18.042 -22.025   8.290  1.00  0.00    -0.545 OA
ENDBRANCH   8   9
ENDBRANCH   1   7
BRANCH   6  12
ATOM     12  O   UNL     1     -16.691 -25.122   0.174  1.00  0.00    -0.508 OA
ATOM     13  H   UNL     1     -15.888 -25.730   0.060  1.00  0.00     0.293 HD
ENDBRANCH   6  12
TORSDOF 3
ENDMDL
MODEL 3
REMARK VINA RESULT:    -3.529      2.288      3.193
REMARK INTER + INTRA:          -4.198
REMARK INTER:                  -4.065
REMARK INTRA:                  -0.133
REMARK UNBOUND:                -0.154
REMARK SMILES O=C([O-])C=Cc1ccc(O)cc1
REMARK SMILES IDX 6 1 7 2 12 3 8 4 11 5 9 6 5 7 4 8 2 9 1 10 3 11 10 12
REMARK H PARENT 10 13
REMARK Flexibility Score: inf
ROOT
ATOM      1  C   UNL     1     -17.272 -22.893   3.721  1.00  0.00    -0.025 A 
ATOM      2  C   UNL     1     -16.379 -22.453   2.723  1.00  0.00     0.012 A 
ATOM      3  C   UNL     1     -17.992 -24.080   3.510  1.00  0.00     0.012 A 
ATOM      4  C   UNL     1     -16.199 -23.201   1.555  1.00  0.00     0.047 A 
ATOM      5  C   UNL     1     -17.808 -24.827   2.342  1.00  0.00     0.047 A 
ATOM      6  C   UNL     1     -16.909 -24.389   1.363  1.00  0.00     0.115 A 
ENDROOT
BRANCH   1   7
ATOM      7  C   UNL     1     -17.510 -22.132   4.973  1.00  0.00     0.010 C 
ATOM      8  C   UNL     1     -16.881 -22.385   6.130  1.00  0.00     0.025 C 
BRANCH   8   9
ATOM      9  C   UNL     1     -17.152 -21.615   7.356  1.00  0.00     0.064 C 
ATOM     10  O   UNL     1     -17.964 -22.033   8.223  1.00  0.00    -0.545 OA
ATOM     11  O   UNL     1     -16.500 -20.405   7.558  1.00  0.00    -0.545 OA
ENDBRANCH   8   9
ENDBRANCH   1   7
BRANCH   6  12
ATOM     12  O   UNL     1     -16.717 -25.124   0.195  1.00  0.00    -0.508 OA
ATOM     13  H   UNL     1     -15.823 -25.550  -0.022  1.00  0.00     0.293 HD
ENDBRANCH   6  12
TORSDOF 3
ENDMDL
MODEL 4
REMARK VINA RESULT:    -3.525      1.096      5.748
REMARK INTER + INTRA:          -4.194
REMARK INTER:                  -4.045
REMARK INTRA:                  -0.150
REMARK UNBOUND:                -0.154
REMARK SMILES O=C([O-])C=Cc1ccc(O)cc1
REMARK SMILES IDX 6 1 7 2 12 3 8 4 11 5 9 6 5 7 4 8 2 9 1 10 3 11 10 12
REMARK H PARENT 10 13
REMARK Flexibility Score: inf
ROOT
ATOM      1  C   UNL     1     -16.128 -21.907   6.893  1.00  0.00    -0.025 A 
ATOM      2  C   UNL     1     -15.206 -22.124   7.937  1.00  0.00     0.012 A 
ATOM      3  C   UNL     1     -16.508 -20.590   6.588  1.00  0.00     0.012 A 
ATOM      4  C   UNL     1     -14.661 -21.043   8.637  1.00  0.00     0.047 A 
ATOM      5  C   UNL     1     -15.961 -19.511   7.289  1.00  0.00     0.047 A 
ATOM      6  C   UNL     1     -15.034 -19.736   8.314  1.00  0.00     0.115 A 
ENDROOT
BRANCH   1   7
ATOM      7  C   UNL     1     -16.745 -23.019   6.127  1.00  0.00     0.010 C 
ATOM      8  C   UNL     1     -17.245 -22.883   4.890  1.00  0.00     0.025 C 
BRANCH   8   9
ATOM      9  C   UNL     1     -17.861 -24.008   4.165  1.00  0.00     0.064 C 
ATOM     10  O   UNL     1     -17.966 -23.996   2.910  1.00  0.00    -0.545 OA
ATOM     11  O   UNL     1     -18.335 -25.101   4.879  1.00  0.00    -0.545 OA
ENDBRANCH   8   9
ENDBRANCH   1   7
BRANCH   6  12
ATOM     12  O   UNL     1     -14.482 -18.669   9.020  1.00  0.00    -0.508 OA
ATOM     13  H   UNL     1     -15.029 -17.847   9.252  1.00  0.00     0.293 HD
ENDBRANCH   6  12
TORSDOF 3
ENDMDL
MODEL 5
REMARK VINA RESULT:    -3.432      2.984      3.870
REMARK INTER + INTRA:          -4.087
REMARK INTER:                  -3.946
REMARK INTRA:                  -0.141
REMARK UNBOUND:                -0.154
REMARK SMILES O=C([O-])C=Cc1ccc(O)cc1
REMARK SMILES IDX 6 1 7 2 12 3 8 4 11 5 9 6 5 7 4 8 2 9 1 10 3 11 10 12
REMARK H PARENT 10 13
REMARK Flexibility Score: inf
ROOT
ATOM      1  C   UNL     1     -16.977 -23.824   2.978  1.00  0.00    -0.025 A 
ATOM      2  C   UNL     1     -17.903 -24.771   2.494  1.00  0.00     0.012 A 
ATOM      3  C   UNL     1     -16.051 -23.264   2.082  1.00  0.00     0.012 A 
ATOM      4  C   UNL     1     -17.911 -25.125   1.141  1.00  0.00     0.047 A 
ATOM      5  C   UNL     1     -16.064 -23.618   0.730  1.00  0.00     0.047 A 
ATOM      6  C   UNL     1     -16.996 -24.549   0.256  1.00  0.00     0.115 A 
ENDROOT
BRANCH   1   7
ATOM      7  C   UNL     1     -16.917 -23.423   4.405  1.00  0.00     0.010 C 
ATOM      8  C   UNL     1     -16.976 -22.150   4.824  1.00  0.00     0.025 C 
BRANCH   8   9
ATOM      9  C   UNL     1     -16.902 -21.789   6.250  1.00  0.00     0.064 C 
ATOM     10  O   UNL     1     -16.547 -20.636   6.614  1.00  0.00    -0.545 OA
ATOM     11  O   UNL     1     -17.227 -22.737   7.211  1.00  0.00    -0.545 OA
ENDBRANCH   8   9
ENDBRANCH   1   7
BRANCH   6  12
ATOM     12  O   UNL     1     -17.018 -24.910  -1.089  1.00  0.00    -0.508 OA
ATOM     13  H   UNL     1     -16.163 -25.037  -1.618  1.00  0.00     0.293 HD
ENDBRANCH   6  12
TORSDOF 3
ENDMDL
MODEL 6
REMARK VINA RESULT:    -3.383      2.487      5.759
REMARK INTER + INTRA:          -4.031
REMARK INTER:                  -3.895
REMARK INTRA:                  -0.137
REMARK UNBOUND:                -0.154
REMARK SMILES O=C([O-])C=Cc1ccc(O)cc1
REMARK SMILES IDX 6 1 7 2 12 3 8 4 11 5 9 6 5 7 4 8 2 9 1 10 3 11 10 12
REMARK H PARENT 10 13
REMARK Flexibility Score: inf
ROOT
ATOM      1  C   UNL     1     -15.859 -21.355   7.601  1.00  0.00    -0.025 A 
ATOM      2  C   UNL     1     -14.650 -21.260   8.320  1.00  0.00     0.012 A 
ATOM      3  C   UNL     1     -16.406 -20.190   7.038  1.00  0.00     0.012 A 
ATOM      4  C   UNL     1     -13.997 -20.030   8.446  1.00  0.00     0.047 A 
ATOM      5  C   UNL     1     -15.749 -18.962   7.165  1.00  0.00     0.047 A 
ATOM      6  C   UNL     1     -14.541 -18.880   7.868  1.00  0.00     0.115 A 
ENDROOT
BRANCH   1   7
ATOM      7  C   UNL     1     -16.599 -22.632   7.446  1.00  0.00     0.010 C 
ATOM      8  C   UNL     1     -17.379 -23.162   8.401  1.00  0.00     0.025 C 
BRANCH   8   9
ATOM      9  C   UNL     1     -18.089 -24.438   8.215  1.00  0.00     0.064 C 
ATOM     10  O   UNL     1     -18.816 -24.919   9.125  1.00  0.00    -0.545 OA
ATOM     11  O   UNL     1     -17.954 -25.125   7.016  1.00  0.00    -0.545 OA
ENDBRANCH   8   9
ENDBRANCH   1   7
BRANCH   6  12
ATOM     12  O   UNL     1     -13.878 -17.663   8.002  1.00  0.00    -0.508 OA
ATOM     13  H   UNL     1     -13.512 -17.353   8.896  1.00  0.00     0.293 HD
ENDBRANCH   6  12
TORSDOF 3
ENDMDL
MODEL 7
REMARK VINA RESULT:    -3.367      3.725      6.222
REMARK INTER + INTRA:          -4.013
REMARK INTER:                  -3.868
REMARK INTRA:                  -0.145
REMARK UNBOUND:                -0.154
REMARK SMILES O=C([O-])C=Cc1ccc(O)cc1
REMARK SMILES IDX 6 1 7 2 12 3 8 4 11 5 9 6 5 7 4 8 2 9 1 10 3 11 10 12
REMARK H PARENT 10 13
REMARK Flexibility Score: inf
ROOT
ATOM      1  C   UNL     1     -16.548 -23.530   2.769  1.00  0.00    -0.025 A 
ATOM      2  C   UNL     1     -16.440 -24.477   3.808  1.00  0.00     0.012 A 
ATOM      3  C   UNL     1     -17.025 -22.244   3.071  1.00  0.00     0.012 A 
ATOM      4  C   UNL     1     -16.780 -24.130   5.119  1.00  0.00     0.047 A 
ATOM      5  C   UNL     1     -17.362 -21.900   4.384  1.00  0.00     0.047 A 
ATOM      6  C   UNL     1     -17.238 -22.843   5.412  1.00  0.00     0.115 A 
ENDROOT
BRANCH   1   7
ATOM      7  C   UNL     1     -16.212 -23.849   1.359  1.00  0.00     0.010 C 
ATOM      8  C   UNL     1     -15.602 -22.993   0.526  1.00  0.00     0.025 C 
BRANCH   8   9
ATOM      9  C   UNL     1     -15.295 -23.342  -0.872  1.00  0.00     0.064 C 
ATOM     10  O   UNL     1     -14.106 -23.461  -1.268  1.00  0.00    -0.545 OA
ATOM     11  O   UNL     1     -16.337 -23.541  -1.768  1.00  0.00    -0.545 OA
ENDBRANCH   8   9
ENDBRANCH   1   7
BRANCH   6  12
ATOM     12  O   UNL     1     -17.571 -22.512   6.723  1.00  0.00    -0.508 OA
ATOM     13  H   UNL     1     -17.323 -21.614   7.123  1.00  0.00     0.293 HD
ENDBRANCH   6  12
TORSDOF 3
ENDMDL
MODEL 8
REMARK VINA RESULT:    -3.339      4.728      7.457
REMARK INTER + INTRA:          -3.981
REMARK INTER:                  -3.842
REMARK INTRA:                  -0.139
REMARK UNBOUND:                -0.154
REMARK SMILES O=C([O-])C=Cc1ccc(O)cc1
REMARK SMILES IDX 6 1 7 2 12 3 8 4 11 5 9 6 5 7 4 8 2 9 1 10 3 11 10 12
REMARK H PARENT 10 13
REMARK Flexibility Score: inf
ROOT
ATOM      1  C   UNL     1     -16.267 -23.715   1.073  1.00  0.00    -0.025 A 
ATOM      2  C   UNL     1     -17.141 -24.753   1.455  1.00  0.00     0.012 A 
ATOM      3  C   UNL     1     -16.188 -22.565   1.877  1.00  0.00     0.012 A 
ATOM      4  C   UNL     1     -17.896 -24.647   2.628  1.00  0.00     0.047 A 
ATOM      5  C   UNL     1     -16.943 -22.464   3.050  1.00  0.00     0.047 A 
ATOM      6  C   UNL     1     -17.797 -23.506   3.429  1.00  0.00     0.115 A 
ENDROOT
BRANCH   1   7
ATOM      7  C   UNL     1     -15.454 -23.770  -0.167  1.00  0.00     0.010 C 
ATOM      8  C   UNL     1     -15.932 -24.167  -1.355  1.00  0.00     0.025 C 
BRANCH   8   9
ATOM      9  C   UNL     1     -15.091 -24.221  -2.563  1.00  0.00     0.064 C 
ATOM     10  O   UNL     1     -15.350 -25.016  -3.504  1.00  0.00    -0.545 OA
ATOM     11  O   UNL     1     -13.990 -23.379  -2.664  1.00  0.00    -0.545 OA
ENDBRANCH   8   9
ENDBRANCH   1   7
BRANCH   6  12
ATOM     12  O   UNL     1     -18.554 -23.416   4.595  1.00  0.00    -0.508 OA
ATOM     13  H   UNL     1     -18.294 -23.919   5.436  1.00  0.00     0.293 HD
ENDBRANCH   6  12
TORSDOF 3
ENDMDL
MODEL 9
REMARK VINA RESULT:    -3.334      3.686      6.304
REMARK INTER + INTRA:          -3.975
REMARK INTER:                  -3.837
REMARK INTRA:                  -0.138
REMARK UNBOUND:                -0.154
REMARK SMILES O=C([O-])C=Cc1ccc(O)cc1
REMARK SMILES IDX 6 1 7 2 12 3 8 4 11 5 9 6 5 7 4 8 2 9 1 10 3 11 10 12
REMARK H PARENT 10 13
REMARK Flexibility Score: inf
ROOT
ATOM      1  C   UNL     1     -16.622 -23.565   2.837  1.00  0.00    -0.025 A 
ATOM      2  C   UNL     1     -17.166 -22.337   3.266  1.00  0.00     0.012 A 
ATOM      3  C   UNL     1     -16.338 -24.552   3.795  1.00  0.00     0.012 A 
ATOM      4  C   UNL     1     -17.439 -22.119   4.620  1.00  0.00     0.047 A 
ATOM      5  C   UNL     1     -16.614 -24.331   5.148  1.00  0.00     0.047 A 
ATOM      6  C   UNL     1     -17.168 -23.114   5.563  1.00  0.00     0.115 A 
ENDROOT
BRANCH   1   7
ATOM      7  C   UNL     1     -16.302 -23.844   1.415  1.00  0.00     0.010 C 
ATOM      8  C   UNL     1     -15.654 -22.984   0.614  1.00  0.00     0.025 C 
BRANCH   8   9
ATOM      9  C   UNL     1     -15.364 -23.292  -0.797  1.00  0.00     0.064 C 
ATOM     10  O   UNL     1     -16.287 -23.565  -1.608  1.00  0.00    -0.545 OA
ATOM     11  O   UNL     1     -14.047 -23.282  -1.240  1.00  0.00    -0.545 OA
ENDBRANCH   8   9
ENDBRANCH   1   7
BRANCH   6  12
ATOM     12  O   UNL     1     -17.447 -22.882   6.908  1.00  0.00    -0.508 OA
ATOM     13  H   UNL     1     -17.402 -23.626   7.595  1.00  0.00     0.293 HD
ENDBRANCH   6  12
TORSDOF 3
ENDMDL
