MODEL 1
REMARK VINA RESULT:    -5.122      0.000      0.000
REMARK INTER + INTRA:         -16.538
REMARK INTER:                 -13.505
REMARK INTRA:                  -3.033
REMARK UNBOUND:                -3.033
REMARK SMILES CCCCCCCCCCCCCCCCCCCCCCCCCCCCCC(=O)[O-]
REMARK SMILES IDX 16 1 17 2 18 3 19 4 20 5 21 6 22 7 23 8 24 9 25 10 26 11
REMARK SMILES IDX 27 12 28 13 29 14 30 15 31 16 32 17 15 18 14 19 13 20 12 21
REMARK SMILES IDX 11 22 10 23 9 24 8 25 7 26 6 27 5 28 4 29 3 30 2 31 1 32
REMARK H PARENT
REMARK Flexibility Score: inf
ROOT
ATOM      1  C   UNL     1       9.895  51.356  22.401  1.00  0.00     0.000 C 
ENDROOT
BRANCH   1   2
ATOM      2  C   UNL     1      10.910  50.199  22.399  1.00  0.00     0.000 C 
BRANCH   2   3
ATOM      3  C   UNL     1      10.274  48.846  22.766  1.00  0.00     0.000 C 
BRANCH   3   4
ATOM      4  C   UNL     1      11.173  47.614  22.535  1.00  0.00     0.000 C 
BRANCH   4   5
ATOM      5  C   UNL     1      10.695  46.318  23.219  1.00  0.00     0.000 C 
BRANCH   5   6
ATOM      6  C   UNL     1       9.203  46.301  23.609  1.00  0.00     0.000 C 
BRANCH   6   7
ATOM      7  C   UNL     1       8.577  44.897  23.708  1.00  0.00     0.000 C 
BRANCH   7   8
ATOM      8  C   UNL     1       7.050  44.874  23.923  1.00  0.00     0.000 C 
BRANCH   8   9
ATOM      9  C   UNL     1       6.277  46.016  23.237  1.00  0.00     0.000 C 
BRANCH   9  10
ATOM     10  C   UNL     1       4.841  46.168  23.763  1.00  0.00     0.000 C 
BRANCH  10  11
ATOM     11  C   UNL     1       3.917  46.736  22.676  1.00  0.00     0.000 C 
BRANCH  11  12
ATOM     12  C   UNL     1       2.424  46.517  22.981  1.00  0.00     0.000 C 
BRANCH  12  13
ATOM     13  C   UNL     1       1.658  47.773  23.445  1.00  0.00     0.006 C 
BRANCH  13  14
ATOM     14  C   UNL     1       0.995  47.645  24.826  1.00  0.00     0.053 C 
BRANCH  14  15
ATOM     15  C   UNL     1       1.955  47.155  25.867  1.00  0.00     0.041 C 
ATOM     16  O   UNL     1       1.853  45.987  26.327  1.00  0.00    -0.550 OA
ATOM     17  O   UNL     1       2.984  47.981  26.306  1.00  0.00    -0.550 OA
ENDBRANCH  14  15
ENDBRANCH  13  14
ENDBRANCH  12  13
ENDBRANCH  11  12
ENDBRANCH  10  11
ENDBRANCH   9  10
ENDBRANCH   8   9
ENDBRANCH   7   8
ENDBRANCH   6   7
ENDBRANCH   5   6
ENDBRANCH   4   5
ENDBRANCH   3   4
ENDBRANCH   2   3
ENDBRANCH   1   2
BRANCH   1  18
ATOM     18  C   UNL     1      10.121  52.342  21.244  1.00  0.00     0.000 C 
BRANCH  18  19
ATOM     19  C   UNL     1      10.218  53.801  21.714  1.00  0.00     0.000 C 
BRANCH  19  20
ATOM     20  C   UNL     1      10.719  53.882  23.161  1.00  0.00     0.000 C 
BRANCH  20  21
ATOM     21  C   UNL     1       9.902  54.899  23.969  1.00  0.00     0.000 C 
BRANCH  21  22
ATOM     22  C   UNL     1       9.352  54.270  25.253  1.00  0.00     0.000 C 
BRANCH  22  23
ATOM     23  C   UNL     1       8.111  53.414  24.955  1.00  0.00     0.000 C 
BRANCH  23  24
ATOM     24  C   UNL     1       7.137  54.095  23.981  1.00  0.00    -0.000 C 
BRANCH  24  25
ATOM     25  C   UNL     1       6.810  53.218  22.760  1.00  0.00    -0.000 C 
BRANCH  25  26
ATOM     26  C   UNL     1       6.678  54.027  21.457  1.00  0.00    -0.000 C 
BRANCH  26  27
ATOM     27  C   UNL     1       5.853  55.323  21.569  1.00  0.00    -0.000 C 
BRANCH  27  28
ATOM     28  C   UNL     1       6.514  56.519  20.867  1.00  0.00    -0.000 C 
BRANCH  28  29
ATOM     29  C   UNL     1       7.700  56.060  20.003  1.00  0.00    -0.000 C 
BRANCH  29  30
ATOM     30  C   UNL     1       7.346  55.975  18.510  1.00  0.00    -0.000 C 
BRANCH  30  31
ATOM     31  C   UNL     1       7.486  54.551  17.950  1.00  0.00    -0.003 C 
ATOM     32  C   UNL     1       6.207  54.113  17.242  1.00  0.00     0.004 C 
ENDBRANCH  30  31
ENDBRANCH  29  30
ENDBRANCH  28  29
ENDBRANCH  27  28
ENDBRANCH  26  27
ENDBRANCH  25  26
ENDBRANCH  24  25
ENDBRANCH  23  24
ENDBRANCH  22  23
ENDBRANCH  21  22
ENDBRANCH  20  21
ENDBRANCH  19  20
ENDBRANCH  18  19
ENDBRANCH   1  18
TORSDOF 28
ENDMDL
MODEL 2
REMARK VINA RESULT:    -5.113      3.794      9.609
REMARK INTER + INTRA:         -16.515
REMARK INTER:                 -13.376
REMARK INTRA:                  -3.139
REMARK UNBOUND:                -3.033
REMARK SMILES CCCCCCCCCCCCCCCCCCCCCCCCCCCCCC(=O)[O-]
REMARK SMILES IDX 16 1 17 2 18 3 19 4 20 5 21 6 22 7 23 8 24 9 25 10 26 11
REMARK SMILES IDX 27 12 28 13 29 14 30 15 31 16 32 17 15 18 14 19 13 20 12 21
REMARK SMILES IDX 11 22 10 23 9 24 8 25 7 26 6 27 5 28 4 29 3 30 2 31 1 32
REMARK H PARENT
REMARK Flexibility Score: inf
ROOT
ATOM      1  C   UNL     1      11.667  47.662  24.914  1.00  0.00     0.000 C 
ENDROOT
BRANCH   1   2
ATOM      2  C   UNL     1      11.525  47.419  23.401  1.00  0.00     0.000 C 
BRANCH   2   3
ATOM      3  C   UNL     1      10.517  48.373  22.734  1.00  0.00     0.000 C 
BRANCH   3   4
ATOM      4  C   UNL     1      11.014  49.819  22.533  1.00  0.00     0.000 C 
BRANCH   4   5
ATOM      5  C   UNL     1       9.906  50.873  22.343  1.00  0.00     0.000 C 
BRANCH   5   6
ATOM      6  C   UNL     1      10.385  52.337  22.406  1.00  0.00     0.000 C 
BRANCH   6   7
ATOM      7  C   UNL     1       9.676  53.291  21.424  1.00  0.00     0.000 C 
BRANCH   7   8
ATOM      8  C   UNL     1       8.763  54.345  22.081  1.00  0.00     0.000 C 
BRANCH   8   9
ATOM      9  C   UNL     1       7.364  53.842  22.479  1.00  0.00     0.000 C 
BRANCH   9  10
ATOM     10  C   UNL     1       6.229  54.621  21.797  1.00  0.00     0.000 C 
BRANCH  10  11
ATOM     11  C   UNL     1       6.595  56.106  21.651  1.00  0.00     0.000 C 
BRANCH  11  12
ATOM     12  C   UNL     1       6.170  56.699  20.296  1.00  0.00     0.000 C 
BRANCH  12  13
ATOM     13  C   UNL     1       7.285  56.769  19.232  1.00  0.00     0.006 C 
BRANCH  13  14
ATOM     14  C   UNL     1       7.829  55.402  18.786  1.00  0.00     0.053 C 
BRANCH  14  15
ATOM     15  C   UNL     1       6.917  54.727  17.806  1.00  0.00     0.041 C 
ATOM     16  O   UNL     1       6.812  55.166  16.630  1.00  0.00    -0.550 OA
ATOM     17  O   UNL     1       6.207  53.594  18.185  1.00  0.00    -0.550 OA
ENDBRANCH  14  15
ENDBRANCH  13  14
ENDBRANCH  12  13
ENDBRANCH  11  12
ENDBRANCH  10  11
ENDBRANCH   9  10
ENDBRANCH   8   9
ENDBRANCH   7   8
ENDBRANCH   6   7
ENDBRANCH   5   6
ENDBRANCH   4   5
ENDBRANCH   3   4
ENDBRANCH   2   3
ENDBRANCH   1   2
BRANCH   1  18
ATOM     18  C   UNL     1      13.090  47.386  25.424  1.00  0.00     0.000 C 
BRANCH  18  19
ATOM     19  C   UNL     1      13.420  48.153  26.714  1.00  0.00     0.000 C 
BRANCH  19  20
ATOM     20  C   UNL     1      13.816  47.191  27.841  1.00  0.00     0.000 C 
BRANCH  20  21
ATOM     21  C   UNL     1      13.354  45.762  27.532  1.00  0.00     0.000 C 
BRANCH  21  22
ATOM     22  C   UNL     1      12.070  45.419  28.296  1.00  0.00     0.000 C 
BRANCH  22  23
ATOM     23  C   UNL     1      11.075  44.678  27.388  1.00  0.00     0.000 C 
BRANCH  23  24
ATOM     24  C   UNL     1      11.755  43.998  26.190  1.00  0.00    -0.000 C 
BRANCH  24  25
ATOM     25  C   UNL     1      10.899  44.056  24.913  1.00  0.00    -0.000 C 
BRANCH  25  26
ATOM     26  C   UNL     1       9.484  44.609  25.162  1.00  0.00    -0.000 C 
BRANCH  26  27
ATOM     27  C   UNL     1       8.737  45.093  23.905  1.00  0.00    -0.000 C 
BRANCH  27  28
ATOM     28  C   UNL     1       7.760  46.243  24.192  1.00  0.00    -0.000 C 
BRANCH  28  29
ATOM     29  C   UNL     1       6.519  45.734  24.943  1.00  0.00    -0.000 C 
BRANCH  29  30
ATOM     30  C   UNL     1       5.335  45.452  24.005  1.00  0.00    -0.000 C 
BRANCH  30  31
ATOM     31  C   UNL     1       4.222  46.505  24.125  1.00  0.00    -0.003 C 
ATOM     32  C   UNL     1       3.774  46.666  25.575  1.00  0.00     0.004 C 
ENDBRANCH  30  31
ENDBRANCH  29  30
ENDBRANCH  28  29
ENDBRANCH  27  28
ENDBRANCH  26  27
ENDBRANCH  25  26
ENDBRANCH  24  25
ENDBRANCH  23  24
ENDBRANCH  22  23
ENDBRANCH  21  22
ENDBRANCH  20  21
ENDBRANCH  19  20
ENDBRANCH  18  19
ENDBRANCH   1  18
TORSDOF 28
ENDMDL
MODEL 3
REMARK VINA RESULT:    -5.029      1.742      5.875
REMARK INTER + INTRA:         -16.294
REMARK INTER:                 -13.123
REMARK INTRA:                  -3.171
REMARK UNBOUND:                -3.033
REMARK SMILES CCCCCCCCCCCCCCCCCCCCCCCCCCCCCC(=O)[O-]
REMARK SMILES IDX 16 1 17 2 18 3 19 4 20 5 21 6 22 7 23 8 24 9 25 10 26 11
REMARK SMILES IDX 27 12 28 13 29 14 30 15 31 16 32 17 15 18 14 19 13 20 12 21
REMARK SMILES IDX 11 22 10 23 9 24 8 25 7 26 6 27 5 28 4 29 3 30 2 31 1 32
REMARK H PARENT
REMARK Flexibility Score: inf
ROOT
ATOM      1  C   UNL     1       6.799  45.342  23.482  1.00  0.00     0.000 C 
ENDROOT
BRANCH   1   2
ATOM      2  C   UNL     1       6.971  45.996  24.864  1.00  0.00     0.000 C 
BRANCH   2   3
ATOM      3  C   UNL     1       5.945  45.492  25.896  1.00  0.00     0.000 C 
BRANCH   3   4
ATOM      4  C   UNL     1       4.511  46.026  25.711  1.00  0.00     0.000 C 
BRANCH   4   5
ATOM      5  C   UNL     1       3.487  44.993  25.200  1.00  0.00     0.000 C 
BRANCH   5   6
ATOM      6  C   UNL     1       2.783  45.375  23.882  1.00  0.00     0.000 C 
BRANCH   6   7
ATOM      7  C   UNL     1       3.484  46.484  23.073  1.00  0.00     0.000 C 
BRANCH   7   8
ATOM      8  C   UNL     1       2.603  47.180  22.017  1.00  0.00     0.000 C 
BRANCH   8   9
ATOM      9  C   UNL     1       1.150  46.676  21.943  1.00  0.00     0.000 C 
BRANCH   9  10
ATOM     10  C   UNL     1       0.137  47.677  22.519  1.00  0.00     0.000 C 
BRANCH  10  11
ATOM     11  C   UNL     1       0.778  49.061  22.701  1.00  0.00     0.000 C 
BRANCH  11  12
ATOM     12  C   UNL     1       0.732  49.557  24.158  1.00  0.00     0.000 C 
BRANCH  12  13
ATOM     13  C   UNL     1       2.032  49.353  24.961  1.00  0.00     0.006 C 
BRANCH  13  14
ATOM     14  C   UNL     1       1.829  49.193  26.477  1.00  0.00     0.053 C 
BRANCH  14  15
ATOM     15  C   UNL     1       0.732  48.224  26.797  1.00  0.00     0.041 C 
ATOM     16  O   UNL     1       0.883  46.994  26.565  1.00  0.00    -0.550 OA
ATOM     17  O   UNL     1      -0.446  48.674  27.381  1.00  0.00    -0.550 OA
ENDBRANCH  14  15
ENDBRANCH  13  14
ENDBRANCH  12  13
ENDBRANCH  11  12
ENDBRANCH  10  11
ENDBRANCH   9  10
ENDBRANCH   8   9
ENDBRANCH   7   8
ENDBRANCH   6   7
ENDBRANCH   5   6
ENDBRANCH   4   5
ENDBRANCH   3   4
ENDBRANCH   2   3
ENDBRANCH   1   2
BRANCH   1  18
ATOM     18  C   UNL     1       7.713  44.122  23.287  1.00  0.00     0.000 C 
BRANCH  18  19
ATOM     19  C   UNL     1       8.925  44.128  24.232  1.00  0.00     0.000 C 
BRANCH  19  20
ATOM     20  C   UNL     1      10.238  44.208  23.444  1.00  0.00     0.000 C 
BRANCH  20  21
ATOM     21  C   UNL     1      10.617  45.665  23.155  1.00  0.00     0.000 C 
BRANCH  21  22
ATOM     22  C   UNL     1      10.573  46.512  24.431  1.00  0.00     0.000 C 
BRANCH  22  23
ATOM     23  C   UNL     1      10.134  47.951  24.118  1.00  0.00     0.000 C 
BRANCH  23  24
ATOM     24  C   UNL     1      10.435  48.364  22.669  1.00  0.00    -0.000 C 
BRANCH  24  25
ATOM     25  C   UNL     1      10.969  49.803  22.562  1.00  0.00    -0.000 C 
BRANCH  25  26
ATOM     26  C   UNL     1       9.848  50.851  22.436  1.00  0.00    -0.000 C 
BRANCH  26  27
ATOM     27  C   UNL     1      10.276  52.201  21.829  1.00  0.00    -0.000 C 
BRANCH  27  28
ATOM     28  C   UNL     1      10.180  53.365  22.826  1.00  0.00    -0.000 C 
BRANCH  28  29
ATOM     29  C   UNL     1       9.201  54.438  22.324  1.00  0.00    -0.000 C 
BRANCH  29  30
ATOM     30  C   UNL     1       8.653  54.129  20.922  1.00  0.00    -0.000 C 
BRANCH  30  31
ATOM     31  C   UNL     1       8.184  55.390  20.179  1.00  0.00    -0.003 C 
ATOM     32  C   UNL     1       6.831  55.862  20.703  1.00  0.00     0.004 C 
ENDBRANCH  30  31
ENDBRANCH  29  30
ENDBRANCH  28  29
ENDBRANCH  27  28
ENDBRANCH  26  27
ENDBRANCH  25  26
ENDBRANCH  24  25
ENDBRANCH  23  24
ENDBRANCH  22  23
ENDBRANCH  21  22
ENDBRANCH  20  21
ENDBRANCH  19  20
ENDBRANCH  18  19
ENDBRANCH   1  18
TORSDOF 28
ENDMDL
MODEL 4
REMARK VINA RESULT:    -5.020      2.920      4.931
REMARK INTER + INTRA:         -16.270
REMARK INTER:                 -14.048
REMARK INTRA:                  -2.222
REMARK UNBOUND:                -3.033
REMARK SMILES CCCCCCCCCCCCCCCCCCCCCCCCCCCCCC(=O)[O-]
REMARK SMILES IDX 16 1 17 2 18 3 19 4 20 5 21 6 22 7 23 8 24 9 25 10 26 11
REMARK SMILES IDX 27 12 28 13 29 14 30 15 31 16 32 17 15 18 14 19 13 20 12 21
REMARK SMILES IDX 11 22 10 23 9 24 8 25 7 26 6 27 5 28 4 29 3 30 2 31 1 32
REMARK H PARENT
REMARK Flexibility Score: inf
ROOT
ATOM      1  C   UNL     1      10.589  48.623  23.051  1.00  0.00     0.000 C 
ENDROOT
BRANCH   1   2
ATOM      2  C   UNL     1      12.089  48.564  23.388  1.00  0.00     0.000 C 
BRANCH   2   3
ATOM      3  C   UNL     1      12.400  47.633  24.573  1.00  0.00     0.000 C 
BRANCH   3   4
ATOM      4  C   UNL     1      13.632  48.025  25.412  1.00  0.00     0.000 C 
BRANCH   4   5
ATOM      5  C   UNL     1      13.560  47.639  26.903  1.00  0.00     0.000 C 
BRANCH   5   6
ATOM      6  C   UNL     1      14.912  47.261  27.542  1.00  0.00     0.000 C 
BRANCH   6   7
ATOM      7  C   UNL     1      14.959  45.854  28.168  1.00  0.00     0.000 C 
BRANCH   7   8
ATOM      8  C   UNL     1      14.866  44.687  27.165  1.00  0.00     0.000 C 
BRANCH   8   9
ATOM      9  C   UNL     1      13.474  44.043  27.039  1.00  0.00     0.000 C 
BRANCH   9  10
ATOM     10  C   UNL     1      12.849  44.231  25.648  1.00  0.00     0.000 C 
BRANCH  10  11
ATOM     11  C   UNL     1      11.327  44.034  25.699  1.00  0.00     0.000 C 
BRANCH  11  12
ATOM     12  C   UNL     1      10.614  44.519  24.424  1.00  0.00     0.000 C 
BRANCH  12  13
ATOM     13  C   UNL     1       9.073  44.457  24.470  1.00  0.00     0.006 C 
BRANCH  13  14
ATOM     14  C   UNL     1       8.365  45.471  23.556  1.00  0.00     0.053 C 
BRANCH  14  15
ATOM     15  C   UNL     1       6.979  45.782  24.032  1.00  0.00     0.041 C 
ATOM     16  O   UNL     1       6.693  45.701  25.256  1.00  0.00    -0.550 OA
ATOM     17  O   UNL     1       6.008  46.192  23.125  1.00  0.00    -0.550 OA
ENDBRANCH  14  15
ENDBRANCH  13  14
ENDBRANCH  12  13
ENDBRANCH  11  12
ENDBRANCH  10  11
ENDBRANCH   9  10
ENDBRANCH   8   9
ENDBRANCH   7   8
ENDBRANCH   6   7
ENDBRANCH   5   6
ENDBRANCH   4   5
ENDBRANCH   3   4
ENDBRANCH   2   3
ENDBRANCH   1   2
BRANCH   1  18
ATOM     18  C   UNL     1      10.258  49.713  22.019  1.00  0.00     0.000 C 
BRANCH  18  19
ATOM     19  C   UNL     1      10.232  51.122  22.628  1.00  0.00     0.000 C 
BRANCH  19  20
ATOM     20  C   UNL     1       9.892  52.176  21.567  1.00  0.00     0.000 C 
BRANCH  20  21
ATOM     21  C   UNL     1      10.569  53.515  21.885  1.00  0.00     0.000 C 
BRANCH  21  22
ATOM     22  C   UNL     1      10.519  53.816  23.387  1.00  0.00     0.000 C 
BRANCH  22  23
ATOM     23  C   UNL     1       9.349  54.756  23.719  1.00  0.00     0.000 C 
BRANCH  23  24
ATOM     24  C   UNL     1       8.165  54.025  24.371  1.00  0.00    -0.000 C 
BRANCH  24  25
ATOM     25  C   UNL     1       7.082  53.627  23.354  1.00  0.00    -0.000 C 
BRANCH  25  26
ATOM     26  C   UNL     1       7.246  54.332  21.995  1.00  0.00    -0.000 C 
BRANCH  26  27
ATOM     27  C   UNL     1       5.968  54.987  21.437  1.00  0.00    -0.000 C 
BRANCH  27  28
ATOM     28  C   UNL     1       6.223  56.368  20.815  1.00  0.00    -0.000 C 
BRANCH  28  29
ATOM     29  C   UNL     1       7.253  56.276  19.678  1.00  0.00    -0.000 C 
BRANCH  29  30
ATOM     30  C   UNL     1       7.131  54.972  18.875  1.00  0.00    -0.000 C 
BRANCH  30  31
ATOM     31  C   UNL     1       7.043  55.216  17.361  1.00  0.00    -0.003 C 
ATOM     32  C   UNL     1       6.150  54.177  16.689  1.00  0.00     0.004 C 
ENDBRANCH  30  31
ENDBRANCH  29  30
ENDBRANCH  28  29
ENDBRANCH  27  28
ENDBRANCH  26  27
ENDBRANCH  25  26
ENDBRANCH  24  25
ENDBRANCH  23  24
ENDBRANCH  22  23
ENDBRANCH  21  22
ENDBRANCH  20  21
ENDBRANCH  19  20
ENDBRANCH  18  19
ENDBRANCH   1  18
TORSDOF 28
ENDMDL
MODEL 5
REMARK VINA RESULT:    -4.954      3.402      8.939
REMARK INTER + INTRA:         -16.096
REMARK INTER:                 -12.845
REMARK INTRA:                  -3.251
REMARK UNBOUND:                -3.033
REMARK SMILES CCCCCCCCCCCCCCCCCCCCCCCCCCCCCC(=O)[O-]
REMARK SMILES IDX 16 1 17 2 18 3 19 4 20 5 21 6 22 7 23 8 24 9 25 10 26 11
REMARK SMILES IDX 27 12 28 13 29 14 30 15 31 16 32 17 15 18 14 19 13 20 12 21
REMARK SMILES IDX 11 22 10 23 9 24 8 25 7 26 6 27 5 28 4 29 3 30 2 31 1 32
REMARK H PARENT
REMARK Flexibility Score: inf
ROOT
ATOM      1  C   UNL     1       6.580  44.603  25.082  1.00  0.00     0.000 C 
ENDROOT
BRANCH   1   2
ATOM      2  C   UNL     1       6.617  45.507  23.837  1.00  0.00     0.000 C 
BRANCH   2   3
ATOM      3  C   UNL     1       8.014  46.094  23.566  1.00  0.00     0.000 C 
BRANCH   3   4
ATOM      4  C   UNL     1       9.160  45.064  23.512  1.00  0.00     0.000 C 
BRANCH   4   5
ATOM      5  C   UNL     1      10.580  45.662  23.549  1.00  0.00     0.000 C 
BRANCH   5   6
ATOM      6  C   UNL     1      10.791  46.769  24.603  1.00  0.00     0.000 C 
BRANCH   6   7
ATOM      7  C   UNL     1      11.732  47.908  24.164  1.00  0.00     0.000 C 
BRANCH   7   8
ATOM      8  C   UNL     1      11.499  48.435  22.734  1.00  0.00     0.000 C 
BRANCH   8   9
ATOM      9  C   UNL     1      10.286  49.368  22.571  1.00  0.00     0.000 C 
BRANCH   9  10
ATOM     10  C   UNL     1      10.667  50.856  22.596  1.00  0.00     0.000 C 
BRANCH  10  11
ATOM     11  C   UNL     1       9.600  51.708  21.892  1.00  0.00     0.000 C 
BRANCH  11  12
ATOM     12  C   UNL     1      10.103  53.114  21.518  1.00  0.00     0.000 C 
BRANCH  12  13
ATOM     13  C   UNL     1       9.438  54.274  22.288  1.00  0.00     0.006 C 
BRANCH  13  14
ATOM     14  C   UNL     1       8.911  53.897  23.682  1.00  0.00     0.053 C 
BRANCH  14  15
ATOM     15  C   UNL     1       9.920  54.166  24.756  1.00  0.00     0.041 C 
ATOM     16  O   UNL     1      11.126  54.376  24.457  1.00  0.00    -0.550 OA
ATOM     17  O   UNL     1       9.523  54.217  26.087  1.00  0.00    -0.550 OA
ENDBRANCH  14  15
ENDBRANCH  13  14
ENDBRANCH  12  13
ENDBRANCH  11  12
ENDBRANCH  10  11
ENDBRANCH   9  10
ENDBRANCH   8   9
ENDBRANCH   7   8
ENDBRANCH   6   7
ENDBRANCH   5   6
ENDBRANCH   4   5
ENDBRANCH   3   4
ENDBRANCH   2   3
ENDBRANCH   1   2
BRANCH   1  18
ATOM     18  C   UNL     1       5.166  44.465  25.670  1.00  0.00     0.000 C 
BRANCH  18  19
ATOM     19  C   UNL     1       4.813  45.597  26.645  1.00  0.00     0.000 C 
BRANCH  19  20
ATOM     20  C   UNL     1       3.296  45.804  26.724  1.00  0.00     0.000 C 
BRANCH  20  21
ATOM     21  C   UNL     1       2.956  47.266  27.040  1.00  0.00     0.000 C 
BRANCH  21  22
ATOM     22  C   UNL     1       1.794  47.764  26.173  1.00  0.00     0.000 C 
BRANCH  22  23
ATOM     23  C   UNL     1       2.209  48.999  25.358  1.00  0.00     0.000 C 
BRANCH  23  24
ATOM     24  C   UNL     1       1.031  49.941  25.063  1.00  0.00    -0.000 C 
BRANCH  24  25
ATOM     25  C   UNL     1       0.952  50.343  23.581  1.00  0.00    -0.000 C 
BRANCH  25  26
ATOM     26  C   UNL     1       0.492  49.190  22.669  1.00  0.00    -0.000 C 
BRANCH  26  27
ATOM     27  C   UNL     1      -0.702  48.372  23.198  1.00  0.00    -0.000 C 
BRANCH  27  28
ATOM     28  C   UNL     1      -0.594  46.874  22.872  1.00  0.00    -0.000 C 
BRANCH  28  29
ATOM     29  C   UNL     1       0.611  46.597  21.959  1.00  0.00    -0.000 C 
BRANCH  29  30
ATOM     30  C   UNL     1       1.404  45.354  22.389  1.00  0.00    -0.000 C 
BRANCH  30  31
ATOM     31  C   UNL     1       2.669  45.706  23.186  1.00  0.00    -0.003 C 
ATOM     32  C   UNL     1       3.356  46.940  22.607  1.00  0.00     0.004 C 
ENDBRANCH  30  31
ENDBRANCH  29  30
ENDBRANCH  28  29
ENDBRANCH  27  28
ENDBRANCH  26  27
ENDBRANCH  25  26
ENDBRANCH  24  25
ENDBRANCH  23  24
ENDBRANCH  22  23
ENDBRANCH  21  22
ENDBRANCH  20  21
ENDBRANCH  19  20
ENDBRANCH  18  19
ENDBRANCH   1  18
TORSDOF 28
ENDMDL
MODEL 6
REMARK VINA RESULT:    -4.941      1.527      5.247
REMARK INTER + INTRA:         -16.061
REMARK INTER:                 -13.488
REMARK INTRA:                  -2.573
REMARK UNBOUND:                -3.033
REMARK SMILES CCCCCCCCCCCCCCCCCCCCCCCCCCCCCC(=O)[O-]
REMARK SMILES IDX 16 1 17 2 18 3 19 4 20 5 21 6 22 7 23 8 24 9 25 10 26 11
REMARK SMILES IDX 27 12 28 13 29 14 30 15 31 16 32 17 15 18 14 19 13 20 12 21
REMARK SMILES IDX 11 22 10 23 9 24 8 25 7 26 6 27 5 28 4 29 3 30 2 31 1 32
REMARK H PARENT
REMARK Flexibility Score: inf
ROOT
ATOM      1  C   UNL     1       8.305  44.379  25.587  1.00  0.00     0.000 C 
ENDROOT
BRANCH   1   2
ATOM      2  C   UNL     1       7.004  45.181  25.763  1.00  0.00     0.000 C 
BRANCH   2   3
ATOM      3  C   UNL     1       5.988  44.927  24.635  1.00  0.00     0.000 C 
BRANCH   3   4
ATOM      4  C   UNL     1       5.492  46.189  23.900  1.00  0.00     0.000 C 
BRANCH   4   5
ATOM      5  C   UNL     1       4.012  46.157  23.469  1.00  0.00     0.000 C 
BRANCH   5   6
ATOM      6  C   UNL     1       3.148  45.103  24.192  1.00  0.00     0.000 C 
BRANCH   6   7
ATOM      7  C   UNL     1       1.637  45.199  23.905  1.00  0.00     0.000 C 
BRANCH   7   8
ATOM      8  C   UNL     1       1.254  45.207  22.412  1.00  0.00     0.000 C 
BRANCH   8   9
ATOM      9  C   UNL     1       0.780  46.566  21.865  1.00  0.00     0.000 C 
BRANCH   9  10
ATOM     10  C   UNL     1      -0.276  47.236  22.757  1.00  0.00     0.000 C 
BRANCH  10  11
ATOM     11  C   UNL     1       0.074  48.710  23.008  1.00  0.00     0.000 C 
BRANCH  11  12
ATOM     12  C   UNL     1       1.590  48.977  23.009  1.00  0.00     0.000 C 
BRANCH  12  13
ATOM     13  C   UNL     1       2.163  49.499  24.343  1.00  0.00     0.006 C 
BRANCH  13  14
ATOM     14  C   UNL     1       1.983  48.544  25.534  1.00  0.00     0.053 C 
BRANCH  14  15
ATOM     15  C   UNL     1       1.280  49.203  26.681  1.00  0.00     0.041 C 
ATOM     16  O   UNL     1       0.640  48.511  27.517  1.00  0.00    -0.550 OA
ATOM     17  O   UNL     1       1.357  50.581  26.844  1.00  0.00    -0.550 OA
ENDBRANCH  14  15
ENDBRANCH  13  14
ENDBRANCH  12  13
ENDBRANCH  11  12
ENDBRANCH  10  11
ENDBRANCH   9  10
ENDBRANCH   8   9
ENDBRANCH   7   8
ENDBRANCH   6   7
ENDBRANCH   5   6
ENDBRANCH   4   5
ENDBRANCH   3   4
ENDBRANCH   2   3
ENDBRANCH   1   2
BRANCH   1  18
ATOM     18  C   UNL     1       8.957  44.605  24.214  1.00  0.00     0.000 C 
BRANCH  18  19
ATOM     19  C   UNL     1       9.480  46.037  24.029  1.00  0.00     0.000 C 
BRANCH  19  20
ATOM     20  C   UNL     1      10.727  46.058  23.138  1.00  0.00     0.000 C 
BRANCH  20  21
ATOM     21  C   UNL     1      11.354  47.457  23.103  1.00  0.00     0.000 C 
BRANCH  21  22
ATOM     22  C   UNL     1      10.352  48.499  22.594  1.00  0.00     0.000 C 
BRANCH  22  23
ATOM     23  C   UNL     1      10.893  49.923  22.798  1.00  0.00     0.000 C 
BRANCH  23  24
ATOM     24  C   UNL     1      10.074  50.984  22.046  1.00  0.00    -0.000 C 
BRANCH  24  25
ATOM     25  C   UNL     1       9.966  52.308  22.822  1.00  0.00    -0.000 C 
BRANCH  25  26
ATOM     26  C   UNL     1       9.965  53.544  21.905  1.00  0.00    -0.000 C 
BRANCH  26  27
ATOM     27  C   UNL     1       8.945  54.638  22.278  1.00  0.00    -0.000 C 
BRANCH  27  28
ATOM     28  C   UNL     1       7.507  54.108  22.382  1.00  0.00    -0.000 C 
BRANCH  28  29
ATOM     29  C   UNL     1       6.662  54.579  21.188  1.00  0.00    -0.000 C 
BRANCH  29  30
ATOM     30  C   UNL     1       7.277  54.186  19.836  1.00  0.00    -0.000 C 
BRANCH  30  31
ATOM     31  C   UNL     1       7.286  55.348  18.831  1.00  0.00    -0.003 C 
ATOM     32  C   UNL     1       7.546  56.677  19.533  1.00  0.00     0.004 C 
ENDBRANCH  30  31
ENDBRANCH  29  30
ENDBRANCH  28  29
ENDBRANCH  27  28
ENDBRANCH  26  27
ENDBRANCH  25  26
ENDBRANCH  24  25
ENDBRANCH  23  24
ENDBRANCH  22  23
ENDBRANCH  21  22
ENDBRANCH  20  21
ENDBRANCH  19  20
ENDBRANCH  18  19
ENDBRANCH   1  18
TORSDOF 28
ENDMDL
MODEL 7
REMARK VINA RESULT:    -4.936      1.786      4.976
REMARK INTER + INTRA:         -16.048
REMARK INTER:                 -13.395
REMARK INTRA:                  -2.653
REMARK UNBOUND:                -3.033
REMARK SMILES CCCCCCCCCCCCCCCCCCCCCCCCCCCCCC(=O)[O-]
REMARK SMILES IDX 16 1 17 2 18 3 19 4 20 5 21 6 22 7 23 8 24 9 25 10 26 11
REMARK SMILES IDX 27 12 28 13 29 14 30 15 31 16 32 17 15 18 14 19 13 20 12 21
REMARK SMILES IDX 11 22 10 23 9 24 8 25 7 26 6 27 5 28 4 29 3 30 2 31 1 32
REMARK H PARENT
REMARK Flexibility Score: inf
ROOT
ATOM      1  C   UNL     1       7.300  46.075  23.511  1.00  0.00     0.000 C 
ENDROOT
BRANCH   1   2
ATOM      2  C   UNL     1       5.982  45.802  24.257  1.00  0.00     0.000 C 
BRANCH   2   3
ATOM      3  C   UNL     1       6.014  44.493  25.068  1.00  0.00     0.000 C 
BRANCH   3   4
ATOM      4  C   UNL     1       6.100  44.669  26.597  1.00  0.00     0.000 C 
BRANCH   4   5
ATOM      5  C   UNL     1       5.781  46.087  27.112  1.00  0.00     0.000 C 
BRANCH   5   6
ATOM      6  C   UNL     1       4.450  46.213  27.882  1.00  0.00     0.000 C 
BRANCH   6   7
ATOM      7  C   UNL     1       3.477  45.034  27.687  1.00  0.00     0.000 C 
BRANCH   7   8
ATOM      8  C   UNL     1       2.192  45.370  26.902  1.00  0.00     0.000 C 
BRANCH   8   9
ATOM      9  C   UNL     1       2.414  46.111  25.571  1.00  0.00     0.000 C 
BRANCH   9  10
ATOM     10  C   UNL     1       2.322  45.187  24.347  1.00  0.00     0.000 C 
BRANCH  10  11
ATOM     11  C   UNL     1       2.597  45.964  23.051  1.00  0.00     0.000 C 
BRANCH  11  12
ATOM     12  C   UNL     1       1.367  46.737  22.542  1.00  0.00     0.000 C 
BRANCH  12  13
ATOM     13  C   UNL     1       1.633  48.203  22.142  1.00  0.00     0.006 C 
BRANCH  13  14
ATOM     14  C   UNL     1       0.724  49.230  22.836  1.00  0.00     0.053 C 
BRANCH  14  15
ATOM     15  C   UNL     1       1.312  49.721  24.124  1.00  0.00     0.041 C 
ATOM     16  O   UNL     1       2.511  49.464  24.415  1.00  0.00    -0.550 OA
ATOM     17  O   UNL     1       0.543  50.489  24.991  1.00  0.00    -0.550 OA
ENDBRANCH  14  15
ENDBRANCH  13  14
ENDBRANCH  12  13
ENDBRANCH  11  12
ENDBRANCH  10  11
ENDBRANCH   9  10
ENDBRANCH   8   9
ENDBRANCH   7   8
ENDBRANCH   6   7
ENDBRANCH   5   6
ENDBRANCH   4   5
ENDBRANCH   3   4
ENDBRANCH   2   3
ENDBRANCH   1   2
BRANCH   1  18
ATOM     18  C   UNL     1       8.297  44.911  23.629  1.00  0.00     0.000 C 
BRANCH  18  19
ATOM     19  C   UNL     1       9.757  45.359  23.470  1.00  0.00     0.000 C 
BRANCH  19  20
ATOM     20  C   UNL     1       9.847  46.867  23.207  1.00  0.00     0.000 C 
BRANCH  20  21
ATOM     21  C   UNL     1      11.147  47.448  23.776  1.00  0.00     0.000 C 
BRANCH  21  22
ATOM     22  C   UNL     1      11.544  48.735  23.045  1.00  0.00     0.000 C 
BRANCH  22  23
ATOM     23  C   UNL     1      10.304  49.578  22.708  1.00  0.00     0.000 C 
BRANCH  23  24
ATOM     24  C   UNL     1      10.658  50.992  22.224  1.00  0.00    -0.000 C 
BRANCH  24  25
ATOM     25  C   UNL     1       9.476  51.970  22.335  1.00  0.00    -0.000 C 
BRANCH  25  26
ATOM     26  C   UNL     1       9.863  53.421  21.998  1.00  0.00    -0.000 C 
BRANCH  26  27
ATOM     27  C   UNL     1       8.903  54.150  21.038  1.00  0.00    -0.000 C 
BRANCH  27  28
ATOM     28  C   UNL     1       7.426  53.992  21.429  1.00  0.00    -0.000 C 
BRANCH  28  29
ATOM     29  C   UNL     1       6.506  54.575  20.345  1.00  0.00    -0.000 C 
BRANCH  29  30
ATOM     30  C   UNL     1       7.274  55.002  19.084  1.00  0.00    -0.000 C 
BRANCH  30  31
ATOM     31  C   UNL     1       6.958  54.114  17.871  1.00  0.00    -0.003 C 
ATOM     32  C   UNL     1       6.673  54.959  16.633  1.00  0.00     0.004 C 
ENDBRANCH  30  31
ENDBRANCH  29  30
ENDBRANCH  28  29
ENDBRANCH  27  28
ENDBRANCH  26  27
ENDBRANCH  25  26
ENDBRANCH  24  25
ENDBRANCH  23  24
ENDBRANCH  22  23
ENDBRANCH  21  22
ENDBRANCH  20  21
ENDBRANCH  19  20
ENDBRANCH  18  19
ENDBRANCH   1  18
TORSDOF 28
ENDMDL
MODEL 8
REMARK VINA RESULT:    -4.897      6.365      9.433
REMARK INTER + INTRA:         -15.946
REMARK INTER:                 -11.307
REMARK INTRA:                  -4.639
REMARK UNBOUND:                -3.033
REMARK SMILES CCCCCCCCCCCCCCCCCCCCCCCCCCCCCC(=O)[O-]
REMARK SMILES IDX 16 1 17 2 18 3 19 4 20 5 21 6 22 7 23 8 24 9 25 10 26 11
REMARK SMILES IDX 27 12 28 13 29 14 30 15 31 16 32 17 15 18 14 19 13 20 12 21
REMARK SMILES IDX 11 22 10 23 9 24 8 25 7 26 6 27 5 28 4 29 3 30 2 31 1 32
REMARK H PARENT
REMARK Flexibility Score: inf
ROOT
ATOM      1  C   UNL     1       1.691  46.505  21.631  1.00  0.00     0.000 C 
ENDROOT
BRANCH   1   2
ATOM      2  C   UNL     1       2.937  47.022  22.372  1.00  0.00     0.000 C 
BRANCH   2   3
ATOM      3  C   UNL     1       3.377  46.096  23.520  1.00  0.00     0.000 C 
BRANCH   3   4
ATOM      4  C   UNL     1       3.138  46.649  24.939  1.00  0.00     0.000 C 
BRANCH   4   5
ATOM      5  C   UNL     1       2.318  45.734  25.869  1.00  0.00     0.000 C 
BRANCH   5   6
ATOM      6  C   UNL     1       1.244  46.456  26.709  1.00  0.00     0.000 C 
BRANCH   6   7
ATOM      7  C   UNL     1       1.778  47.161  27.971  1.00  0.00     0.000 C 
BRANCH   7   8
ATOM      8  C   UNL     1       2.214  46.220  29.111  1.00  0.00     0.000 C 
BRANCH   8   9
ATOM      9  C   UNL     1       3.706  46.290  29.483  1.00  0.00     0.000 C 
BRANCH   9  10
ATOM     10  C   UNL     1       4.470  45.001  29.143  1.00  0.00     0.000 C 
BRANCH  10  11
ATOM     11  C   UNL     1       5.433  45.229  27.968  1.00  0.00     0.000 C 
BRANCH  11  12
ATOM     12  C   UNL     1       5.504  44.028  27.008  1.00  0.00     0.000 C 
BRANCH  12  13
ATOM     13  C   UNL     1       5.980  44.358  25.578  1.00  0.00     0.006 C 
BRANCH  13  14
ATOM     14  C   UNL     1       6.660  45.729  25.432  1.00  0.00     0.053 C 
BRANCH  14  15
ATOM     15  C   UNL     1       7.501  45.810  24.194  1.00  0.00     0.041 C 
ATOM     16  O   UNL     1       8.472  46.610  24.137  1.00  0.00    -0.550 OA
ATOM     17  O   UNL     1       7.230  44.977  23.115  1.00  0.00    -0.550 OA
ENDBRANCH  14  15
ENDBRANCH  13  14
ENDBRANCH  12  13
ENDBRANCH  11  12
ENDBRANCH  10  11
ENDBRANCH   9  10
ENDBRANCH   8   9
ENDBRANCH   7   8
ENDBRANCH   6   7
ENDBRANCH   5   6
ENDBRANCH   4   5
ENDBRANCH   3   4
ENDBRANCH   2   3
ENDBRANCH   1   2
BRANCH   1  18
ATOM     18  C   UNL     1       1.010  45.339  22.365  1.00  0.00     0.000 C 
BRANCH  18  19
ATOM     19  C   UNL     1      -0.462  45.623  22.699  1.00  0.00     0.000 C 
BRANCH  19  20
ATOM     20  C   UNL     1      -0.608  46.943  23.467  1.00  0.00     0.000 C 
BRANCH  20  21
ATOM     21  C   UNL     1      -1.615  47.871  22.778  1.00  0.00     0.000 C 
BRANCH  21  22
ATOM     22  C   UNL     1      -1.139  49.328  22.814  1.00  0.00     0.000 C 
BRANCH  22  23
ATOM     23  C   UNL     1       0.394  49.400  22.904  1.00  0.00     0.000 C 
BRANCH  23  24
ATOM     24  C   UNL     1       0.884  50.547  23.802  1.00  0.00    -0.000 C 
BRANCH  24  25
ATOM     25  C   UNL     1       1.528  50.044  25.105  1.00  0.00    -0.000 C 
BRANCH  25  26
ATOM     26  C   UNL     1       0.581  50.130  26.316  1.00  0.00    -0.000 C 
BRANCH  26  27
ATOM     27  C   UNL     1       1.063  51.036  27.464  1.00  0.00    -0.000 C 
BRANCH  27  28
ATOM     28  C   UNL     1       0.536  50.597  28.839  1.00  0.00    -0.000 C 
BRANCH  28  29
ATOM     29  C   UNL     1       0.110  51.812  29.677  1.00  0.00    -0.000 C 
BRANCH  29  30
ATOM     30  C   UNL     1      -0.704  52.833  28.867  1.00  0.00    -0.000 C 
BRANCH  30  31
ATOM     31  C   UNL     1      -0.122  54.252  28.949  1.00  0.00    -0.003 C 
ATOM     32  C   UNL     1       0.209  54.789  27.559  1.00  0.00     0.004 C 
ENDBRANCH  30  31
ENDBRANCH  29  30
ENDBRANCH  28  29
ENDBRANCH  27  28
ENDBRANCH  26  27
ENDBRANCH  25  26
ENDBRANCH  24  25
ENDBRANCH  23  24
ENDBRANCH  22  23
ENDBRANCH  21  22
ENDBRANCH  20  21
ENDBRANCH  19  20
ENDBRANCH  18  19
ENDBRANCH   1  18
TORSDOF 28
ENDMDL
MODEL 9
REMARK VINA RESULT:    -4.884      7.275     11.543
REMARK INTER + INTRA:         -15.911
REMARK INTER:                 -10.943
REMARK INTRA:                  -4.968
REMARK UNBOUND:                -3.033
REMARK SMILES CCCCCCCCCCCCCCCCCCCCCCCCCCCCCC(=O)[O-]
REMARK SMILES IDX 16 1 17 2 18 3 19 4 20 5 21 6 22 7 23 8 24 9 25 10 26 11
REMARK SMILES IDX 27 12 28 13 29 14 30 15 31 16 32 17 15 18 14 19 13 20 12 21
REMARK SMILES IDX 11 22 10 23 9 24 8 25 7 26 6 27 5 28 4 29 3 30 2 31 1 32
REMARK H PARENT
REMARK Flexibility Score: inf
ROOT
ATOM      1  C   UNL     1       1.949  50.215  24.226  1.00  0.00     0.000 C 
ENDROOT
BRANCH   1   2
ATOM      2  C   UNL     1       0.475  50.588  23.993  1.00  0.00     0.000 C 
BRANCH   2   3
ATOM      3  C   UNL     1       0.228  52.107  24.036  1.00  0.00     0.000 C 
BRANCH   3   4
ATOM      4  C   UNL     1      -0.746  52.584  25.132  1.00  0.00     0.000 C 
BRANCH   4   5
ATOM      5  C   UNL     1      -1.189  51.498  26.132  1.00  0.00     0.000 C 
BRANCH   5   6
ATOM      6  C   UNL     1      -0.764  51.751  27.594  1.00  0.00     0.000 C 
BRANCH   6   7
ATOM      7  C   UNL     1       0.577  52.494  27.757  1.00  0.00     0.000 C 
BRANCH   7   8
ATOM      8  C   UNL     1       0.478  53.882  28.419  1.00  0.00     0.000 C 
BRANCH   8   9
ATOM      9  C   UNL     1      -0.954  54.389  28.666  1.00  0.00     0.000 C 
BRANCH   9  10
ATOM     10  C   UNL     1      -1.453  55.339  27.567  1.00  0.00     0.000 C 
BRANCH  10  11
ATOM     11  C   UNL     1      -0.284  55.848  26.710  1.00  0.00     0.000 C 
BRANCH  11  12
ATOM     12  C   UNL     1      -0.742  56.695  25.510  1.00  0.00     0.000 C 
BRANCH  12  13
ATOM     13  C   UNL     1       0.004  58.033  25.329  1.00  0.00     0.006 C 
BRANCH  13  14
ATOM     14  C   UNL     1      -0.633  58.987  24.305  1.00  0.00     0.053 C 
BRANCH  14  15
ATOM     15  C   UNL     1       0.017  58.882  22.959  1.00  0.00     0.041 C 
ATOM     16  O   UNL     1       1.199  59.285  22.791  1.00  0.00    -0.550 OA
ATOM     17  O   UNL     1      -0.672  58.309  21.897  1.00  0.00    -0.550 OA
ENDBRANCH  14  15
ENDBRANCH  13  14
ENDBRANCH  12  13
ENDBRANCH  11  12
ENDBRANCH  10  11
ENDBRANCH   9  10
ENDBRANCH   8   9
ENDBRANCH   7   8
ENDBRANCH   6   7
ENDBRANCH   5   6
ENDBRANCH   4   5
ENDBRANCH   3   4
ENDBRANCH   2   3
ENDBRANCH   1   2
BRANCH   1  18
ATOM     18  C   UNL     1       2.110  48.966  25.107  1.00  0.00     0.000 C 
BRANCH  18  19
ATOM     19  C   UNL     1       1.650  49.194  26.554  1.00  0.00     0.000 C 
BRANCH  19  20
ATOM     20  C   UNL     1       0.515  48.234  26.930  1.00  0.00     0.000 C 
BRANCH  20  21
ATOM     21  C   UNL     1       0.360  47.128  25.878  1.00  0.00     0.000 C 
BRANCH  21  22
ATOM     22  C   UNL     1      -0.983  47.244  25.149  1.00  0.00     0.000 C 
BRANCH  22  23
ATOM     23  C   UNL     1      -0.954  46.467  23.823  1.00  0.00     0.000 C 
BRANCH  23  24
ATOM     24  C   UNL     1      -0.242  47.236  22.699  1.00  0.00    -0.000 C 
BRANCH  24  25
ATOM     25  C   UNL     1       0.849  46.399  22.009  1.00  0.00    -0.000 C 
BRANCH  25  26
ATOM     26  C   UNL     1       2.208  47.120  21.945  1.00  0.00    -0.000 C 
BRANCH  26  27
ATOM     27  C   UNL     1       3.331  46.482  22.785  1.00  0.00    -0.000 C 
BRANCH  27  28
ATOM     28  C   UNL     1       2.809  45.462  23.808  1.00  0.00    -0.000 C 
BRANCH  28  29
ATOM     29  C   UNL     1       3.915  45.063  24.798  1.00  0.00    -0.000 C 
BRANCH  29  30
ATOM     30  C   UNL     1       4.472  46.264  25.578  1.00  0.00    -0.000 C 
BRANCH  30  31
ATOM     31  C   UNL     1       3.961  46.316  27.026  1.00  0.00    -0.003 C 
ATOM     32  C   UNL     1       5.047  45.878  28.005  1.00  0.00     0.004 C 
ENDBRANCH  30  31
ENDBRANCH  29  30
ENDBRANCH  28  29
ENDBRANCH  27  28
ENDBRANCH  26  27
ENDBRANCH  25  26
ENDBRANCH  24  25
ENDBRANCH  23  24
ENDBRANCH  22  23
ENDBRANCH  21  22
ENDBRANCH  20  21
ENDBRANCH  19  20
ENDBRANCH  18  19
ENDBRANCH   1  18
TORSDOF 28
ENDMDL
