MODEL 1
REMARK VINA RESULT:    -5.200      0.000      0.000
REMARK INTER + INTRA:          -5.858
REMARK INTER:                  -5.808
REMARK INTRA:                  -0.050
REMARK UNBOUND:                -0.050
REMARK SMILES COc1cc2ccc(=O)oc2c(O)c1O
REMARK SMILES IDX 3 1 14 2 12 3 11 4 5 5 4 6 6 7 7 8 8 9 9 10 10 11 2 12 1 13
REMARK SMILES IDX 15 14 13 16
REMARK H PARENT 15 15 13 17
REMARK Flexibility Score: inf
ROOT
ATOM      1  C   UNL     1     174.213 170.097 172.581  1.00  0.00     0.165 A 
ATOM      2  C   UNL     1     174.883 169.416 171.545  1.00  0.00     0.204 A 
ATOM      3  C   UNL     1     176.211 169.749 171.220  1.00  0.00     0.205 A 
ATOM      4  C   UNL     1     176.871 170.761 171.926  1.00  0.00     0.184 A 
ATOM      5  C   UNL     1     176.205 171.445 172.963  1.00  0.00     0.025 A 
ATOM      6  C   UNL     1     174.884 171.115 173.287  1.00  0.00     0.062 A 
ATOM      7  C   UNL     1     176.894 172.451 173.649  1.00  0.00     0.020 A 
ATOM      8  C   UNL     1     178.208 172.748 173.292  1.00  0.00     0.094 A 
ATOM      9  C   UNL     1     178.806 172.027 172.253  1.00  0.00     0.336 A 
ATOM     10  O   UNL     1     179.993 172.279 171.916  1.00  0.00    -0.246 OA
ATOM     11  O   UNL     1     178.128 171.075 171.618  1.00  0.00    -0.419 OA
ENDROOT
BRANCH   1  12
ATOM     12  O   UNL     1     172.888 169.739 172.879  1.00  0.00    -0.493 OA
ATOM     13  C   UNL     1     171.939 170.596 173.505  1.00  0.00     0.278 C 
ENDBRANCH   1  12
BRANCH   2  14
ATOM     14  O   UNL     1     174.239 168.404 170.830  1.00  0.00    -0.502 OA
ATOM     15  H   UNL     1     174.744 167.641 170.395  1.00  0.00     0.293 HD
ENDBRANCH   2  14
BRANCH   3  16
ATOM     16  O   UNL     1     176.886 169.082 170.196  1.00  0.00    -0.502 OA
ATOM     17  H   UNL     1     177.484 169.566 169.537  1.00  0.00     0.293 HD
ENDBRANCH   3  16
TORSDOF 3
ENDMDL
MODEL 2
REMARK VINA RESULT:    -5.128      1.750      3.370
REMARK INTER + INTRA:          -5.778
REMARK INTER:                  -5.724
REMARK INTRA:                  -0.053
REMARK UNBOUND:                -0.050
REMARK SMILES COc1cc2ccc(=O)oc2c(O)c1O
REMARK SMILES IDX 3 1 14 2 12 3 11 4 5 5 4 6 6 7 7 8 8 9 9 10 10 11 2 12 1 13
REMARK SMILES IDX 15 14 13 16
REMARK H PARENT 15 15 13 17
REMARK Flexibility Score: inf
ROOT
ATOM      1  C   UNL     1     176.212 169.133 170.736  1.00  0.00     0.165 A 
ATOM      2  C   UNL     1     175.050 169.289 171.517  1.00  0.00     0.204 A 
ATOM      3  C   UNL     1     174.980 170.303 172.490  1.00  0.00     0.205 A 
ATOM      4  C   UNL     1     176.067 171.162 172.685  1.00  0.00     0.184 A 
ATOM      5  C   UNL     1     177.232 171.009 171.905  1.00  0.00     0.025 A 
ATOM      6  C   UNL     1     177.303 170.000 170.937  1.00  0.00     0.062 A 
ATOM      7  C   UNL     1     178.302 171.884 172.125  1.00  0.00     0.020 A 
ATOM      8  C   UNL     1     178.188 172.874 173.100  1.00  0.00     0.094 A 
ATOM      9  C   UNL     1     177.002 172.967 173.835  1.00  0.00     0.336 A 
ATOM     10  O   UNL     1     176.879 173.854 174.719  1.00  0.00    -0.246 OA
ATOM     11  O   UNL     1     176.000 172.122 173.605  1.00  0.00    -0.419 OA
ENDROOT
BRANCH   1  12
ATOM     12  O   UNL     1     176.247 168.110 169.774  1.00  0.00    -0.493 OA
ATOM     13  C   UNL     1     177.389 167.310 169.485  1.00  0.00     0.278 C 
ENDBRANCH   1  12
BRANCH   2  14
ATOM     14  O   UNL     1     173.955 168.441 171.336  1.00  0.00    -0.502 OA
ATOM     15  H   UNL     1     173.341 168.511 170.533  1.00  0.00     0.293 HD
ENDBRANCH   2  14
BRANCH   3  16
ATOM     16  O   UNL     1     173.834 170.469 173.270  1.00  0.00    -0.502 OA
ATOM     17  H   UNL     1     173.818 170.251 174.259  1.00  0.00     0.293 HD
ENDBRANCH   3  16
TORSDOF 3
ENDMDL
MODEL 3
REMARK VINA RESULT:    -5.048      1.948      2.331
REMARK INTER + INTRA:          -5.688
REMARK INTER:                  -5.634
REMARK INTRA:                  -0.055
REMARK UNBOUND:                -0.050
REMARK SMILES COc1cc2ccc(=O)oc2c(O)c1O
REMARK SMILES IDX 3 1 14 2 12 3 11 4 5 5 4 6 6 7 7 8 8 9 9 10 10 11 2 12 1 13
REMARK SMILES IDX 15 14 13 16
REMARK H PARENT 15 15 13 17
REMARK Flexibility Score: inf
ROOT
ATOM      1  C   UNL     1     174.564 170.512 170.741  1.00  0.00     0.165 A 
ATOM      2  C   UNL     1     174.880 169.370 171.504  1.00  0.00     0.204 A 
ATOM      3  C   UNL     1     175.896 169.426 172.476  1.00  0.00     0.205 A 
ATOM      4  C   UNL     1     176.598 170.618 172.687  1.00  0.00     0.184 A 
ATOM      5  C   UNL     1     176.285 171.763 171.926  1.00  0.00     0.025 A 
ATOM      6  C   UNL     1     175.274 171.708 170.959  1.00  0.00     0.062 A 
ATOM      7  C   UNL     1     177.005 172.939 172.162  1.00  0.00     0.020 A 
ATOM      8  C   UNL     1     178.004 172.947 173.135  1.00  0.00     0.094 A 
ATOM      9  C   UNL     1     178.260 171.774 173.852  1.00  0.00     0.336 A 
ATOM     10  O   UNL     1     179.157 171.761 174.735  1.00  0.00    -0.246 OA
ATOM     11  O   UNL     1     177.559 170.670 173.607  1.00  0.00    -0.419 OA
ENDROOT
BRANCH   1  12
ATOM     12  O   UNL     1     173.544 170.421 169.780  1.00  0.00    -0.493 OA
ATOM     13  C   UNL     1     173.618 170.967 168.467  1.00  0.00     0.278 C 
ENDBRANCH   1  12
BRANCH   2  14
ATOM     14  O   UNL     1     174.191 168.172 171.306  1.00  0.00    -0.502 OA
ATOM     15  H   UNL     1     173.879 167.592 172.076  1.00  0.00     0.293 HD
ENDBRANCH   2  14
BRANCH   3  16
ATOM     16  O   UNL     1     176.220 168.302 173.239  1.00  0.00    -0.502 OA
ATOM     17  H   UNL     1     175.813 168.133 174.151  1.00  0.00     0.293 HD
ENDBRANCH   3  16
TORSDOF 3
ENDMDL
MODEL 4
REMARK VINA RESULT:    -4.977      2.037      2.375
REMARK INTER + INTRA:          -5.609
REMARK INTER:                  -5.557
REMARK INTRA:                  -0.052
REMARK UNBOUND:                -0.050
REMARK SMILES COc1cc2ccc(=O)oc2c(O)c1O
REMARK SMILES IDX 3 1 14 2 12 3 11 4 5 5 4 6 6 7 7 8 8 9 9 10 10 11 2 12 1 13
REMARK SMILES IDX 15 14 13 16
REMARK H PARENT 15 15 13 17
REMARK Flexibility Score: inf
ROOT
ATOM      1  C   UNL     1     175.164 168.546 172.285  1.00  0.00     0.165 A 
ATOM      2  C   UNL     1     174.455 169.271 171.307  1.00  0.00     0.204 A 
ATOM      3  C   UNL     1     174.818 170.596 171.004  1.00  0.00     0.205 A 
ATOM      4  C   UNL     1     175.888 171.199 171.674  1.00  0.00     0.184 A 
ATOM      5  C   UNL     1     176.601 170.478 172.653  1.00  0.00     0.025 A 
ATOM      6  C   UNL     1     176.240 169.159 172.956  1.00  0.00     0.062 A 
ATOM      7  C   UNL     1     177.665 171.110 173.305  1.00  0.00     0.020 A 
ATOM      8  C   UNL     1     177.989 172.424 172.973  1.00  0.00     0.094 A 
ATOM      9  C   UNL     1     177.238 173.078 171.991  1.00  0.00     0.336 A 
ATOM     10  O   UNL     1     177.515 174.265 171.675  1.00  0.00    -0.246 OA
ATOM     11  O   UNL     1     176.231 172.453 171.386  1.00  0.00    -0.419 OA
ENDROOT
BRANCH   1  12
ATOM     12  O   UNL     1     174.775 167.225 172.562  1.00  0.00    -0.493 OA
ATOM     13  C   UNL     1     174.846 166.614 173.847  1.00  0.00     0.278 C 
ENDBRANCH   1  12
BRANCH   2  14
ATOM     14  O   UNL     1     173.384 168.684 170.629  1.00  0.00    -0.502 OA
ATOM     15  H   UNL     1     173.299 167.681 170.513  1.00  0.00     0.293 HD
ENDBRANCH   2  14
BRANCH   3  16
ATOM     16  O   UNL     1     174.123 171.325 170.037  1.00  0.00    -0.502 OA
ATOM     17  H   UNL     1     174.348 172.289 169.822  1.00  0.00     0.293 HD
ENDBRANCH   3  16
TORSDOF 3
ENDMDL
MODEL 5
REMARK VINA RESULT:    -4.343     13.121     15.344
REMARK INTER + INTRA:          -4.900
REMARK INTER:                  -4.852
REMARK INTRA:                  -0.049
REMARK UNBOUND:                -0.050
REMARK SMILES COc1cc2ccc(=O)oc2c(O)c1O
REMARK SMILES IDX 3 1 14 2 12 3 11 4 5 5 4 6 6 7 7 8 8 9 9 10 10 11 2 12 1 13
REMARK SMILES IDX 15 14 13 16
REMARK H PARENT 15 15 13 17
REMARK Flexibility Score: inf
ROOT
ATOM      1  C   UNL     1     168.824 160.143 179.200  1.00  0.00     0.165 A 
ATOM      2  C   UNL     1     168.970 161.332 178.459  1.00  0.00     0.204 A 
ATOM      3  C   UNL     1     167.964 162.315 178.490  1.00  0.00     0.205 A 
ATOM      4  C   UNL     1     166.812 162.114 179.258  1.00  0.00     0.184 A 
ATOM      5  C   UNL     1     166.661 160.925 180.002  1.00  0.00     0.025 A 
ATOM      6  C   UNL     1     167.662 159.946 179.971  1.00  0.00     0.062 A 
ATOM      7  C   UNL     1     165.498 160.755 180.760  1.00  0.00     0.020 A 
ATOM      8  C   UNL     1     164.527 161.755 180.760  1.00  0.00     0.094 A 
ATOM      9  C   UNL     1     164.745 162.908 179.999  1.00  0.00     0.336 A 
ATOM     10  O   UNL     1     163.881 163.824 179.986  1.00  0.00    -0.246 OA
ATOM     11  O   UNL     1     165.861 163.045 179.287  1.00  0.00    -0.419 OA
ENDROOT
BRANCH   1  12
ATOM     12  O   UNL     1     169.848 159.183 179.147  1.00  0.00    -0.493 OA
ATOM     13  C   UNL     1     169.898 158.007 179.949  1.00  0.00     0.278 C 
ENDBRANCH   1  12
BRANCH   2  14
ATOM     14  O   UNL     1     170.113 161.549 177.686  1.00  0.00    -0.502 OA
ATOM     15  H   UNL     1     171.049 161.458 178.064  1.00  0.00     0.293 HD
ENDBRANCH   2  14
BRANCH   3  16
ATOM     16  O   UNL     1     168.097 163.498 177.760  1.00  0.00    -0.502 OA
ATOM     17  H   UNL     1     169.000 163.891 177.527  1.00  0.00     0.293 HD
ENDBRANCH   3  16
TORSDOF 3
ENDMDL
MODEL 6
REMARK VINA RESULT:    -4.170      1.675      5.025
REMARK INTER + INTRA:          -4.708
REMARK INTER:                  -4.659
REMARK INTRA:                  -0.049
REMARK UNBOUND:                -0.050
REMARK SMILES COc1cc2ccc(=O)oc2c(O)c1O
REMARK SMILES IDX 3 1 14 2 12 3 11 4 5 5 4 6 6 7 7 8 8 9 9 10 10 11 2 12 1 13
REMARK SMILES IDX 15 14 13 16
REMARK H PARENT 15 15 13 17
REMARK Flexibility Score: inf
ROOT
ATOM      1  C   UNL     1     177.083 171.525 172.276  1.00  0.00     0.165 A 
ATOM      2  C   UNL     1     175.855 171.338 172.941  1.00  0.00     0.204 A 
ATOM      3  C   UNL     1     175.000 170.285 172.568  1.00  0.00     0.205 A 
ATOM      4  C   UNL     1     175.368 169.418 171.532  1.00  0.00     0.184 A 
ATOM      5  C   UNL     1     176.596 169.601 170.865  1.00  0.00     0.025 A 
ATOM      6  C   UNL     1     177.447 170.649 171.235  1.00  0.00     0.062 A 
ATOM      7  C   UNL     1     176.934 168.717 169.835  1.00  0.00     0.020 A 
ATOM      8  C   UNL     1     176.056 167.688 169.498  1.00  0.00     0.094 A 
ATOM      9  C   UNL     1     174.855 167.566 170.204  1.00  0.00     0.336 A 
ATOM     10  O   UNL     1     174.048 166.644 169.918  1.00  0.00    -0.246 OA
ATOM     11  O   UNL     1     174.558 168.421 171.180  1.00  0.00    -0.419 OA
ENDROOT
BRANCH   1  12
ATOM     12  O   UNL     1     177.912 172.586 172.674  1.00  0.00    -0.493 OA
ATOM     13  C   UNL     1     178.902 172.501 173.694  1.00  0.00     0.278 C 
ENDBRANCH   1  12
BRANCH   2  14
ATOM     14  O   UNL     1     175.472 172.194 173.975  1.00  0.00    -0.502 OA
ATOM     15  H   UNL     1     176.116 172.495 174.697  1.00  0.00     0.293 HD
ENDBRANCH   2  14
BRANCH   3  16
ATOM     16  O   UNL     1     173.780 170.088 173.218  1.00  0.00    -0.502 OA
ATOM     17  H   UNL     1     173.663 170.254 174.210  1.00  0.00     0.293 HD
ENDBRANCH   3  16
TORSDOF 3
ENDMDL
MODEL 7
REMARK VINA RESULT:    -4.052     11.817     14.349
REMARK INTER + INTRA:          -4.575
REMARK INTER:                  -4.507
REMARK INTRA:                  -0.068
REMARK UNBOUND:                -0.050
REMARK SMILES COc1cc2ccc(=O)oc2c(O)c1O
REMARK SMILES IDX 3 1 14 2 12 3 11 4 5 5 4 6 6 7 7 8 8 9 9 10 10 11 2 12 1 13
REMARK SMILES IDX 15 14 13 16
REMARK H PARENT 15 15 13 17
REMARK Flexibility Score: inf
ROOT
ATOM      1  C   UNL     1     170.081 160.748 178.074  1.00  0.00     0.165 A 
ATOM      2  C   UNL     1     170.088 162.153 177.966  1.00  0.00     0.204 A 
ATOM      3  C   UNL     1     168.960 162.900 178.356  1.00  0.00     0.205 A 
ATOM      4  C   UNL     1     167.826 162.247 178.852  1.00  0.00     0.184 A 
ATOM      5  C   UNL     1     167.815 160.842 178.962  1.00  0.00     0.025 A 
ATOM      6  C   UNL     1     168.936 160.098 178.574  1.00  0.00     0.062 A 
ATOM      7  C   UNL     1     166.666 160.220 179.462  1.00  0.00     0.020 A 
ATOM      8  C   UNL     1     165.572 161.000 179.835  1.00  0.00     0.094 A 
ATOM      9  C   UNL     1     165.654 162.389 179.699  1.00  0.00     0.336 A 
ATOM     10  O   UNL     1     164.678 163.112 180.031  1.00  0.00    -0.246 OA
ATOM     11  O   UNL     1     166.760 162.954 179.220  1.00  0.00    -0.419 OA
ENDROOT
BRANCH   1  12
ATOM     12  O   UNL     1     171.224 160.035 177.677  1.00  0.00    -0.493 OA
ATOM     13  C   UNL     1     171.314 159.245 176.495  1.00  0.00     0.278 C 
ENDBRANCH   1  12
BRANCH   2  14
ATOM     14  O   UNL     1     171.210 162.821 177.473  1.00  0.00    -0.502 OA
ATOM     15  H   UNL     1     171.927 163.201 178.081  1.00  0.00     0.293 HD
ENDBRANCH   2  14
BRANCH   3  16
ATOM     16  O   UNL     1     168.953 164.292 178.254  1.00  0.00    -0.502 OA
ATOM     17  H   UNL     1     168.749 164.891 179.045  1.00  0.00     0.293 HD
ENDBRANCH   3  16
TORSDOF 3
ENDMDL
MODEL 8
REMARK VINA RESULT:    -4.051      1.131      4.707
REMARK INTER + INTRA:          -4.574
REMARK INTER:                  -4.526
REMARK INTRA:                  -0.049
REMARK UNBOUND:                -0.050
REMARK SMILES COc1cc2ccc(=O)oc2c(O)c1O
REMARK SMILES IDX 3 1 14 2 12 3 11 4 5 5 4 6 6 7 7 8 8 9 9 10 10 11 2 12 1 13
REMARK SMILES IDX 15 14 13 16
REMARK H PARENT 15 15 13 17
REMARK Flexibility Score: inf
ROOT
ATOM      1  C   UNL     1     177.157 171.433 172.365  1.00  0.00     0.165 A 
ATOM      2  C   UNL     1     177.269 170.448 171.364  1.00  0.00     0.204 A 
ATOM      3  C   UNL     1     176.206 169.560 171.120  1.00  0.00     0.205 A 
ATOM      4  C   UNL     1     175.031 169.652 171.875  1.00  0.00     0.184 A 
ATOM      5  C   UNL     1     174.914 170.636 172.878  1.00  0.00     0.025 A 
ATOM      6  C   UNL     1     175.972 171.520 173.121  1.00  0.00     0.062 A 
ATOM      7  C   UNL     1     173.726 170.702 173.614  1.00  0.00     0.020 A 
ATOM      8  C   UNL     1     172.698 169.801 173.339  1.00  0.00     0.094 A 
ATOM      9  C   UNL     1     172.884 168.851 172.329  1.00  0.00     0.336 A 
ATOM     10  O   UNL     1     171.968 168.029 172.064  1.00  0.00    -0.246 OA
ATOM     11  O   UNL     1     174.024 168.811 171.644  1.00  0.00    -0.419 OA
ENDROOT
BRANCH   1  12
ATOM     12  O   UNL     1     178.239 172.303 172.581  1.00  0.00    -0.493 OA
ATOM     13  C   UNL     1     178.307 173.265 173.629  1.00  0.00     0.278 C 
ENDBRANCH   1  12
BRANCH   2  14
ATOM     14  O   UNL     1     178.435 170.341 170.602  1.00  0.00    -0.502 OA
ATOM     15  H   UNL     1     178.971 169.483 170.547  1.00  0.00     0.293 HD
ENDBRANCH   2  14
BRANCH   3  16
ATOM     16  O   UNL     1     176.303 168.579 170.131  1.00  0.00    -0.502 OA
ATOM     17  H   UNL     1     176.838 168.719 169.282  1.00  0.00     0.293 HD
ENDBRANCH   3  16
TORSDOF 3
ENDMDL
