MODEL 1
REMARK VINA RESULT:    -4.635      0.000      0.000
REMARK INTER + INTRA:          -4.635
REMARK INTER:                  -4.635
REMARK INTRA:                   0.000
REMARK UNBOUND:                 0.000
REMARK SMILES c1ccc2ccccc2c1
REMARK SMILES IDX 2 1 1 2 10 3 9 4 8 5 7 6 6 7 5 8 4 9 3 10
REMARK H PARENT
REMARK Flexibility Score: inf
ROOT
ATOM      1  C   UNL     1     142.864 186.150 158.993  1.00  0.00     0.001 A 
ATOM      2  C   UNL     1     144.007 186.436 158.242  1.00  0.00     0.001 A 
ATOM      3  C   UNL     1     144.953 185.437 157.992  1.00  0.00     0.009 A 
ATOM      4  C   UNL     1     144.758 184.141 158.494  1.00  0.00    -0.018 A 
ATOM      5  C   UNL     1     145.698 183.128 158.251  1.00  0.00     0.009 A 
ATOM      6  C   UNL     1     145.492 181.842 158.757  1.00  0.00     0.001 A 
ATOM      7  C   UNL     1     144.348 181.557 159.508  1.00  0.00     0.001 A 
ATOM      8  C   UNL     1     143.402 182.556 159.758  1.00  0.00     0.009 A 
ATOM      9  C   UNL     1     143.597 183.851 159.256  1.00  0.00    -0.018 A 
ATOM     10  C   UNL     1     142.657 184.864 159.500  1.00  0.00     0.009 A 
ENDROOT
TORSDOF 0
ENDMDL
MODEL 2
REMARK VINA RESULT:    -4.622      0.306      2.091
REMARK INTER + INTRA:          -4.622
REMARK INTER:                  -4.622
REMARK INTRA:                   0.000
REMARK UNBOUND:                 0.000
REMARK SMILES c1ccc2ccccc2c1
REMARK SMILES IDX 2 1 1 2 10 3 9 4 8 5 7 6 6 7 5 8 4 9 3 10
REMARK H PARENT
REMARK Flexibility Score: inf
ROOT
ATOM      1  C   UNL     1     143.689 186.536 158.443  1.00  0.00     0.001 A 
ATOM      2  C   UNL     1     142.570 186.045 159.121  1.00  0.00     0.001 A 
ATOM      3  C   UNL     1     142.514 184.703 159.508  1.00  0.00     0.009 A 
ATOM      4  C   UNL     1     143.582 183.841 159.216  1.00  0.00    -0.018 A 
ATOM      5  C   UNL     1     143.540 182.491 159.599  1.00  0.00     0.009 A 
ATOM      6  C   UNL     1     144.610 181.644 159.301  1.00  0.00     0.001 A 
ATOM      7  C   UNL     1     145.729 182.135 158.623  1.00  0.00     0.001 A 
ATOM      8  C   UNL     1     145.786 183.477 158.236  1.00  0.00     0.009 A 
ATOM      9  C   UNL     1     144.718 184.339 158.528  1.00  0.00    -0.018 A 
ATOM     10  C   UNL     1     144.760 185.689 158.145  1.00  0.00     0.009 A 
ENDROOT
TORSDOF 0
ENDMDL
MODEL 3
REMARK VINA RESULT:    -4.607      0.368      3.431
REMARK INTER + INTRA:          -4.607
REMARK INTER:                  -4.607
REMARK INTRA:                   0.000
REMARK UNBOUND:                 0.000
REMARK SMILES c1ccc2ccccc2c1
REMARK SMILES IDX 2 1 1 2 10 3 9 4 8 5 7 6 6 7 5 8 4 9 3 10
REMARK H PARENT
REMARK Flexibility Score: inf
ROOT
ATOM      1  C   UNL     1     144.697 181.650 159.240  1.00  0.00     0.001 A 
ATOM      2  C   UNL     1     145.808 182.185 158.582  1.00  0.00     0.001 A 
ATOM      3  C   UNL     1     145.830 183.537 158.224  1.00  0.00     0.009 A 
ATOM      4  C   UNL     1     144.736 184.362 158.523  1.00  0.00    -0.018 A 
ATOM      5  C   UNL     1     144.745 185.721 158.170  1.00  0.00     0.009 A 
ATOM      6  C   UNL     1     143.648 186.532 158.474  1.00  0.00     0.001 A 
ATOM      7  C   UNL     1     142.537 185.996 159.133  1.00  0.00     0.001 A 
ATOM      8  C   UNL     1     142.515 184.645 159.491  1.00  0.00     0.009 A 
ATOM      9  C   UNL     1     143.609 183.819 159.191  1.00  0.00    -0.018 A 
ATOM     10  C   UNL     1     143.601 182.461 159.544  1.00  0.00     0.009 A 
ENDROOT
TORSDOF 0
ENDMDL
MODEL 4
REMARK VINA RESULT:    -4.581      0.347      4.005
REMARK INTER + INTRA:          -4.581
REMARK INTER:                  -4.581
REMARK INTRA:                   0.000
REMARK UNBOUND:                 0.000
REMARK SMILES c1ccc2ccccc2c1
REMARK SMILES IDX 2 1 1 2 10 3 9 4 8 5 7 6 6 7 5 8 4 9 3 10
REMARK H PARENT
REMARK Flexibility Score: inf
ROOT
ATOM      1  C   UNL     1     145.743 182.143 158.513  1.00  0.00     0.001 A 
ATOM      2  C   UNL     1     144.672 181.635 159.253  1.00  0.00     0.001 A 
ATOM      3  C   UNL     1     143.600 182.463 159.600  1.00  0.00     0.009 A 
ATOM      4  C   UNL     1     143.595 183.810 159.206  1.00  0.00    -0.018 A 
ATOM      5  C   UNL     1     142.526 184.653 159.546  1.00  0.00     0.009 A 
ATOM      6  C   UNL     1     142.534 185.992 159.147  1.00  0.00     0.001 A 
ATOM      7  C   UNL     1     143.605 186.500 158.407  1.00  0.00     0.001 A 
ATOM      8  C   UNL     1     144.677 185.672 158.060  1.00  0.00     0.009 A 
ATOM      9  C   UNL     1     144.682 184.325 158.454  1.00  0.00    -0.018 A 
ATOM     10  C   UNL     1     145.751 183.482 158.114  1.00  0.00     0.009 A 
ENDROOT
TORSDOF 0
ENDMDL
MODEL 5
REMARK VINA RESULT:    -4.522      1.149      3.313
REMARK INTER + INTRA:          -4.522
REMARK INTER:                  -4.522
REMARK INTRA:                   0.000
REMARK UNBOUND:                 0.000
REMARK SMILES c1ccc2ccccc2c1
REMARK SMILES IDX 2 1 1 2 10 3 9 4 8 5 7 6 6 7 5 8 4 9 3 10
REMARK H PARENT
REMARK Flexibility Score: inf
ROOT
ATOM      1  C   UNL     1     143.262 181.892 160.658  1.00  0.00     0.001 A 
ATOM      2  C   UNL     1     142.684 183.127 160.966  1.00  0.00     0.001 A 
ATOM      3  C   UNL     1     142.890 184.229 160.130  1.00  0.00     0.009 A 
ATOM      4  C   UNL     1     143.679 184.100 158.977  1.00  0.00    -0.018 A 
ATOM      5  C   UNL     1     143.894 185.198 158.129  1.00  0.00     0.009 A 
ATOM      6  C   UNL     1     144.683 185.055 156.984  1.00  0.00     0.001 A 
ATOM      7  C   UNL     1     145.261 183.820 156.676  1.00  0.00     0.001 A 
ATOM      8  C   UNL     1     145.055 182.718 157.512  1.00  0.00     0.009 A 
ATOM      9  C   UNL     1     144.265 182.847 158.665  1.00  0.00    -0.018 A 
ATOM     10  C   UNL     1     144.050 181.750 159.513  1.00  0.00     0.009 A 
ENDROOT
TORSDOF 0
ENDMDL
MODEL 6
REMARK VINA RESULT:    -4.433      2.637      4.858
REMARK INTER + INTRA:          -4.433
REMARK INTER:                  -4.433
REMARK INTRA:                   0.000
REMARK UNBOUND:                 0.000
REMARK SMILES c1ccc2ccccc2c1
REMARK SMILES IDX 2 1 1 2 10 3 9 4 8 5 7 6 6 7 5 8 4 9 3 10
REMARK H PARENT
REMARK Flexibility Score: inf
ROOT
ATOM      1  C   UNL     1     142.323 184.575 159.173  1.00  0.00     0.001 A 
ATOM      2  C   UNL     1     141.400 185.307 158.421  1.00  0.00     0.001 A 
ATOM      3  C   UNL     1     141.422 186.705 158.448  1.00  0.00     0.009 A 
ATOM      4  C   UNL     1     142.372 187.380 159.230  1.00  0.00    -0.018 A 
ATOM      5  C   UNL     1     142.406 188.782 159.265  1.00  0.00     0.009 A 
ATOM      6  C   UNL     1     143.357 189.441 160.049  1.00  0.00     0.001 A 
ATOM      7  C   UNL     1     144.281 188.708 160.800  1.00  0.00     0.001 A 
ATOM      8  C   UNL     1     144.259 187.311 160.774  1.00  0.00     0.009 A 
ATOM      9  C   UNL     1     143.309 186.636 159.992  1.00  0.00    -0.018 A 
ATOM     10  C   UNL     1     143.275 185.234 159.956  1.00  0.00     0.009 A 
ENDROOT
TORSDOF 0
ENDMDL
MODEL 7
REMARK VINA RESULT:    -4.420      2.530      4.760
REMARK INTER + INTRA:          -4.420
REMARK INTER:                  -4.420
REMARK INTRA:                   0.000
REMARK UNBOUND:                 0.000
REMARK SMILES c1ccc2ccccc2c1
REMARK SMILES IDX 2 1 1 2 10 3 9 4 8 5 7 6 6 7 5 8 4 9 3 10
REMARK H PARENT
REMARK Flexibility Score: inf
ROOT
ATOM      1  C   UNL     1     141.435 185.130 158.399  1.00  0.00     0.001 A 
ATOM      2  C   UNL     1     142.422 184.465 159.131  1.00  0.00     0.001 A 
ATOM      3  C   UNL     1     143.351 185.191 159.883  1.00  0.00     0.009 A 
ATOM      4  C   UNL     1     143.296 186.593 159.905  1.00  0.00    -0.018 A 
ATOM      5  C   UNL     1     144.221 187.335 160.656  1.00  0.00     0.009 A 
ATOM      6  C   UNL     1     144.155 188.731 160.669  1.00  0.00     0.001 A 
ATOM      7  C   UNL     1     143.167 189.396 159.938  1.00  0.00     0.001 A 
ATOM      8  C   UNL     1     142.239 188.670 159.186  1.00  0.00     0.009 A 
ATOM      9  C   UNL     1     142.294 187.268 159.163  1.00  0.00    -0.018 A 
ATOM     10  C   UNL     1     141.369 186.526 158.413  1.00  0.00     0.009 A 
ENDROOT
TORSDOF 0
ENDMDL
MODEL 8
REMARK VINA RESULT:    -4.391      2.500      3.782
REMARK INTER + INTRA:          -4.391
REMARK INTER:                  -4.391
REMARK INTRA:                   0.000
REMARK UNBOUND:                 0.000
REMARK SMILES c1ccc2ccccc2c1
REMARK SMILES IDX 2 1 1 2 10 3 9 4 8 5 7 6 6 7 5 8 4 9 3 10
REMARK H PARENT
REMARK Flexibility Score: inf
ROOT
ATOM      1  C   UNL     1     143.023 189.399 159.851  1.00  0.00     0.001 A 
ATOM      2  C   UNL     1     144.020 188.789 160.617  1.00  0.00     0.001 A 
ATOM      3  C   UNL     1     144.141 187.396 160.637  1.00  0.00     0.009 A 
ATOM      4  C   UNL     1     143.259 186.603 159.887  1.00  0.00    -0.018 A 
ATOM      5  C   UNL     1     143.368 185.204 159.896  1.00  0.00     0.009 A 
ATOM      6  C   UNL     1     142.482 184.426 159.145  1.00  0.00     0.001 A 
ATOM      7  C   UNL     1     141.485 185.036 158.380  1.00  0.00     0.001 A 
ATOM      8  C   UNL     1     141.365 186.429 158.360  1.00  0.00     0.009 A 
ATOM      9  C   UNL     1     142.246 187.222 159.110  1.00  0.00    -0.018 A 
ATOM     10  C   UNL     1     142.138 188.621 159.100  1.00  0.00     0.009 A 
ENDROOT
TORSDOF 0
ENDMDL
MODEL 9
REMARK VINA RESULT:    -4.375      1.082      2.506
REMARK INTER + INTRA:          -4.375
REMARK INTER:                  -4.375
REMARK INTRA:                   0.000
REMARK UNBOUND:                 0.000
REMARK SMILES c1ccc2ccccc2c1
REMARK SMILES IDX 2 1 1 2 10 3 9 4 8 5 7 6 6 7 5 8 4 9 3 10
REMARK H PARENT
REMARK Flexibility Score: inf
ROOT
ATOM      1  C   UNL     1     145.152 184.539 156.489  1.00  0.00     0.001 A 
ATOM      2  C   UNL     1     144.398 185.624 156.945  1.00  0.00     0.001 A 
ATOM      3  C   UNL     1     143.626 185.507 158.105  1.00  0.00     0.009 A 
ATOM      4  C   UNL     1     143.605 184.298 158.817  1.00  0.00    -0.018 A 
ATOM      5  C   UNL     1     142.836 184.166 159.984  1.00  0.00     0.009 A 
ATOM      6  C   UNL     1     142.823 182.957 160.683  1.00  0.00     0.001 A 
ATOM      7  C   UNL     1     143.577 181.872 160.227  1.00  0.00     0.001 A 
ATOM      8  C   UNL     1     144.349 181.989 159.067  1.00  0.00     0.009 A 
ATOM      9  C   UNL     1     144.370 183.197 158.354  1.00  0.00    -0.018 A 
ATOM     10  C   UNL     1     145.139 183.329 157.188  1.00  0.00     0.009 A 
ENDROOT
TORSDOF 0
ENDMDL
