MODEL 1
REMARK VINA RESULT:    -4.478      0.000      0.000
REMARK INTER + INTRA:          -6.068
REMARK INTER:                  -5.787
REMARK INTRA:                  -0.281
REMARK UNBOUND:                -0.281
REMARK SMILES CCCCCCC(=O)[O-]
REMARK SMILES IDX 5 1 6 2 7 3 8 4 9 5 4 6 3 7 2 8 1 9
REMARK H PARENT
REMARK Flexibility Score: inf
ROOT
ATOM      1  C   UNL     1       5.873   6.493  -8.392  1.00  0.00     0.006 C 
ENDROOT
BRANCH   1   2
ATOM      2  C   UNL     1       6.463   7.149  -7.137  1.00  0.00     0.053 C 
BRANCH   2   3
ATOM      3  C   UNL     1       7.662   6.390  -6.667  1.00  0.00     0.041 C 
ATOM      4  O   UNL     1       8.327   6.804  -5.680  1.00  0.00    -0.550 OA
ATOM      5  O   UNL     1       8.077   5.253  -7.348  1.00  0.00    -0.550 OA
ENDBRANCH   2   3
ENDBRANCH   1   2
BRANCH   1   6
ATOM      6  C   UNL     1       5.322   7.520  -9.394  1.00  0.00     0.000 C 
BRANCH   6   7
ATOM      7  C   UNL     1       6.432   8.290 -10.125  1.00  0.00    -0.000 C 
BRANCH   7   8
ATOM      8  C   UNL     1       6.258   9.803  -9.950  1.00  0.00    -0.003 C 
ATOM      9  C   UNL     1       5.046  10.123  -9.081  1.00  0.00     0.004 C 
ENDBRANCH   7   8
ENDBRANCH   6   7
ENDBRANCH   1   6
TORSDOF 5
ENDMDL
MODEL 2
REMARK VINA RESULT:    -3.381     14.231     15.194
REMARK INTER + INTRA:          -4.650
REMARK INTER:                  -4.437
REMARK INTRA:                  -0.213
REMARK UNBOUND:                -0.281
REMARK SMILES CCCCCCC(=O)[O-]
REMARK SMILES IDX 5 1 6 2 7 3 8 4 9 5 4 6 3 7 2 8 1 9
REMARK H PARENT
REMARK Flexibility Score: inf
ROOT
ATOM      1  C   UNL     1      -8.964   8.526  -9.169  1.00  0.00     0.006 C 
ENDROOT
BRANCH   1   2
ATOM      2  C   UNL     1      -7.651   8.306  -9.932  1.00  0.00     0.053 C 
BRANCH   2   3
ATOM      3  C   UNL     1      -7.293   6.854  -9.945  1.00  0.00     0.041 C 
ATOM      4  O   UNL     1      -8.179   5.981  -9.749  1.00  0.00    -0.550 OA
ATOM      5  O   UNL     1      -5.972   6.465 -10.125  1.00  0.00    -0.550 OA
ENDBRANCH   2   3
ENDBRANCH   1   2
BRANCH   1   6
ATOM      6  C   UNL     1      -8.739   8.825  -7.678  1.00  0.00     0.000 C 
BRANCH   6   7
ATOM      7  C   UNL     1      -9.339   7.748  -6.761  1.00  0.00    -0.000 C 
BRANCH   7   8
ATOM      8  C   UNL     1      -8.731   7.822  -5.357  1.00  0.00    -0.003 C 
ATOM      9  C   UNL     1      -8.491   9.268  -4.934  1.00  0.00     0.004 C 
ENDBRANCH   7   8
ENDBRANCH   6   7
ENDBRANCH   1   6
TORSDOF 5
ENDMDL
MODEL 3
REMARK VINA RESULT:    -3.061     21.028     22.488
REMARK INTER + INTRA:          -4.237
REMARK INTER:                  -3.778
REMARK INTRA:                  -0.459
REMARK UNBOUND:                -0.281
REMARK SMILES CCCCCCC(=O)[O-]
REMARK SMILES IDX 5 1 6 2 7 3 8 4 9 5 4 6 3 7 2 8 1 9
REMARK H PARENT
REMARK Flexibility Score: inf
ROOT
ATOM      1  C   UNL     1       4.492  -8.637   7.866  1.00  0.00     0.006 C 
ENDROOT
BRANCH   1   2
ATOM      2  C   UNL     1       4.276  -8.942   6.378  1.00  0.00     0.053 C 
BRANCH   2   3
ATOM      3  C   UNL     1       5.405  -8.393   5.565  1.00  0.00     0.041 C 
ATOM      4  O   UNL     1       5.611  -7.151   5.522  1.00  0.00    -0.550 OA
ATOM      5  O   UNL     1       6.202  -9.248   4.814  1.00  0.00    -0.550 OA
ENDBRANCH   2   3
ENDBRANCH   1   2
BRANCH   1   6
ATOM      6  C   UNL     1       5.767  -9.287   8.425  1.00  0.00     0.000 C 
BRANCH   6   7
ATOM      7  C   UNL     1       6.619  -8.310   9.249  1.00  0.00    -0.000 C 
BRANCH   7   8
ATOM      8  C   UNL     1       7.768  -7.740   8.411  1.00  0.00    -0.003 C 
ATOM      9  C   UNL     1       8.453  -8.833   7.597  1.00  0.00     0.004 C 
ENDBRANCH   7   8
ENDBRANCH   6   7
ENDBRANCH   1   6
TORSDOF 5
ENDMDL
MODEL 4
REMARK VINA RESULT:    -3.044     21.063     22.368
REMARK INTER + INTRA:          -4.214
REMARK INTER:                  -3.770
REMARK INTRA:                  -0.444
REMARK UNBOUND:                -0.281
REMARK SMILES CCCCCCC(=O)[O-]
REMARK SMILES IDX 5 1 6 2 7 3 8 4 9 5 4 6 3 7 2 8 1 9
REMARK H PARENT
REMARK Flexibility Score: inf
ROOT
ATOM      1  C   UNL     1       7.539  -9.328   5.668  1.00  0.00     0.006 C 
ENDROOT
BRANCH   1   2
ATOM      2  C   UNL     1       6.066  -9.519   5.283  1.00  0.00     0.053 C 
BRANCH   2   3
ATOM      3  C   UNL     1       5.257  -8.337   5.712  1.00  0.00     0.041 C 
ATOM      4  O   UNL     1       5.618  -7.173   5.393  1.00  0.00    -0.550 OA
ATOM      5  O   UNL     1       4.132  -8.515   6.506  1.00  0.00    -0.550 OA
ENDBRANCH   2   3
ENDBRANCH   1   2
BRANCH   1   6
ATOM      6  C   UNL     1       7.830  -9.745   7.118  1.00  0.00     0.000 C 
BRANCH   6   7
ATOM      7  C   UNL     1       8.584  -8.662   7.906  1.00  0.00    -0.000 C 
BRANCH   7   8
ATOM      8  C   UNL     1       7.612  -7.641   8.504  1.00  0.00    -0.003 C 
ATOM      9  C   UNL     1       6.517  -8.328   9.313  1.00  0.00     0.004 C 
ENDBRANCH   7   8
ENDBRANCH   6   7
ENDBRANCH   1   6
TORSDOF 5
ENDMDL
MODEL 5
REMARK VINA RESULT:    -2.969     21.694     22.787
REMARK INTER + INTRA:          -4.118
REMARK INTER:                  -3.765
REMARK INTRA:                  -0.353
REMARK UNBOUND:                -0.281
REMARK SMILES CCCCCCC(=O)[O-]
REMARK SMILES IDX 5 1 6 2 7 3 8 4 9 5 4 6 3 7 2 8 1 9
REMARK H PARENT
REMARK Flexibility Score: inf
ROOT
ATOM      1  C   UNL     1       4.415  -8.221   6.080  1.00  0.00     0.006 C 
ENDROOT
BRANCH   1   2
ATOM      2  C   UNL     1       4.121  -9.597   6.691  1.00  0.00     0.053 C 
BRANCH   2   3
ATOM      3  C   UNL     1       3.739  -9.457   8.129  1.00  0.00     0.041 C 
ATOM      4  O   UNL     1       2.623  -9.881   8.533  1.00  0.00    -0.550 OA
ATOM      5  O   UNL     1       4.592  -8.815   9.017  1.00  0.00    -0.550 OA
ENDBRANCH   2   3
ENDBRANCH   1   2
BRANCH   1   6
ATOM      6  C   UNL     1       5.913  -8.001   5.811  1.00  0.00     0.000 C 
BRANCH   6   7
ATOM      7  C   UNL     1       6.609  -9.259   5.269  1.00  0.00    -0.000 C 
BRANCH   7   8
ATOM      8  C   UNL     1       7.932  -9.511   5.998  1.00  0.00    -0.003 C 
ATOM      9  C   UNL     1       7.899  -8.949   7.416  1.00  0.00     0.004 C 
ENDBRANCH   7   8
ENDBRANCH   6   7
ENDBRANCH   1   6
TORSDOF 5
ENDMDL
MODEL 6
REMARK VINA RESULT:    -2.916     21.215     22.747
REMARK INTER + INTRA:          -4.049
REMARK INTER:                  -3.642
REMARK INTRA:                  -0.407
REMARK UNBOUND:                -0.281
REMARK SMILES CCCCCCC(=O)[O-]
REMARK SMILES IDX 5 1 6 2 7 3 8 4 9 5 4 6 3 7 2 8 1 9
REMARK H PARENT
REMARK Flexibility Score: inf
ROOT
ATOM      1  C   UNL     1       7.042  -7.855   7.728  1.00  0.00     0.006 C 
ENDROOT
BRANCH   1   2
ATOM      2  C   UNL     1       7.215  -8.978   6.697  1.00  0.00     0.053 C 
BRANCH   2   3
ATOM      3  C   UNL     1       6.399  -8.694   5.476  1.00  0.00     0.041 C 
ATOM      4  O   UNL     1       5.666  -7.670   5.427  1.00  0.00    -0.550 OA
ATOM      5  O   UNL     1       6.411  -9.583   4.410  1.00  0.00    -0.550 OA
ENDBRANCH   2   3
ENDBRANCH   1   2
BRANCH   1   6
ATOM      6  C   UNL     1       6.572  -8.374   9.096  1.00  0.00     0.000 C 
BRANCH   6   7
ATOM      7  C   UNL     1       5.572  -9.534   8.978  1.00  0.00    -0.000 C 
BRANCH   7   8
ATOM      8  C   UNL     1       4.147  -9.011   8.766  1.00  0.00    -0.003 C 
ATOM      9  C   UNL     1       3.481  -9.687   7.572  1.00  0.00     0.004 C 
ENDBRANCH   7   8
ENDBRANCH   6   7
ENDBRANCH   1   6
TORSDOF 5
ENDMDL
MODEL 7
REMARK VINA RESULT:    -2.849     21.451     22.811
REMARK INTER + INTRA:          -3.962
REMARK INTER:                  -3.744
REMARK INTRA:                  -0.218
REMARK UNBOUND:                -0.281
REMARK SMILES CCCCCCC(=O)[O-]
REMARK SMILES IDX 5 1 6 2 7 3 8 4 9 5 4 6 3 7 2 8 1 9
REMARK H PARENT
REMARK Flexibility Score: inf
ROOT
ATOM      1  C   UNL     1       4.668  -8.419   5.987  1.00  0.00     0.006 C 
ENDROOT
BRANCH   1   2
ATOM      2  C   UNL     1       6.176  -8.212   6.171  1.00  0.00     0.053 C 
BRANCH   2   3
ATOM      3  C   UNL     1       6.941  -9.260   5.426  1.00  0.00     0.041 C 
ATOM      4  O   UNL     1       8.046  -9.672   5.868  1.00  0.00    -0.550 OA
ATOM      5  O   UNL     1       6.458  -9.747   4.219  1.00  0.00    -0.550 OA
ENDBRANCH   2   3
ENDBRANCH   1   2
BRANCH   1   6
ATOM      6  C   UNL     1       4.016  -9.119   7.190  1.00  0.00     0.000 C 
BRANCH   6   7
ATOM      7  C   UNL     1       4.707  -8.779   8.519  1.00  0.00    -0.000 C 
BRANCH   7   8
ATOM      8  C   UNL     1       3.814  -9.141   9.711  1.00  0.00    -0.003 C 
ATOM      9  C   UNL     1       2.461  -9.671   9.247  1.00  0.00     0.004 C 
ENDBRANCH   7   8
ENDBRANCH   6   7
ENDBRANCH   1   6
TORSDOF 5
ENDMDL
MODEL 8
REMARK VINA RESULT:    -2.807     21.393     22.685
REMARK INTER + INTRA:          -3.909
REMARK INTER:                  -3.533
REMARK INTRA:                  -0.376
REMARK UNBOUND:                -0.281
REMARK SMILES CCCCCCC(=O)[O-]
REMARK SMILES IDX 5 1 6 2 7 3 8 4 9 5 4 6 3 7 2 8 1 9
REMARK H PARENT
REMARK Flexibility Score: inf
ROOT
ATOM      1  C   UNL     1       5.988  -8.121   5.810  1.00  0.00     0.006 C 
ENDROOT
BRANCH   1   2
ATOM      2  C   UNL     1       6.870  -9.188   6.471  1.00  0.00     0.053 C 
BRANCH   2   3
ATOM      3  C   UNL     1       7.754  -8.566   7.504  1.00  0.00     0.041 C 
ATOM      4  O   UNL     1       8.911  -9.020   7.706  1.00  0.00    -0.550 OA
ATOM      5  O   UNL     1       7.283  -7.515   8.281  1.00  0.00    -0.550 OA
ENDBRANCH   2   3
ENDBRANCH   1   2
BRANCH   1   6
ATOM      6  C   UNL     1       4.498  -8.292   6.148  1.00  0.00     0.000 C 
BRANCH   6   7
ATOM      7  C   UNL     1       4.140  -9.735   6.534  1.00  0.00    -0.000 C 
BRANCH   7   8
ATOM      8  C   UNL     1       3.344  -9.772   7.843  1.00  0.00    -0.003 C 
ATOM      9  C   UNL     1       4.081  -9.038   8.959  1.00  0.00     0.004 C 
ENDBRANCH   7   8
ENDBRANCH   6   7
ENDBRANCH   1   6
TORSDOF 5
ENDMDL
MODEL 9
REMARK VINA RESULT:    -2.786     21.366     22.624
REMARK INTER + INTRA:          -3.881
REMARK INTER:                  -3.466
REMARK INTRA:                  -0.415
REMARK UNBOUND:                -0.281
REMARK SMILES CCCCCCC(=O)[O-]
REMARK SMILES IDX 5 1 6 2 7 3 8 4 9 5 4 6 3 7 2 8 1 9
REMARK H PARENT
REMARK Flexibility Score: inf
ROOT
ATOM      1  C   UNL     1       6.773  -9.405   6.085  1.00  0.00     0.006 C 
ENDROOT
BRANCH   1   2
ATOM      2  C   UNL     1       7.948  -9.077   7.015  1.00  0.00     0.053 C 
BRANCH   2   3
ATOM      3  C   UNL     1       7.457  -8.413   8.261  1.00  0.00     0.041 C 
ATOM      4  O   UNL     1       7.854  -7.256   8.561  1.00  0.00    -0.550 OA
ATOM      5  O   UNL     1       6.599  -9.089   9.118  1.00  0.00    -0.550 OA
ENDBRANCH   2   3
ENDBRANCH   1   2
BRANCH   1   6
ATOM      6  C   UNL     1       5.954  -8.161   5.705  1.00  0.00     0.000 C 
BRANCH   6   7
ATOM      7  C   UNL     1       4.476  -8.279   6.107  1.00  0.00    -0.000 C 
BRANCH   7   8
ATOM      8  C   UNL     1       4.132  -9.714   6.520  1.00  0.00    -0.003 C 
ATOM      9  C   UNL     1       3.347  -9.740   7.827  1.00  0.00     0.004 C 
ENDBRANCH   7   8
ENDBRANCH   6   7
ENDBRANCH   1   6
TORSDOF 5
ENDMDL
