MODEL 1
REMARK VINA RESULT:    -6.118      0.000      0.000
REMARK INTER + INTRA:          -6.840
REMARK INTER:                  -6.655
REMARK INTRA:                  -0.185
REMARK UNBOUND:                -0.185
REMARK SMILES C[C@H]1[C@H](C)CC[C@@]2(C(=O)[O-])CC[C@@]3(C)C(=CC[C@H]4[C@@]5(C)CC[C@@H](O)C(C)(C)[C@@H]5CC[C@@]43C)[C@@H]12
REMARK SMILES IDX 7 1 6 2 11 3 33 4 5 5 12 6 15 7 2 8 3 9 13 10 16 11 1 12
REMARK SMILES IDX 4 13 14 14 31 15 17 16 18 17 30 18 32 19 19 20 29 21 28 22
REMARK SMILES IDX 21 23 20 24 25 25 22 26 23 27 26 28 27 29 8 30 9 31 10 32
REMARK SMILES IDX 24 33
REMARK H PARENT 24 34
REMARK Flexibility Score: inf
ROOT
ATOM      1  C   UNL     1     483.975  41.263 464.484  1.00  0.00     0.017 C 
ATOM      2  C   UNL     1     484.388  41.561 465.956  1.00  0.00     0.014 C 
ATOM      3  C   UNL     1     483.149  42.441 463.916  1.00  0.00     0.014 C 
ATOM      4  C   UNL     1     485.216  40.997 463.547  1.00  0.00     0.030 C 
ATOM      5  C   UNL     1     485.585  42.494 466.103  1.00  0.00     0.004 C 
ATOM      6  C   UNL     1     482.573  42.117 462.527  1.00  0.00     0.013 C 
ATOM      7  C   UNL     1     484.858  40.985 462.044  1.00  0.00    -0.063 C 
ATOM      8  C   UNL     1     486.539  41.799 463.854  1.00  0.00    -0.003 C 
ATOM      9  C   UNL     1     486.819  41.953 465.369  1.00  0.00    -0.011 C 
ATOM     10  C   UNL     1     483.652  41.764 461.445  1.00  0.00    -0.006 C 
ATOM     11  C   UNL     1     485.642  40.223 461.236  1.00  0.00    -0.027 C 
ATOM     12  C   UNL     1     486.676  43.159 463.151  1.00  0.00     0.008 C 
ATOM     13  C   UNL     1     487.351  40.649 465.995  1.00  0.00     0.008 C 
ATOM     14  C   UNL     1     484.193  43.139 460.927  1.00  0.00     0.017 C 
ATOM     15  C   UNL     1     483.003  40.867 460.273  1.00  0.00    -0.020 C 
ATOM     16  C   UNL     1     485.282  39.784 459.831  1.00  0.00     0.032 C 
ATOM     17  C   UNL     1     484.109  40.574 459.196  1.00  0.00     0.006 C 
ATOM     18  C   UNL     1     481.836  41.605 459.549  1.00  0.00     0.008 C 
ATOM     19  C   UNL     1     482.464  39.526 460.900  1.00  0.00     0.012 C 
ATOM     20  C   UNL     1     483.594  40.102 457.736  1.00  0.00    -0.025 C 
ATOM     21  C   UNL     1     481.157  40.790 458.432  1.00  0.00     0.005 C 
ATOM     22  C   UNL     1     482.064  39.718 457.761  1.00  0.00     0.003 C 
ATOM     23  C   UNL     1     484.382  38.857 457.220  1.00  0.00     0.010 C 
ATOM     24  C   UNL     1     483.859  41.285 456.754  1.00  0.00     0.012 C 
ATOM     25  C   UNL     1     481.463  39.094 456.432  1.00  0.00    -0.006 C 
ATOM     26  C   UNL     1     483.855  38.277 455.895  1.00  0.00     0.033 C 
ATOM     27  C   UNL     1     482.366  37.897 455.976  1.00  0.00     0.120 C 
ATOM     28  C   UNL     1     481.304  40.106 455.254  1.00  0.00     0.014 C 
ATOM     29  C   UNL     1     480.040  38.541 456.731  1.00  0.00     0.014 C 
ENDROOT
BRANCH   1  30
ATOM     30  C   UNL     1     483.077  40.024 464.577  1.00  0.00     0.048 C 
ATOM     31  O   UNL     1     481.945  40.101 465.127  1.00  0.00    -0.550 OA
ATOM     32  O   UNL     1     483.529  38.771 464.173  1.00  0.00    -0.550 OA
ENDBRANCH   1  30
BRANCH  27  33
ATOM     33  O   UNL     1     482.239  36.808 456.860  1.00  0.00    -0.393 OA
ATOM     34  H   UNL     1     482.584  37.097 457.744  1.00  0.00     0.210 HD
ENDBRANCH  27  33
TORSDOF 2
ENDMDL
MODEL 2
REMARK VINA RESULT:    -5.848      2.075      7.810
REMARK INTER + INTRA:          -6.546
REMARK INTER:                  -6.358
REMARK INTRA:                  -0.188
REMARK UNBOUND:                -0.185
REMARK SMILES C[C@H]1[C@H](C)CC[C@@]2(C(=O)[O-])CC[C@@]3(C)C(=CC[C@H]4[C@@]5(C)CC[C@@H](O)C(C)(C)[C@@H]5CC[C@@]43C)[C@@H]12
REMARK SMILES IDX 7 1 6 2 11 3 33 4 5 5 12 6 15 7 2 8 3 9 13 10 16 11 1 12
REMARK SMILES IDX 4 13 14 14 31 15 17 16 18 17 30 18 32 19 19 20 29 21 28 22
REMARK SMILES IDX 21 23 20 24 25 25 22 26 23 27 26 28 27 29 8 30 9 31 10 32
REMARK SMILES IDX 24 33
REMARK H PARENT 24 34
REMARK Flexibility Score: inf
ROOT
ATOM      1  C   UNL     1     480.807  39.128 457.593  1.00  0.00     0.017 C 
ATOM      2  C   UNL     1     479.940  38.602 456.411  1.00  0.00     0.014 C 
ATOM      3  C   UNL     1     481.247  37.951 458.494  1.00  0.00     0.014 C 
ATOM      4  C   UNL     1     482.085  39.917 457.105  1.00  0.00     0.030 C 
ATOM      5  C   UNL     1     480.736  37.996 455.260  1.00  0.00     0.004 C 
ATOM      6  C   UNL     1     481.958  38.441 459.767  1.00  0.00     0.013 C 
ATOM      7  C   UNL     1     483.101  40.195 458.235  1.00  0.00    -0.063 C 
ATOM      8  C   UNL     1     482.771  39.426 455.772  1.00  0.00    -0.003 C 
ATOM      9  C   UNL     1     481.754  38.991 454.689  1.00  0.00    -0.011 C 
ATOM     10  C   UNL     1     483.241  39.302 459.501  1.00  0.00    -0.006 C 
ATOM     11  C   UNL     1     483.879  41.302 458.095  1.00  0.00    -0.027 C 
ATOM     12  C   UNL     1     483.860  38.353 455.935  1.00  0.00     0.008 C 
ATOM     13  C   UNL     1     481.079  40.199 454.010  1.00  0.00     0.008 C 
ATOM     14  C   UNL     1     484.389  38.275 459.225  1.00  0.00     0.017 C 
ATOM     15  C   UNL     1     483.548  40.260 460.762  1.00  0.00    -0.020 C 
ATOM     16  C   UNL     1     484.672  41.957 459.207  1.00  0.00     0.032 C 
ATOM     17  C   UNL     1     484.861  41.072 460.465  1.00  0.00     0.006 C 
ATOM     18  C   UNL     1     483.794  39.444 462.068  1.00  0.00     0.008 C 
ATOM     19  C   UNL     1     482.326  41.231 460.973  1.00  0.00     0.012 C 
ATOM     20  C   UNL     1     485.609  41.733 461.739  1.00  0.00    -0.025 C 
ATOM     21  C   UNL     1     484.071  40.303 463.317  1.00  0.00     0.005 C 
ATOM     22  C   UNL     1     484.696  41.698 463.025  1.00  0.00     0.003 C 
ATOM     23  C   UNL     1     485.994  43.222 461.475  1.00  0.00     0.010 C 
ATOM     24  C   UNL     1     486.925  40.924 461.965  1.00  0.00     0.012 C 
ATOM     25  C   UNL     1     485.245  42.448 464.311  1.00  0.00    -0.006 C 
ATOM     26  C   UNL     1     486.591  43.949 462.693  1.00  0.00     0.033 C 
ATOM     27  C   UNL     1     485.655  43.908 463.915  1.00  0.00     0.120 C 
ATOM     28  C   UNL     1     486.448  41.741 465.010  1.00  0.00     0.014 C 
ATOM     29  C   UNL     1     484.109  42.535 465.370  1.00  0.00     0.014 C 
ENDROOT
BRANCH   1  30
ATOM     30  C   UNL     1     479.867  40.041 458.388  1.00  0.00     0.048 C 
ATOM     31  O   UNL     1     478.876  39.552 458.998  1.00  0.00    -0.550 OA
ATOM     32  O   UNL     1     480.005  41.425 458.359  1.00  0.00    -0.550 OA
ENDBRANCH   1  30
BRANCH  27  33
ATOM     33  O   UNL     1     484.518  44.686 463.621  1.00  0.00    -0.393 OA
ATOM     34  H   UNL     1     484.607  45.544 464.111  1.00  0.00     0.210 HD
ENDBRANCH  27  33
TORSDOF 2
ENDMDL
MODEL 3
REMARK VINA RESULT:    -5.717      1.990      7.727
REMARK INTER + INTRA:          -6.403
REMARK INTER:                  -6.296
REMARK INTRA:                  -0.108
REMARK UNBOUND:                -0.185
REMARK SMILES C[C@H]1[C@H](C)CC[C@@]2(C(=O)[O-])CC[C@@]3(C)C(=CC[C@H]4[C@@]5(C)CC[C@@H](O)C(C)(C)[C@@H]5CC[C@@]43C)[C@@H]12
REMARK SMILES IDX 7 1 6 2 11 3 33 4 5 5 12 6 15 7 2 8 3 9 13 10 16 11 1 12
REMARK SMILES IDX 4 13 14 14 31 15 17 16 18 17 30 18 32 19 19 20 29 21 28 22
REMARK SMILES IDX 21 23 20 24 25 25 22 26 23 27 26 28 27 29 8 30 9 31 10 32
REMARK SMILES IDX 24 33
REMARK H PARENT 24 34
REMARK Flexibility Score: inf
ROOT
ATOM      1  C   UNL     1     482.300  39.114 458.461  1.00  0.00     0.017 C 
ATOM      2  C   UNL     1     481.476  38.243 457.467  1.00  0.00     0.014 C 
ATOM      3  C   UNL     1     482.320  40.586 457.988  1.00  0.00     0.014 C 
ATOM      4  C   UNL     1     481.739  39.048 459.935  1.00  0.00     0.030 C 
ATOM      5  C   UNL     1     479.963  38.340 457.642  1.00  0.00     0.004 C 
ATOM      6  C   UNL     1     483.264  41.448 458.843  1.00  0.00     0.013 C 
ATOM      7  C   UNL     1     482.352  40.113 460.872  1.00  0.00    -0.063 C 
ATOM      8  C   UNL     1     480.177  38.907 460.108  1.00  0.00    -0.003 C 
ATOM      9  C   UNL     1     479.533  37.961 459.065  1.00  0.00    -0.011 C 
ATOM     10  C   UNL     1     482.912  41.475 460.370  1.00  0.00    -0.006 C 
ATOM     11  C   UNL     1     482.413  39.800 462.193  1.00  0.00    -0.027 C 
ATOM     12  C   UNL     1     479.390  40.225 460.184  1.00  0.00     0.008 C 
ATOM     13  C   UNL     1     479.799  36.478 459.386  1.00  0.00     0.008 C 
ATOM     14  C   UNL     1     481.769  42.535 460.519  1.00  0.00     0.017 C 
ATOM     15  C   UNL     1     484.218  41.837 461.244  1.00  0.00    -0.020 C 
ATOM     16  C   UNL     1     483.269  40.512 463.221  1.00  0.00     0.032 C 
ATOM     17  C   UNL     1     483.806  41.891 462.760  1.00  0.00     0.006 C 
ATOM     18  C   UNL     1     484.801  43.234 460.873  1.00  0.00     0.008 C 
ATOM     19  C   UNL     1     485.313  40.731 461.002  1.00  0.00     0.012 C 
ATOM     20  C   UNL     1     484.812  42.673 463.758  1.00  0.00    -0.025 C 
ATOM     21  C   UNL     1     486.067  43.630 461.658  1.00  0.00     0.005 C 
ATOM     22  C   UNL     1     486.196  42.972 463.062  1.00  0.00     0.003 C 
ATOM     23  C   UNL     1     485.104  41.846 465.049  1.00  0.00     0.010 C 
ATOM     24  C   UNL     1     484.100  43.996 464.179  1.00  0.00     0.012 C 
ATOM     25  C   UNL     1     487.332  43.601 463.975  1.00  0.00    -0.006 C 
ATOM     26  C   UNL     1     486.155  42.474 465.981  1.00  0.00     0.033 C 
ATOM     27  C   UNL     1     487.494  42.726 465.264  1.00  0.00     0.120 C 
ATOM     28  C   UNL     1     487.088  45.088 464.381  1.00  0.00     0.014 C 
ATOM     29  C   UNL     1     488.679  43.572 463.197  1.00  0.00     0.014 C 
ENDROOT
BRANCH   1  30
ATOM     30  C   UNL     1     483.722  38.547 458.386  1.00  0.00     0.048 C 
ATOM     31  O   UNL     1     484.325  38.492 457.280  1.00  0.00    -0.550 OA
ATOM     32  O   UNL     1     484.331  37.972 459.497  1.00  0.00    -0.550 OA
ENDBRANCH   1  30
BRANCH  27  33
ATOM     33  O   UNL     1     488.067  41.476 464.954  1.00  0.00    -0.393 OA
ATOM     34  H   UNL     1     488.321  41.042 465.810  1.00  0.00     0.210 HD
ENDBRANCH  27  33
TORSDOF 2
ENDMDL
MODEL 4
REMARK VINA RESULT:    -5.691      1.569      8.038
REMARK INTER + INTRA:          -6.375
REMARK INTER:                  -6.189
REMARK INTRA:                  -0.186
REMARK UNBOUND:                -0.185
REMARK SMILES C[C@H]1[C@H](C)CC[C@@]2(C(=O)[O-])CC[C@@]3(C)C(=CC[C@H]4[C@@]5(C)CC[C@@H](O)C(C)(C)[C@@H]5CC[C@@]43C)[C@@H]12
REMARK SMILES IDX 7 1 6 2 11 3 33 4 5 5 12 6 15 7 2 8 3 9 13 10 16 11 1 12
REMARK SMILES IDX 4 13 14 14 31 15 17 16 18 17 30 18 32 19 19 20 29 21 28 22
REMARK SMILES IDX 21 23 20 24 25 25 22 26 23 27 26 28 27 29 8 30 9 31 10 32
REMARK SMILES IDX 24 33
REMARK H PARENT 24 34
REMARK Flexibility Score: inf
ROOT
ATOM      1  C   UNL     1     482.192  38.962 455.646  1.00  0.00     0.017 C 
ATOM      2  C   UNL     1     481.933  38.692 454.134  1.00  0.00     0.014 C 
ATOM      3  C   UNL     1     483.625  38.524 456.027  1.00  0.00     0.014 C 
ATOM      4  C   UNL     1     481.990  40.479 456.035  1.00  0.00     0.030 C 
ATOM      5  C   UNL     1     482.521  39.737 453.193  1.00  0.00     0.004 C 
ATOM      6  C   UNL     1     483.866  38.612 457.543  1.00  0.00     0.013 C 
ATOM      7  C   UNL     1     482.514  40.824 457.447  1.00  0.00    -0.063 C 
ATOM      8  C   UNL     1     482.382  41.560 454.956  1.00  0.00    -0.003 C 
ATOM      9  C   UNL     1     482.002  41.145 453.513  1.00  0.00    -0.011 C 
ATOM     10  C   UNL     1     483.661  40.043 458.150  1.00  0.00    -0.006 C 
ATOM     11  C   UNL     1     481.900  41.853 458.090  1.00  0.00    -0.027 C 
ATOM     12  C   UNL     1     483.838  42.051 454.998  1.00  0.00     0.008 C 
ATOM     13  C   UNL     1     480.491  41.289 453.248  1.00  0.00     0.008 C 
ATOM     14  C   UNL     1     484.994  40.814 457.869  1.00  0.00     0.017 C 
ATOM     15  C   UNL     1     483.315  39.945 459.722  1.00  0.00    -0.020 C 
ATOM     16  C   UNL     1     481.997  42.136 459.575  1.00  0.00     0.032 C 
ATOM     17  C   UNL     1     483.158  41.401 460.292  1.00  0.00     0.006 C 
ATOM     18  C   UNL     1     484.455  39.252 460.529  1.00  0.00     0.008 C 
ATOM     19  C   UNL     1     481.979  39.128 459.898  1.00  0.00     0.012 C 
ATOM     20  C   UNL     1     483.271  41.568 461.898  1.00  0.00    -0.025 C 
ATOM     21  C   UNL     1     484.175  39.106 462.037  1.00  0.00     0.005 C 
ATOM     22  C   UNL     1     483.207  40.171 462.628  1.00  0.00     0.003 C 
ATOM     23  C   UNL     1     482.117  42.451 462.470  1.00  0.00     0.010 C 
ATOM     24  C   UNL     1     484.624  42.290 462.188  1.00  0.00     0.012 C 
ATOM     25  C   UNL     1     483.154  40.197 464.214  1.00  0.00    -0.006 C 
ATOM     26  C   UNL     1     482.090  42.543 464.005  1.00  0.00     0.033 C 
ATOM     27  C   UNL     1     482.005  41.158 464.672  1.00  0.00     0.120 C 
ATOM     28  C   UNL     1     484.491  40.620 464.900  1.00  0.00     0.014 C 
ATOM     29  C   UNL     1     482.826  38.767 464.733  1.00  0.00     0.014 C 
ENDROOT
BRANCH   1  30
ATOM     30  C   UNL     1     481.186  38.067 456.378  1.00  0.00     0.048 C 
ATOM     31  O   UNL     1     481.318  36.812 456.351  1.00  0.00    -0.550 OA
ATOM     32  O   UNL     1     480.049  38.597 456.980  1.00  0.00    -0.550 OA
ENDBRANCH   1  30
BRANCH  27  33
ATOM     33  O   UNL     1     480.742  40.607 464.375  1.00  0.00    -0.393 OA
ATOM     34  H   UNL     1     480.244  40.520 465.229  1.00  0.00     0.210 HD
ENDBRANCH  27  33
TORSDOF 2
ENDMDL
MODEL 5
REMARK VINA RESULT:    -5.632      2.159      3.683
REMARK INTER + INTRA:          -6.311
REMARK INTER:                  -6.128
REMARK INTRA:                  -0.183
REMARK UNBOUND:                -0.185
REMARK SMILES C[C@H]1[C@H](C)CC[C@@]2(C(=O)[O-])CC[C@@]3(C)C(=CC[C@H]4[C@@]5(C)CC[C@@H](O)C(C)(C)[C@@H]5CC[C@@]43C)[C@@H]12
REMARK SMILES IDX 7 1 6 2 11 3 33 4 5 5 12 6 15 7 2 8 3 9 13 10 16 11 1 12
REMARK SMILES IDX 4 13 14 14 31 15 17 16 18 17 30 18 32 19 19 20 29 21 28 22
REMARK SMILES IDX 21 23 20 24 25 25 22 26 23 27 26 28 27 29 8 30 9 31 10 32
REMARK SMILES IDX 24 33
REMARK H PARENT 24 34
REMARK Flexibility Score: inf
ROOT
ATOM      1  C   UNL     1     485.821  42.506 463.390  1.00  0.00     0.017 C 
ATOM      2  C   UNL     1     486.493  43.257 464.578  1.00  0.00     0.014 C 
ATOM      3  C   UNL     1     486.172  41.001 463.445  1.00  0.00     0.014 C 
ATOM      4  C   UNL     1     484.251  42.675 463.375  1.00  0.00     0.030 C 
ATOM      5  C   UNL     1     485.763  43.117 465.910  1.00  0.00     0.004 C 
ATOM      6  C   UNL     1     485.674  40.252 462.198  1.00  0.00     0.013 C 
ATOM      7  C   UNL     1     483.542  41.718 462.391  1.00  0.00    -0.063 C 
ATOM      8  C   UNL     1     483.521  42.770 464.770  1.00  0.00    -0.003 C 
ATOM      9  C   UNL     1     484.310  43.598 465.813  1.00  0.00    -0.011 C 
ATOM     10  C   UNL     1     484.126  40.341 461.963  1.00  0.00    -0.006 C 
ATOM     11  C   UNL     1     482.360  42.145 461.870  1.00  0.00    -0.027 C 
ATOM     12  C   UNL     1     483.074  41.434 465.383  1.00  0.00     0.008 C 
ATOM     13  C   UNL     1     484.207  45.113 465.549  1.00  0.00     0.008 C 
ATOM     14  C   UNL     1     483.496  39.255 462.897  1.00  0.00     0.017 C 
ATOM     15  C   UNL     1     483.777  40.106 460.407  1.00  0.00    -0.020 C 
ATOM     16  C   UNL     1     481.680  41.557 460.651  1.00  0.00     0.032 C 
ATOM     17  C   UNL     1     482.216  40.165 460.229  1.00  0.00     0.006 C 
ATOM     18  C   UNL     1     484.248  38.706 459.907  1.00  0.00     0.008 C 
ATOM     19  C   UNL     1     484.480  41.229 459.553  1.00  0.00     0.012 C 
ATOM     20  C   UNL     1     481.614  39.510 458.877  1.00  0.00    -0.025 C 
ATOM     21  C   UNL     1     483.964  38.428 458.418  1.00  0.00     0.005 C 
ATOM     22  C   UNL     1     482.753  39.207 457.827  1.00  0.00     0.003 C 
ATOM     23  C   UNL     1     480.580  40.455 458.188  1.00  0.00     0.010 C 
ATOM     24  C   UNL     1     480.875  38.201 459.294  1.00  0.00     0.012 C 
ATOM     25  C   UNL     1     482.288  38.702 456.397  1.00  0.00    -0.006 C 
ATOM     26  C   UNL     1     480.066  39.949 456.829  1.00  0.00     0.033 C 
ATOM     27  C   UNL     1     481.210  39.689 455.832  1.00  0.00     0.120 C 
ATOM     28  C   UNL     1     481.725  37.247 456.374  1.00  0.00     0.014 C 
ATOM     29  C   UNL     1     483.510  38.717 455.433  1.00  0.00     0.014 C 
ENDROOT
BRANCH   1  30
ATOM     30  C   UNL     1     486.454  43.120 462.136  1.00  0.00     0.048 C 
ATOM     31  O   UNL     1     487.665  42.895 461.863  1.00  0.00    -0.550 OA
ATOM     32  O   UNL     1     485.757  44.027 461.344  1.00  0.00    -0.550 OA
ENDBRANCH   1  30
BRANCH  27  33
ATOM     33  O   UNL     1     481.791  40.930 455.499  1.00  0.00    -0.393 OA
ATOM     34  H   UNL     1     482.066  41.368 456.345  1.00  0.00     0.210 HD
ENDBRANCH  27  33
TORSDOF 2
ENDMDL
MODEL 6
REMARK VINA RESULT:    -5.552      1.890      8.006
REMARK INTER + INTRA:          -6.224
REMARK INTER:                  -6.361
REMARK INTRA:                   0.137
REMARK UNBOUND:                -0.185
REMARK SMILES C[C@H]1[C@H](C)CC[C@@]2(C(=O)[O-])CC[C@@]3(C)C(=CC[C@H]4[C@@]5(C)CC[C@@H](O)C(C)(C)[C@@H]5CC[C@@]43C)[C@@H]12
REMARK SMILES IDX 7 1 6 2 11 3 33 4 5 5 12 6 15 7 2 8 3 9 13 10 16 11 1 12
REMARK SMILES IDX 4 13 14 14 31 15 17 16 18 17 30 18 32 19 19 20 29 21 28 22
REMARK SMILES IDX 21 23 20 24 25 25 22 26 23 27 26 28 27 29 8 30 9 31 10 32
REMARK SMILES IDX 24 33
REMARK H PARENT 24 34
REMARK Flexibility Score: inf
ROOT
ATOM      1  C   UNL     1     482.989  39.716 456.673  1.00  0.00     0.017 C 
ATOM      2  C   UNL     1     483.133  39.530 455.134  1.00  0.00     0.014 C 
ATOM      3  C   UNL     1     483.162  41.207 457.047  1.00  0.00     0.014 C 
ATOM      4  C   UNL     1     481.601  39.200 457.220  1.00  0.00     0.030 C 
ATOM      5  C   UNL     1     481.888  39.894 454.331  1.00  0.00     0.004 C 
ATOM      6  C   UNL     1     483.200  41.414 458.570  1.00  0.00     0.013 C 
ATOM      7  C   UNL     1     481.318  39.631 458.677  1.00  0.00    -0.063 C 
ATOM      8  C   UNL     1     480.346  39.366 456.279  1.00  0.00    -0.003 C 
ATOM      9  C   UNL     1     480.663  39.091 454.789  1.00  0.00    -0.011 C 
ATOM     10  C   UNL     1     481.921  40.911 459.324  1.00  0.00    -0.006 C 
ATOM     11  C   UNL     1     480.518  38.812 459.410  1.00  0.00    -0.027 C 
ATOM     12  C   UNL     1     479.574  40.688 456.419  1.00  0.00     0.008 C 
ATOM     13  C   UNL     1     480.805  37.584 454.495  1.00  0.00     0.008 C 
ATOM     14  C   UNL     1     480.865  42.056 459.170  1.00  0.00     0.017 C 
ATOM     15  C   UNL     1     482.267  40.582 460.864  1.00  0.00    -0.020 C 
ATOM     16  C   UNL     1     480.392  38.838 460.920  1.00  0.00     0.032 C 
ATOM     17  C   UNL     1     480.949  40.122 461.587  1.00  0.00     0.006 C 
ATOM     18  C   UNL     1     482.798  41.836 461.625  1.00  0.00     0.008 C 
ATOM     19  C   UNL     1     483.356  39.445 460.909  1.00  0.00     0.012 C 
ATOM     20  C   UNL     1     480.947  40.186 463.204  1.00  0.00    -0.025 C 
ATOM     21  C   UNL     1     483.169  41.583 463.099  1.00  0.00     0.005 C 
ATOM     22  C   UNL     1     482.401  40.410 463.773  1.00  0.00     0.003 C 
ATOM     23  C   UNL     1     480.392  38.871 463.834  1.00  0.00     0.010 C 
ATOM     24  C   UNL     1     480.000  41.358 463.612  1.00  0.00     0.012 C 
ATOM     25  C   UNL     1     482.567  40.343 465.350  1.00  0.00    -0.006 C 
ATOM     26  C   UNL     1     480.483  38.815 465.369  1.00  0.00     0.033 C 
ATOM     27  C   UNL     1     481.923  39.015 465.876  1.00  0.00     0.120 C 
ATOM     28  C   UNL     1     481.959  41.558 466.119  1.00  0.00     0.014 C 
ATOM     29  C   UNL     1     484.084  40.316 465.698  1.00  0.00     0.014 C 
ENDROOT
BRANCH   1  30
ATOM     30  C   UNL     1     484.150  38.914 457.271  1.00  0.00     0.048 C 
ATOM     31  O   UNL     1     484.060  37.661 457.389  1.00  0.00    -0.550 OA
ATOM     32  O   UNL     1     485.268  39.548 457.806  1.00  0.00    -0.550 OA
ENDBRANCH   1  30
BRANCH  27  33
ATOM     33  O   UNL     1     482.685  37.897 465.482  1.00  0.00    -0.393 OA
ATOM     34  H   UNL     1     482.726  37.896 464.490  1.00  0.00     0.210 HD
ENDBRANCH  27  33
TORSDOF 2
ENDMDL
MODEL 7
REMARK VINA RESULT:    -5.417      1.725      2.805
REMARK INTER + INTRA:          -6.077
REMARK INTER:                  -5.891
REMARK INTRA:                  -0.186
REMARK UNBOUND:                -0.185
REMARK SMILES C[C@H]1[C@H](C)CC[C@@]2(C(=O)[O-])CC[C@@]3(C)C(=CC[C@H]4[C@@]5(C)CC[C@@H](O)C(C)(C)[C@@H]5CC[C@@]43C)[C@@H]12
REMARK SMILES IDX 7 1 6 2 11 3 33 4 5 5 12 6 15 7 2 8 3 9 13 10 16 11 1 12
REMARK SMILES IDX 4 13 14 14 31 15 17 16 18 17 30 18 32 19 19 20 29 21 28 22
REMARK SMILES IDX 21 23 20 24 25 25 22 26 23 27 26 28 27 29 8 30 9 31 10 32
REMARK SMILES IDX 24 33
REMARK H PARENT 24 34
REMARK Flexibility Score: inf
ROOT
ATOM      1  C   UNL     1     483.606  42.668 462.309  1.00  0.00     0.017 C 
ATOM      2  C   UNL     1     484.057  43.220 463.694  1.00  0.00     0.014 C 
ATOM      3  C   UNL     1     484.300  43.455 461.172  1.00  0.00     0.014 C 
ATOM      4  C   UNL     1     483.911  41.129 462.139  1.00  0.00     0.030 C 
ATOM      5  C   UNL     1     485.422  42.724 464.161  1.00  0.00     0.004 C 
ATOM      6  C   UNL     1     483.755  43.061 459.790  1.00  0.00     0.013 C 
ATOM      7  C   UNL     1     483.742  40.627 460.688  1.00  0.00    -0.063 C 
ATOM      8  C   UNL     1     485.214  40.570 462.831  1.00  0.00    -0.003 C 
ATOM      9  C   UNL     1     485.477  41.192 464.225  1.00  0.00    -0.011 C 
ATOM     10  C   UNL     1     483.911  41.541 459.440  1.00  0.00    -0.006 C 
ATOM     11  C   UNL     1     483.401  39.320 460.531  1.00  0.00    -0.027 C 
ATOM     12  C   UNL     1     486.495  40.615 461.983  1.00  0.00     0.008 C 
ATOM     13  C   UNL     1     484.540  40.614 465.303  1.00  0.00     0.008 C 
ATOM     14  C   UNL     1     485.383  41.375 458.934  1.00  0.00     0.017 C 
ATOM     15  C   UNL     1     482.818  41.099 458.340  1.00  0.00    -0.020 C 
ATOM     16  C   UNL     1     482.847  38.709 459.260  1.00  0.00     0.032 C 
ATOM     17  C   UNL     1     483.040  39.582 457.994  1.00  0.00     0.006 C 
ATOM     18  C   UNL     1     482.968  41.903 457.012  1.00  0.00     0.008 C 
ATOM     19  C   UNL     1     481.377  41.332 458.932  1.00  0.00     0.012 C 
ATOM     20  C   UNL     1     482.388  39.050 456.611  1.00  0.00    -0.025 C 
ATOM     21  C   UNL     1     481.936  41.545 455.925  1.00  0.00     0.005 C 
ATOM     22  C   UNL     1     481.372  40.097 456.013  1.00  0.00     0.003 C 
ATOM     23  C   UNL     1     481.616  37.708 456.816  1.00  0.00     0.010 C 
ATOM     24  C   UNL     1     483.567  38.786 455.623  1.00  0.00     0.012 C 
ATOM     25  C   UNL     1     480.545  39.641 454.738  1.00  0.00    -0.006 C 
ATOM     26  C   UNL     1     480.862  37.214 455.568  1.00  0.00     0.033 C 
ATOM     27  C   UNL     1     479.867  38.260 455.035  1.00  0.00     0.120 C 
ATOM     28  C   UNL     1     481.384  39.538 453.425  1.00  0.00     0.014 C 
ATOM     29  C   UNL     1     479.423  40.683 454.463  1.00  0.00     0.014 C 
ENDROOT
BRANCH   1  30
ATOM     30  C   UNL     1     482.099  42.940 462.255  1.00  0.00     0.048 C 
ATOM     31  O   UNL     1     481.671  44.124 462.163  1.00  0.00    -0.550 OA
ATOM     32  O   UNL     1     481.171  41.917 462.427  1.00  0.00    -0.550 OA
ENDBRANCH   1  30
BRANCH  27  33
ATOM     33  O   UNL     1     478.833  38.403 455.982  1.00  0.00    -0.393 OA
ATOM     34  H   UNL     1     479.026  37.784 456.733  1.00  0.00     0.210 HD
ENDBRANCH  27  33
TORSDOF 2
ENDMDL
MODEL 8
REMARK VINA RESULT:    -5.414      4.467      6.826
REMARK INTER + INTRA:          -6.074
REMARK INTER:                  -5.885
REMARK INTRA:                  -0.188
REMARK UNBOUND:                -0.185
REMARK SMILES C[C@H]1[C@H](C)CC[C@@]2(C(=O)[O-])CC[C@@]3(C)C(=CC[C@H]4[C@@]5(C)CC[C@@H](O)C(C)(C)[C@@H]5CC[C@@]43C)[C@@H]12
REMARK SMILES IDX 7 1 6 2 11 3 33 4 5 5 12 6 15 7 2 8 3 9 13 10 16 11 1 12
REMARK SMILES IDX 4 13 14 14 31 15 17 16 18 17 30 18 32 19 19 20 29 21 28 22
REMARK SMILES IDX 21 23 20 24 25 25 22 26 23 27 26 28 27 29 8 30 9 31 10 32
REMARK SMILES IDX 24 33
REMARK H PARENT 24 34
REMARK Flexibility Score: inf
ROOT
ATOM      1  C   UNL     1     477.463  40.918 463.494  1.00  0.00     0.017 C 
ATOM      2  C   UNL     1     476.553  41.262 464.710  1.00  0.00     0.014 C 
ATOM      3  C   UNL     1     478.558  39.910 463.917  1.00  0.00     0.014 C 
ATOM      4  C   UNL     1     476.651  40.325 462.277  1.00  0.00     0.030 C 
ATOM      5  C   UNL     1     475.491  40.213 465.025  1.00  0.00     0.004 C 
ATOM      6  C   UNL     1     479.582  39.675 462.795  1.00  0.00     0.013 C 
ATOM      7  C   UNL     1     477.552  39.714 461.180  1.00  0.00    -0.063 C 
ATOM      8  C   UNL     1     475.399  39.426 462.612  1.00  0.00    -0.003 C 
ATOM      9  C   UNL     1     474.581  39.949 463.819  1.00  0.00    -0.011 C 
ATOM     10  C   UNL     1     478.966  39.131 461.460  1.00  0.00    -0.006 C 
ATOM     11  C   UNL     1     477.061  39.726 459.912  1.00  0.00    -0.027 C 
ATOM     12  C   UNL     1     475.679  37.923 462.775  1.00  0.00     0.008 C 
ATOM     13  C   UNL     1     473.723  41.174 463.449  1.00  0.00     0.008 C 
ATOM     14  C   UNL     1     478.805  37.588 461.669  1.00  0.00     0.017 C 
ATOM     15  C   UNL     1     479.918  39.496 460.210  1.00  0.00    -0.020 C 
ATOM     16  C   UNL     1     477.882  39.515 458.656  1.00  0.00     0.032 C 
ATOM     17  C   UNL     1     479.281  38.897 458.903  1.00  0.00     0.006 C 
ATOM     18  C   UNL     1     481.341  38.875 460.358  1.00  0.00     0.008 C 
ATOM     19  C   UNL     1     480.040  41.063 460.104  1.00  0.00     0.012 C 
ATOM     20  C   UNL     1     480.263  38.732 457.627  1.00  0.00    -0.025 C 
ATOM     21  C   UNL     1     482.308  39.206 459.205  1.00  0.00     0.005 C 
ATOM     22  C   UNL     1     481.621  39.505 457.841  1.00  0.00     0.003 C 
ATOM     23  C   UNL     1     479.609  39.283 456.321  1.00  0.00     0.010 C 
ATOM     24  C   UNL     1     480.512  37.203 457.438  1.00  0.00     0.012 C 
ATOM     25  C   UNL     1     482.616  39.554 456.606  1.00  0.00    -0.006 C 
ATOM     26  C   UNL     1     480.539  39.276 455.095  1.00  0.00     0.033 C 
ATOM     27  C   UNL     1     481.839  40.061 455.343  1.00  0.00     0.120 C 
ATOM     28  C   UNL     1     483.312  38.195 456.280  1.00  0.00     0.014 C 
ATOM     29  C   UNL     1     483.755  40.569 456.914  1.00  0.00     0.014 C 
ENDROOT
BRANCH   1  30
ATOM     30  C   UNL     1     478.128  42.247 463.119  1.00  0.00     0.048 C 
ATOM     31  O   UNL     1     478.952  42.788 463.906  1.00  0.00    -0.550 OA
ATOM     32  O   UNL     1     477.755  42.945 461.974  1.00  0.00    -0.550 OA
ENDBRANCH   1  30
BRANCH  27  33
ATOM     33  O   UNL     1     481.510  41.425 455.471  1.00  0.00    -0.393 OA
ATOM     34  H   UNL     1     482.264  41.952 455.100  1.00  0.00     0.210 HD
ENDBRANCH  27  33
TORSDOF 2
ENDMDL
MODEL 9
REMARK VINA RESULT:    -5.404      2.524      4.653
REMARK INTER + INTRA:          -6.064
REMARK INTER:                  -5.886
REMARK INTRA:                  -0.178
REMARK UNBOUND:                -0.185
REMARK SMILES C[C@H]1[C@H](C)CC[C@@]2(C(=O)[O-])CC[C@@]3(C)C(=CC[C@H]4[C@@]5(C)CC[C@@H](O)C(C)(C)[C@@H]5CC[C@@]43C)[C@@H]12
REMARK SMILES IDX 7 1 6 2 11 3 33 4 5 5 12 6 15 7 2 8 3 9 13 10 16 11 1 12
REMARK SMILES IDX 4 13 14 14 31 15 17 16 18 17 30 18 32 19 19 20 29 21 28 22
REMARK SMILES IDX 21 23 20 24 25 25 22 26 23 27 26 28 27 29 8 30 9 31 10 32
REMARK SMILES IDX 24 33
REMARK H PARENT 24 34
REMARK Flexibility Score: inf
ROOT
ATOM      1  C   UNL     1     484.104  40.414 461.673  1.00  0.00     0.017 C 
ATOM      2  C   UNL     1     484.394  40.551 463.197  1.00  0.00     0.014 C 
ATOM      3  C   UNL     1     484.099  38.922 461.265  1.00  0.00     0.014 C 
ATOM      4  C   UNL     1     482.731  41.073 461.255  1.00  0.00     0.030 C 
ATOM      5  C   UNL     1     483.191  40.290 464.099  1.00  0.00     0.004 C 
ATOM      6  C   UNL     1     483.989  38.747 459.742  1.00  0.00     0.013 C 
ATOM      7  C   UNL     1     482.287  40.704 459.822  1.00  0.00    -0.063 C 
ATOM      8  C   UNL     1     481.550  41.006 462.298  1.00  0.00    -0.003 C 
ATOM      9  C   UNL     1     482.017  41.217 463.759  1.00  0.00    -0.011 C 
ATOM     10  C   UNL     1     482.706  39.387 459.107  1.00  0.00    -0.006 C 
ATOM     11  C   UNL     1     481.511  41.612 459.172  1.00  0.00    -0.027 C 
ATOM     12  C   UNL     1     480.644  39.768 462.206  1.00  0.00     0.008 C 
ATOM     13  C   UNL     1     482.328  42.696 464.061  1.00  0.00     0.008 C 
ATOM     14  C   UNL     1     481.560  38.345 459.335  1.00  0.00     0.017 C 
ATOM     15  C   UNL     1     482.951  39.715 457.548  1.00  0.00    -0.020 C 
ATOM     16  C   UNL     1     481.257  41.632 457.678  1.00  0.00     0.032 C 
ATOM     17  C   UNL     1     481.628  40.316 456.948  1.00  0.00     0.006 C 
ATOM     18  C   UNL     1     483.291  38.434 456.727  1.00  0.00     0.008 C 
ATOM     19  C   UNL     1     484.138  40.744 457.426  1.00  0.00     0.012 C 
ATOM     20  C   UNL     1     481.484  40.288 455.336  1.00  0.00    -0.025 C 
ATOM     21  C   UNL     1     483.561  38.684 455.231  1.00  0.00     0.005 C 
ATOM     22  C   UNL     1     482.856  39.940 454.641  1.00  0.00     0.003 C 
ATOM     23  C   UNL     1     481.008  41.665 454.775  1.00  0.00     0.010 C 
ATOM     24  C   UNL     1     480.396  39.223 454.994  1.00  0.00     0.012 C 
ATOM     25  C   UNL     1     482.895  40.026 453.057  1.00  0.00    -0.006 C 
ATOM     26  C   UNL     1     480.975  41.747 453.239  1.00  0.00     0.033 C 
ATOM     27  C   UNL     1     482.341  41.421 452.607  1.00  0.00     0.120 C 
ATOM     28  C   UNL     1     482.109  38.893 452.326  1.00  0.00     0.014 C 
ATOM     29  C   UNL     1     484.372  39.915 452.581  1.00  0.00     0.014 C 
ENDROOT
BRANCH   1  30
ATOM     30  C   UNL     1     485.283  41.114 460.989  1.00  0.00     0.048 C 
ATOM     31  O   UNL     1     486.452  40.658 461.118  1.00  0.00    -0.550 OA
ATOM     32  O   UNL     1     485.118  42.323 460.320  1.00  0.00    -0.550 OA
ENDBRANCH   1  30
BRANCH  27  33
ATOM     33  O   UNL     1     483.239  42.452 452.950  1.00  0.00    -0.393 OA
ATOM     34  H   UNL     1     483.029  42.736 453.878  1.00  0.00     0.210 HD
ENDBRANCH  27  33
TORSDOF 2
ENDMDL
