MODEL 1
REMARK VINA RESULT:    -5.807      0.000      0.000
REMARK INTER + INTRA:          -8.969
REMARK INTER:                  -7.674
REMARK INTRA:                  -1.294
REMARK UNBOUND:                -1.294
REMARK SMILES CC(C)=CCC[C@@H](C(=O)[O-])[C@@H]1CC[C@@]2(C)C3=C(CC[C@@]12C)[C@]1(C)CC[C@@H](O)C(C)(C)[C@@H]1CC3
REMARK SMILES IDX 6 1 7 2 8 3 9 4 10 5 11 6 12 7 20 8 13 9 14 10 19 11 21 12
REMARK SMILES IDX 15 13 16 14 18 15 17 16 33 17 22 18 32 19 31 20 24 21 23 22
REMARK SMILES IDX 28 23 25 24 26 25 29 26 30 27 27 28 5 30 4 31 2 32 1 33 3 34
REMARK H PARENT 27 29
REMARK Flexibility Score: inf
ROOT
ATOM      1  C   UNL     1      14.439 -22.192  42.797  1.00  0.00     0.014 C 
ENDROOT
BRANCH   1   2
ATOM      2  C   UNL     1      15.547 -21.174  43.196  1.00  0.00     0.039 C 
BRANCH   2   3
ATOM      3  C   UNL     1      16.577 -21.770  44.125  1.00  0.00     0.045 C 
ATOM      4  O   UNL     1      17.087 -21.097  45.061  1.00  0.00    -0.550 OA
ATOM      5  O   UNL     1      16.951 -23.099  43.967  1.00  0.00    -0.550 OA
ENDBRANCH   2   3
BRANCH   2   6
ATOM      6  C   UNL     1      16.225 -20.371  42.033  1.00  0.00     0.004 C 
ATOM      7  C   UNL     1      17.667 -20.798  41.769  1.00  0.00     0.006 C 
ATOM      8  C   UNL     1      16.202 -18.791  41.958  1.00  0.00    -0.020 C 
ATOM      9  C   UNL     1      18.211 -19.742  40.830  1.00  0.00     0.012 C 
ATOM     10  C   UNL     1      17.626 -18.402  41.321  1.00  0.00    -0.006 C 
ATOM     11  C   UNL     1      15.014 -18.344  41.053  1.00  0.00     0.012 C 
ATOM     12  C   UNL     1      15.941 -18.103  43.328  1.00  0.00     0.012 C 
ATOM     13  C   UNL     1      18.612 -17.852  42.406  1.00  0.00     0.017 C 
ATOM     14  C   UNL     1      17.537 -17.429  40.102  1.00  0.00    -0.064 C 
ATOM     15  C   UNL     1      15.347 -18.428  39.574  1.00  0.00     0.032 C 
ATOM     16  C   UNL     1      16.465 -17.452  39.254  1.00  0.00    -0.064 C 
ATOM     17  C   UNL     1      18.665 -16.458  39.841  1.00  0.00     0.032 C 
ATOM     18  C   UNL     1      16.257 -16.416  38.104  1.00  0.00    -0.008 C 
ATOM     19  C   UNL     1      18.821 -16.156  38.365  1.00  0.00     0.009 C 
ATOM     20  C   UNL     1      17.538 -15.509  37.805  1.00  0.00     0.007 C 
ATOM     21  C   UNL     1      15.795 -17.167  36.805  1.00  0.00     0.014 C 
ATOM     22  C   UNL     1      15.108 -15.487  38.584  1.00  0.00     0.016 C 
ATOM     23  C   UNL     1      17.714 -15.089  36.280  1.00  0.00    -0.006 C 
ATOM     24  C   UNL     1      16.961 -17.568  35.907  1.00  0.00     0.033 C 
ATOM     25  C   UNL     1      17.732 -16.356  35.346  1.00  0.00     0.120 C 
ATOM     26  C   UNL     1      16.593 -14.088  35.868  1.00  0.00     0.014 C 
ATOM     27  C   UNL     1      19.042 -14.304  36.069  1.00  0.00     0.014 C 
BRANCH  25  28
ATOM     28  O   UNL     1      17.239 -16.051  34.064  1.00  0.00    -0.393 OA
ATOM     29  H   UNL     1      18.021 -15.819  33.500  1.00  0.00     0.210 HD
ENDBRANCH  25  28
ENDBRANCH   2   6
ENDBRANCH   1   2
BRANCH   1  30
ATOM     30  C   UNL     1      14.087 -22.137  41.299  1.00  0.00     0.028 C 
BRANCH  30  31
ATOM     31  C   UNL     1      12.613 -22.353  41.051  1.00  0.00    -0.028 C 
ATOM     32  C   UNL     1      11.884 -21.684  40.131  1.00  0.00    -0.080 C 
ATOM     33  C   UNL     1      12.499 -20.662  39.203  1.00  0.00     0.039 C 
ATOM     34  C   UNL     1      10.415 -22.004  40.010  1.00  0.00     0.039 C 
ENDBRANCH  30  31
ENDBRANCH   1  30
TORSDOF 6
ENDMDL
MODEL 2
REMARK VINA RESULT:    -5.589     12.664     14.986
REMARK INTER + INTRA:          -8.680
REMARK INTER:                  -7.811
REMARK INTRA:                  -0.869
REMARK UNBOUND:                -1.294
REMARK SMILES CC(C)=CCC[C@@H](C(=O)[O-])[C@@H]1CC[C@@]2(C)C3=C(CC[C@@]12C)[C@]1(C)CC[C@@H](O)C(C)(C)[C@@H]1CC3
REMARK SMILES IDX 6 1 7 2 8 3 9 4 10 5 11 6 12 7 20 8 13 9 14 10 19 11 21 12
REMARK SMILES IDX 15 13 16 14 18 15 17 16 33 17 22 18 32 19 31 20 24 21 23 22
REMARK SMILES IDX 28 23 25 24 26 25 29 26 30 27 27 28 5 30 4 31 2 32 1 33 3 34
REMARK H PARENT 27 29
REMARK Flexibility Score: inf
ROOT
ATOM      1  C   UNL     1      10.008  -6.914  42.760  1.00  0.00     0.014 C 
ENDROOT
BRANCH   1   2
ATOM      2  C   UNL     1      10.327  -5.645  43.603  1.00  0.00     0.039 C 
BRANCH   2   3
ATOM      3  C   UNL     1       9.301  -5.389  44.681  1.00  0.00     0.045 C 
ATOM      4  O   UNL     1       8.722  -6.337  45.277  1.00  0.00    -0.550 OA
ATOM      5  O   UNL     1       9.009  -4.082  45.049  1.00  0.00    -0.550 OA
ENDBRANCH   2   3
BRANCH   2   6
ATOM      6  C   UNL     1      11.786  -5.512  44.161  1.00  0.00     0.004 C 
ATOM      7  C   UNL     1      11.884  -5.797  45.658  1.00  0.00     0.006 C 
ATOM      8  C   UNL     1      12.695  -4.249  43.882  1.00  0.00    -0.020 C 
ATOM      9  C   UNL     1      13.281  -5.353  46.039  1.00  0.00     0.012 C 
ATOM     10  C   UNL     1      13.545  -4.064  45.234  1.00  0.00    -0.006 C 
ATOM     11  C   UNL     1      13.608  -4.543  42.653  1.00  0.00     0.012 C 
ATOM     12  C   UNL     1      11.895  -2.974  43.489  1.00  0.00     0.012 C 
ATOM     13  C   UNL     1      13.002  -2.876  46.099  1.00  0.00     0.017 C 
ATOM     14  C   UNL     1      15.085  -3.933  45.009  1.00  0.00    -0.064 C 
ATOM     15  C   UNL     1      14.830  -5.366  43.021  1.00  0.00     0.032 C 
ATOM     16  C   UNL     1      15.706  -4.568  43.970  1.00  0.00    -0.064 C 
ATOM     17  C   UNL     1      15.911  -3.106  45.968  1.00  0.00     0.032 C 
ATOM     18  C   UNL     1      17.214  -4.365  43.617  1.00  0.00    -0.008 C 
ATOM     19  C   UNL     1      17.324  -3.634  46.099  1.00  0.00     0.009 C 
ATOM     20  C   UNL     1      18.048  -3.590  44.738  1.00  0.00     0.007 C 
ATOM     21  C   UNL     1      17.867  -5.759  43.306  1.00  0.00     0.014 C 
ATOM     22  C   UNL     1      17.225  -3.504  42.323  1.00  0.00     0.016 C 
ATOM     23  C   UNL     1      19.567  -4.043  44.869  1.00  0.00    -0.006 C 
ATOM     24  C   UNL     1      18.493  -6.407  44.537  1.00  0.00     0.033 C 
ATOM     25  C   UNL     1      19.672  -5.595  45.110  1.00  0.00     0.120 C 
ATOM     26  C   UNL     1      20.368  -3.603  43.607  1.00  0.00     0.014 C 
ATOM     27  C   UNL     1      20.265  -3.315  46.055  1.00  0.00     0.014 C 
BRANCH  25  28
ATOM     28  O   UNL     1      20.877  -6.111  44.596  1.00  0.00    -0.393 OA
ATOM     29  H   UNL     1      21.603  -5.802  45.196  1.00  0.00     0.210 HD
ENDBRANCH  25  28
ENDBRANCH   2   6
ENDBRANCH   1   2
BRANCH   1  30
ATOM     30  C   UNL     1      11.052  -7.179  41.661  1.00  0.00     0.028 C 
BRANCH  30  31
ATOM     31  C   UNL     1      10.430  -7.753  40.410  1.00  0.00    -0.028 C 
ATOM     32  C   UNL     1      11.048  -8.614  39.572  1.00  0.00    -0.080 C 
ATOM     33  C   UNL     1      12.439  -9.139  39.837  1.00  0.00     0.039 C 
ATOM     34  C   UNL     1      10.298  -9.090  38.352  1.00  0.00     0.039 C 
ENDBRANCH  30  31
ENDBRANCH   1  30
TORSDOF 6
ENDMDL
MODEL 3
REMARK VINA RESULT:    -5.552     11.474     14.953
REMARK INTER + INTRA:          -8.632
REMARK INTER:                  -7.359
REMARK INTRA:                  -1.273
REMARK UNBOUND:                -1.294
REMARK SMILES CC(C)=CCC[C@@H](C(=O)[O-])[C@@H]1CC[C@@]2(C)C3=C(CC[C@@]12C)[C@]1(C)CC[C@@H](O)C(C)(C)[C@@H]1CC3
REMARK SMILES IDX 6 1 7 2 8 3 9 4 10 5 11 6 12 7 20 8 13 9 14 10 19 11 21 12
REMARK SMILES IDX 15 13 16 14 18 15 17 16 33 17 22 18 32 19 31 20 24 21 23 22
REMARK SMILES IDX 28 23 25 24 26 25 29 26 30 27 27 28 5 30 4 31 2 32 1 33 3 34
REMARK H PARENT 27 29
REMARK Flexibility Score: inf
ROOT
ATOM      1  C   UNL     1       5.674  -9.245  32.061  1.00  0.00     0.014 C 
ENDROOT
BRANCH   1   2
ATOM      2  C   UNL     1       6.774  -8.880  31.022  1.00  0.00     0.039 C 
BRANCH   2   3
ATOM      3  C   UNL     1       6.241  -8.055  29.876  1.00  0.00     0.045 C 
ATOM      4  O   UNL     1       6.802  -8.055  28.747  1.00  0.00    -0.550 OA
ATOM      5  O   UNL     1       5.088  -7.301  30.057  1.00  0.00    -0.550 OA
ENDBRANCH   2   3
BRANCH   2   6
ATOM      6  C   UNL     1       8.110  -8.281  31.583  1.00  0.00     0.004 C 
ATOM      7  C   UNL     1       8.252  -6.784  31.321  1.00  0.00     0.006 C 
ATOM      8  C   UNL     1       9.524  -8.927  31.293  1.00  0.00    -0.020 C 
ATOM      9  C   UNL     1       9.689  -6.470  31.682  1.00  0.00     0.012 C 
ATOM     10  C   UNL     1      10.519  -7.669  31.180  1.00  0.00    -0.006 C 
ATOM     11  C   UNL     1       9.904  -9.868  32.476  1.00  0.00     0.012 C 
ATOM     12  C   UNL     1       9.551  -9.838  30.033  1.00  0.00     0.012 C 
ATOM     13  C   UNL     1      10.894  -7.363  29.691  1.00  0.00     0.017 C 
ATOM     14  C   UNL     1      11.800  -7.785  32.066  1.00  0.00    -0.064 C 
ATOM     15  C   UNL     1      10.471  -9.110  33.663  1.00  0.00     0.032 C 
ATOM     16  C   UNL     1      11.778  -8.451  33.260  1.00  0.00    -0.064 C 
ATOM     17  C   UNL     1      13.084  -7.132  31.609  1.00  0.00     0.032 C 
ATOM     18  C   UNL     1      13.055  -8.715  34.120  1.00  0.00    -0.008 C 
ATOM     19  C   UNL     1      13.939  -6.686  32.776  1.00  0.00     0.009 C 
ATOM     20  C   UNL     1      14.341  -7.892  33.648  1.00  0.00     0.007 C 
ATOM     21  C   UNL     1      12.734  -8.422  35.629  1.00  0.00     0.014 C 
ATOM     22  C   UNL     1      13.360 -10.230  33.954  1.00  0.00     0.016 C 
ATOM     23  C   UNL     1      15.324  -7.463  34.823  1.00  0.00    -0.006 C 
ATOM     24  C   UNL     1      13.053  -6.987  36.035  1.00  0.00     0.033 C 
ATOM     25  C   UNL     1      14.555  -6.653  35.932  1.00  0.00     0.120 C 
ATOM     26  C   UNL     1      16.029  -8.719  35.416  1.00  0.00     0.014 C 
ATOM     27  C   UNL     1      16.483  -6.576  34.282  1.00  0.00     0.014 C 
BRANCH  25  28
ATOM     28  O   UNL     1      15.151  -6.825  37.195  1.00  0.00    -0.393 OA
ATOM     29  H   UNL     1      14.751  -6.148  37.798  1.00  0.00     0.210 HD
ENDBRANCH  25  28
ENDBRANCH   2   6
ENDBRANCH   1   2
BRANCH   1  30
ATOM     30  C   UNL     1       6.025  -8.790  33.489  1.00  0.00     0.028 C 
BRANCH  30  31
ATOM     31  C   UNL     1       5.431  -9.698  34.540  1.00  0.00    -0.028 C 
ATOM     32  C   UNL     1       6.132 -10.273  35.541  1.00  0.00    -0.080 C 
ATOM     33  C   UNL     1       7.608 -10.019  35.742  1.00  0.00     0.039 C 
ATOM     34  C   UNL     1       5.398 -11.168  36.508  1.00  0.00     0.039 C 
ENDBRANCH  30  31
ENDBRANCH   1  30
TORSDOF 6
ENDMDL
MODEL 4
REMARK VINA RESULT:    -5.538      3.482      6.253
REMARK INTER + INTRA:          -8.613
REMARK INTER:                  -7.543
REMARK INTRA:                  -1.071
REMARK UNBOUND:                -1.294
REMARK SMILES CC(C)=CCC[C@@H](C(=O)[O-])[C@@H]1CC[C@@]2(C)C3=C(CC[C@@]12C)[C@]1(C)CC[C@@H](O)C(C)(C)[C@@H]1CC3
REMARK SMILES IDX 6 1 7 2 8 3 9 4 10 5 11 6 12 7 20 8 13 9 14 10 19 11 21 12
REMARK SMILES IDX 15 13 16 14 18 15 17 16 33 17 22 18 32 19 31 20 24 21 23 22
REMARK SMILES IDX 28 23 25 24 26 25 29 26 30 27 27 28 5 30 4 31 2 32 1 33 3 34
REMARK H PARENT 27 29
REMARK Flexibility Score: inf
ROOT
ATOM      1  C   UNL     1      13.434 -18.468  41.243  1.00  0.00     0.014 C 
ENDROOT
BRANCH   1   2
ATOM      2  C   UNL     1      14.533 -18.497  40.141  1.00  0.00     0.039 C 
BRANCH   2   3
ATOM      3  C   UNL     1      14.050 -17.943  38.823  1.00  0.00     0.045 C 
ATOM      4  O   UNL     1      13.817 -16.713  38.671  1.00  0.00    -0.550 OA
ATOM      5  O   UNL     1      13.887 -18.799  37.741  1.00  0.00    -0.550 OA
ENDBRANCH   2   3
BRANCH   2   6
ATOM      6  C   UNL     1      15.938 -17.917  40.524  1.00  0.00     0.004 C 
ATOM      7  C   UNL     1      16.902 -17.851  39.342  1.00  0.00     0.006 C 
ATOM      8  C   UNL     1      16.773 -18.445  41.759  1.00  0.00    -0.020 C 
ATOM      9  C   UNL     1      18.246 -17.536  39.965  1.00  0.00     0.012 C 
ATOM     10  C   UNL     1      18.303 -18.350  41.274  1.00  0.00    -0.006 C 
ATOM     11  C   UNL     1      16.492 -17.530  42.990  1.00  0.00     0.012 C 
ATOM     12  C   UNL     1      16.371 -19.874  42.224  1.00  0.00     0.012 C 
ATOM     13  C   UNL     1      18.878 -19.758  40.902  1.00  0.00     0.017 C 
ATOM     14  C   UNL     1      19.246 -17.607  42.273  1.00  0.00    -0.064 C 
ATOM     15  C   UNL     1      17.308 -16.250  42.960  1.00  0.00     0.032 C 
ATOM     16  C   UNL     1      18.783 -16.592  43.063  1.00  0.00    -0.064 C 
ATOM     17  C   UNL     1      20.703 -18.002  42.356  1.00  0.00     0.032 C 
ATOM     18  C   UNL     1      19.643 -15.907  44.173  1.00  0.00    -0.008 C 
ATOM     19  C   UNL     1      21.586 -16.831  42.732  1.00  0.00     0.009 C 
ATOM     20  C   UNL     1      21.196 -16.278  44.117  1.00  0.00     0.007 C 
ATOM     21  C   UNL     1      19.443 -14.351  44.099  1.00  0.00     0.014 C 
ATOM     22  C   UNL     1      19.068 -16.425  45.521  1.00  0.00     0.016 C 
ATOM     23  C   UNL     1      22.175 -15.112  44.579  1.00  0.00    -0.006 C 
ATOM     24  C   UNL     1      20.477 -13.663  43.213  1.00  0.00     0.033 C 
ATOM     25  C   UNL     1      21.915 -13.799  43.752  1.00  0.00     0.120 C 
ATOM     26  C   UNL     1      22.028 -14.865  46.110  1.00  0.00     0.014 C 
ATOM     27  C   UNL     1      23.663 -15.527  44.386  1.00  0.00     0.014 C 
BRANCH  25  28
ATOM     28  O   UNL     1      22.235 -12.652  44.502  1.00  0.00    -0.393 OA
ATOM     29  H   UNL     1      21.416 -12.094  44.541  1.00  0.00     0.210 HD
ENDBRANCH  25  28
ENDBRANCH   2   6
ENDBRANCH   1   2
BRANCH   1  30
ATOM     30  C   UNL     1      12.525 -19.709  41.215  1.00  0.00     0.028 C 
BRANCH  30  31
ATOM     31  C   UNL     1      13.304 -20.982  40.983  1.00  0.00    -0.028 C 
ATOM     32  C   UNL     1      13.560 -21.908  41.933  1.00  0.00    -0.080 C 
ATOM     33  C   UNL     1      13.038 -21.780  43.344  1.00  0.00     0.039 C 
ATOM     34  C   UNL     1      14.365 -23.125  41.549  1.00  0.00     0.039 C 
ENDBRANCH  30  31
ENDBRANCH   1  30
TORSDOF 6
ENDMDL
MODEL 5
REMARK VINA RESULT:    -5.415      2.643      7.147
REMARK INTER + INTRA:          -8.450
REMARK INTER:                  -6.738
REMARK INTRA:                  -1.712
REMARK UNBOUND:                -1.294
REMARK SMILES CC(C)=CCC[C@@H](C(=O)[O-])[C@@H]1CC[C@@]2(C)C3=C(CC[C@@]12C)[C@]1(C)CC[C@@H](O)C(C)(C)[C@@H]1CC3
REMARK SMILES IDX 6 1 7 2 8 3 9 4 10 5 11 6 12 7 20 8 13 9 14 10 19 11 21 12
REMARK SMILES IDX 15 13 16 14 18 15 17 16 33 17 22 18 32 19 31 20 24 21 23 22
REMARK SMILES IDX 28 23 25 24 26 25 29 26 30 27 27 28 5 30 4 31 2 32 1 33 3 34
REMARK H PARENT 27 29
REMARK Flexibility Score: inf
ROOT
ATOM      1  C   UNL     1      18.479 -15.362  42.498  1.00  0.00     0.014 C 
ENDROOT
BRANCH   1   2
ATOM      2  C   UNL     1      18.676 -16.905  42.454  1.00  0.00     0.039 C 
BRANCH   2   3
ATOM      3  C   UNL     1      19.676 -17.394  43.474  1.00  0.00     0.045 C 
ATOM      4  O   UNL     1      19.789 -16.843  44.602  1.00  0.00    -0.550 OA
ATOM      5  O   UNL     1      20.470 -18.495  43.177  1.00  0.00    -0.550 OA
ENDBRANCH   2   3
BRANCH   2   6
ATOM      6  C   UNL     1      17.379 -17.786  42.459  1.00  0.00     0.004 C 
ATOM      7  C   UNL     1      17.159 -18.522  43.779  1.00  0.00     0.006 C 
ATOM      8  C   UNL     1      17.040 -18.814  41.307  1.00  0.00    -0.020 C 
ATOM      9  C   UNL     1      16.043 -19.502  43.485  1.00  0.00     0.012 C 
ATOM     10  C   UNL     1      16.314 -20.033  42.063  1.00  0.00    -0.006 C 
ATOM     11  C   UNL     1      16.100 -18.125  40.272  1.00  0.00     0.012 C 
ATOM     12  C   UNL     1      18.280 -19.263  40.482  1.00  0.00     0.012 C 
ATOM     13  C   UNL     1      17.268 -21.266  42.218  1.00  0.00     0.017 C 
ATOM     14  C   UNL     1      14.951 -20.459  41.429  1.00  0.00    -0.064 C 
ATOM     15  C   UNL     1      14.649 -18.119  40.720  1.00  0.00     0.032 C 
ATOM     16  C   UNL     1      14.144 -19.547  40.808  1.00  0.00    -0.064 C 
ATOM     17  C   UNL     1      14.504 -21.899  41.521  1.00  0.00     0.032 C 
ATOM     18  C   UNL     1      12.840 -19.937  40.040  1.00  0.00    -0.008 C 
ATOM     19  C   UNL     1      12.996 -22.022  41.569  1.00  0.00     0.009 C 
ATOM     20  C   UNL     1      12.363 -21.442  40.288  1.00  0.00     0.007 C 
ATOM     21  C   UNL     1      11.697 -18.926  40.411  1.00  0.00     0.014 C 
ATOM     22  C   UNL     1      13.183 -19.779  38.533  1.00  0.00     0.016 C 
ATOM     23  C   UNL     1      10.786 -21.651  40.268  1.00  0.00    -0.006 C 
ATOM     24  C   UNL     1      10.853 -19.394  41.592  1.00  0.00     0.033 C 
ATOM     25  C   UNL     1      10.079 -20.696  41.299  1.00  0.00     0.120 C 
ATOM     26  C   UNL     1      10.237 -21.445  38.824  1.00  0.00     0.014 C 
ATOM     27  C   UNL     1      10.415 -23.120  40.626  1.00  0.00     0.014 C 
BRANCH  25  28
ATOM     28  O   UNL     1       8.775 -20.370  40.882  1.00  0.00    -0.393 OA
ATOM     29  H   UNL     1       8.444 -19.662  41.492  1.00  0.00     0.210 HD
ENDBRANCH  25  28
ENDBRANCH   2   6
ENDBRANCH   1   2
BRANCH   1  30
ATOM     30  C   UNL     1      19.022 -14.654  41.244  1.00  0.00     0.028 C 
BRANCH  30  31
ATOM     31  C   UNL     1      18.242 -15.016  40.002  1.00  0.00    -0.028 C 
ATOM     32  C   UNL     1      18.727 -15.757  38.981  1.00  0.00    -0.080 C 
ATOM     33  C   UNL     1      20.115 -16.352  39.005  1.00  0.00     0.039 C 
ATOM     34  C   UNL     1      17.828 -16.025  37.800  1.00  0.00     0.039 C 
ENDBRANCH  30  31
ENDBRANCH   1  30
TORSDOF 6
ENDMDL
MODEL 6
REMARK VINA RESULT:    -5.403     10.966     13.450
REMARK INTER + INTRA:          -8.434
REMARK INTER:                  -6.742
REMARK INTRA:                  -1.692
REMARK UNBOUND:                -1.294
REMARK SMILES CC(C)=CCC[C@@H](C(=O)[O-])[C@@H]1CC[C@@]2(C)C3=C(CC[C@@]12C)[C@]1(C)CC[C@@H](O)C(C)(C)[C@@H]1CC3
REMARK SMILES IDX 6 1 7 2 8 3 9 4 10 5 11 6 12 7 20 8 13 9 14 10 19 11 21 12
REMARK SMILES IDX 15 13 16 14 18 15 17 16 33 17 22 18 32 19 31 20 24 21 23 22
REMARK SMILES IDX 28 23 25 24 26 25 29 26 30 27 27 28 5 30 4 31 2 32 1 33 3 34
REMARK H PARENT 27 29
REMARK Flexibility Score: inf
ROOT
ATOM      1  C   UNL     1       9.038 -11.090  41.223  1.00  0.00     0.014 C 
ENDROOT
BRANCH   1   2
ATOM      2  C   UNL     1       8.704  -9.591  41.478  1.00  0.00     0.039 C 
BRANCH   2   3
ATOM      3  C   UNL     1       7.326  -9.393  42.061  1.00  0.00     0.045 C 
ATOM      4  O   UNL     1       6.780 -10.275  42.777  1.00  0.00    -0.550 OA
ATOM      5  O   UNL     1       6.654  -8.199  41.831  1.00  0.00    -0.550 OA
ENDBRANCH   2   3
BRANCH   2   6
ATOM      6  C   UNL     1       9.777  -8.747  42.249  1.00  0.00     0.004 C 
ATOM      7  C   UNL     1       9.377  -8.442  43.691  1.00  0.00     0.006 C 
ATOM      8  C   UNL     1      10.400  -7.417  41.663  1.00  0.00    -0.020 C 
ATOM      9  C   UNL     1      10.386  -7.413  44.156  1.00  0.00     0.012 C 
ATOM     10  C   UNL     1      10.618  -6.479  42.950  1.00  0.00    -0.006 C 
ATOM     11  C   UNL     1      11.745  -7.757  40.952  1.00  0.00     0.012 C 
ATOM     12  C   UNL     1       9.527  -6.746  40.564  1.00  0.00     0.012 C 
ATOM     13  C   UNL     1       9.530  -5.356  43.037  1.00  0.00     0.017 C 
ATOM     14  C   UNL     1      12.054  -5.875  43.066  1.00  0.00    -0.064 C 
ATOM     15  C   UNL     1      12.900  -7.891  41.929  1.00  0.00     0.032 C 
ATOM     16  C   UNL     1      13.147  -6.553  42.601  1.00  0.00    -0.064 C 
ATOM     17  C   UNL     1      12.245  -4.527  43.722  1.00  0.00     0.032 C 
ATOM     18  C   UNL     1      14.585  -5.943  42.566  1.00  0.00    -0.008 C 
ATOM     19  C   UNL     1      13.591  -4.417  44.408  1.00  0.00     0.009 C 
ATOM     20  C   UNL     1      14.735  -4.581  43.388  1.00  0.00     0.007 C 
ATOM     21  C   UNL     1      15.615  -7.013  43.076  1.00  0.00     0.014 C 
ATOM     22  C   UNL     1      14.871  -5.641  41.069  1.00  0.00     0.016 C 
ATOM     23  C   UNL     1      16.159  -4.367  44.066  1.00  0.00    -0.006 C 
ATOM     24  C   UNL     1      15.874  -6.919  44.576  1.00  0.00     0.033 C 
ATOM     25  C   UNL     1      16.529  -5.586  44.991  1.00  0.00     0.120 C 
ATOM     26  C   UNL     1      17.242  -4.126  42.973  1.00  0.00     0.014 C 
ATOM     27  C   UNL     1      16.174  -3.074  44.931  1.00  0.00     0.014 C 
BRANCH  25  28
ATOM     28  O   UNL     1      17.923  -5.765  45.065  1.00  0.00    -0.393 OA
ATOM     29  H   UNL     1      18.125  -6.092  45.979  1.00  0.00     0.210 HD
ENDBRANCH  25  28
ENDBRANCH   2   6
ENDBRANCH   1   2
BRANCH   1  30
ATOM     30  C   UNL     1       9.187 -11.423  39.728  1.00  0.00     0.028 C 
BRANCH  30  31
ATOM     31  C   UNL     1      10.285 -10.619  39.071  1.00  0.00    -0.028 C 
ATOM     32  C   UNL     1      10.082  -9.675  38.125  1.00  0.00    -0.080 C 
ATOM     33  C   UNL     1       8.700  -9.288  37.656  1.00  0.00     0.039 C 
ATOM     34  C   UNL     1      11.284  -8.965  37.554  1.00  0.00     0.039 C 
ENDBRANCH  30  31
ENDBRANCH   1  30
TORSDOF 6
ENDMDL
MODEL 7
REMARK VINA RESULT:    -5.400     10.190     13.465
REMARK INTER + INTRA:          -8.431
REMARK INTER:                  -7.241
REMARK INTRA:                  -1.190
REMARK UNBOUND:                -1.294
REMARK SMILES CC(C)=CCC[C@@H](C(=O)[O-])[C@@H]1CC[C@@]2(C)C3=C(CC[C@@]12C)[C@]1(C)CC[C@@H](O)C(C)(C)[C@@H]1CC3
REMARK SMILES IDX 6 1 7 2 8 3 9 4 10 5 11 6 12 7 20 8 13 9 14 10 19 11 21 12
REMARK SMILES IDX 15 13 16 14 18 15 17 16 33 17 22 18 32 19 31 20 24 21 23 22
REMARK SMILES IDX 28 23 25 24 26 25 29 26 30 27 27 28 5 30 4 31 2 32 1 33 3 34
REMARK H PARENT 27 29
REMARK Flexibility Score: inf
ROOT
ATOM      1  C   UNL     1      12.036  -5.235  44.798  1.00  0.00     0.014 C 
ENDROOT
BRANCH   1   2
ATOM      2  C   UNL     1      10.833  -6.140  44.402  1.00  0.00     0.039 C 
BRANCH   2   3
ATOM      3  C   UNL     1       9.523  -5.650  44.971  1.00  0.00     0.045 C 
ATOM      4  O   UNL     1       9.228  -4.425  44.983  1.00  0.00    -0.550 OA
ATOM      5  O   UNL     1       8.608  -6.570  45.464  1.00  0.00    -0.550 OA
ENDBRANCH   2   3
BRANCH   2   6
ATOM      6  C   UNL     1      10.693  -6.510  42.885  1.00  0.00     0.004 C 
ATOM      7  C   UNL     1       9.459  -5.896  42.229  1.00  0.00     0.006 C 
ATOM      8  C   UNL     1      10.792  -7.997  42.355  1.00  0.00    -0.020 C 
ATOM      9  C   UNL     1       9.361  -6.583  40.883  1.00  0.00     0.012 C 
ATOM     10  C   UNL     1       9.747  -8.055  41.135  1.00  0.00    -0.006 C 
ATOM     11  C   UNL     1      12.254  -8.272  41.887  1.00  0.00     0.012 C 
ATOM     12  C   UNL     1      10.514  -9.071  43.445  1.00  0.00     0.012 C 
ATOM     13  C   UNL     1       8.431  -8.801  41.539  1.00  0.00     0.017 C 
ATOM     14  C   UNL     1      10.338  -8.641  39.813  1.00  0.00    -0.064 C 
ATOM     15  C   UNL     1      12.527  -7.737  40.493  1.00  0.00     0.032 C 
ATOM     16  C   UNL     1      11.656  -8.473  39.491  1.00  0.00    -0.064 C 
ATOM     17  C   UNL     1       9.435  -9.389  38.860  1.00  0.00     0.032 C 
ATOM     18  C   UNL     1      12.332  -9.150  38.256  1.00  0.00    -0.008 C 
ATOM     19  C   UNL     1       9.882  -9.239  37.421  1.00  0.00     0.009 C 
ATOM     20  C   UNL     1      11.301  -9.811  37.230  1.00  0.00     0.007 C 
ATOM     21  C   UNL     1      13.244  -8.102  37.524  1.00  0.00     0.014 C 
ATOM     22  C   UNL     1      13.227 -10.278  38.839  1.00  0.00     0.016 C 
ATOM     23  C   UNL     1      11.752  -9.758  35.705  1.00  0.00    -0.006 C 
ATOM     24  C   UNL     1      12.515  -7.356  36.412  1.00  0.00     0.033 C 
ATOM     25  C   UNL     1      12.064  -8.280  35.263  1.00  0.00     0.120 C 
ATOM     26  C   UNL     1      12.976 -10.696  35.477  1.00  0.00     0.014 C 
ATOM     27  C   UNL     1      10.640 -10.324  34.776  1.00  0.00     0.014 C 
BRANCH  25  28
ATOM     28  O   UNL     1      13.032  -8.247  34.242  1.00  0.00    -0.393 OA
ATOM     29  H   UNL     1      12.634  -8.695  33.451  1.00  0.00     0.210 HD
ENDBRANCH  25  28
ENDBRANCH   2   6
ENDBRANCH   1   2
BRANCH   1  30
ATOM     30  C   UNL     1      12.671  -4.523  43.591  1.00  0.00     0.028 C 
BRANCH  30  31
ATOM     31  C   UNL     1      14.096  -4.101  43.863  1.00  0.00    -0.028 C 
ATOM     32  C   UNL     1      15.166  -4.504  43.142  1.00  0.00    -0.080 C 
ATOM     33  C   UNL     1      15.032  -5.400  41.933  1.00  0.00     0.039 C 
ATOM     34  C   UNL     1      16.531  -4.005  43.546  1.00  0.00     0.039 C 
ENDBRANCH  30  31
ENDBRANCH   1  30
TORSDOF 6
ENDMDL
MODEL 8
REMARK VINA RESULT:    -5.385      3.232      5.301
REMARK INTER + INTRA:          -8.411
REMARK INTER:                  -7.956
REMARK INTRA:                  -0.455
REMARK UNBOUND:                -1.294
REMARK SMILES CC(C)=CCC[C@@H](C(=O)[O-])[C@@H]1CC[C@@]2(C)C3=C(CC[C@@]12C)[C@]1(C)CC[C@@H](O)C(C)(C)[C@@H]1CC3
REMARK SMILES IDX 6 1 7 2 8 3 9 4 10 5 11 6 12 7 20 8 13 9 14 10 19 11 21 12
REMARK SMILES IDX 15 13 16 14 18 15 17 16 33 17 22 18 32 19 31 20 24 21 23 22
REMARK SMILES IDX 28 23 25 24 26 25 29 26 30 27 27 28 5 30 4 31 2 32 1 33 3 34
REMARK H PARENT 27 29
REMARK Flexibility Score: inf
ROOT
ATOM      1  C   UNL     1      15.557 -21.508  41.768  1.00  0.00     0.014 C 
ENDROOT
BRANCH   1   2
ATOM      2  C   UNL     1      15.911 -20.623  42.999  1.00  0.00     0.039 C 
BRANCH   2   3
ATOM      3  C   UNL     1      16.549 -21.411  44.119  1.00  0.00     0.045 C 
ATOM      4  O   UNL     1      16.893 -22.613  43.964  1.00  0.00    -0.550 OA
ATOM      5  O   UNL     1      16.791 -20.790  45.337  1.00  0.00    -0.550 OA
ENDBRANCH   2   3
BRANCH   2   6
ATOM      6  C   UNL     1      16.695 -19.295  42.717  1.00  0.00     0.004 C 
ATOM      7  C   UNL     1      15.851 -18.240  42.007  1.00  0.00     0.006 C 
ATOM      8  C   UNL     1      18.118 -19.273  42.029  1.00  0.00    -0.020 C 
ATOM      9  C   UNL     1      16.845 -17.176  41.590  1.00  0.00     0.012 C 
ATOM     10  C   UNL     1      18.108 -17.936  41.136  1.00  0.00    -0.006 C 
ATOM     11  C   UNL     1      19.216 -19.230  43.135  1.00  0.00     0.012 C 
ATOM     12  C   UNL     1      18.435 -20.552  41.203  1.00  0.00     0.012 C 
ATOM     13  C   UNL     1      17.915 -18.259  39.616  1.00  0.00     0.017 C 
ATOM     14  C   UNL     1      19.345 -17.009  41.357  1.00  0.00    -0.064 C 
ATOM     15  C   UNL     1      19.436 -17.829  43.679  1.00  0.00     0.032 C 
ATOM     16  C   UNL     1      19.968 -16.937  42.572  1.00  0.00    -0.064 C 
ATOM     17  C   UNL     1      19.853 -16.159  40.216  1.00  0.00     0.032 C 
ATOM     18  C   UNL     1      21.287 -16.136  42.815  1.00  0.00    -0.008 C 
ATOM     19  C   UNL     1      20.479 -14.870  40.705  1.00  0.00     0.009 C 
ATOM     20  C   UNL     1      21.690 -15.165  41.612  1.00  0.00     0.007 C 
ATOM     21  C   UNL     1      21.165 -15.331  44.158  1.00  0.00     0.014 C 
ATOM     22  C   UNL     1      22.402 -17.207  42.969  1.00  0.00     0.016 C 
ATOM     23  C   UNL     1      22.428 -13.826  42.057  1.00  0.00    -0.006 C 
ATOM     24  C   UNL     1      20.629 -13.918  43.956  1.00  0.00     0.033 C 
ATOM     25  C   UNL     1      21.568 -13.034  43.110  1.00  0.00     0.120 C 
ATOM     26  C   UNL     1      23.848 -14.155  42.606  1.00  0.00     0.014 C 
ATOM     27  C   UNL     1      22.681 -12.898  40.833  1.00  0.00     0.014 C 
BRANCH  25  28
ATOM     28  O   UNL     1      22.385 -12.278  43.971  1.00  0.00    -0.393 OA
ATOM     29  H   UNL     1      23.047 -11.807  43.402  1.00  0.00     0.210 HD
ENDBRANCH  25  28
ENDBRANCH   2   6
ENDBRANCH   1   2
BRANCH   1  30
ATOM     30  C   UNL     1      14.153 -22.131  41.863  1.00  0.00     0.028 C 
BRANCH  30  31
ATOM     31  C   UNL     1      13.267 -21.719  40.712  1.00  0.00    -0.028 C 
ATOM     32  C   UNL     1      11.967 -22.066  40.582  1.00  0.00    -0.080 C 
ATOM     33  C   UNL     1      11.242 -22.880  41.628  1.00  0.00     0.039 C 
ATOM     34  C   UNL     1      11.215 -21.585  39.366  1.00  0.00     0.039 C 
ENDBRANCH  30  31
ENDBRANCH   1  30
TORSDOF 6
ENDMDL
MODEL 9
REMARK VINA RESULT:    -4.690      2.944      8.229
REMARK INTER + INTRA:          -7.492
REMARK INTER:                  -6.203
REMARK INTRA:                  -1.289
REMARK UNBOUND:                -1.294
REMARK SMILES CC(C)=CCC[C@@H](C(=O)[O-])[C@@H]1CC[C@@]2(C)C3=C(CC[C@@]12C)[C@]1(C)CC[C@@H](O)C(C)(C)[C@@H]1CC3
REMARK SMILES IDX 6 1 7 2 8 3 9 4 10 5 11 6 12 7 20 8 13 9 14 10 19 11 21 12
REMARK SMILES IDX 15 13 16 14 18 15 17 16 33 17 22 18 32 19 31 20 24 21 23 22
REMARK SMILES IDX 28 23 25 24 26 25 29 26 30 27 27 28 5 30 4 31 2 32 1 33 3 34
REMARK H PARENT 27 29
REMARK Flexibility Score: inf
ROOT
ATOM      1  C   UNL     1      16.928 -19.229  41.182  1.00  0.00     0.014 C 
ENDROOT
BRANCH   1   2
ATOM      2  C   UNL     1      16.393 -20.429  42.016  1.00  0.00     0.039 C 
BRANCH   2   3
ATOM      3  C   UNL     1      17.077 -20.559  43.356  1.00  0.00     0.045 C 
ATOM      4  O   UNL     1      17.148 -21.665  43.955  1.00  0.00    -0.550 OA
ATOM      5  O   UNL     1      17.669 -19.441  43.929  1.00  0.00    -0.550 OA
ENDBRANCH   2   3
BRANCH   2   6
ATOM      6  C   UNL     1      14.836 -20.558  42.155  1.00  0.00     0.004 C 
ATOM      7  C   UNL     1      14.328 -20.207  43.551  1.00  0.00     0.006 C 
ATOM      8  C   UNL     1      14.041 -21.846  41.696  1.00  0.00    -0.020 C 
ATOM      9  C   UNL     1      12.881 -20.653  43.553  1.00  0.00     0.012 C 
ATOM     10  C   UNL     1      12.851 -21.981  42.769  1.00  0.00    -0.006 C 
ATOM     11  C   UNL     1      13.503 -21.621  40.250  1.00  0.00     0.012 C 
ATOM     12  C   UNL     1      14.921 -23.125  41.600  1.00  0.00     0.012 C 
ATOM     13  C   UNL     1      13.136 -23.121  43.805  1.00  0.00     0.017 C 
ATOM     14  C   UNL     1      11.433 -22.145  42.134  1.00  0.00    -0.064 C 
ATOM     15  C   UNL     1      12.226 -20.800  40.228  1.00  0.00     0.032 C 
ATOM     16  C   UNL     1      11.123 -21.566  40.935  1.00  0.00    -0.064 C 
ATOM     17  C   UNL     1      10.377 -22.939  42.866  1.00  0.00     0.032 C 
ATOM     18  C   UNL     1       9.772 -21.807  40.189  1.00  0.00    -0.008 C 
ATOM     19  C   UNL     1       8.981 -22.427  42.577  1.00  0.00     0.009 C 
ATOM     20  C   UNL     1       8.662 -22.543  41.072  1.00  0.00     0.007 C 
ATOM     21  C   UNL     1       9.227 -20.438  39.645  1.00  0.00     0.014 C 
ATOM     22  C   UNL     1      10.120 -22.725  38.985  1.00  0.00     0.016 C 
ATOM     23  C   UNL     1       7.164 -22.106  40.758  1.00  0.00    -0.006 C 
ATOM     24  C   UNL     1       8.285 -19.744  40.623  1.00  0.00     0.033 C 
ATOM     25  C   UNL     1       6.995 -20.546  40.886  1.00  0.00     0.120 C 
ATOM     26  C   UNL     1       6.744 -22.614  39.346  1.00  0.00     0.014 C 
ATOM     27  C   UNL     1       6.168 -22.790  41.738  1.00  0.00     0.014 C 
BRANCH  25  28
ATOM     28  O   UNL     1       5.979 -20.072  40.036  1.00  0.00    -0.393 OA
ATOM     29  H   UNL     1       5.668 -20.844  39.497  1.00  0.00     0.210 HD
ENDBRANCH  25  28
ENDBRANCH   2   6
ENDBRANCH   1   2
BRANCH   1  30
ATOM     30  C   UNL     1      15.803 -18.388  40.553  1.00  0.00     0.028 C 
BRANCH  30  31
ATOM     31  C   UNL     1      16.189 -17.841  39.199  1.00  0.00    -0.028 C 
ATOM     32  C   UNL     1      15.376 -17.823  38.119  1.00  0.00    -0.080 C 
ATOM     33  C   UNL     1      13.949 -18.316  38.176  1.00  0.00     0.039 C 
ATOM     34  C   UNL     1      15.911 -17.252  36.829  1.00  0.00     0.039 C 
ENDBRANCH  30  31
ENDBRANCH   1  30
TORSDOF 6
ENDMDL
