MODEL 1
REMARK VINA RESULT:    -3.974      0.000      0.000
REMARK INTER + INTRA:          -5.476
REMARK INTER:                  -5.135
REMARK INTRA:                  -0.341
REMARK UNBOUND:                -0.341
REMARK SMILES CCCCCCC(=O)[O-]
REMARK SMILES IDX 5 1 6 2 7 3 8 4 9 5 4 6 3 7 2 8 1 9
REMARK H PARENT
REMARK Flexibility Score: inf
ROOT
ATOM      1  C   UNL     1     -48.223 -51.269  17.573  1.00  0.00     0.006 C 
ENDROOT
BRANCH   1   2
ATOM      2  C   UNL     1     -48.553 -51.535  16.099  1.00  0.00     0.053 C 
BRANCH   2   3
ATOM      3  C   UNL     1     -49.965 -51.159  15.770  1.00  0.00     0.041 C 
ATOM      4  O   UNL     1     -50.343 -51.100  14.570  1.00  0.00    -0.550 OA
ATOM      5  O   UNL     1     -50.872 -50.903  16.791  1.00  0.00    -0.550 OA
ENDBRANCH   2   3
ENDBRANCH   1   2
BRANCH   1   6
ATOM      6  C   UNL     1     -47.324 -50.037  17.753  1.00  0.00     0.000 C 
BRANCH   6   7
ATOM      7  C   UNL     1     -48.159 -48.789  18.067  1.00  0.00    -0.000 C 
BRANCH   7   8
ATOM      8  C   UNL     1     -47.738 -47.610  17.183  1.00  0.00    -0.003 C 
ATOM      9  C   UNL     1     -47.220 -48.093  15.830  1.00  0.00     0.004 C 
ENDBRANCH   7   8
ENDBRANCH   6   7
ENDBRANCH   1   6
TORSDOF 5
ENDMDL
MODEL 2
REMARK VINA RESULT:    -3.839      1.663      2.689
REMARK INTER + INTRA:          -5.302
REMARK INTER:                  -4.991
REMARK INTRA:                  -0.312
REMARK UNBOUND:                -0.341
REMARK SMILES CCCCCCC(=O)[O-]
REMARK SMILES IDX 5 1 6 2 7 3 8 4 9 5 4 6 3 7 2 8 1 9
REMARK H PARENT
REMARK Flexibility Score: inf
ROOT
ATOM      1  C   UNL     1     -47.667 -50.338  16.350  1.00  0.00     0.006 C 
ENDROOT
BRANCH   1   2
ATOM      2  C   UNL     1     -48.622 -51.407  15.801  1.00  0.00     0.053 C 
BRANCH   2   3
ATOM      3  C   UNL     1     -49.549 -50.843  14.767  1.00  0.00     0.041 C 
ATOM      4  O   UNL     1     -50.554 -51.502  14.392  1.00  0.00    -0.550 OA
ATOM      5  O   UNL     1     -49.319 -49.577  14.244  1.00  0.00    -0.550 OA
ENDBRANCH   2   3
ENDBRANCH   1   2
BRANCH   1   6
ATOM      6  C   UNL     1     -47.671 -50.290  17.884  1.00  0.00     0.000 C 
BRANCH   6   7
ATOM      7  C   UNL     1     -48.801 -51.153  18.458  1.00  0.00    -0.000 C 
BRANCH   7   8
ATOM      8  C   UNL     1     -49.880 -50.282  19.111  1.00  0.00    -0.003 C 
ATOM      9  C   UNL     1     -51.227 -50.459  18.415  1.00  0.00     0.004 C 
ENDBRANCH   7   8
ENDBRANCH   6   7
ENDBRANCH   1   6
TORSDOF 5
ENDMDL
MODEL 3
REMARK VINA RESULT:    -3.820      1.344      2.471
REMARK INTER + INTRA:          -5.277
REMARK INTER:                  -4.939
REMARK INTRA:                  -0.338
REMARK UNBOUND:                -0.341
REMARK SMILES CCCCCCC(=O)[O-]
REMARK SMILES IDX 5 1 6 2 7 3 8 4 9 5 4 6 3 7 2 8 1 9
REMARK H PARENT
REMARK Flexibility Score: inf
ROOT
ATOM      1  C   UNL     1     -47.476 -48.716  15.857  1.00  0.00     0.006 C 
ENDROOT
BRANCH   1   2
ATOM      2  C   UNL     1     -47.825 -50.196  15.651  1.00  0.00     0.053 C 
BRANCH   2   3
ATOM      3  C   UNL     1     -49.168 -50.365  15.009  1.00  0.00     0.041 C 
ATOM      4  O   UNL     1     -49.509 -49.623  14.049  1.00  0.00    -0.550 OA
ATOM      5  O   UNL     1     -50.030 -51.361  15.450  1.00  0.00    -0.550 OA
ENDBRANCH   2   3
ENDBRANCH   1   2
BRANCH   1   6
ATOM      6  C   UNL     1     -47.418 -48.334  17.343  1.00  0.00     0.000 C 
BRANCH   6   7
ATOM      7  C   UNL     1     -47.452 -49.583  18.232  1.00  0.00    -0.000 C 
BRANCH   7   8
ATOM      8  C   UNL     1     -48.637 -49.534  19.203  1.00  0.00    -0.003 C 
ATOM      9  C   UNL     1     -49.639 -50.647  18.908  1.00  0.00     0.004 C 
ENDBRANCH   7   8
ENDBRANCH   6   7
ENDBRANCH   1   6
TORSDOF 5
ENDMDL
MODEL 4
REMARK VINA RESULT:    -3.760     15.479     16.477
REMARK INTER + INTRA:          -5.200
REMARK INTER:                  -4.965
REMARK INTRA:                  -0.235
REMARK UNBOUND:                -0.341
REMARK SMILES CCCCCCC(=O)[O-]
REMARK SMILES IDX 5 1 6 2 7 3 8 4 9 5 4 6 3 7 2 8 1 9
REMARK H PARENT
REMARK Flexibility Score: inf
ROOT
ATOM      1  C   UNL     1     -44.029 -51.487  32.664  1.00  0.00     0.006 C 
ENDROOT
BRANCH   1   2
ATOM      2  C   UNL     1     -43.838 -50.842  31.285  1.00  0.00     0.053 C 
BRANCH   2   3
ATOM      3  C   UNL     1     -42.411 -50.913  30.833  1.00  0.00     0.041 C 
ATOM      4  O   UNL     1     -41.511 -50.319  31.484  1.00  0.00    -0.550 OA
ATOM      5  O   UNL     1     -42.072 -51.661  29.713  1.00  0.00    -0.550 OA
ENDBRANCH   2   3
ENDBRANCH   1   2
BRANCH   1   6
ATOM      6  C   UNL     1     -45.382 -52.204  32.787  1.00  0.00     0.000 C 
BRANCH   6   7
ATOM      7  C   UNL     1     -46.543 -51.208  32.674  1.00  0.00    -0.000 C 
BRANCH   7   8
ATOM      8  C   UNL     1     -46.538 -50.222  33.848  1.00  0.00    -0.003 C 
ATOM      9  C   UNL     1     -46.874 -48.808  33.382  1.00  0.00     0.004 C 
ENDBRANCH   7   8
ENDBRANCH   6   7
ENDBRANCH   1   6
TORSDOF 5
ENDMDL
MODEL 5
REMARK VINA RESULT:    -3.742      2.164      2.827
REMARK INTER + INTRA:          -5.177
REMARK INTER:                  -4.982
REMARK INTRA:                  -0.195
REMARK UNBOUND:                -0.341
REMARK SMILES CCCCCCC(=O)[O-]
REMARK SMILES IDX 5 1 6 2 7 3 8 4 9 5 4 6 3 7 2 8 1 9
REMARK H PARENT
REMARK Flexibility Score: inf
ROOT
ATOM      1  C   UNL     1     -49.930 -50.781  17.099  1.00  0.00     0.006 C 
ENDROOT
BRANCH   1   2
ATOM      2  C   UNL     1     -50.221 -50.399  18.556  1.00  0.00     0.053 C 
BRANCH   2   3
ATOM      3  C   UNL     1     -51.662 -50.610  18.907  1.00  0.00     0.041 C 
ATOM      4  O   UNL     1     -52.560 -49.945  18.325  1.00  0.00    -0.550 OA
ATOM      5  O   UNL     1     -52.015 -51.563  19.854  1.00  0.00    -0.550 OA
ENDBRANCH   2   3
ENDBRANCH   1   2
BRANCH   1   6
ATOM      6  C   UNL     1     -48.502 -51.315  16.912  1.00  0.00     0.000 C 
BRANCH   6   7
ATOM      7  C   UNL     1     -47.706 -50.428  15.947  1.00  0.00    -0.000 C 
BRANCH   7   8
ATOM      8  C   UNL     1     -47.333 -49.096  16.606  1.00  0.00    -0.003 C 
ATOM      9  C   UNL     1     -47.493 -47.933  15.629  1.00  0.00     0.004 C 
ENDBRANCH   7   8
ENDBRANCH   6   7
ENDBRANCH   1   6
TORSDOF 5
ENDMDL
MODEL 6
REMARK VINA RESULT:    -3.722      2.388      3.759
REMARK INTER + INTRA:          -5.150
REMARK INTER:                  -4.760
REMARK INTRA:                  -0.390
REMARK UNBOUND:                -0.341
REMARK SMILES CCCCCCC(=O)[O-]
REMARK SMILES IDX 5 1 6 2 7 3 8 4 9 5 4 6 3 7 2 8 1 9
REMARK H PARENT
REMARK Flexibility Score: inf
ROOT
ATOM      1  C   UNL     1     -48.449 -49.497  17.876  1.00  0.00     0.006 C 
ENDROOT
BRANCH   1   2
ATOM      2  C   UNL     1     -47.482 -48.312  17.756  1.00  0.00     0.053 C 
BRANCH   2   3
ATOM      3  C   UNL     1     -47.724 -47.524  16.504  1.00  0.00     0.041 C 
ATOM      4  O   UNL     1     -47.579 -48.066  15.377  1.00  0.00    -0.550 OA
ATOM      5  O   UNL     1     -48.139 -46.201  16.585  1.00  0.00    -0.550 OA
ENDBRANCH   2   3
ENDBRANCH   1   2
BRANCH   1   6
ATOM      6  C   UNL     1     -47.748 -50.843  17.641  1.00  0.00     0.000 C 
BRANCH   6   7
ATOM      7  C   UNL     1     -48.268 -51.517  16.365  1.00  0.00    -0.000 C 
BRANCH   7   8
ATOM      8  C   UNL     1     -49.701 -51.073  16.053  1.00  0.00    -0.003 C 
ATOM      9  C   UNL     1     -49.858 -50.713  14.578  1.00  0.00     0.004 C 
ENDBRANCH   7   8
ENDBRANCH   6   7
ENDBRANCH   1   6
TORSDOF 5
ENDMDL
MODEL 7
REMARK VINA RESULT:    -3.629     14.475     15.408
REMARK INTER + INTRA:          -5.031
REMARK INTER:                  -4.767
REMARK INTRA:                  -0.264
REMARK UNBOUND:                -0.341
REMARK SMILES CCCCCCC(=O)[O-]
REMARK SMILES IDX 5 1 6 2 7 3 8 4 9 5 4 6 3 7 2 8 1 9
REMARK H PARENT
REMARK Flexibility Score: inf
ROOT
ATOM      1  C   UNL     1     -41.534 -49.092  28.943  1.00  0.00     0.006 C 
ENDROOT
BRANCH   1   2
ATOM      2  C   UNL     1     -41.222 -49.618  30.350  1.00  0.00     0.053 C 
BRANCH   2   3
ATOM      3  C   UNL     1     -41.924 -50.913  30.626  1.00  0.00     0.041 C 
ATOM      4  O   UNL     1     -42.429 -51.131  31.759  1.00  0.00    -0.550 OA
ATOM      5  O   UNL     1     -42.046 -51.865  29.622  1.00  0.00    -0.550 OA
ENDBRANCH   2   3
ENDBRANCH   1   2
BRANCH   1   6
ATOM      6  C   UNL     1     -40.261 -48.830  28.126  1.00  0.00     0.000 C 
BRANCH   6   7
ATOM      7  C   UNL     1     -39.888 -47.342  28.153  1.00  0.00    -0.000 C 
BRANCH   7   8
ATOM      8  C   UNL     1     -38.542 -47.127  28.854  1.00  0.00    -0.003 C 
ATOM      9  C   UNL     1     -37.657 -48.365  28.741  1.00  0.00     0.004 C 
ENDBRANCH   7   8
ENDBRANCH   6   7
ENDBRANCH   1   6
TORSDOF 5
ENDMDL
MODEL 8
REMARK VINA RESULT:    -3.566      1.899      3.678
REMARK INTER + INTRA:          -4.949
REMARK INTER:                  -4.678
REMARK INTRA:                  -0.272
REMARK UNBOUND:                -0.341
REMARK SMILES CCCCCCC(=O)[O-]
REMARK SMILES IDX 5 1 6 2 7 3 8 4 9 5 4 6 3 7 2 8 1 9
REMARK H PARENT
REMARK Flexibility Score: inf
ROOT
ATOM      1  C   UNL     1     -47.352 -49.569  18.109  1.00  0.00     0.006 C 
ENDROOT
BRANCH   1   2
ATOM      2  C   UNL     1     -48.465 -48.833  18.868  1.00  0.00     0.053 C 
BRANCH   2   3
ATOM      3  C   UNL     1     -49.487 -49.785  19.412  1.00  0.00     0.041 C 
ATOM      4  O   UNL     1     -49.575 -49.979  20.653  1.00  0.00    -0.550 OA
ATOM      5  O   UNL     1     -50.362 -50.432  18.549  1.00  0.00    -0.550 OA
ENDBRANCH   2   3
ENDBRANCH   1   2
BRANCH   1   6
ATOM      6  C   UNL     1     -47.500 -49.431  16.587  1.00  0.00     0.000 C 
BRANCH   6   7
ATOM      7  C   UNL     1     -47.959 -50.753  15.958  1.00  0.00    -0.000 C 
BRANCH   7   8
ATOM      8  C   UNL     1     -48.934 -50.503  14.803  1.00  0.00    -0.003 C 
ATOM      9  C   UNL     1     -50.277 -51.182  15.059  1.00  0.00     0.004 C 
ENDBRANCH   7   8
ENDBRANCH   6   7
ENDBRANCH   1   6
TORSDOF 5
ENDMDL
MODEL 9
REMARK VINA RESULT:    -3.474     14.612     15.764
REMARK INTER + INTRA:          -4.831
REMARK INTER:                  -4.386
REMARK INTRA:                  -0.445
REMARK UNBOUND:                -0.341
REMARK SMILES CCCCCCC(=O)[O-]
REMARK SMILES IDX 5 1 6 2 7 3 8 4 9 5 4 6 3 7 2 8 1 9
REMARK H PARENT
REMARK Flexibility Score: inf
ROOT
ATOM      1  C   UNL     1     -46.611 -50.222  31.501  1.00  0.00     0.006 C 
ENDROOT
BRANCH   1   2
ATOM      2  C   UNL     1     -46.575 -50.884  32.885  1.00  0.00     0.053 C 
BRANCH   2   3
ATOM      3  C   UNL     1     -45.867 -52.204  32.850  1.00  0.00     0.041 C 
ATOM      4  O   UNL     1     -45.243 -52.616  33.863  1.00  0.00    -0.550 OA
ATOM      5  O   UNL     1     -45.924 -52.993  31.708  1.00  0.00    -0.550 OA
ENDBRANCH   2   3
ENDBRANCH   1   2
BRANCH   1   6
ATOM      6  C   UNL     1     -45.250 -49.632  31.104  1.00  0.00     0.000 C 
BRANCH   6   7
ATOM      7  C   UNL     1     -44.773 -50.208  29.764  1.00  0.00    -0.000 C 
BRANCH   7   8
ATOM      8  C   UNL     1     -43.506 -51.050  29.949  1.00  0.00    -0.003 C 
ATOM      9  C   UNL     1     -42.853 -50.775  31.301  1.00  0.00     0.004 C 
ENDBRANCH   7   8
ENDBRANCH   6   7
ENDBRANCH   1   6
TORSDOF 5
ENDMDL
