MODEL 1
REMARK VINA RESULT:    -3.346      0.000      0.000
REMARK INTER + INTRA:          -5.810
REMARK INTER:                  -5.106
REMARK INTRA:                  -0.704
REMARK UNBOUND:                -0.704
REMARK SMILES CCCCCCCCCCC(=O)[O-]
REMARK SMILES IDX 7 1 8 2 9 3 10 4 11 5 12 6 13 7 6 8 5 9 4 10 3 11 2 12 1 13
REMARK H PARENT
REMARK Flexibility Score: inf
ROOT
ATOM      1  C   UNL     1     -44.568 -21.851  27.242  1.00  0.00     0.000 C 
ENDROOT
BRANCH   1   2
ATOM      2  C   UNL     1     -43.918 -22.455  28.503  1.00  0.00     0.000 C 
BRANCH   2   3
ATOM      3  C   UNL     1     -42.430 -22.820  28.356  1.00  0.00     0.006 C 
BRANCH   3   4
ATOM      4  C   UNL     1     -41.530 -22.062  29.341  1.00  0.00     0.053 C 
BRANCH   4   5
ATOM      5  C   UNL     1     -40.662 -21.087  28.611  1.00  0.00     0.041 C 
ATOM      6  O   UNL     1     -39.742 -20.478  29.219  1.00  0.00    -0.550 OA
ATOM      7  O   UNL     1     -40.900 -20.813  27.270  1.00  0.00    -0.550 OA
ENDBRANCH   4   5
ENDBRANCH   3   4
ENDBRANCH   2   3
ENDBRANCH   1   2
BRANCH   1   8
ATOM      8  C   UNL     1     -46.083 -22.099  27.106  1.00  0.00     0.000 C 
BRANCH   8   9
ATOM      9  C   UNL     1     -46.928 -21.633  28.309  1.00  0.00    -0.000 C 
BRANCH   9  10
ATOM     10  C   UNL     1     -47.896 -20.470  28.012  1.00  0.00    -0.000 C 
BRANCH  10  11
ATOM     11  C   UNL     1     -47.640 -19.731  26.682  1.00  0.00    -0.000 C 
BRANCH  11  12
ATOM     12  C   UNL     1     -46.946 -18.365  26.824  1.00  0.00    -0.003 C 
ATOM     13  C   UNL     1     -45.534 -18.351  26.241  1.00  0.00     0.004 C 
ENDBRANCH  11  12
ENDBRANCH  10  11
ENDBRANCH   9  10
ENDBRANCH   8   9
ENDBRANCH   1   8
TORSDOF 9
ENDMDL
MODEL 2
REMARK VINA RESULT:    -3.333      3.171      6.281
REMARK INTER + INTRA:          -5.792
REMARK INTER:                  -5.221
REMARK INTRA:                  -0.570
REMARK UNBOUND:                -0.704
REMARK SMILES CCCCCCCCCCC(=O)[O-]
REMARK SMILES IDX 7 1 8 2 9 3 10 4 11 5 12 6 13 7 6 8 5 9 4 10 3 11 2 12 1 13
REMARK H PARENT
REMARK Flexibility Score: inf
ROOT
ATOM      1  C   UNL     1     -43.480 -22.386  27.208  1.00  0.00     0.000 C 
ENDROOT
BRANCH   1   2
ATOM      2  C   UNL     1     -44.405 -22.499  28.436  1.00  0.00     0.000 C 
BRANCH   2   3
ATOM      3  C   UNL     1     -45.880 -22.147  28.174  1.00  0.00     0.006 C 
BRANCH   3   4
ATOM      4  C   UNL     1     -46.050 -21.033  27.133  1.00  0.00     0.053 C 
BRANCH   4   5
ATOM      5  C   UNL     1     -47.212 -20.160  27.487  1.00  0.00     0.041 C 
ATOM      6  O   UNL     1     -47.402 -19.077  26.873  1.00  0.00    -0.550 OA
ATOM      7  O   UNL     1     -48.058 -20.518  28.530  1.00  0.00    -0.550 OA
ENDBRANCH   4   5
ENDBRANCH   3   4
ENDBRANCH   2   3
ENDBRANCH   1   2
BRANCH   1   8
ATOM      8  C   UNL     1     -41.974 -22.314  27.530  1.00  0.00     0.000 C 
BRANCH   8   9
ATOM      9  C   UNL     1     -41.638 -22.030  29.007  1.00  0.00    -0.000 C 
BRANCH   9  10
ATOM     10  C   UNL     1     -40.619 -20.895  29.234  1.00  0.00    -0.000 C 
BRANCH  10  11
ATOM     11  C   UNL     1     -40.050 -20.260  27.949  1.00  0.00    -0.000 C 
BRANCH  11  12
ATOM     12  C   UNL     1     -38.523 -20.370  27.794  1.00  0.00    -0.003 C 
ATOM     13  C   UNL     1     -37.972 -21.713  28.271  1.00  0.00     0.004 C 
ENDBRANCH  11  12
ENDBRANCH  10  11
ENDBRANCH   9  10
ENDBRANCH   8   9
ENDBRANCH   1   8
TORSDOF 9
ENDMDL
MODEL 3
REMARK VINA RESULT:    -3.317      1.554      2.444
REMARK INTER + INTRA:          -5.767
REMARK INTER:                  -5.346
REMARK INTRA:                  -0.422
REMARK UNBOUND:                -0.704
REMARK SMILES CCCCCCCCCCC(=O)[O-]
REMARK SMILES IDX 7 1 8 2 9 3 10 4 11 5 12 6 13 7 6 8 5 9 4 10 3 11 2 12 1 13
REMARK H PARENT
REMARK Flexibility Score: inf
ROOT
ATOM      1  C   UNL     1     -43.314 -22.531  28.522  1.00  0.00     0.000 C 
ENDROOT
BRANCH   1   2
ATOM      2  C   UNL     1     -41.998 -22.188  29.250  1.00  0.00     0.000 C 
BRANCH   2   3
ATOM      3  C   UNL     1     -40.845 -21.743  28.333  1.00  0.00     0.006 C 
BRANCH   3   4
ATOM      4  C   UNL     1     -40.130 -20.486  28.842  1.00  0.00     0.053 C 
BRANCH   4   5
ATOM      5  C   UNL     1     -39.211 -19.946  27.792  1.00  0.00     0.041 C 
ATOM      6  O   UNL     1     -38.213 -20.616  27.417  1.00  0.00    -0.550 OA
ATOM      7  O   UNL     1     -39.429 -18.681  27.261  1.00  0.00    -0.550 OA
ENDBRANCH   4   5
ENDBRANCH   3   4
ENDBRANCH   2   3
ENDBRANCH   1   2
BRANCH   1   8
ATOM      8  C   UNL     1     -43.557 -21.756  27.213  1.00  0.00     0.000 C 
BRANCH   8   9
ATOM      9  C   UNL     1     -44.989 -21.213  27.036  1.00  0.00    -0.000 C 
BRANCH   9  10
ATOM     10  C   UNL     1     -46.061 -21.914  27.895  1.00  0.00    -0.000 C 
BRANCH  10  11
ATOM     11  C   UNL     1     -47.270 -21.035  28.276  1.00  0.00    -0.000 C 
BRANCH  11  12
ATOM     12  C   UNL     1     -47.932 -20.300  27.098  1.00  0.00    -0.003 C 
ATOM     13  C   UNL     1     -48.673 -21.241  26.149  1.00  0.00     0.004 C 
ENDBRANCH  11  12
ENDBRANCH  10  11
ENDBRANCH   9  10
ENDBRANCH   8   9
ENDBRANCH   1   8
TORSDOF 9
ENDMDL
MODEL 4
REMARK VINA RESULT:    -3.265      3.611      6.826
REMARK INTER + INTRA:          -5.688
REMARK INTER:                  -4.782
REMARK INTRA:                  -0.906
REMARK UNBOUND:                -0.704
REMARK SMILES CCCCCCCCCCC(=O)[O-]
REMARK SMILES IDX 7 1 8 2 9 3 10 4 11 5 12 6 13 7 6 8 5 9 4 10 3 11 2 12 1 13
REMARK H PARENT
REMARK Flexibility Score: inf
ROOT
ATOM      1  C   UNL     1     -41.389 -21.896  28.930  1.00  0.00     0.000 C 
ENDROOT
BRANCH   1   2
ATOM      2  C   UNL     1     -41.858 -22.036  27.468  1.00  0.00     0.000 C 
BRANCH   2   3
ATOM      3  C   UNL     1     -43.380 -21.947  27.262  1.00  0.00     0.006 C 
BRANCH   3   4
ATOM      4  C   UNL     1     -44.175 -22.298  28.526  1.00  0.00     0.053 C 
BRANCH   4   5
ATOM      5  C   UNL     1     -45.194 -23.350  28.227  1.00  0.00     0.041 C 
ATOM      6  O   UNL     1     -46.422 -23.097  28.348  1.00  0.00    -0.550 OA
ATOM      7  O   UNL     1     -44.788 -24.627  27.860  1.00  0.00    -0.550 OA
ENDBRANCH   4   5
ENDBRANCH   3   4
ENDBRANCH   2   3
ENDBRANCH   1   2
BRANCH   1   8
ATOM      8  C   UNL     1     -40.388 -20.754  29.188  1.00  0.00     0.000 C 
BRANCH   8   9
ATOM      9  C   UNL     1     -39.991 -19.942  27.938  1.00  0.00    -0.000 C 
BRANCH   9  10
ATOM     10  C   UNL     1     -38.637 -20.333  27.313  1.00  0.00    -0.000 C 
BRANCH  10  11
ATOM     11  C   UNL     1     -37.840 -21.398  28.095  1.00  0.00    -0.000 C 
BRANCH  11  12
ATOM     12  C   UNL     1     -37.812 -22.792  27.444  1.00  0.00    -0.003 C 
ATOM     13  C   UNL     1     -38.257 -23.902  28.396  1.00  0.00     0.004 C 
ENDBRANCH  11  12
ENDBRANCH  10  11
ENDBRANCH   9  10
ENDBRANCH   8   9
ENDBRANCH   1   8
TORSDOF 9
ENDMDL
MODEL 5
REMARK VINA RESULT:    -3.174      3.263      7.001
REMARK INTER + INTRA:          -5.548
REMARK INTER:                  -4.459
REMARK INTRA:                  -1.089
REMARK UNBOUND:                -0.704
REMARK SMILES CCCCCCCCCCC(=O)[O-]
REMARK SMILES IDX 7 1 8 2 9 3 10 4 11 5 12 6 13 7 6 8 5 9 4 10 3 11 2 12 1 13
REMARK H PARENT
REMARK Flexibility Score: inf
ROOT
ATOM      1  C   UNL     1     -40.391 -20.558  27.959  1.00  0.00     0.000 C 
ENDROOT
BRANCH   1   2
ATOM      2  C   UNL     1     -40.735 -21.238  29.299  1.00  0.00     0.000 C 
BRANCH   2   3
ATOM      3  C   UNL     1     -41.926 -22.210  29.248  1.00  0.00     0.006 C 
BRANCH   3   4
ATOM      4  C   UNL     1     -42.502 -22.375  27.836  1.00  0.00     0.053 C 
BRANCH   4   5
ATOM      5  C   UNL     1     -43.966 -22.070  27.830  1.00  0.00     0.041 C 
ATOM      6  O   UNL     1     -44.749 -22.703  28.587  1.00  0.00    -0.550 OA
ATOM      7  O   UNL     1     -44.475 -21.120  26.953  1.00  0.00    -0.550 OA
ENDBRANCH   4   5
ENDBRANCH   3   4
ENDBRANCH   2   3
ENDBRANCH   1   2
BRANCH   1   8
ATOM      8  C   UNL     1     -38.980 -19.944  27.882  1.00  0.00     0.000 C 
BRANCH   8   9
ATOM      9  C   UNL     1     -37.833 -20.965  27.748  1.00  0.00    -0.000 C 
BRANCH   9  10
ATOM     10  C   UNL     1     -38.068 -22.073  26.702  1.00  0.00    -0.000 C 
BRANCH  10  11
ATOM     11  C   UNL     1     -37.678 -23.494  27.156  1.00  0.00    -0.000 C 
BRANCH  11  12
ATOM     12  C   UNL     1     -38.280 -23.931  28.503  1.00  0.00    -0.003 C 
ATOM     13  C   UNL     1     -39.525 -24.802  28.344  1.00  0.00     0.004 C 
ENDBRANCH  11  12
ENDBRANCH  10  11
ENDBRANCH   9  10
ENDBRANCH   8   9
ENDBRANCH   1   8
TORSDOF 9
ENDMDL
MODEL 6
REMARK VINA RESULT:    -3.171      3.291      5.932
REMARK INTER + INTRA:          -5.544
REMARK INTER:                  -4.898
REMARK INTRA:                  -0.646
REMARK UNBOUND:                -0.704
REMARK SMILES CCCCCCCCCCC(=O)[O-]
REMARK SMILES IDX 7 1 8 2 9 3 10 4 11 5 12 6 13 7 6 8 5 9 4 10 3 11 2 12 1 13
REMARK H PARENT
REMARK Flexibility Score: inf
ROOT
ATOM      1  C   UNL     1     -43.154 -22.051  26.846  1.00  0.00     0.000 C 
ENDROOT
BRANCH   1   2
ATOM      2  C   UNL     1     -43.484 -20.621  26.373  1.00  0.00     0.000 C 
BRANCH   2   3
ATOM      3  C   UNL     1     -44.984 -20.280  26.331  1.00  0.00     0.006 C 
BRANCH   3   4
ATOM      4  C   UNL     1     -45.251 -18.775  26.211  1.00  0.00     0.053 C 
BRANCH   4   5
ATOM      5  C   UNL     1     -46.601 -18.438  26.760  1.00  0.00     0.041 C 
ATOM      6  O   UNL     1     -46.920 -17.237  26.969  1.00  0.00    -0.550 OA
ATOM      7  O   UNL     1     -47.491 -19.453  27.088  1.00  0.00    -0.550 OA
ENDBRANCH   4   5
ENDBRANCH   3   4
ENDBRANCH   2   3
ENDBRANCH   1   2
BRANCH   1   8
ATOM      8  C   UNL     1     -43.392 -22.314  28.346  1.00  0.00     0.000 C 
BRANCH   8   9
ATOM      9  C   UNL     1     -42.127 -22.249  29.225  1.00  0.00    -0.000 C 
BRANCH   9  10
ATOM     10  C   UNL     1     -40.829 -21.896  28.472  1.00  0.00    -0.000 C 
BRANCH  10  11
ATOM     11  C   UNL     1     -40.155 -20.580  28.914  1.00  0.00    -0.000 C 
BRANCH  11  12
ATOM     12  C   UNL     1     -39.340 -19.871  27.819  1.00  0.00    -0.003 C 
ATOM     13  C   UNL     1     -40.186 -18.932  26.960  1.00  0.00     0.004 C 
ENDBRANCH  11  12
ENDBRANCH  10  11
ENDBRANCH   9  10
ENDBRANCH   8   9
ENDBRANCH   1   8
TORSDOF 9
ENDMDL
MODEL 7
REMARK VINA RESULT:    -3.152      3.410      5.916
REMARK INTER + INTRA:          -5.514
REMARK INTER:                  -4.679
REMARK INTRA:                  -0.836
REMARK UNBOUND:                -0.704
REMARK SMILES CCCCCCCCCCC(=O)[O-]
REMARK SMILES IDX 7 1 8 2 9 3 10 4 11 5 12 6 13 7 6 8 5 9 4 10 3 11 2 12 1 13
REMARK H PARENT
REMARK Flexibility Score: inf
ROOT
ATOM      1  C   UNL     1     -41.656 -22.354  26.598  1.00  0.00     0.000 C 
ENDROOT
BRANCH   1   2
ATOM      2  C   UNL     1     -42.693 -21.218  26.708  1.00  0.00     0.000 C 
BRANCH   2   3
ATOM      3  C   UNL     1     -44.152 -21.682  26.859  1.00  0.00     0.006 C 
BRANCH   3   4
ATOM      4  C   UNL     1     -44.455 -22.252  28.250  1.00  0.00     0.053 C 
BRANCH   4   5
ATOM      5  C   UNL     1     -45.907 -22.589  28.371  1.00  0.00     0.041 C 
ATOM      6  O   UNL     1     -46.607 -22.762  27.338  1.00  0.00    -0.550 OA
ATOM      7  O   UNL     1     -46.501 -22.665  29.625  1.00  0.00    -0.550 OA
ENDBRANCH   4   5
ENDBRANCH   3   4
ENDBRANCH   2   3
ENDBRANCH   1   2
BRANCH   1   8
ATOM      8  C   UNL     1     -40.690 -22.473  27.793  1.00  0.00     0.000 C 
BRANCH   8   9
ATOM      9  C   UNL     1     -40.875 -21.405  28.888  1.00  0.00    -0.000 C 
BRANCH   9  10
ATOM     10  C   UNL     1     -39.728 -20.381  28.998  1.00  0.00    -0.000 C 
BRANCH  10  11
ATOM     11  C   UNL     1     -39.122 -19.932  27.652  1.00  0.00    -0.000 C 
BRANCH  11  12
ATOM     12  C   UNL     1     -39.831 -18.738  26.989  1.00  0.00    -0.003 C 
ATOM     13  C   UNL     1     -39.371 -18.495  25.552  1.00  0.00     0.004 C 
ENDBRANCH  11  12
ENDBRANCH  10  11
ENDBRANCH   9  10
ENDBRANCH   8   9
ENDBRANCH   1   8
TORSDOF 9
ENDMDL
MODEL 8
REMARK VINA RESULT:    -3.117      1.905      3.723
REMARK INTER + INTRA:          -5.461
REMARK INTER:                  -5.238
REMARK INTRA:                  -0.222
REMARK UNBOUND:                -0.704
REMARK SMILES CCCCCCCCCCC(=O)[O-]
REMARK SMILES IDX 7 1 8 2 9 3 10 4 11 5 12 6 13 7 6 8 5 9 4 10 3 11 2 12 1 13
REMARK H PARENT
REMARK Flexibility Score: inf
ROOT
ATOM      1  C   UNL     1     -40.728 -22.031  28.490  1.00  0.00     0.000 C 
ENDROOT
BRANCH   1   2
ATOM      2  C   UNL     1     -40.071 -20.709  28.936  1.00  0.00     0.000 C 
BRANCH   2   3
ATOM      3  C   UNL     1     -38.810 -20.311  28.149  1.00  0.00     0.006 C 
BRANCH   3   4
ATOM      4  C   UNL     1     -39.030 -20.311  26.631  1.00  0.00     0.053 C 
BRANCH   4   5
ATOM      5  C   UNL     1     -39.587 -18.996  26.184  1.00  0.00     0.041 C 
ATOM      6  O   UNL     1     -39.715 -18.049  27.005  1.00  0.00    -0.550 OA
ATOM      7  O   UNL     1     -40.009 -18.830  24.870  1.00  0.00    -0.550 OA
ENDBRANCH   4   5
ENDBRANCH   3   4
ENDBRANCH   2   3
ENDBRANCH   1   2
BRANCH   1   8
ATOM      8  C   UNL     1     -42.163 -22.253  29.004  1.00  0.00     0.000 C 
BRANCH   8   9
ATOM      9  C   UNL     1     -43.198 -22.599  27.915  1.00  0.00    -0.000 C 
BRANCH   9  10
ATOM     10  C   UNL     1     -44.669 -22.517  28.367  1.00  0.00    -0.000 C 
BRANCH  10  11
ATOM     11  C   UNL     1     -45.552 -21.554  27.548  1.00  0.00    -0.000 C 
BRANCH  11  12
ATOM     12  C   UNL     1     -46.982 -21.371  28.085  1.00  0.00    -0.003 C 
ATOM     13  C   UNL     1     -47.630 -20.067  27.622  1.00  0.00     0.004 C 
ENDBRANCH  11  12
ENDBRANCH  10  11
ENDBRANCH   9  10
ENDBRANCH   8   9
ENDBRANCH   1   8
TORSDOF 9
ENDMDL
MODEL 9
REMARK VINA RESULT:    -3.078      3.418      6.204
REMARK INTER + INTRA:          -5.401
REMARK INTER:                  -4.159
REMARK INTRA:                  -1.242
REMARK UNBOUND:                -0.704
REMARK SMILES CCCCCCCCCCC(=O)[O-]
REMARK SMILES IDX 7 1 8 2 9 3 10 4 11 5 12 6 13 7 6 8 5 9 4 10 3 11 2 12 1 13
REMARK H PARENT
REMARK Flexibility Score: inf
ROOT
ATOM      1  C   UNL     1     -40.465 -23.641  27.179  1.00  0.00     0.000 C 
ENDROOT
BRANCH   1   2
ATOM      2  C   UNL     1     -40.946 -23.645  28.644  1.00  0.00     0.000 C 
BRANCH   2   3
ATOM      3  C   UNL     1     -41.943 -22.529  29.004  1.00  0.00     0.006 C 
BRANCH   3   4
ATOM      4  C   UNL     1     -42.594 -21.891  27.771  1.00  0.00     0.053 C 
BRANCH   4   5
ATOM      5  C   UNL     1     -44.010 -22.351  27.631  1.00  0.00     0.041 C 
ATOM      6  O   UNL     1     -44.798 -22.289  28.612  1.00  0.00    -0.550 OA
ATOM      7  O   UNL     1     -44.448 -22.896  26.430  1.00  0.00    -0.550 OA
ENDBRANCH   4   5
ENDBRANCH   3   4
ENDBRANCH   2   3
ENDBRANCH   1   2
BRANCH   1   8
ATOM      8  C   UNL     1     -38.942 -23.493  26.992  1.00  0.00     0.000 C 
BRANCH   8   9
ATOM      9  C   UNL     1     -38.196 -22.884  28.196  1.00  0.00    -0.000 C 
BRANCH   9  10
ATOM     10  C   UNL     1     -37.892 -21.377  28.076  1.00  0.00    -0.000 C 
BRANCH  10  11
ATOM     11  C   UNL     1     -39.066 -20.443  28.434  1.00  0.00    -0.000 C 
BRANCH  11  12
ATOM     12  C   UNL     1     -39.404 -19.390  27.364  1.00  0.00    -0.003 C 
ATOM     13  C   UNL     1     -39.586 -19.992  25.972  1.00  0.00     0.004 C 
ENDBRANCH  11  12
ENDBRANCH  10  11
ENDBRANCH   9  10
ENDBRANCH   8   9
ENDBRANCH   1   8
TORSDOF 9
ENDMDL
