MODEL 1
REMARK VINA RESULT:    -5.453      0.000      0.000
REMARK INTER + INTRA:          -6.163
REMARK INTER:                  -5.931
REMARK INTRA:                  -0.232
REMARK UNBOUND:                -0.232
REMARK SMILES O=C([O-])c1ccccc1O
REMARK SMILES IDX 4 1 9 2 5 3 8 4 6 5 7 6 2 7 1 8 3 9 10 10
REMARK H PARENT 10 11
REMARK Flexibility Score: inf
ROOT
ATOM      1  C   UNL     1      16.947  -3.619  17.140  1.00  0.00     0.039 A 
ATOM      2  C   UNL     1      15.777  -2.852  17.360  1.00  0.00     0.124 A 
ATOM      3  C   UNL     1      16.849  -4.803  16.385  1.00  0.00     0.014 A 
ATOM      4  C   UNL     1      14.550  -3.279  16.829  1.00  0.00     0.047 A 
ATOM      5  C   UNL     1      15.622  -5.217  15.863  1.00  0.00     0.001 A 
ATOM      6  C   UNL     1      14.474  -4.456  16.084  1.00  0.00     0.004 A 
ENDROOT
BRANCH   1   7
ATOM      7  C   UNL     1      18.269  -3.210  17.680  1.00  0.00     0.075 C 
ATOM      8  O   UNL     1      19.245  -2.994  16.914  1.00  0.00    -0.545 OA
ATOM      9  O   UNL     1      18.449  -3.059  19.049  1.00  0.00    -0.545 OA
ENDBRANCH   1   7
BRANCH   2  10
ATOM     10  O   UNL     1      15.826  -1.671  18.101  1.00  0.00    -0.507 OA
ATOM     11  H   UNL     1      15.189  -0.904  17.924  1.00  0.00     0.293 HD
ENDBRANCH   2  10
TORSDOF 2
ENDMDL
MODEL 2
REMARK VINA RESULT:    -5.325      6.525      7.835
REMARK INTER + INTRA:          -6.024
REMARK INTER:                  -5.781
REMARK INTRA:                  -0.244
REMARK UNBOUND:                -0.232
REMARK SMILES O=C([O-])c1ccccc1O
REMARK SMILES IDX 4 1 9 2 5 3 8 4 6 5 7 6 2 7 1 8 3 9 10 10
REMARK H PARENT 10 11
REMARK Flexibility Score: inf
ROOT
ATOM      1  C   UNL     1      14.335  -5.534  10.963  1.00  0.00     0.039 A 
ATOM      2  C   UNL     1      15.580  -5.411  10.299  1.00  0.00     0.124 A 
ATOM      3  C   UNL     1      14.316  -6.024  12.283  1.00  0.00     0.014 A 
ATOM      4  C   UNL     1      16.764  -5.775  10.960  1.00  0.00     0.047 A 
ATOM      5  C   UNL     1      15.501  -6.383  12.928  1.00  0.00     0.001 A 
ATOM      6  C   UNL     1      16.723  -6.259  12.268  1.00  0.00     0.004 A 
ENDROOT
BRANCH   1   7
ATOM      7  C   UNL     1      13.054  -5.162  10.309  1.00  0.00     0.075 C 
ATOM      8  O   UNL     1      12.277  -4.322  10.833  1.00  0.00    -0.545 OA
ATOM      9  O   UNL     1      12.692  -5.741   9.099  1.00  0.00    -0.545 OA
ENDBRANCH   1   7
BRANCH   2  10
ATOM     10  O   UNL     1      15.647  -4.929   8.992  1.00  0.00    -0.507 OA
ATOM     11  H   UNL     1      14.930  -4.324   8.610  1.00  0.00     0.293 HD
ENDBRANCH   2  10
TORSDOF 2
ENDMDL
MODEL 3
REMARK VINA RESULT:    -5.161      1.049      2.196
REMARK INTER + INTRA:          -5.846
REMARK INTER:                  -5.599
REMARK INTRA:                  -0.247
REMARK UNBOUND:                -0.232
REMARK SMILES O=C([O-])c1ccccc1O
REMARK SMILES IDX 4 1 9 2 5 3 8 4 6 5 7 6 2 7 1 8 3 9 10 10
REMARK H PARENT 10 11
REMARK Flexibility Score: inf
ROOT
ATOM      1  C   UNL     1      16.739  -3.710  17.043  1.00  0.00     0.039 A 
ATOM      2  C   UNL     1      16.601  -4.871  16.244  1.00  0.00     0.124 A 
ATOM      3  C   UNL     1      15.587  -2.971  17.371  1.00  0.00     0.014 A 
ATOM      4  C   UNL     1      15.330  -5.263  15.795  1.00  0.00     0.047 A 
ATOM      5  C   UNL     1      14.328  -3.373  16.918  1.00  0.00     0.001 A 
ATOM      6  C   UNL     1      14.200  -4.517  16.131  1.00  0.00     0.004 A 
ENDROOT
BRANCH   1   7
ATOM      7  C   UNL     1      18.061  -3.253  17.543  1.00  0.00     0.075 C 
ATOM      8  O   UNL     1      19.022  -3.058  16.754  1.00  0.00    -0.545 OA
ATOM      9  O   UNL     1      18.258  -3.032  18.901  1.00  0.00    -0.545 OA
ENDBRANCH   1   7
BRANCH   2  10
ATOM     10  O   UNL     1      17.715  -5.635  15.895  1.00  0.00    -0.507 OA
ATOM     11  H   UNL     1      18.031  -5.707  14.936  1.00  0.00     0.293 HD
ENDBRANCH   2  10
TORSDOF 2
ENDMDL
MODEL 4
REMARK VINA RESULT:    -5.049      2.460      4.196
REMARK INTER + INTRA:          -5.724
REMARK INTER:                  -5.482
REMARK INTRA:                  -0.242
REMARK UNBOUND:                -0.232
REMARK SMILES O=C([O-])c1ccccc1O
REMARK SMILES IDX 4 1 9 2 5 3 8 4 6 5 7 6 2 7 1 8 3 9 10 10
REMARK H PARENT 10 11
REMARK Flexibility Score: inf
ROOT
ATOM      1  C   UNL     1      15.436  -3.467  16.681  1.00  0.00     0.039 A 
ATOM      2  C   UNL     1      16.513  -4.225  16.160  1.00  0.00     0.124 A 
ATOM      3  C   UNL     1      15.648  -2.692  17.837  1.00  0.00     0.014 A 
ATOM      4  C   UNL     1      17.764  -4.192  16.798  1.00  0.00     0.047 A 
ATOM      5  C   UNL     1      16.897  -2.669  18.462  1.00  0.00     0.001 A 
ATOM      6  C   UNL     1      17.953  -3.418  17.942  1.00  0.00     0.004 A 
ENDROOT
BRANCH   1   7
ATOM      7  C   UNL     1      14.094  -3.468  16.044  1.00  0.00     0.075 C 
ATOM      8  O   UNL     1      13.066  -3.793  16.695  1.00  0.00    -0.545 OA
ATOM      9  O   UNL     1      13.952  -3.107  14.710  1.00  0.00    -0.545 OA
ENDBRANCH   1   7
BRANCH   2  10
ATOM     10  O   UNL     1      16.350  -5.006  15.016  1.00  0.00    -0.507 OA
ATOM     11  H   UNL     1      16.768  -5.925  14.935  1.00  0.00     0.293 HD
ENDBRANCH   2  10
TORSDOF 2
ENDMDL
MODEL 5
REMARK VINA RESULT:    -5.042      6.320      7.553
REMARK INTER + INTRA:          -5.716
REMARK INTER:                  -5.476
REMARK INTRA:                  -0.240
REMARK UNBOUND:                -0.232
REMARK SMILES O=C([O-])c1ccccc1O
REMARK SMILES IDX 4 1 9 2 5 3 8 4 6 5 7 6 2 7 1 8 3 9 10 10
REMARK H PARENT 10 11
REMARK Flexibility Score: inf
ROOT
ATOM      1  C   UNL     1      14.317  -5.589  10.943  1.00  0.00     0.039 A 
ATOM      2  C   UNL     1      14.232  -6.007  12.294  1.00  0.00     0.124 A 
ATOM      3  C   UNL     1      15.586  -5.504  10.338  1.00  0.00     0.014 A 
ATOM      4  C   UNL     1      15.401  -6.327  13.002  1.00  0.00     0.047 A 
ATOM      5  C   UNL     1      16.741  -5.825  11.055  1.00  0.00     0.001 A 
ATOM      6  C   UNL     1      16.649  -6.235  12.384  1.00  0.00     0.004 A 
ENDROOT
BRANCH   1   7
ATOM      7  C   UNL     1      13.111  -5.240  10.151  1.00  0.00     0.075 C 
ATOM      8  O   UNL     1      12.322  -4.336  10.533  1.00  0.00    -0.545 OA
ATOM      9  O   UNL     1      12.832  -5.910   8.966  1.00  0.00    -0.545 OA
ENDBRANCH   1   7
BRANCH   2  10
ATOM     10  O   UNL     1      12.997  -6.106  12.934  1.00  0.00    -0.507 OA
ATOM     11  H   UNL     1      12.145  -6.300  12.420  1.00  0.00     0.293 HD
ENDBRANCH   2  10
TORSDOF 2
ENDMDL
MODEL 6
REMARK VINA RESULT:    -4.962      2.554      3.444
REMARK INTER + INTRA:          -5.630
REMARK INTER:                  -5.375
REMARK INTRA:                  -0.254
REMARK UNBOUND:                -0.232
REMARK SMILES O=C([O-])c1ccccc1O
REMARK SMILES IDX 4 1 9 2 5 3 8 4 6 5 7 6 2 7 1 8 3 9 10 10
REMARK H PARENT 10 11
REMARK Flexibility Score: inf
ROOT
ATOM      1  C   UNL     1      16.360  -4.068  16.092  1.00  0.00     0.039 A 
ATOM      2  C   UNL     1      15.440  -3.214  16.748  1.00  0.00     0.124 A 
ATOM      3  C   UNL     1      17.634  -4.257  16.660  1.00  0.00     0.014 A 
ATOM      4  C   UNL     1      15.808  -2.575  17.943  1.00  0.00     0.047 A 
ATOM      5  C   UNL     1      17.987  -3.615  17.849  1.00  0.00     0.001 A 
ATOM      6  C   UNL     1      17.076  -2.776  18.489  1.00  0.00     0.004 A 
ENDROOT
BRANCH   1   7
ATOM      7  C   UNL     1      16.019  -4.766  14.826  1.00  0.00     0.075 C 
ATOM      8  O   UNL     1      16.247  -5.996  14.681  1.00  0.00    -0.545 OA
ATOM      9  O   UNL     1      15.439  -4.067  13.774  1.00  0.00    -0.545 OA
ENDBRANCH   1   7
BRANCH   2  10
ATOM     10  O   UNL     1      14.166  -2.997  16.222  1.00  0.00    -0.507 OA
ATOM     11  H   UNL     1      13.864  -2.079  15.920  1.00  0.00     0.293 HD
ENDBRANCH   2  10
TORSDOF 2
ENDMDL
MODEL 7
REMARK VINA RESULT:    -4.946      5.441      6.282
REMARK INTER + INTRA:          -5.611
REMARK INTER:                  -5.357
REMARK INTRA:                  -0.255
REMARK UNBOUND:                -0.232
REMARK SMILES O=C([O-])c1ccccc1O
REMARK SMILES IDX 4 1 9 2 5 3 8 4 6 5 7 6 2 7 1 8 3 9 10 10
REMARK H PARENT 10 11
REMARK Flexibility Score: inf
ROOT
ATOM      1  C   UNL     1      15.849  -5.541  11.333  1.00  0.00     0.039 A 
ATOM      2  C   UNL     1      14.639  -5.528  12.069  1.00  0.00     0.124 A 
ATOM      3  C   UNL     1      15.787  -5.585   9.927  1.00  0.00     0.014 A 
ATOM      4  C   UNL     1      13.409  -5.558  11.393  1.00  0.00     0.047 A 
ATOM      5  C   UNL     1      14.556  -5.615   9.268  1.00  0.00     0.001 A 
ATOM      6  C   UNL     1      13.369  -5.602  10.000  1.00  0.00     0.004 A 
ENDROOT
BRANCH   1   7
ATOM      7  C   UNL     1      17.175  -5.510  12.000  1.00  0.00     0.075 C 
ATOM      8  O   UNL     1      18.099  -6.288  11.645  1.00  0.00    -0.545 OA
ATOM      9  O   UNL     1      17.419  -4.614  13.034  1.00  0.00    -0.545 OA
ENDBRANCH   1   7
BRANCH   2  10
ATOM     10  O   UNL     1      14.652  -5.484  13.463  1.00  0.00    -0.507 OA
ATOM     11  H   UNL     1      14.004  -4.905  13.984  1.00  0.00     0.293 HD
ENDBRANCH   2  10
TORSDOF 2
ENDMDL
MODEL 8
REMARK VINA RESULT:    -4.911      5.461      6.584
REMARK INTER + INTRA:          -5.573
REMARK INTER:                  -5.324
REMARK INTRA:                  -0.250
REMARK UNBOUND:                -0.232
REMARK SMILES O=C([O-])c1ccccc1O
REMARK SMILES IDX 4 1 9 2 5 3 8 4 6 5 7 6 2 7 1 8 3 9 10 10
REMARK H PARENT 10 11
REMARK Flexibility Score: inf
ROOT
ATOM      1  C   UNL     1      14.966  -5.571  11.903  1.00  0.00     0.039 A 
ATOM      2  C   UNL     1      15.994  -5.522  10.930  1.00  0.00     0.124 A 
ATOM      3  C   UNL     1      13.628  -5.657  11.471  1.00  0.00     0.014 A 
ATOM      4  C   UNL     1      15.668  -5.559   9.565  1.00  0.00     0.047 A 
ATOM      5  C   UNL     1      13.318  -5.692  10.110  1.00  0.00     0.001 A 
ATOM      6  C   UNL     1      14.337  -5.644   9.159  1.00  0.00     0.004 A 
ENDROOT
BRANCH   1   7
ATOM      7  C   UNL     1      15.257  -5.536  13.358  1.00  0.00     0.075 C 
ATOM      8  O   UNL     1      16.088  -4.718  13.835  1.00  0.00    -0.545 OA
ATOM      9  O   UNL     1      14.613  -6.411  14.224  1.00  0.00    -0.545 OA
ENDBRANCH   1   7
BRANCH   2  10
ATOM     10  O   UNL     1      17.333  -5.438  11.311  1.00  0.00    -0.507 OA
ATOM     11  H   UNL     1      18.062  -5.928  10.807  1.00  0.00     0.293 HD
ENDBRANCH   2  10
TORSDOF 2
ENDMDL
MODEL 9
REMARK VINA RESULT:    -4.895      3.013      4.247
REMARK INTER + INTRA:          -5.556
REMARK INTER:                  -5.318
REMARK INTRA:                  -0.238
REMARK UNBOUND:                -0.232
REMARK SMILES O=C([O-])c1ccccc1O
REMARK SMILES IDX 4 1 9 2 5 3 8 4 6 5 7 6 2 7 1 8 3 9 10 10
REMARK H PARENT 10 11
REMARK Flexibility Score: inf
ROOT
ATOM      1  C   UNL     1      15.438  -5.404  15.942  1.00  0.00     0.039 A 
ATOM      2  C   UNL     1      16.724  -4.940  16.311  1.00  0.00     0.124 A 
ATOM      3  C   UNL     1      14.316  -4.614  16.258  1.00  0.00     0.014 A 
ATOM      4  C   UNL     1      16.860  -3.713  16.979  1.00  0.00     0.047 A 
ATOM      5  C   UNL     1      14.466  -3.396  16.924  1.00  0.00     0.001 A 
ATOM      6  C   UNL     1      15.736  -2.946  17.284  1.00  0.00     0.004 A 
ENDROOT
BRANCH   1   7
ATOM      7  C   UNL     1      15.241  -6.694  15.233  1.00  0.00     0.075 C 
ATOM      8  O   UNL     1      14.509  -7.596  15.718  1.00  0.00    -0.545 OA
ATOM      9  O   UNL     1      15.866  -6.926  14.014  1.00  0.00    -0.545 OA
ENDBRANCH   1   7
BRANCH   2  10
ATOM     10  O   UNL     1      17.865  -5.688  16.017  1.00  0.00    -0.507 OA
ATOM     11  H   UNL     1      18.711  -5.254  15.669  1.00  0.00     0.293 HD
ENDBRANCH   2  10
TORSDOF 2
ENDMDL
