MODEL 1
REMARK VINA RESULT:    -3.396      0.000      0.000
REMARK INTER + INTRA:          -1.077
REMARK INTER:                  -4.289
REMARK INTRA:                   3.212
REMARK UNBOUND:                 3.212
REMARK SMILES C=C1CC[C@H]2[C@H]([C@H]3[C@@H]1CC[C@@]3(C)O)C2(C)C
REMARK SMILES IDX 2 1 1 2 8 3 7 4 11 5 9 6 10 7 12 8 6 9 15 10 14 11 5 12
REMARK SMILES IDX 16 13 13 15 3 17 4 18
REMARK H PARENT 13 16
REMARK Flexibility Score: 90.00
ROOT
ATOM      1  C   UNL     1       0.497 -13.260   9.255  1.00  0.00    -0.074 C 
ATOM      2  C   UNL     1      -0.471 -12.476   9.755  1.00  0.00     0.008 C 
ENDROOT
BRANCH   1   3
ATOM      3  C   UNL     1       0.952 -14.505  10.047  1.00  0.00     0.021 C 
ATOM      4  C   UNL     1       2.432 -14.536  10.525  1.00  0.00     0.032 C 
ATOM      5  C   UNL     1       2.734 -16.044  10.696  1.00  0.00     0.066 C 
ATOM      6  C   UNL     1       0.716 -15.822   9.292  1.00  0.00     0.011 C 
ATOM      7  C   UNL     1       1.913 -16.727   9.592  1.00  0.00     0.036 C 
ATOM      8  C   UNL     1       2.284 -16.552  12.085  1.00  0.00     0.042 C 
BRANCH   4   9
ATOM      9  C   UNL     1       3.365 -13.905   9.466  1.00  0.00     0.005 C 
ATOM     10  C   UNL     1       5.153 -12.888  11.099  1.00  0.00     0.011 C 
ATOM     11  C   UNL     1       4.562 -12.981   9.687  1.00  0.00    -0.029 C 
ATOM     12  C   UNL     1       3.173 -12.369   9.505  1.00  0.00    -0.001 CG0
ATOM     13  C   UNL     1       5.538 -12.823   8.516  1.00  0.00     0.011 C 
ATOM     14  G   UNL     1       2.469 -11.963   8.202  1.00  0.00     0.000 G0
ENDBRANCH   4   9
BRANCH   5  15
ATOM     15  O   UNL     1       4.100 -16.335  10.515  1.00  0.00    -0.390 OA
ATOM     16  H   UNL     1       4.158 -17.172   9.983  1.00  0.00     0.211 HD
ENDBRANCH   5  15
ENDBRANCH   1   3
BRANCH   1  17
ATOM     17  C   UNL     1       1.186 -12.830   7.957  1.00  0.00     0.031 C 
BRANCH  17  18
ATOM     18  C   UNL     1       2.457 -11.974   8.200  1.00  0.00     0.009 CG0
ATOM     19  G   UNL     1       3.153 -12.370   9.511  1.00  0.00     0.000 G0
ENDBRANCH  17  18
ENDBRANCH   1  17
TORSDOF 1
ENDMDL
MODEL 2
REMARK VINA RESULT:    -3.224      2.185      4.002
REMARK INTER + INTRA:          -0.860
REMARK INTER:                  -4.013
REMARK INTRA:                   3.153
REMARK UNBOUND:                 3.212
REMARK SMILES C=C1CC[C@H]2[C@H]([C@H]3[C@@H]1CC[C@@]3(C)O)C2(C)C
REMARK SMILES IDX 2 1 1 2 8 3 7 4 11 5 9 6 10 7 12 8 6 9 15 10 14 11 5 12
REMARK SMILES IDX 16 13 13 15 3 17 4 18
REMARK H PARENT 13 16
REMARK Flexibility Score: 90.00
ROOT
ATOM      1  C   UNL     1       1.332 -15.639   9.850  1.00  0.00    -0.074 C 
ATOM      2  C   UNL     1       0.869 -16.703   9.173  1.00  0.00     0.008 C 
ENDROOT
BRANCH   1   3
ATOM      3  C   UNL     1       1.842 -14.407   9.073  1.00  0.00     0.021 C 
ATOM      4  C   UNL     1       3.346 -14.042   9.237  1.00  0.00     0.032 C 
ATOM      5  C   UNL     1       3.398 -12.532   8.897  1.00  0.00     0.066 C 
ATOM      6  C   UNL     1       1.052 -13.127   9.381  1.00  0.00     0.011 C 
ATOM      7  C   UNL     1       2.061 -11.977   9.411  1.00  0.00     0.036 C 
ATOM      8  C   UNL     1       3.519 -12.304   7.374  1.00  0.00     0.042 C 
BRANCH   4   9
ATOM      9  C   UNL     1       3.818 -14.296  10.687  1.00  0.00     0.005 C 
ATOM     10  C   UNL     1       6.286 -15.022  10.156  1.00  0.00     0.011 C 
ATOM     11  C   UNL     1       5.132 -14.915  11.160  1.00  0.00    -0.029 C 
ATOM     12  C   UNL     1       3.933 -15.826  10.897  1.00  0.00    -0.001 CG0
ATOM     13  C   UNL     1       5.512 -14.691  12.630  1.00  0.00     0.011 C 
ATOM     14  G   UNL     1       2.814 -16.239  11.865  1.00  0.00     0.000 G0
ENDBRANCH   4   9
BRANCH   5  15
ATOM     15  O   UNL     1       4.461 -11.879   9.551  1.00  0.00    -0.390 OA
ATOM     16  H   UNL     1       4.976 -11.384   8.861  1.00  0.00     0.211 HD
ENDBRANCH   5  15
ENDBRANCH   1   3
BRANCH   1  17
ATOM     17  C   UNL     1       1.429 -15.732  11.375  1.00  0.00     0.031 C 
BRANCH  17  18
ATOM     18  C   UNL     1       2.800 -16.269  11.864  1.00  0.00     0.009 CG0
ATOM     19  G   UNL     1       3.933 -15.851  10.914  1.00  0.00     0.000 G0
ENDBRANCH  17  18
ENDBRANCH   1  17
TORSDOF 1
ENDMDL
MODEL 3
REMARK VINA RESULT:    -3.171      1.922      3.567
REMARK INTER + INTRA:          -0.793
REMARK INTER:                  -3.913
REMARK INTRA:                   3.120
REMARK UNBOUND:                 3.212
REMARK SMILES C=C1CC[C@H]2[C@H]([C@H]3[C@@H]1CC[C@@]3(C)O)C2(C)C
REMARK SMILES IDX 2 1 1 2 8 3 7 4 11 5 9 6 10 7 12 8 6 9 15 10 14 11 5 12
REMARK SMILES IDX 16 13 13 15 3 17 4 18
REMARK H PARENT 13 16
REMARK Flexibility Score: 90.00
ROOT
ATOM      1  C   UNL     1       1.554 -13.315   9.194  1.00  0.00    -0.074 C 
ATOM      2  C   UNL     1       0.502 -13.383   8.361  1.00  0.00     0.008 C 
ENDROOT
BRANCH   1   3
ATOM      3  C   UNL     1       2.780 -14.219   8.946  1.00  0.00     0.021 C 
ATOM      4  C   UNL     1       3.134 -15.249  10.057  1.00  0.00     0.032 C 
ATOM      5  C   UNL     1       4.643 -15.522   9.840  1.00  0.00     0.066 C 
ATOM      6  C   UNL     1       4.067 -13.429   8.665  1.00  0.00     0.011 C 
ATOM      7  C   UNL     1       5.209 -14.179   9.354  1.00  0.00     0.036 C 
ATOM      8  C   UNL     1       4.867 -16.613   8.768  1.00  0.00     0.042 C 
BRANCH   4   9
ATOM      9  C   UNL     1       2.879 -14.653  11.460  1.00  0.00     0.005 C 
ATOM     10  C   UNL     1       2.212 -16.874  12.694  1.00  0.00     0.011 C 
ATOM     11  C   UNL     1       2.286 -15.343  12.688  1.00  0.00    -0.029 C 
ATOM     12  C   UNL     1       1.351 -14.635  11.707  1.00  0.00    -0.001 CG0
ATOM     13  C   UNL     1       2.507 -14.655  14.041  1.00  0.00     0.011 C 
ATOM     14  G   UNL     1       0.905 -13.164  11.701  1.00  0.00     0.000 G0
ENDBRANCH   4   9
BRANCH   5  15
ATOM     15  O   UNL     1       5.289 -15.901  11.032  1.00  0.00    -0.390 OA
ATOM     16  H   UNL     1       5.029 -16.839  11.227  1.00  0.00     0.211 HD
ENDBRANCH   5  15
ENDBRANCH   1   3
BRANCH   1  17
ATOM     17  C   UNL     1       1.450 -12.410  10.424  1.00  0.00     0.031 C 
BRANCH  17  18
ATOM     18  C   UNL     1       0.903 -13.146  11.675  1.00  0.00     0.009 CG0
ATOM     19  G   UNL     1       1.359 -14.613  11.703  1.00  0.00     0.000 G0
ENDBRANCH  17  18
ENDBRANCH   1  17
TORSDOF 1
ENDMDL
MODEL 4
REMARK VINA RESULT:    -2.993      6.762      9.433
REMARK INTER + INTRA:          -0.568
REMARK INTER:                  -3.748
REMARK INTRA:                   3.180
REMARK UNBOUND:                 3.212
REMARK SMILES C=C1CC[C@H]2[C@H]([C@H]3[C@@H]1CC[C@@]3(C)O)C2(C)C
REMARK SMILES IDX 2 1 1 2 8 3 7 4 11 5 9 6 10 7 12 8 6 9 15 10 14 11 5 12
REMARK SMILES IDX 16 13 13 15 3 17 4 18
REMARK H PARENT 13 16
REMARK Flexibility Score: 90.00
ROOT
ATOM      1  C   UNL     1       5.215 -19.342  17.479  1.00  0.00    -0.074 C 
ATOM      2  C   UNL     1       6.214 -18.496  17.781  1.00  0.00     0.008 C 
ENDROOT
BRANCH   1   3
ATOM      3  C   UNL     1       5.364 -20.293  16.271  1.00  0.00     0.021 C 
ATOM      4  C   UNL     1       4.351 -20.114  15.103  1.00  0.00     0.032 C 
ATOM      5  C   UNL     1       4.339 -21.498  14.410  1.00  0.00     0.066 C 
ATOM      6  C   UNL     1       5.315 -21.777  16.660  1.00  0.00     0.011 C 
ATOM      7  C   UNL     1       4.543 -22.502  15.555  1.00  0.00     0.036 C 
ATOM      8  C   UNL     1       5.487 -21.621  13.383  1.00  0.00     0.042 C 
BRANCH   4   9
ATOM      9  C   UNL     1       2.947 -19.757  15.644  1.00  0.00     0.005 C 
ATOM     10  C   UNL     1       2.165 -18.215  13.667  1.00  0.00     0.011 C 
ATOM     11  C   UNL     1       1.950 -18.740  15.091  1.00  0.00    -0.029 C 
ATOM     12  C   UNL     1       2.975 -18.287  16.130  1.00  0.00    -0.001 CG0
ATOM     13  C   UNL     1       0.498 -18.865  15.571  1.00  0.00     0.011 C 
ATOM     14  G   UNL     1       2.860 -18.311  17.662  1.00  0.00     0.000 G0
ENDBRANCH   4   9
BRANCH   5  15
ATOM     15  O   UNL     1       3.112 -21.759  13.770  1.00  0.00    -0.390 OA
ATOM     16  H   UNL     1       3.218 -21.517  12.813  1.00  0.00     0.211 HD
ENDBRANCH   5  15
ENDBRANCH   1   3
BRANCH   1  17
ATOM     17  C   UNL     1       3.919 -19.259  18.289  1.00  0.00     0.031 C 
BRANCH  17  18
ATOM     18  C   UNL     1       2.874 -18.297  17.666  1.00  0.00     0.009 CG0
ATOM     19  G   UNL     1       2.980 -18.277  16.133  1.00  0.00     0.000 G0
ENDBRANCH  17  18
ENDBRANCH   1  17
TORSDOF 1
ENDMDL
MODEL 5
REMARK VINA RESULT:    -2.965     16.100     18.322
REMARK INTER + INTRA:          -0.534
REMARK INTER:                  -3.686
REMARK INTRA:                   3.152
REMARK UNBOUND:                 3.212
REMARK SMILES C=C1CC[C@H]2[C@H]([C@H]3[C@@H]1CC[C@@]3(C)O)C2(C)C
REMARK SMILES IDX 2 1 1 2 8 3 7 4 11 5 9 6 10 7 12 8 6 9 15 10 14 11 5 12
REMARK SMILES IDX 16 13 13 15 3 17 4 18
REMARK H PARENT 13 16
REMARK Flexibility Score: 90.00
ROOT
ATOM      1  C   UNL     1      -4.790 -27.856  13.933  1.00  0.00    -0.074 C 
ATOM      2  C   UNL     1      -4.758 -26.543  14.215  1.00  0.00     0.008 C 
ENDROOT
BRANCH   1   3
ATOM      3  C   UNL     1      -4.381 -28.341  12.526  1.00  0.00     0.021 C 
ATOM      4  C   UNL     1      -5.469 -29.072  11.687  1.00  0.00     0.032 C 
ATOM      5  C   UNL     1      -4.652 -29.933  10.693  1.00  0.00     0.066 C 
ATOM      6  C   UNL     1      -3.154 -29.265  12.538  1.00  0.00     0.011 C 
ATOM      7  C   UNL     1      -3.400 -30.346  11.483  1.00  0.00     0.036 C 
ATOM      8  C   UNL     1      -4.249 -29.118   9.444  1.00  0.00     0.042 C 
BRANCH   4   9
ATOM      9  C   UNL     1      -6.353 -29.962  12.590  1.00  0.00     0.005 C 
ATOM     10  C   UNL     1      -8.599 -29.746  11.245  1.00  0.00     0.011 C 
ATOM     11  C   UNL     1      -7.864 -30.176  12.520  1.00  0.00    -0.029 C 
ATOM     12  C   UNL     1      -7.312 -29.043  13.385  1.00  0.00    -0.001 CG0
ATOM     13  C   UNL     1      -8.424 -31.395  13.264  1.00  0.00     0.011 C 
ATOM     14  G   UNL     1      -6.873 -29.089  14.857  1.00  0.00     0.000 G0
ENDBRANCH   4   9
BRANCH   5  15
ATOM     15  O   UNL     1      -5.354 -31.085  10.290  1.00  0.00    -0.390 OA
ATOM     16  H   UNL     1      -6.266 -30.799  10.019  1.00  0.00     0.211 HD
ENDBRANCH   5  15
ENDBRANCH   1   3
BRANCH   1  17
ATOM     17  C   UNL     1      -5.332 -28.816  14.995  1.00  0.00     0.031 C 
BRANCH  17  18
ATOM     18  C   UNL     1      -6.856 -29.072  14.861  1.00  0.00     0.009 CG0
ATOM     19  G   UNL     1      -7.300 -29.038  13.390  1.00  0.00     0.000 G0
ENDBRANCH  17  18
ENDBRANCH   1  17
TORSDOF 1
ENDMDL
MODEL 6
REMARK VINA RESULT:    -2.950      2.452      3.868
REMARK INTER + INTRA:          -0.514
REMARK INTER:                  -3.732
REMARK INTRA:                   3.218
REMARK UNBOUND:                 3.212
REMARK SMILES C=C1CC[C@H]2[C@H]([C@H]3[C@@H]1CC[C@@]3(C)O)C2(C)C
REMARK SMILES IDX 2 1 1 2 8 3 7 4 11 5 9 6 10 7 12 8 6 9 15 10 14 11 5 12
REMARK SMILES IDX 16 13 13 15 3 17 4 18
REMARK H PARENT 13 16
REMARK Flexibility Score: 90.00
ROOT
ATOM      1  C   UNL     1       1.004 -12.448  11.849  1.00  0.00    -0.074 C 
ATOM      2  C   UNL     1      -0.072 -11.877  12.415  1.00  0.00     0.008 C 
ENDROOT
BRANCH   1   3
ATOM      3  C   UNL     1       0.810 -13.461  10.700  1.00  0.00     0.021 C 
ATOM      4  C   UNL     1       1.293 -14.918  10.955  1.00  0.00     0.032 C 
ATOM      5  C   UNL     1       1.544 -15.478   9.534  1.00  0.00     0.066 C 
ATOM      6  C   UNL     1       1.463 -13.015   9.384  1.00  0.00     0.011 C 
ATOM      7  C   UNL     1       2.048 -14.269   8.730  1.00  0.00     0.036 C 
ATOM      8  C   UNL     1       0.242 -16.028   8.909  1.00  0.00     0.042 C 
BRANCH   4   9
ATOM      9  C   UNL     1       2.595 -14.928  11.789  1.00  0.00     0.005 C 
ATOM     10  C   UNL     1       2.173 -17.154  13.118  1.00  0.00     0.011 C 
ATOM     11  C   UNL     1       2.979 -15.862  12.935  1.00  0.00    -0.029 C 
ATOM     12  C   UNL     1       2.236 -14.564  13.251  1.00  0.00    -0.001 CG0
ATOM     13  C   UNL     1       4.463 -15.912  13.318  1.00  0.00     0.011 C 
ATOM     14  G   UNL     1       2.820 -13.171  13.531  1.00  0.00     0.000 G0
ENDBRANCH   4   9
BRANCH   5  15
ATOM     15  O   UNL     1       2.526 -16.488   9.529  1.00  0.00    -0.390 OA
ATOM     16  H   UNL     1       3.397 -16.058   9.736  1.00  0.00     0.211 HD
ENDBRANCH   5  15
ENDBRANCH   1   3
BRANCH   1  17
ATOM     17  C   UNL     1       2.384 -12.145  12.438  1.00  0.00     0.031 C 
BRANCH  17  18
ATOM     18  C   UNL     1       2.817 -13.165  13.525  1.00  0.00     0.009 CG0
ATOM     19  G   UNL     1       2.214 -14.553  13.258  1.00  0.00     0.000 G0
ENDBRANCH  17  18
ENDBRANCH   1  17
TORSDOF 1
ENDMDL
MODEL 7
REMARK VINA RESULT:    -2.934      2.533      4.247
REMARK INTER + INTRA:          -0.493
REMARK INTER:                  -3.636
REMARK INTRA:                   3.143
REMARK UNBOUND:                 3.212
REMARK SMILES C=C1CC[C@H]2[C@H]([C@H]3[C@@H]1CC[C@@]3(C)O)C2(C)C
REMARK SMILES IDX 2 1 1 2 8 3 7 4 11 5 9 6 10 7 12 8 6 9 15 10 14 11 5 12
REMARK SMILES IDX 16 13 13 15 3 17 4 18
REMARK H PARENT 13 16
REMARK Flexibility Score: 90.00
ROOT
ATOM      1  C   UNL     1       2.383 -15.585  13.239  1.00  0.00    -0.074 C 
ATOM      2  C   UNL     1       1.970 -16.643  13.957  1.00  0.00     0.008 C 
ENDROOT
BRANCH   1   3
ATOM      3  C   UNL     1       1.590 -15.164  11.983  1.00  0.00     0.021 C 
ATOM      4  C   UNL     1       2.347 -15.206  10.624  1.00  0.00     0.032 C 
ATOM      5  C   UNL     1       1.571 -14.202   9.738  1.00  0.00     0.066 C 
ATOM      6  C   UNL     1       0.982 -13.759  12.094  1.00  0.00     0.011 C 
ATOM      7  C   UNL     1       1.107 -13.109  10.714  1.00  0.00     0.036 C 
ATOM      8  C   UNL     1       0.350 -14.871   9.069  1.00  0.00     0.042 C 
BRANCH   4   9
ATOM      9  C   UNL     1       3.818 -14.763  10.801  1.00  0.00     0.005 C 
ATOM     10  C   UNL     1       4.886 -16.250   8.917  1.00  0.00     0.011 C 
ATOM     11  C   UNL     1       5.067 -15.343  10.140  1.00  0.00    -0.029 C 
ATOM     12  C   UNL     1       4.595 -15.921  11.474  1.00  0.00    -0.001 CG0
ATOM     13  C   UNL     1       6.334 -14.479  10.179  1.00  0.00     0.011 C 
ATOM     14  G   UNL     1       4.953 -15.464  12.896  1.00  0.00     0.000 G0
ENDBRANCH   4   9
BRANCH   5  15
ATOM     15  O   UNL     1       2.390 -13.628   8.746  1.00  0.00    -0.390 OA
ATOM     16  H   UNL     1       1.878 -12.887   8.329  1.00  0.00     0.211 HD
ENDBRANCH   5  15
ENDBRANCH   1   3
BRANCH   1  17
ATOM     17  C   UNL     1       3.689 -14.896  13.642  1.00  0.00     0.031 C 
BRANCH  17  18
ATOM     18  C   UNL     1       4.930 -15.474  12.912  1.00  0.00     0.009 CG0
ATOM     19  G   UNL     1       4.580 -15.914  11.482  1.00  0.00     0.000 G0
ENDBRANCH  17  18
ENDBRANCH   1  17
TORSDOF 1
ENDMDL
MODEL 8
REMARK VINA RESULT:    -2.924      1.878      3.949
REMARK INTER + INTRA:          -0.482
REMARK INTER:                  -3.639
REMARK INTRA:                   3.158
REMARK UNBOUND:                 3.212
REMARK SMILES C=C1CC[C@H]2[C@H]([C@H]3[C@@H]1CC[C@@]3(C)O)C2(C)C
REMARK SMILES IDX 2 1 1 2 8 3 7 4 11 5 9 6 10 7 12 8 6 9 15 10 14 11 5 12
REMARK SMILES IDX 16 13 13 15 3 17 4 18
REMARK H PARENT 13 16
REMARK Flexibility Score: 90.00
ROOT
ATOM      1  C   UNL     1       5.170 -15.044  10.493  1.00  0.00    -0.074 C 
ATOM      2  C   UNL     1       6.059 -15.813   9.843  1.00  0.00     0.008 C 
ENDROOT
BRANCH   1   3
ATOM      3  C   UNL     1       4.292 -15.668  11.600  1.00  0.00     0.021 C 
ATOM      4  C   UNL     1       2.753 -15.657  11.369  1.00  0.00     0.032 C 
ATOM      5  C   UNL     1       2.165 -15.742  12.798  1.00  0.00     0.066 C 
ATOM      6  C   UNL     1       4.524 -15.041  12.982  1.00  0.00     0.011 C 
ATOM      7  C   UNL     1       3.159 -14.960  13.669  1.00  0.00     0.036 C 
ATOM      8  C   UNL     1       2.073 -17.208  13.280  1.00  0.00     0.042 C 
BRANCH   4   9
ATOM      9  C   UNL     1       2.311 -14.351  10.669  1.00  0.00     0.005 C 
ATOM     10  C   UNL     1       0.299 -15.326   9.291  1.00  0.00     0.011 C 
ATOM     11  C   UNL     1       1.274 -14.174   9.561  1.00  0.00    -0.029 C 
ATOM     12  C   UNL     1       2.732 -14.433   9.181  1.00  0.00    -0.001 CG0
ATOM     13  C   UNL     1       0.748 -12.753   9.327  1.00  0.00     0.011 C 
ATOM     14  G   UNL     1       3.862 -13.414   8.969  1.00  0.00     0.000 G0
ENDBRANCH   4   9
BRANCH   5  15
ATOM     15  O   UNL     1       0.893 -15.144  12.884  1.00  0.00    -0.390 OA
ATOM     16  H   UNL     1       0.274 -15.814  13.278  1.00  0.00     0.211 HD
ENDBRANCH   5  15
ENDBRANCH   1   3
BRANCH   1  17
ATOM     17  C   UNL     1       4.992 -13.593  10.039  1.00  0.00     0.031 C 
BRANCH  17  18
ATOM     18  C   UNL     1       3.881 -13.424   8.970  1.00  0.00     0.009 CG0
ATOM     19  G   UNL     1       2.747 -14.439   9.180  1.00  0.00     0.000 G0
ENDBRANCH  17  18
ENDBRANCH   1  17
TORSDOF 1
ENDMDL
MODEL 9
REMARK VINA RESULT:    -2.885      2.230      4.736
REMARK INTER + INTRA:          -0.432
REMARK INTER:                  -3.592
REMARK INTRA:                   3.160
REMARK UNBOUND:                 3.212
REMARK SMILES C=C1CC[C@H]2[C@H]([C@H]3[C@@H]1CC[C@@]3(C)O)C2(C)C
REMARK SMILES IDX 2 1 1 2 8 3 7 4 11 5 9 6 10 7 12 8 6 9 15 10 14 11 5 12
REMARK SMILES IDX 16 13 13 15 3 17 4 18
REMARK H PARENT 13 16
REMARK Flexibility Score: 90.00
ROOT
ATOM      1  C   UNL     1       3.708 -15.245  13.126  1.00  0.00    -0.074 C 
ATOM      2  C   UNL     1       3.557 -14.645  14.319  1.00  0.00     0.008 C 
ENDROOT
BRANCH   1   3
ATOM      3  C   UNL     1       4.545 -14.554  12.028  1.00  0.00     0.021 C 
ATOM      4  C   UNL     1       3.800 -14.149  10.723  1.00  0.00     0.032 C 
ATOM      5  C   UNL     1       4.924 -14.086   9.661  1.00  0.00     0.066 C 
ATOM      6  C   UNL     1       5.765 -15.377  11.590  1.00  0.00     0.011 C 
ATOM      7  C   UNL     1       5.907 -15.191  10.078  1.00  0.00     0.036 C 
ATOM      8  C   UNL     1       5.632 -12.712   9.674  1.00  0.00     0.042 C 
BRANCH   4   9
ATOM      9  C   UNL     1       2.742 -15.210  10.342  1.00  0.00     0.005 C 
ATOM     10  C   UNL     1       0.968 -13.600   9.264  1.00  0.00     0.011 C 
ATOM     11  C   UNL     1       1.328 -14.988   9.808  1.00  0.00    -0.029 C 
ATOM     12  C   UNL     1       1.548 -15.074  11.318  1.00  0.00    -0.001 CG0
ATOM     13  C   UNL     1       0.642 -16.189   9.146  1.00  0.00     0.011 C 
ATOM     14  G   UNL     1       1.548 -16.321  12.216  1.00  0.00     0.000 G0
ENDBRANCH   4   9
BRANCH   5  15
ATOM     15  O   UNL     1       4.443 -14.349   8.364  1.00  0.00    -0.390 OA
ATOM     16  H   UNL     1       3.470 -14.154   8.362  1.00  0.00     0.211 HD
ENDBRANCH   5  15
ENDBRANCH   1   3
BRANCH   1  17
ATOM     17  C   UNL     1       2.954 -16.553  12.868  1.00  0.00     0.031 C 
BRANCH  17  18
ATOM     18  C   UNL     1       1.556 -16.332  12.232  1.00  0.00     0.009 CG0
ATOM     19  G   UNL     1       1.541 -15.081  11.339  1.00  0.00     0.000 G0
ENDBRANCH  17  18
ENDBRANCH   1  17
TORSDOF 1
ENDMDL
