MODEL 1
REMARK VINA RESULT:    -3.728      0.000      0.000
REMARK INTER + INTRA:          -4.631
REMARK INTER:                  -5.035
REMARK INTRA:                   0.404
REMARK UNBOUND:                 0.404
REMARK SMILES C=C1C(=O)O[C@H]2[C@@H]1CCC(C)=CCC[C@@]1(C)O[C@@H]21
REMARK SMILES IDX 6 1 7 2 2 3 1 4 3 5 4 6 5 7 8 8 9 9 10 10 11 11 12 12 18 14
REMARK SMILES IDX 15 15 17 16 16 17 14 18 13 19
REMARK H PARENT
REMARK Flexibility Score: 70.00
ROOT
ATOM      1  C   UNL     1      33.543   2.518 100.099  1.00  0.00     0.216 C 
ATOM      2  C   UNL     1      33.728   3.860 100.875  1.00  0.00     0.070 C 
ATOM      3  C   UNL     1      32.943   4.796  99.994  1.00  0.00     0.037 C 
ATOM      4  C   UNL     1      33.017   6.126  99.994  1.00  0.00     0.021 C 
ATOM      5  C   UNL     1      32.050   3.982  99.188  1.00  0.00     0.334 C 
ATOM      6  O   UNL     1      31.130   4.413  98.445  1.00  0.00    -0.247 OA
ATOM      7  O   UNL     1      32.319   2.639  99.381  1.00  0.00    -0.455 OA
ENDROOT
BRANCH   2   8
ATOM      8  C   UNL     1      33.206   3.870 102.343  1.00  0.00     0.017 C 
BRANCH   8   9
ATOM      9  C   UNL     1      31.675   4.081 102.482  1.00  0.00     0.031 C 
BRANCH   9  10
ATOM     10  C   UNL     1      31.043   3.619 103.784  1.00  0.00    -0.077 C 
ATOM     11  C   UNL     1      30.422   4.663 104.683  1.00  0.00     0.039 C 
ATOM     12  C   UNL     1      30.821   2.319 104.107  1.00  0.00    -0.028 CG0
ATOM     13  G   UNL     1      31.561   1.115 103.578  1.00  0.00     0.000 G0
ENDBRANCH   9  10
ENDBRANCH   8   9
ENDBRANCH   2   8
BRANCH   1  14
ATOM     14  C   UNL     1      33.800   1.161 100.797  1.00  0.00     0.192 C 
ATOM     15  C   UNL     1      32.854   0.308 101.587  1.00  0.00     0.096 C 
ATOM     16  O   UNL     1      32.958   0.191 100.193  1.00  0.00    -0.362 OA
ATOM     17  C   UNL     1      33.440  -0.930 102.277  1.00  0.00     0.045 C 
BRANCH  15  18
ATOM     18  C   UNL     1      31.493   0.830 102.067  1.00  0.00     0.042 C 
BRANCH  18  19
ATOM     19  C   UNL     1      31.548   1.097 103.587  1.00  0.00     0.030 CG0
ATOM     20  G   UNL     1      30.825   2.321 104.093  1.00  0.00     0.000 G0
ENDBRANCH  18  19
ENDBRANCH  15  18
ENDBRANCH   1  14
TORSDOF 0
ENDMDL
MODEL 2
REMARK VINA RESULT:    -3.556     10.331     11.726
REMARK INTER + INTRA:          -4.399
REMARK INTER:                  -4.786
REMARK INTRA:                   0.387
REMARK UNBOUND:                 0.404
REMARK SMILES C=C1C(=O)O[C@H]2[C@@H]1CCC(C)=CCC[C@@]1(C)O[C@@H]21
REMARK SMILES IDX 6 1 7 2 2 3 1 4 3 5 4 6 5 7 8 8 9 9 10 10 11 11 12 12 18 14
REMARK SMILES IDX 15 15 17 16 16 17 14 18 13 19
REMARK H PARENT
REMARK Flexibility Score: 70.00
ROOT
ATOM      1  C   UNL     1      23.461  -2.920 100.595  1.00  0.00     0.216 C 
ATOM      2  C   UNL     1      24.815  -3.133 101.343  1.00  0.00     0.070 C 
ATOM      3  C   UNL     1      24.874  -1.874 102.168  1.00  0.00     0.037 C 
ATOM      4  C   UNL     1      25.955  -1.369 102.759  1.00  0.00     0.021 C 
ATOM      5  C   UNL     1      23.522  -1.348 102.246  1.00  0.00     0.334 C 
ATOM      6  O   UNL     1      23.145  -0.394 102.976  1.00  0.00    -0.247 OA
ATOM      7  O   UNL     1      22.675  -2.074 101.429  1.00  0.00    -0.455 OA
ENDROOT
BRANCH   2   8
ATOM      8  C   UNL     1      24.905  -4.412 102.228  1.00  0.00     0.017 C 
BRANCH   8   9
ATOM      9  C   UNL     1      24.069  -4.353 103.534  1.00  0.00     0.031 C 
BRANCH   9  10
ATOM     10  C   UNL     1      23.743  -5.683 104.192  1.00  0.00    -0.077 C 
ATOM     11  C   UNL     1      24.551  -6.096 105.400  1.00  0.00     0.039 C 
ATOM     12  C   UNL     1      22.654  -6.436 103.894  1.00  0.00    -0.028 CG0
ATOM     13  G   UNL     1      21.877  -6.434 102.600  1.00  0.00     0.000 G0
ENDBRANCH   9  10
ENDBRANCH   8   9
ENDBRANCH   2   8
BRANCH   1  14
ATOM     14  C   UNL     1      22.726  -4.113  99.938  1.00  0.00     0.192 C 
ATOM     15  C   UNL     1      21.699  -5.032 100.525  1.00  0.00     0.096 C 
ATOM     16  O   UNL     1      21.338  -3.818  99.922  1.00  0.00    -0.362 OA
ATOM     17  C   UNL     1      21.247  -6.217  99.662  1.00  0.00     0.045 C 
BRANCH  15  18
ATOM     18  C   UNL     1      21.418  -5.084 102.033  1.00  0.00     0.042 C 
BRANCH  18  19
ATOM     19  C   UNL     1      21.876  -6.446 102.597  1.00  0.00     0.030 CG0
ATOM     20  G   UNL     1      22.649  -6.425 103.893  1.00  0.00     0.000 G0
ENDBRANCH  18  19
ENDBRANCH  15  18
ENDBRANCH   1  14
TORSDOF 0
ENDMDL
MODEL 3
REMARK VINA RESULT:    -3.504      2.576      4.883
REMARK INTER + INTRA:          -4.328
REMARK INTER:                  -4.711
REMARK INTRA:                   0.383
REMARK UNBOUND:                 0.404
REMARK SMILES C=C1C(=O)O[C@H]2[C@@H]1CCC(C)=CCC[C@@]1(C)O[C@@H]21
REMARK SMILES IDX 6 1 7 2 2 3 1 4 3 5 4 6 5 7 8 8 9 9 10 10 11 11 12 12 18 14
REMARK SMILES IDX 15 15 17 16 16 17 14 18 13 19
REMARK H PARENT
REMARK Flexibility Score: 70.00
ROOT
ATOM      1  C   UNL     1      30.514   1.982 102.795  1.00  0.00     0.216 C 
ATOM      2  C   UNL     1      29.491   2.696 103.735  1.00  0.00     0.070 C 
ATOM      3  C   UNL     1      29.309   1.640 104.794  1.00  0.00     0.037 C 
ATOM      4  C   UNL     1      28.314   1.572 105.675  1.00  0.00     0.021 C 
ATOM      5  C   UNL     1      30.452   0.746 104.711  1.00  0.00     0.334 C 
ATOM      6  O   UNL     1      30.733  -0.167 105.531  1.00  0.00    -0.247 OA
ATOM      7  O   UNL     1      31.231   1.062 103.613  1.00  0.00    -0.455 OA
ENDROOT
BRANCH   2   8
ATOM      8  C   UNL     1      29.962   4.051 104.341  1.00  0.00     0.017 C 
BRANCH   8   9
ATOM      9  C   UNL     1      31.122   3.933 105.363  1.00  0.00     0.031 C 
BRANCH   9  10
ATOM     10  C   UNL     1      31.924   5.196 105.629  1.00  0.00    -0.077 C 
ATOM     11  C   UNL     1      31.523   6.060 106.802  1.00  0.00     0.039 C 
ATOM     12  C   UNL     1      33.093   5.503 105.009  1.00  0.00    -0.028 CG0
ATOM     13  G   UNL     1      33.558   5.015 103.659  1.00  0.00     0.000 G0
ENDBRANCH   9  10
ENDBRANCH   8   9
ENDBRANCH   2   8
BRANCH   1  14
ATOM     14  C   UNL     1      31.350   2.795 101.777  1.00  0.00     0.192 C 
ATOM     15  C   UNL     1      32.712   3.398 101.939  1.00  0.00     0.096 C 
ATOM     16  O   UNL     1      32.544   2.072 101.514  1.00  0.00    -0.362 OA
ATOM     17  C   UNL     1      33.231   4.270 100.788  1.00  0.00     0.045 C 
BRANCH  15  18
ATOM     18  C   UNL     1      33.388   3.530 103.310  1.00  0.00     0.042 C 
BRANCH  18  19
ATOM     19  C   UNL     1      33.579   5.025 103.651  1.00  0.00     0.030 CG0
ATOM     20  G   UNL     1      33.100   5.484 105.006  1.00  0.00     0.000 G0
ENDBRANCH  18  19
ENDBRANCH  15  18
ENDBRANCH   1  14
TORSDOF 0
ENDMDL
MODEL 4
REMARK VINA RESULT:    -3.498      9.662     11.107
REMARK INTER + INTRA:          -4.320
REMARK INTER:                  -4.794
REMARK INTRA:                   0.474
REMARK UNBOUND:                 0.404
REMARK SMILES C=C1C(=O)O[C@H]2[C@@H]1CCC(C)=CCC[C@@]1(C)O[C@@H]21
REMARK SMILES IDX 6 1 7 2 2 3 1 4 3 5 4 6 5 7 8 8 9 9 10 10 11 11 12 12 18 14
REMARK SMILES IDX 15 15 17 16 16 17 14 18 13 19
REMARK H PARENT
REMARK Flexibility Score: 70.00
ROOT
ATOM      1  C   UNL     1      24.989  -3.040 103.846  1.00  0.00     0.216 C 
ATOM      2  C   UNL     1      23.971  -2.864 102.674  1.00  0.00     0.070 C 
ATOM      3  C   UNL     1      23.993  -1.366 102.515  1.00  0.00     0.037 C 
ATOM      4  C   UNL     1      23.086  -0.628 101.879  1.00  0.00     0.021 C 
ATOM      5  C   UNL     1      25.218  -0.886 103.132  1.00  0.00     0.334 C 
ATOM      6  O   UNL     1      25.664   0.289 103.065  1.00  0.00    -0.247 OA
ATOM      7  O   UNL     1      25.867  -1.920 103.781  1.00  0.00    -0.455 OA
ENDROOT
BRANCH   2   8
ATOM      8  C   UNL     1      24.335  -3.594 101.347  1.00  0.00     0.017 C 
BRANCH   8   9
ATOM      9  C   UNL     1      23.155  -4.352 100.683  1.00  0.00     0.031 C 
BRANCH   9  10
ATOM     10  C   UNL     1      21.936  -4.607 101.555  1.00  0.00    -0.077 C 
ATOM     11  C   UNL     1      20.708  -3.757 101.327  1.00  0.00     0.039 C 
ATOM     12  C   UNL     1      21.803  -5.670 102.389  1.00  0.00    -0.028 CG0
ATOM     13  G   UNL     1      22.915  -6.473 103.018  1.00  0.00     0.000 G0
ENDBRANCH   9  10
ENDBRANCH   8   9
ENDBRANCH   2   8
BRANCH   1  14
ATOM     14  C   UNL     1      25.645  -4.415 104.120  1.00  0.00     0.192 C 
ATOM     15  C   UNL     1      25.004  -5.765 104.229  1.00  0.00     0.096 C 
ATOM     16  O   UNL     1      25.411  -5.245 102.992  1.00  0.00    -0.362 OA
ATOM     17  C   UNL     1      25.906  -6.935 104.645  1.00  0.00     0.045 C 
BRANCH  15  18
ATOM     18  C   UNL     1      23.485  -5.938 104.361  1.00  0.00     0.042 C 
BRANCH  18  19
ATOM     19  C   UNL     1      22.908  -6.475 103.033  1.00  0.00     0.030 CG0
ATOM     20  G   UNL     1      21.818  -5.661 102.382  1.00  0.00     0.000 G0
ENDBRANCH  18  19
ENDBRANCH  15  18
ENDBRANCH   1  14
TORSDOF 0
ENDMDL
MODEL 5
REMARK VINA RESULT:    -3.470      9.922     11.830
REMARK INTER + INTRA:          -4.283
REMARK INTER:                  -4.754
REMARK INTRA:                   0.471
REMARK UNBOUND:                 0.404
REMARK SMILES C=C1C(=O)O[C@H]2[C@@H]1CCC(C)=CCC[C@@]1(C)O[C@@H]21
REMARK SMILES IDX 6 1 7 2 2 3 1 4 3 5 4 6 5 7 8 8 9 9 10 10 11 11 12 12 18 14
REMARK SMILES IDX 15 15 17 16 16 17 14 18 13 19
REMARK H PARENT
REMARK Flexibility Score: 70.00
ROOT
ATOM      1  C   UNL     1      22.207  -3.446 100.990  1.00  0.00     0.216 C 
ATOM      2  C   UNL     1      21.533  -4.676 101.677  1.00  0.00     0.070 C 
ATOM      3  C   UNL     1      21.581  -5.678 100.554  1.00  0.00     0.037 C 
ATOM      4  C   UNL     1      20.866  -6.798 100.466  1.00  0.00     0.021 C 
ATOM      5  C   UNL     1      22.594  -5.225  99.616  1.00  0.00     0.334 C 
ATOM      6  O   UNL     1      23.030  -5.878  98.631  1.00  0.00    -0.247 OA
ATOM      7  O   UNL     1      23.059  -3.974  99.977  1.00  0.00    -0.455 OA
ENDROOT
BRANCH   2   8
ATOM      8  C   UNL     1      22.242  -5.207 102.959  1.00  0.00     0.017 C 
BRANCH   8   9
ATOM      9  C   UNL     1      23.675  -5.753 102.725  1.00  0.00     0.031 C 
BRANCH   9  10
ATOM     10  C   UNL     1      24.579  -5.832 103.944  1.00  0.00    -0.077 C 
ATOM     11  C   UNL     1      24.516  -7.078 104.797  1.00  0.00     0.039 C 
ATOM     12  C   UNL     1      25.577  -4.952 104.212  1.00  0.00    -0.028 CG0
ATOM     13  G   UNL     1      25.678  -3.524 103.736  1.00  0.00     0.000 G0
ENDBRANCH   9  10
ENDBRANCH   8   9
ENDBRANCH   2   8
BRANCH   1  14
ATOM     14  C   UNL     1      22.782  -2.286 101.837  1.00  0.00     0.192 C 
ATOM     15  C   UNL     1      24.179  -2.082 102.339  1.00  0.00     0.096 C 
ATOM     16  O   UNL     1      23.784  -1.637 101.069  1.00  0.00    -0.362 OA
ATOM     17  C   UNL     1      24.418  -0.891 103.277  1.00  0.00     0.045 C 
BRANCH  15  18
ATOM     18  C   UNL     1      25.228  -3.201 102.307  1.00  0.00     0.042 C 
BRANCH  18  19
ATOM     19  C   UNL     1      25.694  -3.515 103.746  1.00  0.00     0.030 CG0
ATOM     20  G   UNL     1      25.581  -4.948 104.205  1.00  0.00     0.000 G0
ENDBRANCH  18  19
ENDBRANCH  15  18
ENDBRANCH   1  14
TORSDOF 0
ENDMDL
MODEL 6
REMARK VINA RESULT:    -3.469      3.122      5.441
REMARK INTER + INTRA:          -4.281
REMARK INTER:                  -4.795
REMARK INTRA:                   0.514
REMARK UNBOUND:                 0.404
REMARK SMILES C=C1C(=O)O[C@H]2[C@@H]1CCC(C)=CCC[C@@]1(C)O[C@@H]21
REMARK SMILES IDX 6 1 7 2 2 3 1 4 3 5 4 6 5 7 8 8 9 9 10 10 11 11 12 12 18 14
REMARK SMILES IDX 15 15 17 16 16 17 14 18 13 19
REMARK H PARENT
REMARK Flexibility Score: 70.00
ROOT
ATOM      1  C   UNL     1      29.821   2.698 104.852  1.00  0.00     0.216 C 
ATOM      2  C   UNL     1      30.212   1.462 103.981  1.00  0.00     0.070 C 
ATOM      3  C   UNL     1      28.918   1.222 103.249  1.00  0.00     0.037 C 
ATOM      4  C   UNL     1      28.569   0.108 102.609  1.00  0.00     0.021 C 
ATOM      5  C   UNL     1      28.149   2.453 103.320  1.00  0.00     0.334 C 
ATOM      6  O   UNL     1      27.082   2.692 102.696  1.00  0.00    -0.247 OA
ATOM      7  O   UNL     1      28.776   3.364 104.149  1.00  0.00    -0.455 OA
ENDROOT
BRANCH   2   8
ATOM      8  C   UNL     1      31.403   1.675 103.001  1.00  0.00     0.017 C 
BRANCH   8   9
ATOM      9  C   UNL     1      31.019   2.339 101.653  1.00  0.00     0.031 C 
BRANCH   9  10
ATOM     10  C   UNL     1      32.142   3.018 100.886  1.00  0.00    -0.077 C 
ATOM     11  C   UNL     1      32.450   2.526  99.491  1.00  0.00     0.039 C 
ATOM     12  C   UNL     1      32.757   4.160 101.286  1.00  0.00    -0.028 CG0
ATOM     13  G   UNL     1      32.868   4.684 102.697  1.00  0.00     0.000 G0
ENDBRANCH   9  10
ENDBRANCH   8   9
ENDBRANCH   2   8
BRANCH   1  14
ATOM     14  C   UNL     1      30.913   3.598 105.479  1.00  0.00     0.192 C 
ATOM     15  C   UNL     1      31.622   4.778 104.887  1.00  0.00     0.096 C 
ATOM     16  O   UNL     1      30.398   4.919 105.559  1.00  0.00    -0.362 OA
ATOM     17  C   UNL     1      32.762   5.393 105.709  1.00  0.00     0.045 C 
BRANCH  15  18
ATOM     18  C   UNL     1      31.550   5.105 103.390  1.00  0.00     0.042 C 
BRANCH  18  19
ATOM     19  C   UNL     1      32.868   4.683 102.704  1.00  0.00     0.030 CG0
ATOM     20  G   UNL     1      32.769   4.177 101.286  1.00  0.00     0.000 G0
ENDBRANCH  18  19
ENDBRANCH  15  18
ENDBRANCH   1  14
TORSDOF 0
ENDMDL
MODEL 7
REMARK VINA RESULT:    -3.466      3.172      4.985
REMARK INTER + INTRA:          -4.277
REMARK INTER:                  -4.817
REMARK INTRA:                   0.539
REMARK UNBOUND:                 0.404
REMARK SMILES C=C1C(=O)O[C@H]2[C@@H]1CCC(C)=CCC[C@@]1(C)O[C@@H]21
REMARK SMILES IDX 6 1 7 2 2 3 1 4 3 5 4 6 5 7 8 8 9 9 10 10 11 11 12 12 18 14
REMARK SMILES IDX 15 15 17 16 16 17 14 18 13 19
REMARK H PARENT
REMARK Flexibility Score: 70.00
ROOT
ATOM      1  C   UNL     1      30.423   4.165 104.884  1.00  0.00     0.216 C 
ATOM      2  C   UNL     1      31.502   5.004 104.126  1.00  0.00     0.070 C 
ATOM      3  C   UNL     1      32.660   4.887 105.081  1.00  0.00     0.037 C 
ATOM      4  C   UNL     1      33.742   5.662 105.105  1.00  0.00     0.021 C 
ATOM      5  C   UNL     1      32.404   3.736 105.930  1.00  0.00     0.334 C 
ATOM      6  O   UNL     1      33.217   3.229 106.747  1.00  0.00    -0.247 OA
ATOM      7  O   UNL     1      31.139   3.234 105.689  1.00  0.00    -0.455 OA
ENDROOT
BRANCH   2   8
ATOM      8  C   UNL     1      31.871   4.498 102.700  1.00  0.00     0.017 C 
BRANCH   8   9
ATOM      9  C   UNL     1      32.450   3.060 102.655  1.00  0.00     0.031 C 
BRANCH   9  10
ATOM     10  C   UNL     1      32.363   2.335 101.322  1.00  0.00    -0.077 C 
ATOM     11  C   UNL     1      33.409   2.642 100.275  1.00  0.00     0.039 C 
ATOM     12  C   UNL     1      31.532   1.290 101.074  1.00  0.00    -0.028 CG0
ATOM     13  G   UNL     1      30.238   0.974 101.782  1.00  0.00     0.000 G0
ENDBRANCH   9  10
ENDBRANCH   8   9
ENDBRANCH   2   8
BRANCH   1  14
ATOM     14  C   UNL     1      29.181   3.620 104.139  1.00  0.00     0.192 C 
ATOM     15  C   UNL     1      28.967   2.276 103.513  1.00  0.00     0.096 C 
ATOM     16  O   UNL     1      28.687   2.506 104.868  1.00  0.00    -0.362 OA
ATOM     17  C   UNL     1      27.669   2.072 102.721  1.00  0.00     0.045 C 
BRANCH  15  18
ATOM     18  C   UNL     1      30.122   1.294 103.275  1.00  0.00     0.042 C 
BRANCH  18  19
ATOM     19  C   UNL     1      30.222   0.967 101.769  1.00  0.00     0.030 CG0
ATOM     20  G   UNL     1      31.529   1.280 101.085  1.00  0.00     0.000 G0
ENDBRANCH  18  19
ENDBRANCH  15  18
ENDBRANCH   1  14
TORSDOF 0
ENDMDL
MODEL 8
REMARK VINA RESULT:    -3.455      2.525      3.864
REMARK INTER + INTRA:          -4.262
REMARK INTER:                  -4.812
REMARK INTRA:                   0.550
REMARK UNBOUND:                 0.404
REMARK SMILES C=C1C(=O)O[C@H]2[C@@H]1CCC(C)=CCC[C@@]1(C)O[C@@H]21
REMARK SMILES IDX 6 1 7 2 2 3 1 4 3 5 4 6 5 7 8 8 9 9 10 10 11 11 12 12 18 14
REMARK SMILES IDX 15 15 17 16 16 17 14 18 13 19
REMARK H PARENT
REMARK Flexibility Score: 70.00
ROOT
ATOM      1  C   UNL     1      30.912   2.153 103.016  1.00  0.00     0.216 C 
ATOM      2  C   UNL     1      31.572   3.540 103.301  1.00  0.00     0.070 C 
ATOM      3  C   UNL     1      32.282   3.780 101.994  1.00  0.00     0.037 C 
ATOM      4  C   UNL     1      33.262   4.654 101.778  1.00  0.00     0.021 C 
ATOM      5  C   UNL     1      31.657   2.922 101.001  1.00  0.00     0.334 C 
ATOM      6  O   UNL     1      31.872   2.953  99.761  1.00  0.00    -0.247 OA
ATOM      7  O   UNL     1      30.743   2.077 101.603  1.00  0.00    -0.455 OA
ENDROOT
BRANCH   2   8
ATOM      8  C   UNL     1      30.590   4.697 103.648  1.00  0.00     0.017 C 
BRANCH   8   9
ATOM      9  C   UNL     1      30.872   5.398 105.004  1.00  0.00     0.031 C 
BRANCH   9  10
ATOM     10  C   UNL     1      32.032   4.854 105.820  1.00  0.00    -0.077 C 
ATOM     11  C   UNL     1      33.394   5.478 105.626  1.00  0.00     0.039 C 
ATOM     12  C   UNL     1      31.896   3.981 106.852  1.00  0.00    -0.028 CG0
ATOM     13  G   UNL     1      30.766   3.006 107.071  1.00  0.00     0.000 G0
ENDBRANCH   9  10
ENDBRANCH   8   9
ENDBRANCH   2   8
BRANCH   1  14
ATOM     14  C   UNL     1      29.731   1.650 103.879  1.00  0.00     0.192 C 
ATOM     15  C   UNL     1      29.626   1.543 105.370  1.00  0.00     0.096 C 
ATOM     16  O   UNL     1      29.294   2.727 104.694  1.00  0.00    -0.362 OA
ATOM     17  C   UNL     1      28.366   0.874 105.936  1.00  0.00     0.045 C 
BRANCH  15  18
ATOM     18  C   UNL     1      30.851   1.672 106.285  1.00  0.00     0.042 C 
BRANCH  18  19
ATOM     19  C   UNL     1      30.776   3.003 107.065  1.00  0.00     0.030 CG0
ATOM     20  G   UNL     1      31.913   3.976 106.870  1.00  0.00     0.000 G0
ENDBRANCH  18  19
ENDBRANCH  15  18
ENDBRANCH   1  14
TORSDOF 0
ENDMDL
MODEL 9
REMARK VINA RESULT:    -3.413      2.576      4.067
REMARK INTER + INTRA:          -4.205
REMARK INTER:                  -4.707
REMARK INTRA:                   0.502
REMARK UNBOUND:                 0.404
REMARK SMILES C=C1C(=O)O[C@H]2[C@@H]1CCC(C)=CCC[C@@]1(C)O[C@@H]21
REMARK SMILES IDX 6 1 7 2 2 3 1 4 3 5 4 6 5 7 8 8 9 9 10 10 11 11 12 12 18 14
REMARK SMILES IDX 15 15 17 16 16 17 14 18 13 19
REMARK H PARENT
REMARK Flexibility Score: 70.00
ROOT
ATOM      1  C   UNL     1      30.073   1.607 101.592  1.00  0.00     0.216 C 
ATOM      2  C   UNL     1      29.731   2.462 102.854  1.00  0.00     0.070 C 
ATOM      3  C   UNL     1      28.252   2.205 102.967  1.00  0.00     0.037 C 
ATOM      4  C   UNL     1      27.378   2.924 103.669  1.00  0.00     0.021 C 
ATOM      5  C   UNL     1      27.967   0.993 102.218  1.00  0.00     0.334 C 
ATOM      6  O   UNL     1      26.870   0.375 102.207  1.00  0.00    -0.247 OA
ATOM      7  O   UNL     1      29.095   0.573 101.537  1.00  0.00    -0.455 OA
ENDROOT
BRANCH   2   8
ATOM      8  C   UNL     1      30.490   2.075 104.158  1.00  0.00     0.017 C 
BRANCH   8   9
ATOM      9  C   UNL     1      30.991   3.281 104.995  1.00  0.00     0.031 C 
BRANCH   9  10
ATOM     10  C   UNL     1      31.125   4.607 104.263  1.00  0.00    -0.077 C 
ATOM     11  C   UNL     1      30.123   5.695 104.572  1.00  0.00     0.039 C 
ATOM     12  C   UNL     1      32.192   4.952 103.498  1.00  0.00    -0.028 CG0
ATOM     13  G   UNL     1      33.147   4.015 102.799  1.00  0.00     0.000 G0
ENDBRANCH   9  10
ENDBRANCH   8   9
ENDBRANCH   2   8
BRANCH   1  14
ATOM     14  C   UNL     1      31.533   1.190 101.293  1.00  0.00     0.192 C 
ATOM     15  C   UNL     1      32.778   2.022 101.317  1.00  0.00     0.096 C 
ATOM     16  O   UNL     1      32.296   1.392 102.473  1.00  0.00    -0.362 OA
ATOM     17  C   UNL     1      34.074   1.355 100.839  1.00  0.00     0.045 C 
BRANCH  15  18
ATOM     18  C   UNL     1      32.734   3.555 101.380  1.00  0.00     0.042 C 
BRANCH  18  19
ATOM     19  C   UNL     1      33.147   4.027 102.792  1.00  0.00     0.030 CG0
ATOM     20  G   UNL     1      32.204   4.964 103.504  1.00  0.00     0.000 G0
ENDBRANCH  18  19
ENDBRANCH  15  18
ENDBRANCH   1  14
TORSDOF 0
ENDMDL
