MODEL 1
REMARK VINA RESULT:    -6.005      0.000      0.000
REMARK INTER + INTRA:          -7.543
REMARK INTER:                  -6.883
REMARK INTRA:                  -0.660
REMARK UNBOUND:                -0.660
REMARK SMILES C=C(C)[C@H]1CC[C@]2(C(=O)[O-])CC[C@@]3(C)[C@H](CC[C@H]4[C@@]5(C)CC[C@H](O)C(C)(C)[C@H]5CC[C@]43C)[C@H]12
REMARK SMILES IDX 7 1 6 2 33 3 11 4 5 5 15 6 4 7 12 8 16 9 13 10 17 11 31 12
REMARK SMILES IDX 14 13 18 14 30 15 32 16 19 17 29 18 21 19 20 20 28 21 22 22
REMARK SMILES IDX 25 23 23 24 26 25 27 26 8 27 9 28 10 29 2 30 3 31 1 32 24 33
REMARK H PARENT 24 34
REMARK Flexibility Score: inf
ROOT
ATOM      1  C   UNL     1      74.312  55.897  18.871  1.00  0.00     0.014 C 
ATOM      2  C   UNL     1      75.060  54.619  18.466  1.00  0.00     0.014 C 
ATOM      3  C   UNL     1      72.830  55.412  18.808  1.00  0.00     0.012 C 
ATOM      4  C   UNL     1      74.750  56.503  20.285  1.00  0.00     0.014 C 
ATOM      5  C   UNL     1      74.159  53.891  17.450  1.00  0.00     0.009 C 
ATOM      6  C   UNL     1      72.130  55.241  20.176  1.00  0.00     0.000 C 
ATOM      7  C   UNL     1      72.730  54.109  17.948  1.00  0.00     0.018 C 
ATOM      8  C   UNL     1      73.667  56.770  21.418  1.00  0.00     0.008 C 
ATOM      9  C   UNL     1      72.689  54.061  21.091  1.00  0.00     0.005 C 
ATOM     10  C   UNL     1      72.165  56.585  20.978  1.00  0.00    -0.024 C 
ATOM     11  C   UNL     1      72.162  54.083  22.562  1.00  0.00     0.005 C 
ATOM     12  C   UNL     1      71.084  56.444  22.160  1.00  0.00    -0.024 C 
ATOM     13  C   UNL     1      71.843  57.853  20.074  1.00  0.00     0.012 C 
ATOM     14  C   UNL     1      70.940  54.987  22.739  1.00  0.00     0.002 C 
ATOM     15  C   UNL     1      71.456  57.355  23.341  1.00  0.00     0.008 C 
ATOM     16  C   UNL     1      69.663  56.837  21.588  1.00  0.00     0.012 C 
ATOM     17  C   UNL     1      70.063  54.793  24.114  1.00  0.00    -0.026 C 
ATOM     18  C   UNL     1      70.442  57.396  24.490  1.00  0.00     0.005 C 
ATOM     19  C   UNL     1      70.826  54.084  25.315  1.00  0.00     0.010 C 
ATOM     20  C   UNL     1      68.889  53.816  23.697  1.00  0.00     0.012 C 
ATOM     21  C   UNL     1      69.468  56.178  24.653  1.00  0.00     0.003 C 
ATOM     22  C   UNL     1      71.292  55.003  26.475  1.00  0.00     0.033 C 
ATOM     23  C   UNL     1      68.941  56.138  26.159  1.00  0.00    -0.006 C 
ATOM     24  C   UNL     1      70.083  55.720  27.199  1.00  0.00     0.120 C 
ATOM     25  C   UNL     1      67.677  55.201  26.249  1.00  0.00     0.014 C 
ATOM     26  C   UNL     1      68.443  57.535  26.595  1.00  0.00     0.014 C 
ENDROOT
BRANCH   1  27
ATOM     27  C   UNL     1      74.562  56.922  17.738  1.00  0.00     0.048 C 
ATOM     28  O   UNL     1      75.757  57.274  17.477  1.00  0.00    -0.550 OA
ATOM     29  O   UNL     1      73.550  57.384  16.888  1.00  0.00    -0.550 OA
ENDBRANCH   1  27
BRANCH   7  30
ATOM     30  C   UNL     1      71.600  54.096  16.870  1.00  0.00    -0.077 C 
ATOM     31  C   UNL     1      70.249  53.564  17.285  1.00  0.00     0.039 C 
ATOM     32  C   UNL     1      71.666  54.645  15.628  1.00  0.00     0.008 C 
ENDBRANCH   7  30
BRANCH  24  33
ATOM     33  O   UNL     1      69.548  54.941  28.255  1.00  0.00    -0.393 OA
ATOM     34  H   UNL     1      69.396  55.527  29.056  1.00  0.00     0.210 HD
ENDBRANCH  24  33
TORSDOF 3
ENDMDL
MODEL 2
REMARK VINA RESULT:    -5.617      1.808      8.174
REMARK INTER + INTRA:          -7.098
REMARK INTER:                  -6.409
REMARK INTRA:                  -0.689
REMARK UNBOUND:                -0.660
REMARK SMILES C=C(C)[C@H]1CC[C@]2(C(=O)[O-])CC[C@@]3(C)[C@H](CC[C@H]4[C@@]5(C)CC[C@H](O)C(C)(C)[C@H]5CC[C@]43C)[C@H]12
REMARK SMILES IDX 7 1 6 2 33 3 11 4 5 5 15 6 4 7 12 8 16 9 13 10 17 11 31 12
REMARK SMILES IDX 14 13 18 14 30 15 32 16 19 17 29 18 21 19 20 20 28 21 22 22
REMARK SMILES IDX 25 23 23 24 26 25 27 26 8 27 9 28 10 29 2 30 3 31 1 32 24 33
REMARK H PARENT 24 34
REMARK Flexibility Score: inf
ROOT
ATOM      1  C   UNL     1      69.547  55.006  25.701  1.00  0.00     0.014 C 
ATOM      2  C   UNL     1      70.391  54.090  26.599  1.00  0.00     0.014 C 
ATOM      3  C   UNL     1      70.625  56.021  25.209  1.00  0.00     0.012 C 
ATOM      4  C   UNL     1      68.766  54.251  24.527  1.00  0.00     0.014 C 
ATOM      5  C   UNL     1      71.468  54.982  27.242  1.00  0.00     0.009 C 
ATOM      6  C   UNL     1      71.037  55.884  23.724  1.00  0.00     0.000 C 
ATOM      7  C   UNL     1      71.871  55.978  26.154  1.00  0.00     0.018 C 
ATOM      8  C   UNL     1      68.955  54.699  23.014  1.00  0.00     0.008 C 
ATOM      9  C   UNL     1      71.830  54.552  23.353  1.00  0.00     0.005 C 
ATOM     10  C   UNL     1      69.783  56.021  22.797  1.00  0.00    -0.024 C 
ATOM     11  C   UNL     1      71.990  54.306  21.818  1.00  0.00     0.005 C 
ATOM     12  C   UNL     1      70.338  56.284  21.311  1.00  0.00    -0.024 C 
ATOM     13  C   UNL     1      68.808  57.195  23.245  1.00  0.00     0.012 C 
ATOM     14  C   UNL     1      71.696  55.556  20.984  1.00  0.00     0.002 C 
ATOM     15  C   UNL     1      69.318  55.809  20.264  1.00  0.00     0.008 C 
ATOM     16  C   UNL     1      70.615  57.832  21.146  1.00  0.00     0.012 C 
ATOM     17  C   UNL     1      72.204  55.546  19.423  1.00  0.00    -0.026 C 
ATOM     18  C   UNL     1      69.681  56.105  18.803  1.00  0.00     0.005 C 
ATOM     19  C   UNL     1      72.476  54.108  18.803  1.00  0.00     0.010 C 
ATOM     20  C   UNL     1      73.604  56.283  19.461  1.00  0.00     0.012 C 
ATOM     21  C   UNL     1      71.194  56.323  18.453  1.00  0.00     0.003 C 
ATOM     22  C   UNL     1      71.407  53.571  17.813  1.00  0.00     0.033 C 
ATOM     23  C   UNL     1      71.408  56.035  16.898  1.00  0.00    -0.006 C 
ATOM     24  C   UNL     1      71.259  54.485  16.532  1.00  0.00     0.120 C 
ATOM     25  C   UNL     1      72.794  56.628  16.440  1.00  0.00     0.014 C 
ATOM     26  C   UNL     1      70.349  56.787  16.058  1.00  0.00     0.014 C 
ENDROOT
BRANCH   1  27
ATOM     27  C   UNL     1      68.552  55.733  26.638  1.00  0.00     0.048 C 
ATOM     28  O   UNL     1      67.859  55.046  27.455  1.00  0.00    -0.550 OA
ATOM     29  O   UNL     1      68.469  57.127  26.732  1.00  0.00    -0.550 OA
ENDBRANCH   1  27
BRANCH   7  30
ATOM     30  C   UNL     1      72.406  57.365  26.632  1.00  0.00    -0.077 C 
ATOM     31  C   UNL     1      71.623  58.590  26.226  1.00  0.00     0.039 C 
ATOM     32  C   UNL     1      73.431  57.576  27.500  1.00  0.00     0.008 C 
ENDBRANCH   7  30
BRANCH  24  33
ATOM     33  O   UNL     1      72.157  54.118  15.500  1.00  0.00    -0.393 OA
ATOM     34  H   UNL     1      71.636  53.833  14.691  1.00  0.00     0.210 HD
ENDBRANCH  24  33
TORSDOF 3
ENDMDL
MODEL 3
REMARK VINA RESULT:    -5.591      1.874      8.388
REMARK INTER + INTRA:          -7.068
REMARK INTER:                  -6.469
REMARK INTRA:                  -0.600
REMARK UNBOUND:                -0.660
REMARK SMILES C=C(C)[C@H]1CC[C@]2(C(=O)[O-])CC[C@@]3(C)[C@H](CC[C@H]4[C@@]5(C)CC[C@H](O)C(C)(C)[C@H]5CC[C@]43C)[C@H]12
REMARK SMILES IDX 7 1 6 2 33 3 11 4 5 5 15 6 4 7 12 8 16 9 13 10 17 11 31 12
REMARK SMILES IDX 14 13 18 14 30 15 32 16 19 17 29 18 21 19 20 20 28 21 22 22
REMARK SMILES IDX 25 23 23 24 26 25 27 26 8 27 9 28 10 29 2 30 3 31 1 32 24 33
REMARK H PARENT 24 34
REMARK Flexibility Score: inf
ROOT
ATOM      1  C   UNL     1      69.370  56.121  25.569  1.00  0.00     0.014 C 
ATOM      2  C   UNL     1      69.539  57.407  26.391  1.00  0.00     0.014 C 
ATOM      3  C   UNL     1      68.359  56.591  24.478  1.00  0.00     0.012 C 
ATOM      4  C   UNL     1      70.734  55.519  24.990  1.00  0.00     0.014 C 
ATOM      5  C   UNL     1      68.177  58.126  26.358  1.00  0.00     0.009 C 
ATOM      6  C   UNL     1      68.944  56.755  23.056  1.00  0.00     0.000 C 
ATOM      7  C   UNL     1      67.630  57.893  24.949  1.00  0.00     0.018 C 
ATOM      8  C   UNL     1      70.896  55.241  23.434  1.00  0.00     0.008 C 
ATOM      9  C   UNL     1      69.996  57.940  22.879  1.00  0.00     0.005 C 
ATOM     10  C   UNL     1      69.586  55.410  22.574  1.00  0.00    -0.024 C 
ATOM     11  C   UNL     1      70.774  57.912  21.524  1.00  0.00     0.005 C 
ATOM     12  C   UNL     1      69.784  55.540  20.984  1.00  0.00    -0.024 C 
ATOM     13  C   UNL     1      68.697  54.139  22.926  1.00  0.00     0.012 C 
ATOM     14  C   UNL     1      70.121  56.995  20.486  1.00  0.00     0.002 C 
ATOM     15  C   UNL     1      70.929  54.632  20.508  1.00  0.00     0.008 C 
ATOM     16  C   UNL     1      68.429  55.133  20.276  1.00  0.00     0.012 C 
ATOM     17  C   UNL     1      70.598  57.180  18.925  1.00  0.00    -0.026 C 
ATOM     18  C   UNL     1      71.146  54.581  18.990  1.00  0.00     0.005 C 
ATOM     19  C   UNL     1      72.002  57.896  18.721  1.00  0.00     0.010 C 
ATOM     20  C   UNL     1      69.513  58.145  18.295  1.00  0.00     0.012 C 
ATOM     21  C   UNL     1      70.631  55.788  18.134  1.00  0.00     0.003 C 
ATOM     22  C   UNL     1      73.193  56.981  18.331  1.00  0.00     0.033 C 
ATOM     23  C   UNL     1      71.435  55.822  16.756  1.00  0.00    -0.006 C 
ATOM     24  C   UNL     1      72.964  56.252  16.947  1.00  0.00     0.120 C 
ATOM     25  C   UNL     1      70.678  56.746  15.728  1.00  0.00     0.014 C 
ATOM     26  C   UNL     1      71.453  54.420  16.105  1.00  0.00     0.014 C 
ENDROOT
BRANCH   1  27
ATOM     27  C   UNL     1      68.677  55.100  26.502  1.00  0.00     0.048 C 
ATOM     28  O   UNL     1      67.587  54.560  26.126  1.00  0.00    -0.550 OA
ATOM     29  O   UNL     1      69.255  54.630  27.687  1.00  0.00    -0.550 OA
ENDBRANCH   1  27
BRANCH   7  30
ATOM     30  C   UNL     1      66.077  57.896  24.789  1.00  0.00    -0.077 C 
ATOM     31  C   UNL     1      65.297  58.907  25.593  1.00  0.00     0.039 C 
ATOM     32  C   UNL     1      65.360  57.172  23.889  1.00  0.00     0.008 C 
ENDBRANCH   7  30
BRANCH  24  33
ATOM     33  O   UNL     1      73.416  57.024  15.849  1.00  0.00    -0.393 OA
ATOM     34  H   UNL     1      72.648  57.199  15.226  1.00  0.00     0.210 HD
ENDBRANCH  24  33
TORSDOF 3
ENDMDL
MODEL 4
REMARK VINA RESULT:    -5.299      2.726      8.242
REMARK INTER + INTRA:          -6.734
REMARK INTER:                  -6.131
REMARK INTRA:                  -0.603
REMARK UNBOUND:                -0.660
REMARK SMILES C=C(C)[C@H]1CC[C@]2(C(=O)[O-])CC[C@@]3(C)[C@H](CC[C@H]4[C@@]5(C)CC[C@H](O)C(C)(C)[C@H]5CC[C@]43C)[C@H]12
REMARK SMILES IDX 7 1 6 2 33 3 11 4 5 5 15 6 4 7 12 8 16 9 13 10 17 11 31 12
REMARK SMILES IDX 14 13 18 14 30 15 32 16 19 17 29 18 21 19 20 20 28 21 22 22
REMARK SMILES IDX 25 23 23 24 26 25 27 26 8 27 9 28 10 29 2 30 3 31 1 32 24 33
REMARK H PARENT 24 34
REMARK Flexibility Score: inf
ROOT
ATOM      1  C   UNL     1      72.384  53.954  22.304  1.00  0.00     0.014 C 
ATOM      2  C   UNL     1      72.618  54.889  23.500  1.00  0.00     0.014 C 
ATOM      3  C   UNL     1      70.990  54.446  21.806  1.00  0.00     0.012 C 
ATOM      4  C   UNL     1      73.535  53.993  21.194  1.00  0.00     0.014 C 
ATOM      5  C   UNL     1      71.235  55.157  24.120  1.00  0.00     0.009 C 
ATOM      6  C   UNL     1      71.001  55.229  20.472  1.00  0.00     0.000 C 
ATOM      7  C   UNL     1      70.272  55.255  22.937  1.00  0.00     0.018 C 
ATOM      8  C   UNL     1      73.180  54.301  19.676  1.00  0.00     0.008 C 
ATOM      9  C   UNL     1      71.713  56.655  20.519  1.00  0.00     0.005 C 
ATOM     10  C   UNL     1      71.642  54.362  19.337  1.00  0.00    -0.024 C 
ATOM     11  C   UNL     1      71.956  57.299  19.116  1.00  0.00     0.005 C 
ATOM     12  C   UNL     1      71.242  55.059  17.945  1.00  0.00    -0.024 C 
ATOM     13  C   UNL     1      71.155  52.848  19.366  1.00  0.00     0.012 C 
ATOM     14  C   UNL     1      71.139  56.629  18.008  1.00  0.00     0.002 C 
ATOM     15  C   UNL     1      72.277  54.726  16.859  1.00  0.00     0.008 C 
ATOM     16  C   UNL     1      69.811  54.538  17.517  1.00  0.00     0.012 C 
ATOM     17  C   UNL     1      70.997  57.445  16.590  1.00  0.00    -0.026 C 
ATOM     18  C   UNL     1      71.951  55.242  15.452  1.00  0.00     0.005 C 
ATOM     19  C   UNL     1      72.101  58.559  16.331  1.00  0.00     0.010 C 
ATOM     20  C   UNL     1      69.617  58.211  16.714  1.00  0.00     0.012 C 
ATOM     21  C   UNL     1      70.976  56.463  15.326  1.00  0.00     0.003 C 
ATOM     22  C   UNL     1      73.210  58.204  15.305  1.00  0.00     0.033 C 
ATOM     23  C   UNL     1      71.225  57.178  13.921  1.00  0.00    -0.006 C 
ATOM     24  C   UNL     1      72.631  57.938  13.858  1.00  0.00     0.120 C 
ATOM     25  C   UNL     1      70.013  58.130  13.594  1.00  0.00     0.014 C 
ATOM     26  C   UNL     1      71.241  56.135  12.779  1.00  0.00     0.014 C 
ENDROOT
BRANCH   1  27
ATOM     27  C   UNL     1      72.241  52.529  22.891  1.00  0.00     0.048 C 
ATOM     28  O   UNL     1      73.257  51.977  23.425  1.00  0.00    -0.550 OA
ATOM     29  O   UNL     1      71.015  51.861  22.990  1.00  0.00    -0.550 OA
ENDBRANCH   1  27
BRANCH   7  30
ATOM     30  C   UNL     1      68.784  54.866  23.207  1.00  0.00    -0.077 C 
ATOM     31  C   UNL     1      68.433  54.381  24.593  1.00  0.00     0.039 C 
ATOM     32  C   UNL     1      67.737  55.051  22.360  1.00  0.00     0.008 C 
ENDBRANCH   7  30
BRANCH  24  33
ATOM     33  O   UNL     1      72.533  59.125  13.090  1.00  0.00    -0.393 OA
ATOM     34  H   UNL     1      72.766  59.914  13.665  1.00  0.00     0.210 HD
ENDBRANCH  24  33
TORSDOF 3
ENDMDL
MODEL 5
REMARK VINA RESULT:    -5.260      1.732      2.583
REMARK INTER + INTRA:          -6.689
REMARK INTER:                  -6.058
REMARK INTRA:                  -0.631
REMARK UNBOUND:                -0.660
REMARK SMILES C=C(C)[C@H]1CC[C@]2(C(=O)[O-])CC[C@@]3(C)[C@H](CC[C@H]4[C@@]5(C)CC[C@H](O)C(C)(C)[C@H]5CC[C@]43C)[C@H]12
REMARK SMILES IDX 7 1 6 2 33 3 11 4 5 5 15 6 4 7 12 8 16 9 13 10 17 11 31 12
REMARK SMILES IDX 14 13 18 14 30 15 32 16 19 17 29 18 21 19 20 20 28 21 22 22
REMARK SMILES IDX 25 23 23 24 26 25 27 26 8 27 9 28 10 29 2 30 3 31 1 32 24 33
REMARK H PARENT 24 34
REMARK Flexibility Score: inf
ROOT
ATOM      1  C   UNL     1      72.906  54.654  18.387  1.00  0.00     0.014 C 
ATOM      2  C   UNL     1      72.299  53.520  17.548  1.00  0.00     0.014 C 
ATOM      3  C   UNL     1      71.828  55.769  18.210  1.00  0.00     0.012 C 
ATOM      4  C   UNL     1      73.211  54.265  19.908  1.00  0.00     0.014 C 
ATOM      5  C   UNL     1      71.561  54.192  16.375  1.00  0.00     0.009 C 
ATOM      6  C   UNL     1      70.967  56.063  19.460  1.00  0.00     0.000 C 
ATOM      7  C   UNL     1      70.937  55.459  16.963  1.00  0.00     0.018 C 
ATOM      8  C   UNL     1      72.607  55.129  21.097  1.00  0.00     0.008 C 
ATOM      9  C   UNL     1      69.977  54.895  19.902  1.00  0.00     0.005 C 
ATOM     10  C   UNL     1      71.880  56.459  20.669  1.00  0.00    -0.024 C 
ATOM     11  C   UNL     1      69.328  55.099  21.310  1.00  0.00     0.005 C 
ATOM     12  C   UNL     1      70.920  57.137  21.767  1.00  0.00    -0.024 C 
ATOM     13  C   UNL     1      73.051  57.454  20.259  1.00  0.00     0.012 C 
ATOM     14  C   UNL     1      69.467  56.535  21.822  1.00  0.00     0.002 C 
ATOM     15  C   UNL     1      71.518  56.981  23.174  1.00  0.00     0.008 C 
ATOM     16  C   UNL     1      70.752  58.669  21.407  1.00  0.00     0.012 C 
ATOM     17  C   UNL     1      68.502  56.974  23.076  1.00  0.00    -0.026 C 
ATOM     18  C   UNL     1      70.751  57.684  24.301  1.00  0.00     0.005 C 
ATOM     19  C   UNL     1      67.919  55.775  23.940  1.00  0.00     0.010 C 
ATOM     20  C   UNL     1      67.258  57.671  22.390  1.00  0.00     0.012 C 
ATOM     21  C   UNL     1      69.232  57.995  24.072  1.00  0.00     0.003 C 
ATOM     22  C   UNL     1      68.573  55.542  25.328  1.00  0.00     0.033 C 
ATOM     23  C   UNL     1      68.521  58.165  25.491  1.00  0.00    -0.006 C 
ATOM     24  C   UNL     1      68.404  56.785  26.290  1.00  0.00     0.120 C 
ATOM     25  C   UNL     1      67.123  58.866  25.297  1.00  0.00     0.014 C 
ATOM     26  C   UNL     1      69.335  59.124  26.390  1.00  0.00     0.014 C 
ENDROOT
BRANCH   1  27
ATOM     27  C   UNL     1      74.205  55.081  17.662  1.00  0.00     0.048 C 
ATOM     28  O   UNL     1      75.140  54.229  17.519  1.00  0.00    -0.550 OA
ATOM     29  O   UNL     1      74.357  56.321  17.030  1.00  0.00    -0.550 OA
ENDBRANCH   1  27
BRANCH   7  30
ATOM     30  C   UNL     1      70.709  56.651  15.980  1.00  0.00    -0.077 C 
ATOM     31  C   UNL     1      71.285  56.526  14.590  1.00  0.00     0.039 C 
ATOM     32  C   UNL     1      69.921  57.736  16.201  1.00  0.00     0.008 C 
ENDBRANCH   7  30
BRANCH  24  33
ATOM     33  O   UNL     1      67.201  56.730  27.036  1.00  0.00    -0.393 OA
ATOM     34  H   UNL     1      66.607  57.493  26.766  1.00  0.00     0.210 HD
ENDBRANCH  24  33
TORSDOF 3
ENDMDL
MODEL 6
REMARK VINA RESULT:    -5.153      1.804      3.556
REMARK INTER + INTRA:          -6.567
REMARK INTER:                  -5.943
REMARK INTRA:                  -0.623
REMARK UNBOUND:                -0.660
REMARK SMILES C=C(C)[C@H]1CC[C@]2(C(=O)[O-])CC[C@@]3(C)[C@H](CC[C@H]4[C@@]5(C)CC[C@H](O)C(C)(C)[C@H]5CC[C@]43C)[C@H]12
REMARK SMILES IDX 7 1 6 2 33 3 11 4 5 5 15 6 4 7 12 8 16 9 13 10 17 11 31 12
REMARK SMILES IDX 14 13 18 14 30 15 32 16 19 17 29 18 21 19 20 20 28 21 22 22
REMARK SMILES IDX 25 23 23 24 26 25 27 26 8 27 9 28 10 29 2 30 3 31 1 32 24 33
REMARK H PARENT 24 34
REMARK Flexibility Score: inf
ROOT
ATOM      1  C   UNL     1      71.474  56.125  17.289  1.00  0.00     0.014 C 
ATOM      2  C   UNL     1      72.294  57.313  16.766  1.00  0.00     0.014 C 
ATOM      3  C   UNL     1      72.395  55.606  18.436  1.00  0.00     0.012 C 
ATOM      4  C   UNL     1      69.988  56.495  17.751  1.00  0.00     0.014 C 
ATOM      5  C   UNL     1      73.775  56.925  16.927  1.00  0.00     0.009 C 
ATOM      6  C   UNL     1      71.880  55.869  19.871  1.00  0.00     0.000 C 
ATOM      7  C   UNL     1      73.849  56.149  18.243  1.00  0.00     0.018 C 
ATOM      8  C   UNL     1      69.484  56.132  19.214  1.00  0.00     0.008 C 
ATOM      9  C   UNL     1      71.846  57.399  20.318  1.00  0.00     0.005 C 
ATOM     10  C   UNL     1      70.462  55.236  20.065  1.00  0.00    -0.024 C 
ATOM     11  C   UNL     1      71.071  57.663  21.649  1.00  0.00     0.005 C 
ATOM     12  C   UNL     1      70.193  55.187  21.650  1.00  0.00    -0.024 C 
ATOM     13  C   UNL     1      70.342  53.781  19.433  1.00  0.00     0.012 C 
ATOM     14  C   UNL     1      70.826  56.383  22.454  1.00  0.00     0.002 C 
ATOM     15  C   UNL     1      68.684  55.207  21.940  1.00  0.00     0.008 C 
ATOM     16  C   UNL     1      70.847  53.869  22.228  1.00  0.00     0.012 C 
ATOM     17  C   UNL     1      70.389  56.566  24.027  1.00  0.00    -0.026 C 
ATOM     18  C   UNL     1      68.292  55.053  23.415  1.00  0.00     0.005 C 
ATOM     19  C   UNL     1      69.782  57.985  24.406  1.00  0.00     0.010 C 
ATOM     20  C   UNL     1      71.747  56.437  24.829  1.00  0.00     0.012 C 
ATOM     21  C   UNL     1      69.354  55.440  24.501  1.00  0.00     0.003 C 
ATOM     22  C   UNL     1      68.245  58.044  24.613  1.00  0.00     0.033 C 
ATOM     23  C   UNL     1      68.597  55.762  25.869  1.00  0.00    -0.006 C 
ATOM     24  C   UNL     1      67.761  57.124  25.803  1.00  0.00     0.120 C 
ATOM     25  C   UNL     1      69.633  55.752  27.057  1.00  0.00     0.014 C 
ATOM     26  C   UNL     1      67.585  54.643  26.204  1.00  0.00     0.014 C 
ENDROOT
BRANCH   1  27
ATOM     27  C   UNL     1      71.446  55.082  16.146  1.00  0.00     0.048 C 
ATOM     28  O   UNL     1      71.796  53.884  16.394  1.00  0.00    -0.550 OA
ATOM     29  O   UNL     1      70.924  55.354  14.876  1.00  0.00    -0.550 OA
ENDBRANCH   1  27
BRANCH   7  30
ATOM     30  C   UNL     1      74.990  55.090  18.371  1.00  0.00    -0.077 C 
ATOM     31  C   UNL     1      76.125  55.403  19.316  1.00  0.00     0.039 C 
ATOM     32  C   UNL     1      74.998  53.846  17.824  1.00  0.00     0.008 C 
ENDBRANCH   7  30
BRANCH  24  33
ATOM     33  O   UNL     1      67.785  57.797  27.050  1.00  0.00    -0.393 OA
ATOM     34  H   UNL     1      67.208  57.303  27.706  1.00  0.00     0.210 HD
ENDBRANCH  24  33
TORSDOF 3
ENDMDL
MODEL 7
REMARK VINA RESULT:    -5.148      1.962      8.248
REMARK INTER + INTRA:          -6.560
REMARK INTER:                  -5.911
REMARK INTRA:                  -0.649
REMARK UNBOUND:                -0.660
REMARK SMILES C=C(C)[C@H]1CC[C@]2(C(=O)[O-])CC[C@@]3(C)[C@H](CC[C@H]4[C@@]5(C)CC[C@H](O)C(C)(C)[C@H]5CC[C@]43C)[C@H]12
REMARK SMILES IDX 7 1 6 2 33 3 11 4 5 5 15 6 4 7 12 8 16 9 13 10 17 11 31 12
REMARK SMILES IDX 14 13 18 14 30 15 32 16 19 17 29 18 21 19 20 20 28 21 22 22
REMARK SMILES IDX 25 23 23 24 26 25 27 26 8 27 9 28 10 29 2 30 3 31 1 32 24 33
REMARK H PARENT 24 34
REMARK Flexibility Score: inf
ROOT
ATOM      1  C   UNL     1      67.932  56.443  25.025  1.00  0.00     0.014 C 
ATOM      2  C   UNL     1      67.441  55.184  25.754  1.00  0.00     0.014 C 
ATOM      3  C   UNL     1      69.468  56.179  24.971  1.00  0.00     0.012 C 
ATOM      4  C   UNL     1      67.253  56.691  23.598  1.00  0.00     0.014 C 
ATOM      5  C   UNL     1      68.549  54.798  26.751  1.00  0.00     0.009 C 
ATOM      6  C   UNL     1      70.033  55.832  23.573  1.00  0.00     0.000 C 
ATOM      7  C   UNL     1      69.864  55.099  26.031  1.00  0.00     0.018 C 
ATOM      8  C   UNL     1      68.150  56.867  22.298  1.00  0.00     0.008 C 
ATOM      9  C   UNL     1      69.568  54.431  22.973  1.00  0.00     0.005 C 
ATOM     10  C   UNL     1      69.702  56.973  22.554  1.00  0.00    -0.024 C 
ATOM     11  C   UNL     1      69.921  54.228  21.464  1.00  0.00     0.005 C 
ATOM     12  C   UNL     1      70.655  56.743  21.280  1.00  0.00    -0.024 C 
ATOM     13  C   UNL     1      69.920  58.427  23.160  1.00  0.00     0.012 C 
ATOM     14  C   UNL     1      70.961  55.232  20.960  1.00  0.00     0.002 C 
ATOM     15  C   UNL     1      70.020  57.343  20.016  1.00  0.00     0.008 C 
ATOM     16  C   UNL     1      72.052  57.425  21.570  1.00  0.00     0.012 C 
ATOM     17  C   UNL     1      71.701  54.884  19.536  1.00  0.00    -0.026 C 
ATOM     18  C   UNL     1      70.884  57.287  18.750  1.00  0.00     0.005 C 
ATOM     19  C   UNL     1      70.932  53.856  18.600  1.00  0.00     0.010 C 
ATOM     20  C   UNL     1      73.051  54.173  19.958  1.00  0.00     0.012 C 
ATOM     21  C   UNL     1      72.011  56.201  18.678  1.00  0.00     0.003 C 
ATOM     22  C   UNL     1      70.204  54.457  17.368  1.00  0.00     0.033 C 
ATOM     23  C   UNL     1      72.370  55.930  17.147  1.00  0.00    -0.006 C 
ATOM     24  C   UNL     1      71.200  55.167  16.367  1.00  0.00     0.120 C 
ATOM     25  C   UNL     1      73.746  55.169  17.056  1.00  0.00     0.014 C 
ATOM     26  C   UNL     1      72.594  57.266  16.401  1.00  0.00     0.014 C 
ENDROOT
BRANCH   1  27
ATOM     27  C   UNL     1      67.651  57.630  25.976  1.00  0.00     0.048 C 
ATOM     28  O   UNL     1      68.582  58.466  26.212  1.00  0.00    -0.550 OA
ATOM     29  O   UNL     1      66.381  57.915  26.491  1.00  0.00    -0.550 OA
ENDBRANCH   1  27
BRANCH   7  30
ATOM     30  C   UNL     1      71.093  55.449  26.928  1.00  0.00    -0.077 C 
ATOM     31  C   UNL     1      71.710  56.817  26.759  1.00  0.00     0.039 C 
ATOM     32  C   UNL     1      71.582  54.699  27.951  1.00  0.00     0.008 C 
ENDBRANCH   7  30
BRANCH  24  33
ATOM     33  O   UNL     1      71.731  54.271  15.406  1.00  0.00    -0.393 OA
ATOM     34  H   UNL     1      72.727  54.221  15.513  1.00  0.00     0.210 HD
ENDBRANCH  24  33
TORSDOF 3
ENDMDL
MODEL 8
REMARK VINA RESULT:    -5.121      3.597      7.047
REMARK INTER + INTRA:          -6.530
REMARK INTER:                  -6.296
REMARK INTRA:                  -0.234
REMARK UNBOUND:                -0.660
REMARK SMILES C=C(C)[C@H]1CC[C@]2(C(=O)[O-])CC[C@@]3(C)[C@H](CC[C@H]4[C@@]5(C)CC[C@H](O)C(C)(C)[C@H]5CC[C@]43C)[C@H]12
REMARK SMILES IDX 7 1 6 2 33 3 11 4 5 5 15 6 4 7 12 8 16 9 13 10 17 11 31 12
REMARK SMILES IDX 14 13 18 14 30 15 32 16 19 17 29 18 21 19 20 20 28 21 22 22
REMARK SMILES IDX 25 23 23 24 26 25 27 26 8 27 9 28 10 29 2 30 3 31 1 32 24 33
REMARK H PARENT 24 34
REMARK Flexibility Score: inf
ROOT
ATOM      1  C   UNL     1      74.428  54.905  23.768  1.00  0.00     0.014 C 
ATOM      2  C   UNL     1      74.967  56.333  23.597  1.00  0.00     0.014 C 
ATOM      3  C   UNL     1      72.997  55.188  24.322  1.00  0.00     0.012 C 
ATOM      4  C   UNL     1      74.457  54.020  22.436  1.00  0.00     0.014 C 
ATOM      5  C   UNL     1      74.348  57.170  24.731  1.00  0.00     0.009 C 
ATOM      6  C   UNL     1      71.837  54.907  23.339  1.00  0.00     0.000 C 
ATOM      7  C   UNL     1      72.922  56.643  24.892  1.00  0.00     0.018 C 
ATOM      8  C   UNL     1      73.132  53.329  21.897  1.00  0.00     0.008 C 
ATOM      9  C   UNL     1      71.758  55.875  22.075  1.00  0.00     0.005 C 
ATOM     10  C   UNL     1      71.883  53.418  22.854  1.00  0.00    -0.024 C 
ATOM     11  C   UNL     1      70.762  55.406  20.966  1.00  0.00     0.005 C 
ATOM     12  C   UNL     1      70.450  53.106  22.195  1.00  0.00    -0.024 C 
ATOM     13  C   UNL     1      72.193  52.394  24.031  1.00  0.00     0.012 C 
ATOM     14  C   UNL     1      69.789  54.331  21.461  1.00  0.00     0.002 C 
ATOM     15  C   UNL     1      70.570  51.979  21.157  1.00  0.00     0.008 C 
ATOM     16  C   UNL     1      69.450  52.687  23.347  1.00  0.00     0.012 C 
ATOM     17  C   UNL     1      68.462  54.047  20.537  1.00  0.00    -0.026 C 
ATOM     18  C   UNL     1      69.250  51.509  20.534  1.00  0.00     0.005 C 
ATOM     19  C   UNL     1      68.570  54.518  19.024  1.00  0.00     0.010 C 
ATOM     20  C   UNL     1      67.327  54.933  21.196  1.00  0.00     0.012 C 
ATOM     21  C   UNL     1      68.037  52.503  20.548  1.00  0.00     0.003 C 
ATOM     22  C   UNL     1      68.785  53.402  17.967  1.00  0.00     0.033 C 
ATOM     23  C   UNL     1      67.015  52.084  19.396  1.00  0.00    -0.006 C 
ATOM     24  C   UNL     1      67.590  52.368  17.930  1.00  0.00     0.120 C 
ATOM     25  C   UNL     1      65.628  52.789  19.643  1.00  0.00     0.014 C 
ATOM     26  C   UNL     1      66.718  50.568  19.462  1.00  0.00     0.014 C 
ENDROOT
BRANCH   1  27
ATOM     27  C   UNL     1      75.284  54.249  24.877  1.00  0.00     0.048 C 
ATOM     28  O   UNL     1      75.721  53.066  24.702  1.00  0.00    -0.550 OA
ATOM     29  O   UNL     1      75.723  54.939  26.014  1.00  0.00    -0.550 OA
ENDBRANCH   1  27
BRANCH   7  30
ATOM     30  C   UNL     1      72.277  56.783  26.307  1.00  0.00    -0.077 C 
ATOM     31  C   UNL     1      71.778  55.522  26.972  1.00  0.00     0.039 C 
ATOM     32  C   UNL     1      72.243  57.909  27.068  1.00  0.00     0.008 C 
ENDBRANCH   7  30
BRANCH  24  33
ATOM     33  O   UNL     1      66.556  52.771  17.049  1.00  0.00    -0.393 OA
ATOM     34  H   UNL     1      66.923  52.845  16.117  1.00  0.00     0.210 HD
ENDBRANCH  24  33
TORSDOF 3
ENDMDL
MODEL 9
REMARK VINA RESULT:    -5.114      2.549      8.261
REMARK INTER + INTRA:          -6.521
REMARK INTER:                  -5.848
REMARK INTRA:                  -0.674
REMARK UNBOUND:                -0.660
REMARK SMILES C=C(C)[C@H]1CC[C@]2(C(=O)[O-])CC[C@@]3(C)[C@H](CC[C@H]4[C@@]5(C)CC[C@H](O)C(C)(C)[C@H]5CC[C@]43C)[C@H]12
REMARK SMILES IDX 7 1 6 2 33 3 11 4 5 5 15 6 4 7 12 8 16 9 13 10 17 11 31 12
REMARK SMILES IDX 14 13 18 14 30 15 32 16 19 17 29 18 21 19 20 20 28 21 22 22
REMARK SMILES IDX 25 23 23 24 26 25 27 26 8 27 9 28 10 29 2 30 3 31 1 32 24 33
REMARK H PARENT 24 34
REMARK Flexibility Score: inf
ROOT
ATOM      1  C   UNL     1      69.923  53.708  22.599  1.00  0.00     0.014 C 
ATOM      2  C   UNL     1      70.598  52.377  22.960  1.00  0.00     0.014 C 
ATOM      3  C   UNL     1      71.165  54.638  22.431  1.00  0.00     0.012 C 
ATOM      4  C   UNL     1      68.968  53.643  21.317  1.00  0.00     0.014 C 
ATOM      5  C   UNL     1      71.853  52.732  23.779  1.00  0.00     0.009 C 
ATOM      6  C   UNL     1      71.491  55.054  20.977  1.00  0.00     0.000 C 
ATOM      7  C   UNL     1      72.409  54.003  23.135  1.00  0.00     0.018 C 
ATOM      8  C   UNL     1      69.192  54.633  20.094  1.00  0.00     0.008 C 
ATOM      9  C   UNL     1      71.989  53.879  20.023  1.00  0.00     0.005 C 
ATOM     10  C   UNL     1      70.259  55.769  20.326  1.00  0.00    -0.024 C 
ATOM     11  C   UNL     1      72.045  54.260  18.508  1.00  0.00     0.005 C 
ATOM     12  C   UNL     1      70.804  56.519  19.013  1.00  0.00    -0.024 C 
ATOM     13  C   UNL     1      69.553  56.801  21.309  1.00  0.00     0.012 C 
ATOM     14  C   UNL     1      71.977  55.772  18.276  1.00  0.00     0.002 C 
ATOM     15  C   UNL     1      69.675  56.694  17.985  1.00  0.00     0.008 C 
ATOM     16  C   UNL     1      71.378  57.929  19.444  1.00  0.00     0.012 C 
ATOM     17  C   UNL     1      72.421  56.318  16.791  1.00  0.00    -0.026 C 
ATOM     18  C   UNL     1      70.040  57.497  16.731  1.00  0.00     0.005 C 
ATOM     19  C   UNL     1      72.379  55.237  15.627  1.00  0.00     0.010 C 
ATOM     20  C   UNL     1      73.940  56.727  16.961  1.00  0.00     0.012 C 
ATOM     21  C   UNL     1      71.553  57.581  16.328  1.00  0.00     0.003 C 
ATOM     22  C   UNL     1      71.193  55.341  14.632  1.00  0.00     0.033 C 
ATOM     23  C   UNL     1      71.653  57.925  14.772  1.00  0.00    -0.006 C 
ATOM     24  C   UNL     1      71.186  56.710  13.842  1.00  0.00     0.120 C 
ATOM     25  C   UNL     1      73.114  58.410  14.435  1.00  0.00     0.014 C 
ATOM     26  C   UNL     1      70.737  59.120  14.423  1.00  0.00     0.014 C 
ENDROOT
BRANCH   1  27
ATOM     27  C   UNL     1      69.126  54.143  23.851  1.00  0.00     0.048 C 
ATOM     28  O   UNL     1      68.306  53.323  24.377  1.00  0.00    -0.550 OA
ATOM     29  O   UNL     1      69.356  55.349  24.524  1.00  0.00    -0.550 OA
ENDBRANCH   1  27
BRANCH   7  30
ATOM     30  C   UNL     1      73.225  54.960  24.061  1.00  0.00    -0.077 C 
ATOM     31  C   UNL     1      72.634  56.319  24.349  1.00  0.00     0.039 C 
ATOM     32  C   UNL     1      74.352  54.644  24.751  1.00  0.00     0.008 C 
ENDBRANCH   7  30
BRANCH  24  33
ATOM     33  O   UNL     1      71.957  56.652  12.656  1.00  0.00    -0.393 OA
ATOM     34  H   UNL     1      72.446  57.521  12.534  1.00  0.00     0.210 HD
ENDBRANCH  24  33
TORSDOF 3
ENDMDL
