MODEL 1
REMARK VINA RESULT:    -4.050      0.000      0.000
REMARK INTER + INTRA:         -16.689
REMARK INTER:                 -10.681
REMARK INTRA:                  -6.008
REMARK UNBOUND:                -6.008
REMARK SMILES CCCCCCCCCCCCCCCCCCCCCCCCCCCCCC(=O)[O-]
REMARK SMILES IDX 16 1 17 2 18 3 19 4 20 5 21 6 22 7 23 8 24 9 25 10 26 11
REMARK SMILES IDX 27 12 28 13 29 14 30 15 31 16 32 17 15 18 14 19 13 20 12 21
REMARK SMILES IDX 11 22 10 23 9 24 8 25 7 26 6 27 5 28 4 29 3 30 2 31 1 32
REMARK H PARENT
REMARK Flexibility Score: inf
ROOT
ATOM      1  C   UNL     1     -27.515 -45.601  32.800  1.00  0.00     0.000 C 
ENDROOT
BRANCH   1   2
ATOM      2  C   UNL     1     -28.616 -44.774  33.497  1.00  0.00     0.000 C 
BRANCH   2   3
ATOM      3  C   UNL     1     -29.947 -45.531  33.655  1.00  0.00     0.000 C 
BRANCH   3   4
ATOM      4  C   UNL     1     -30.731 -45.103  34.902  1.00  0.00     0.000 C 
BRANCH   4   5
ATOM      5  C   UNL     1     -30.972 -46.290  35.842  1.00  0.00     0.000 C 
BRANCH   5   6
ATOM      6  C   UNL     1     -30.803 -47.621  35.095  1.00  0.00     0.000 C 
BRANCH   6   7
ATOM      7  C   UNL     1     -30.939 -48.845  36.013  1.00  0.00     0.000 C 
BRANCH   7   8
ATOM      8  C   UNL     1     -32.181 -49.693  35.697  1.00  0.00     0.000 C 
BRANCH   8   9
ATOM      9  C   UNL     1     -33.449 -49.022  36.238  1.00  0.00     0.000 C 
BRANCH   9  10
ATOM     10  C   UNL     1     -34.521 -48.900  35.144  1.00  0.00     0.000 C 
BRANCH  10  11
ATOM     11  C   UNL     1     -34.302 -47.685  34.228  1.00  0.00     0.000 C 
BRANCH  11  12
ATOM     12  C   UNL     1     -33.749 -48.015  32.829  1.00  0.00     0.000 C 
BRANCH  12  13
ATOM     13  C   UNL     1     -33.010 -46.841  32.154  1.00  0.00     0.006 C 
BRANCH  13  14
ATOM     14  C   UNL     1     -33.933 -46.006  31.255  1.00  0.00     0.053 C 
BRANCH  14  15
ATOM     15  C   UNL     1     -34.236 -44.689  31.896  1.00  0.00     0.041 C 
ATOM     16  O   UNL     1     -35.131 -43.943  31.419  1.00  0.00    -0.550 OA
ATOM     17  O   UNL     1     -33.501 -44.263  32.995  1.00  0.00    -0.550 OA
ENDBRANCH  14  15
ENDBRANCH  13  14
ENDBRANCH  12  13
ENDBRANCH  11  12
ENDBRANCH  10  11
ENDBRANCH   9  10
ENDBRANCH   8   9
ENDBRANCH   7   8
ENDBRANCH   6   7
ENDBRANCH   5   6
ENDBRANCH   4   5
ENDBRANCH   3   4
ENDBRANCH   2   3
ENDBRANCH   1   2
BRANCH   1  18
ATOM     18  C   UNL     1     -27.966 -47.043  32.504  1.00  0.00     0.000 C 
BRANCH  18  19
ATOM     19  C   UNL     1     -27.170 -48.084  33.320  1.00  0.00     0.000 C 
BRANCH  19  20
ATOM     20  C   UNL     1     -27.465 -48.043  34.828  1.00  0.00     0.000 C 
BRANCH  20  21
ATOM     21  C   UNL     1     -26.812 -49.204  35.597  1.00  0.00     0.000 C 
BRANCH  21  22
ATOM     22  C   UNL     1     -25.282 -49.265  35.388  1.00  0.00     0.000 C 
BRANCH  22  23
ATOM     23  C   UNL     1     -24.776 -50.615  34.844  1.00  0.00     0.000 C 
BRANCH  23  24
ATOM     24  C   UNL     1     -24.822 -50.760  33.313  1.00  0.00    -0.000 C 
BRANCH  24  25
ATOM     25  C   UNL     1     -25.618 -51.975  32.794  1.00  0.00    -0.000 C 
BRANCH  25  26
ATOM     26  C   UNL     1     -27.129 -51.707  32.627  1.00  0.00    -0.000 C 
BRANCH  26  27
ATOM     27  C   UNL     1     -27.963 -52.301  33.777  1.00  0.00    -0.000 C 
BRANCH  27  28
ATOM     28  C   UNL     1     -29.272 -51.531  34.015  1.00  0.00    -0.000 C 
BRANCH  28  29
ATOM     29  C   UNL     1     -30.397 -51.964  33.058  1.00  0.00    -0.000 C 
BRANCH  29  30
ATOM     30  C   UNL     1     -31.227 -50.776  32.538  1.00  0.00    -0.000 C 
BRANCH  30  31
ATOM     31  C   UNL     1     -30.394 -49.593  32.009  1.00  0.00    -0.003 C 
ATOM     32  C   UNL     1     -30.139 -49.669  30.505  1.00  0.00     0.004 C 
ENDBRANCH  30  31
ENDBRANCH  29  30
ENDBRANCH  28  29
ENDBRANCH  27  28
ENDBRANCH  26  27
ENDBRANCH  25  26
ENDBRANCH  24  25
ENDBRANCH  23  24
ENDBRANCH  22  23
ENDBRANCH  21  22
ENDBRANCH  20  21
ENDBRANCH  19  20
ENDBRANCH  18  19
ENDBRANCH   1  18
TORSDOF 28
ENDMDL
MODEL 2
REMARK VINA RESULT:    -4.002      8.079     10.740
REMARK INTER + INTRA:         -16.560
REMARK INTER:                 -11.014
REMARK INTRA:                  -5.546
REMARK UNBOUND:                -6.008
REMARK SMILES CCCCCCCCCCCCCCCCCCCCCCCCCCCCCC(=O)[O-]
REMARK SMILES IDX 16 1 17 2 18 3 19 4 20 5 21 6 22 7 23 8 24 9 25 10 26 11
REMARK SMILES IDX 27 12 28 13 29 14 30 15 31 16 32 17 15 18 14 19 13 20 12 21
REMARK SMILES IDX 11 22 10 23 9 24 8 25 7 26 6 27 5 28 4 29 3 30 2 31 1 32
REMARK H PARENT
REMARK Flexibility Score: inf
ROOT
ATOM      1  C   UNL     1     -30.580 -50.086  26.107  1.00  0.00     0.000 C 
ENDROOT
BRANCH   1   2
ATOM      2  C   UNL     1     -31.668 -49.513  27.041  1.00  0.00     0.000 C 
BRANCH   2   3
ATOM      3  C   UNL     1     -31.898 -48.002  26.861  1.00  0.00     0.000 C 
BRANCH   3   4
ATOM      4  C   UNL     1     -33.385 -47.634  26.774  1.00  0.00     0.000 C 
BRANCH   4   5
ATOM      5  C   UNL     1     -33.677 -46.787  25.530  1.00  0.00     0.000 C 
BRANCH   5   6
ATOM      6  C   UNL     1     -33.829 -47.676  24.287  1.00  0.00     0.000 C 
BRANCH   6   7
ATOM      7  C   UNL     1     -35.240 -48.266  24.141  1.00  0.00     0.000 C 
BRANCH   7   8
ATOM      8  C   UNL     1     -35.228 -49.758  23.775  1.00  0.00     0.000 C 
BRANCH   8   9
ATOM      9  C   UNL     1     -34.270 -50.534  24.686  1.00  0.00     0.000 C 
BRANCH   9  10
ATOM     10  C   UNL     1     -34.471 -52.051  24.538  1.00  0.00     0.000 C 
BRANCH  10  11
ATOM     11  C   UNL     1     -34.457 -52.788  25.887  1.00  0.00     0.000 C 
BRANCH  11  12
ATOM     12  C   UNL     1     -34.217 -51.892  27.117  1.00  0.00     0.000 C 
BRANCH  12  13
ATOM     13  C   UNL     1     -34.339 -52.633  28.465  1.00  0.00     0.006 C 
BRANCH  13  14
ATOM     14  C   UNL     1     -34.123 -54.146  28.325  1.00  0.00     0.053 C 
BRANCH  14  15
ATOM     15  C   UNL     1     -35.325 -54.894  28.807  1.00  0.00     0.041 C 
ATOM     16  O   UNL     1     -35.203 -55.799  29.673  1.00  0.00    -0.550 OA
ATOM     17  O   UNL     1     -36.577 -54.621  28.268  1.00  0.00    -0.550 OA
ENDBRANCH  14  15
ENDBRANCH  13  14
ENDBRANCH  12  13
ENDBRANCH  11  12
ENDBRANCH  10  11
ENDBRANCH   9  10
ENDBRANCH   8   9
ENDBRANCH   7   8
ENDBRANCH   6   7
ENDBRANCH   5   6
ENDBRANCH   4   5
ENDBRANCH   3   4
ENDBRANCH   2   3
ENDBRANCH   1   2
BRANCH   1  18
ATOM     18  C   UNL     1     -30.635 -51.622  26.020  1.00  0.00     0.000 C 
BRANCH  18  19
ATOM     19  C   UNL     1     -30.120 -52.149  24.663  1.00  0.00     0.000 C 
BRANCH  19  20
ATOM     20  C   UNL     1     -31.151 -52.043  23.529  1.00  0.00     0.000 C 
BRANCH  20  21
ATOM     21  C   UNL     1     -30.713 -51.082  22.410  1.00  0.00     0.000 C 
BRANCH  21  22
ATOM     22  C   UNL     1     -31.142 -49.623  22.681  1.00  0.00     0.000 C 
BRANCH  22  23
ATOM     23  C   UNL     1     -30.602 -48.608  21.656  1.00  0.00     0.000 C 
BRANCH  23  24
ATOM     24  C   UNL     1     -30.261 -47.221  22.227  1.00  0.00    -0.000 C 
BRANCH  24  25
ATOM     25  C   UNL     1     -30.381 -47.097  23.760  1.00  0.00    -0.000 C 
BRANCH  25  26
ATOM     26  C   UNL     1     -29.217 -46.326  24.418  1.00  0.00    -0.000 C 
BRANCH  26  27
ATOM     27  C   UNL     1     -28.090 -47.258  24.899  1.00  0.00    -0.000 C 
BRANCH  27  28
ATOM     28  C   UNL     1     -26.737 -46.935  24.246  1.00  0.00    -0.000 C 
BRANCH  28  29
ATOM     29  C   UNL     1     -26.064 -48.175  23.632  1.00  0.00    -0.000 C 
BRANCH  29  30
ATOM     30  C   UNL     1     -27.031 -49.018  22.781  1.00  0.00    -0.000 C 
BRANCH  30  31
ATOM     31  C   UNL     1     -27.198 -50.475  23.252  1.00  0.00    -0.003 C 
ATOM     32  C   UNL     1     -26.056 -50.946  24.151  1.00  0.00     0.004 C 
ENDBRANCH  30  31
ENDBRANCH  29  30
ENDBRANCH  28  29
ENDBRANCH  27  28
ENDBRANCH  26  27
ENDBRANCH  25  26
ENDBRANCH  24  25
ENDBRANCH  23  24
ENDBRANCH  22  23
ENDBRANCH  21  22
ENDBRANCH  20  21
ENDBRANCH  19  20
ENDBRANCH  18  19
ENDBRANCH   1  18
TORSDOF 28
ENDMDL
MODEL 3
REMARK VINA RESULT:    -3.957      1.667      4.207
REMARK INTER + INTRA:         -16.443
REMARK INTER:                 -10.861
REMARK INTRA:                  -5.582
REMARK UNBOUND:                -6.008
REMARK SMILES CCCCCCCCCCCCCCCCCCCCCCCCCCCCCC(=O)[O-]
REMARK SMILES IDX 16 1 17 2 18 3 19 4 20 5 21 6 22 7 23 8 24 9 25 10 26 11
REMARK SMILES IDX 27 12 28 13 29 14 30 15 31 16 32 17 15 18 14 19 13 20 12 21
REMARK SMILES IDX 11 22 10 23 9 24 8 25 7 26 6 27 5 28 4 29 3 30 2 31 1 32
REMARK H PARENT
REMARK Flexibility Score: inf
ROOT
ATOM      1  C   UNL     1     -29.390 -47.511  31.726  1.00  0.00     0.000 C 
ENDROOT
BRANCH   1   2
ATOM      2  C   UNL     1     -28.067 -47.026  32.357  1.00  0.00     0.000 C 
BRANCH   2   3
ATOM      3  C   UNL     1     -28.267 -46.092  33.563  1.00  0.00     0.000 C 
BRANCH   3   4
ATOM      4  C   UNL     1     -29.329 -45.013  33.311  1.00  0.00     0.000 C 
BRANCH   4   5
ATOM      5  C   UNL     1     -30.220 -44.810  34.542  1.00  0.00     0.000 C 
BRANCH   5   6
ATOM      6  C   UNL     1     -30.408 -46.130  35.304  1.00  0.00     0.000 C 
BRANCH   6   7
ATOM      7  C   UNL     1     -31.883 -46.531  35.452  1.00  0.00     0.000 C 
BRANCH   7   8
ATOM      8  C   UNL     1     -32.368 -47.451  34.320  1.00  0.00     0.000 C 
BRANCH   8   9
ATOM      9  C   UNL     1     -33.293 -46.692  33.362  1.00  0.00     0.000 C 
BRANCH   9  10
ATOM     10  C   UNL     1     -32.621 -46.475  31.997  1.00  0.00     0.000 C 
BRANCH  10  11
ATOM     11  C   UNL     1     -33.305 -45.382  31.161  1.00  0.00     0.000 C 
BRANCH  11  12
ATOM     12  C   UNL     1     -34.349 -44.540  31.921  1.00  0.00     0.000 C 
BRANCH  12  13
ATOM     13  C   UNL     1     -35.569 -44.136  31.067  1.00  0.00     0.006 C 
BRANCH  13  14
ATOM     14  C   UNL     1     -35.660 -44.935  29.759  1.00  0.00     0.053 C 
BRANCH  14  15
ATOM     15  C   UNL     1     -35.434 -44.041  28.582  1.00  0.00     0.041 C 
ATOM     16  O   UNL     1     -34.888 -42.918  28.735  1.00  0.00    -0.550 OA
ATOM     17  O   UNL     1     -35.867 -44.428  27.319  1.00  0.00    -0.550 OA
ENDBRANCH  14  15
ENDBRANCH  13  14
ENDBRANCH  12  13
ENDBRANCH  11  12
ENDBRANCH  10  11
ENDBRANCH   9  10
ENDBRANCH   8   9
ENDBRANCH   7   8
ENDBRANCH   6   7
ENDBRANCH   5   6
ENDBRANCH   4   5
ENDBRANCH   3   4
ENDBRANCH   2   3
ENDBRANCH   1   2
BRANCH   1  18
ATOM     18  C   UNL     1     -29.750 -48.946  32.151  1.00  0.00     0.000 C 
BRANCH  18  19
ATOM     19  C   UNL     1     -28.500 -49.835  32.322  1.00  0.00     0.000 C 
BRANCH  19  20
ATOM     20  C   UNL     1     -28.727 -51.303  31.928  1.00  0.00     0.000 C 
BRANCH  20  21
ATOM     21  C   UNL     1     -28.670 -52.261  33.130  1.00  0.00     0.000 C 
BRANCH  21  22
ATOM     22  C   UNL     1     -30.068 -52.561  33.714  1.00  0.00     0.000 C 
BRANCH  22  23
ATOM     23  C   UNL     1     -30.247 -52.111  35.177  1.00  0.00     0.000 C 
BRANCH  23  24
ATOM     24  C   UNL     1     -30.841 -50.704  35.359  1.00  0.00    -0.000 C 
BRANCH  24  25
ATOM     25  C   UNL     1     -29.955 -49.716  36.146  1.00  0.00    -0.000 C 
BRANCH  25  26
ATOM     26  C   UNL     1     -28.441 -49.988  36.010  1.00  0.00    -0.000 C 
BRANCH  26  27
ATOM     27  C   UNL     1     -27.624 -48.695  35.834  1.00  0.00    -0.000 C 
BRANCH  27  28
ATOM     28  C   UNL     1     -26.155 -48.968  35.478  1.00  0.00    -0.000 C 
BRANCH  28  29
ATOM     29  C   UNL     1     -25.939 -50.376  34.892  1.00  0.00    -0.000 C 
BRANCH  29  30
ATOM     30  C   UNL     1     -24.849 -50.408  33.806  1.00  0.00    -0.000 C 
BRANCH  30  31
ATOM     31  C   UNL     1     -25.091 -51.434  32.683  1.00  0.00    -0.003 C 
ATOM     32  C   UNL     1     -24.679 -50.919  31.305  1.00  0.00     0.004 C 
ENDBRANCH  30  31
ENDBRANCH  29  30
ENDBRANCH  28  29
ENDBRANCH  27  28
ENDBRANCH  26  27
ENDBRANCH  25  26
ENDBRANCH  24  25
ENDBRANCH  23  24
ENDBRANCH  22  23
ENDBRANCH  21  22
ENDBRANCH  20  21
ENDBRANCH  19  20
ENDBRANCH  18  19
ENDBRANCH   1  18
TORSDOF 28
ENDMDL
MODEL 4
REMARK VINA RESULT:    -3.929      1.751      5.232
REMARK INTER + INTRA:         -16.368
REMARK INTER:                 -10.981
REMARK INTRA:                  -5.387
REMARK UNBOUND:                -6.008
REMARK SMILES CCCCCCCCCCCCCCCCCCCCCCCCCCCCCC(=O)[O-]
REMARK SMILES IDX 16 1 17 2 18 3 19 4 20 5 21 6 22 7 23 8 24 9 25 10 26 11
REMARK SMILES IDX 27 12 28 13 29 14 30 15 31 16 32 17 15 18 14 19 13 20 12 21
REMARK SMILES IDX 11 22 10 23 9 24 8 25 7 26 6 27 5 28 4 29 3 30 2 31 1 32
REMARK H PARENT
REMARK Flexibility Score: inf
ROOT
ATOM      1  C   UNL     1     -31.540 -49.600  32.347  1.00  0.00     0.000 C 
ENDROOT
BRANCH   1   2
ATOM      2  C   UNL     1     -30.766 -49.656  33.682  1.00  0.00     0.000 C 
BRANCH   2   3
ATOM      3  C   UNL     1     -31.533 -49.036  34.864  1.00  0.00     0.000 C 
BRANCH   3   4
ATOM      4  C   UNL     1     -30.681 -48.930  36.135  1.00  0.00     0.000 C 
BRANCH   4   5
ATOM      5  C   UNL     1     -29.587 -50.004  36.164  1.00  0.00     0.000 C 
BRANCH   5   6
ATOM      6  C   UNL     1     -28.193 -49.362  36.225  1.00  0.00     0.000 C 
BRANCH   6   7
ATOM      7  C   UNL     1     -27.224 -49.930  35.178  1.00  0.00     0.000 C 
BRANCH   7   8
ATOM      8  C   UNL     1     -27.172 -49.087  33.894  1.00  0.00     0.000 C 
BRANCH   8   9
ATOM      9  C   UNL     1     -27.258 -47.592  34.221  1.00  0.00     0.000 C 
BRANCH   9  10
ATOM     10  C   UNL     1     -28.458 -46.939  33.517  1.00  0.00     0.000 C 
BRANCH  10  11
ATOM     11  C   UNL     1     -28.275 -45.427  33.306  1.00  0.00     0.000 C 
BRANCH  11  12
ATOM     12  C   UNL     1     -29.357 -44.544  33.957  1.00  0.00     0.000 C 
BRANCH  12  13
ATOM     13  C   UNL     1     -30.626 -45.314  34.375  1.00  0.00     0.006 C 
BRANCH  13  14
ATOM     14  C   UNL     1     -31.617 -45.488  33.214  1.00  0.00     0.053 C 
BRANCH  14  15
ATOM     15  C   UNL     1     -32.860 -44.695  33.463  1.00  0.00     0.041 C 
ATOM     16  O   UNL     1     -32.805 -43.617  34.111  1.00  0.00    -0.550 OA
ATOM     17  O   UNL     1     -34.088 -45.167  33.017  1.00  0.00    -0.550 OA
ENDBRANCH  14  15
ENDBRANCH  13  14
ENDBRANCH  12  13
ENDBRANCH  11  12
ENDBRANCH  10  11
ENDBRANCH   9  10
ENDBRANCH   8   9
ENDBRANCH   7   8
ENDBRANCH   6   7
ENDBRANCH   5   6
ENDBRANCH   4   5
ENDBRANCH   3   4
ENDBRANCH   2   3
ENDBRANCH   1   2
BRANCH   1  18
ATOM     18  C   UNL     1     -30.751 -50.233  31.187  1.00  0.00     0.000 C 
BRANCH  18  19
ATOM     19  C   UNL     1     -31.322 -51.606  30.773  1.00  0.00     0.000 C 
BRANCH  19  20
ATOM     20  C   UNL     1     -32.783 -51.821  31.199  1.00  0.00     0.000 C 
BRANCH  20  21
ATOM     21  C   UNL     1     -32.989 -53.121  31.995  1.00  0.00     0.000 C 
BRANCH  21  22
ATOM     22  C   UNL     1     -32.577 -52.979  33.477  1.00  0.00     0.000 C 
BRANCH  22  23
ATOM     23  C   UNL     1     -31.521 -54.003  33.936  1.00  0.00     0.000 C 
BRANCH  23  24
ATOM     24  C   UNL     1     -30.252 -53.397  34.560  1.00  0.00    -0.000 C 
BRANCH  24  25
ATOM     25  C   UNL     1     -29.258 -52.781  33.554  1.00  0.00    -0.000 C 
BRANCH  25  26
ATOM     26  C   UNL     1     -27.813 -53.304  33.702  1.00  0.00    -0.000 C 
BRANCH  26  27
ATOM     27  C   UNL     1     -26.998 -53.160  32.404  1.00  0.00    -0.000 C 
BRANCH  27  28
ATOM     28  C   UNL     1     -27.794 -52.479  31.279  1.00  0.00    -0.000 C 
BRANCH  28  29
ATOM     29  C   UNL     1     -27.007 -51.345  30.598  1.00  0.00    -0.000 C 
BRANCH  29  30
ATOM     30  C   UNL     1     -25.745 -51.848  29.873  1.00  0.00    -0.000 C 
BRANCH  30  31
ATOM     31  C   UNL     1     -24.422 -51.546  30.601  1.00  0.00    -0.003 C 
ATOM     32  C   UNL     1     -24.529 -50.367  31.567  1.00  0.00     0.004 C 
ENDBRANCH  30  31
ENDBRANCH  29  30
ENDBRANCH  28  29
ENDBRANCH  27  28
ENDBRANCH  26  27
ENDBRANCH  25  26
ENDBRANCH  24  25
ENDBRANCH  23  24
ENDBRANCH  22  23
ENDBRANCH  21  22
ENDBRANCH  20  21
ENDBRANCH  19  20
ENDBRANCH  18  19
ENDBRANCH   1  18
TORSDOF 28
ENDMDL
MODEL 5
REMARK VINA RESULT:    -3.904      7.515     11.328
REMARK INTER + INTRA:         -16.303
REMARK INTER:                 -10.683
REMARK INTRA:                  -5.620
REMARK UNBOUND:                -6.008
REMARK SMILES CCCCCCCCCCCCCCCCCCCCCCCCCCCCCC(=O)[O-]
REMARK SMILES IDX 16 1 17 2 18 3 19 4 20 5 21 6 22 7 23 8 24 9 25 10 26 11
REMARK SMILES IDX 27 12 28 13 29 14 30 15 31 16 32 17 15 18 14 19 13 20 12 21
REMARK SMILES IDX 11 22 10 23 9 24 8 25 7 26 6 27 5 28 4 29 3 30 2 31 1 32
REMARK H PARENT
REMARK Flexibility Score: inf
ROOT
ATOM      1  C   UNL     1     -29.285 -47.464  26.176  1.00  0.00     0.000 C 
ENDROOT
BRANCH   1   2
ATOM      2  C   UNL     1     -27.765 -47.396  26.437  1.00  0.00     0.000 C 
BRANCH   2   3
ATOM      3  C   UNL     1     -27.055 -46.279  25.652  1.00  0.00     0.000 C 
BRANCH   3   4
ATOM      4  C   UNL     1     -26.778 -46.662  24.193  1.00  0.00     0.000 C 
BRANCH   4   5
ATOM      5  C   UNL     1     -25.975 -47.965  24.102  1.00  0.00     0.000 C 
BRANCH   5   6
ATOM      6  C   UNL     1     -26.586 -48.912  23.059  1.00  0.00     0.000 C 
BRANCH   6   7
ATOM      7  C   UNL     1     -26.723 -50.355  23.567  1.00  0.00     0.000 C 
BRANCH   7   8
ATOM      8  C   UNL     1     -25.480 -50.841  24.327  1.00  0.00     0.000 C 
BRANCH   8   9
ATOM      9  C   UNL     1     -25.880 -51.569  25.616  1.00  0.00     0.000 C 
BRANCH   9  10
ATOM     10  C   UNL     1     -27.078 -50.882  26.290  1.00  0.00     0.000 C 
BRANCH  10  11
ATOM     11  C   UNL     1     -26.961 -50.848  27.823  1.00  0.00     0.000 C 
BRANCH  11  12
ATOM     12  C   UNL     1     -28.102 -51.555  28.579  1.00  0.00     0.000 C 
BRANCH  12  13
ATOM     13  C   UNL     1     -28.075 -53.092  28.458  1.00  0.00     0.006 C 
BRANCH  13  14
ATOM     14  C   UNL     1     -29.197 -53.631  27.559  1.00  0.00     0.053 C 
BRANCH  14  15
ATOM     15  C   UNL     1     -28.644 -54.084  26.246  1.00  0.00     0.041 C 
ATOM     16  O   UNL     1     -27.777 -54.996  26.204  1.00  0.00    -0.550 OA
ATOM     17  O   UNL     1     -29.053 -53.469  25.069  1.00  0.00    -0.550 OA
ENDBRANCH  14  15
ENDBRANCH  13  14
ENDBRANCH  12  13
ENDBRANCH  11  12
ENDBRANCH  10  11
ENDBRANCH   9  10
ENDBRANCH   8   9
ENDBRANCH   7   8
ENDBRANCH   6   7
ENDBRANCH   5   6
ENDBRANCH   4   5
ENDBRANCH   3   4
ENDBRANCH   2   3
ENDBRANCH   1   2
BRANCH   1  18
ATOM     18  C   UNL     1     -30.003 -46.156  26.553  1.00  0.00     0.000 C 
BRANCH  18  19
ATOM     19  C   UNL     1     -31.535 -46.328  26.619  1.00  0.00     0.000 C 
BRANCH  19  20
ATOM     20  C   UNL     1     -32.312 -45.246  25.853  1.00  0.00     0.000 C 
BRANCH  20  21
ATOM     21  C   UNL     1     -33.392 -45.828  24.925  1.00  0.00     0.000 C 
BRANCH  21  22
ATOM     22  C   UNL     1     -33.216 -47.345  24.691  1.00  0.00     0.000 C 
BRANCH  22  23
ATOM     23  C   UNL     1     -33.739 -47.835  23.327  1.00  0.00     0.000 C 
BRANCH  23  24
ATOM     24  C   UNL     1     -33.582 -49.343  23.071  1.00  0.00    -0.000 C 
BRANCH  24  25
ATOM     25  C   UNL     1     -32.792 -50.112  24.151  1.00  0.00    -0.000 C 
BRANCH  25  26
ATOM     26  C   UNL     1     -31.306 -50.336  23.799  1.00  0.00    -0.000 C 
BRANCH  26  27
ATOM     27  C   UNL     1     -31.054 -50.343  22.280  1.00  0.00    -0.000 C 
BRANCH  27  28
ATOM     28  C   UNL     1     -30.067 -49.251  21.840  1.00  0.00    -0.000 C 
BRANCH  28  29
ATOM     29  C   UNL     1     -30.022 -48.063  22.818  1.00  0.00    -0.000 C 
BRANCH  29  30
ATOM     30  C   UNL     1     -30.412 -46.730  22.155  1.00  0.00    -0.000 C 
BRANCH  30  31
ATOM     31  C   UNL     1     -30.033 -45.474  22.963  1.00  0.00    -0.003 C 
ATOM     32  C   UNL     1     -30.841 -44.241  22.564  1.00  0.00     0.004 C 
ENDBRANCH  30  31
ENDBRANCH  29  30
ENDBRANCH  28  29
ENDBRANCH  27  28
ENDBRANCH  26  27
ENDBRANCH  25  26
ENDBRANCH  24  25
ENDBRANCH  23  24
ENDBRANCH  22  23
ENDBRANCH  21  22
ENDBRANCH  20  21
ENDBRANCH  19  20
ENDBRANCH  18  19
ENDBRANCH   1  18
TORSDOF 28
ENDMDL
MODEL 6
REMARK VINA RESULT:    -3.892      3.535      7.513
REMARK INTER + INTRA:         -16.271
REMARK INTER:                 -10.725
REMARK INTRA:                  -5.545
REMARK UNBOUND:                -6.008
REMARK SMILES CCCCCCCCCCCCCCCCCCCCCCCCCCCCCC(=O)[O-]
REMARK SMILES IDX 16 1 17 2 18 3 19 4 20 5 21 6 22 7 23 8 24 9 25 10 26 11
REMARK SMILES IDX 27 12 28 13 29 14 30 15 31 16 32 17 15 18 14 19 13 20 12 21
REMARK SMILES IDX 11 22 10 23 9 24 8 25 7 26 6 27 5 28 4 29 3 30 2 31 1 32
REMARK H PARENT
REMARK Flexibility Score: inf
ROOT
ATOM      1  C   UNL     1     -34.471 -47.375  29.395  1.00  0.00     0.000 C 
ENDROOT
BRANCH   1   2
ATOM      2  C   UNL     1     -34.876 -48.326  30.542  1.00  0.00     0.000 C 
BRANCH   2   3
ATOM      3  C   UNL     1     -33.783 -49.344  30.911  1.00  0.00     0.000 C 
BRANCH   3   4
ATOM      4  C   UNL     1     -32.638 -48.719  31.719  1.00  0.00     0.000 C 
BRANCH   4   5
ATOM      5  C   UNL     1     -31.311 -48.797  30.956  1.00  0.00     0.000 C 
BRANCH   5   6
ATOM      6  C   UNL     1     -30.957 -50.253  30.621  1.00  0.00     0.000 C 
BRANCH   6   7
ATOM      7  C   UNL     1     -29.604 -50.691  31.201  1.00  0.00     0.000 C 
BRANCH   7   8
ATOM      8  C   UNL     1     -29.727 -51.876  32.172  1.00  0.00     0.000 C 
BRANCH   8   9
ATOM      9  C   UNL     1     -30.444 -51.452  33.460  1.00  0.00     0.000 C 
BRANCH   9  10
ATOM     10  C   UNL     1     -31.479 -52.503  33.889  1.00  0.00     0.000 C 
BRANCH  10  11
ATOM     11  C   UNL     1     -32.831 -52.335  33.176  1.00  0.00     0.000 C 
BRANCH  11  12
ATOM     12  C   UNL     1     -33.255 -53.526  32.296  1.00  0.00     0.000 C 
BRANCH  12  13
ATOM     13  C   UNL     1     -33.296 -53.207  30.787  1.00  0.00     0.006 C 
BRANCH  13  14
ATOM     14  C   UNL     1     -33.393 -54.470  29.921  1.00  0.00     0.053 C 
BRANCH  14  15
ATOM     15  C   UNL     1     -34.818 -54.750  29.560  1.00  0.00     0.041 C 
ATOM     16  O   UNL     1     -35.730 -53.963  29.925  1.00  0.00    -0.550 OA
ATOM     17  O   UNL     1     -35.145 -55.903  28.858  1.00  0.00    -0.550 OA
ENDBRANCH  14  15
ENDBRANCH  13  14
ENDBRANCH  12  13
ENDBRANCH  11  12
ENDBRANCH  10  11
ENDBRANCH   9  10
ENDBRANCH   8   9
ENDBRANCH   7   8
ENDBRANCH   6   7
ENDBRANCH   5   6
ENDBRANCH   4   5
ENDBRANCH   3   4
ENDBRANCH   2   3
ENDBRANCH   1   2
BRANCH   1  18
ATOM     18  C   UNL     1     -35.228 -46.036  29.449  1.00  0.00     0.000 C 
BRANCH  18  19
ATOM     19  C   UNL     1     -35.614 -45.642  30.891  1.00  0.00     0.000 C 
BRANCH  19  20
ATOM     20  C   UNL     1     -34.673 -44.602  31.520  1.00  0.00     0.000 C 
BRANCH  20  21
ATOM     21  C   UNL     1     -33.492 -45.241  32.271  1.00  0.00     0.000 C 
BRANCH  21  22
ATOM     22  C   UNL     1     -33.532 -44.956  33.789  1.00  0.00     0.000 C 
BRANCH  22  23
ATOM     23  C   UNL     1     -33.925 -46.173  34.647  1.00  0.00     0.000 C 
BRANCH  23  24
ATOM     24  C   UNL     1     -35.258 -46.840  34.265  1.00  0.00    -0.000 C 
BRANCH  24  25
ATOM     25  C   UNL     1     -35.236 -48.382  34.245  1.00  0.00    -0.000 C 
BRANCH  25  26
ATOM     26  C   UNL     1     -34.649 -49.017  35.524  1.00  0.00    -0.000 C 
BRANCH  26  27
ATOM     27  C   UNL     1     -33.186 -49.460  35.343  1.00  0.00    -0.000 C 
BRANCH  27  28
ATOM     28  C   UNL     1     -32.278 -48.981  36.487  1.00  0.00    -0.000 C 
BRANCH  28  29
ATOM     29  C   UNL     1     -30.828 -48.736  36.030  1.00  0.00    -0.000 C 
BRANCH  29  30
ATOM     30  C   UNL     1     -30.539 -47.254  35.733  1.00  0.00    -0.000 C 
BRANCH  30  31
ATOM     31  C   UNL     1     -29.466 -47.012  34.655  1.00  0.00    -0.003 C 
ATOM     32  C   UNL     1     -30.015 -46.308  33.415  1.00  0.00     0.004 C 
ENDBRANCH  30  31
ENDBRANCH  29  30
ENDBRANCH  28  29
ENDBRANCH  27  28
ENDBRANCH  26  27
ENDBRANCH  25  26
ENDBRANCH  24  25
ENDBRANCH  23  24
ENDBRANCH  22  23
ENDBRANCH  21  22
ENDBRANCH  20  21
ENDBRANCH  19  20
ENDBRANCH  18  19
ENDBRANCH   1  18
TORSDOF 28
ENDMDL
MODEL 7
REMARK VINA RESULT:    -3.889      1.875      5.634
REMARK INTER + INTRA:         -16.264
REMARK INTER:                 -10.277
REMARK INTRA:                  -5.987
REMARK UNBOUND:                -6.008
REMARK SMILES CCCCCCCCCCCCCCCCCCCCCCCCCCCCCC(=O)[O-]
REMARK SMILES IDX 16 1 17 2 18 3 19 4 20 5 21 6 22 7 23 8 24 9 25 10 26 11
REMARK SMILES IDX 27 12 28 13 29 14 30 15 31 16 32 17 15 18 14 19 13 20 12 21
REMARK SMILES IDX 11 22 10 23 9 24 8 25 7 26 6 27 5 28 4 29 3 30 2 31 1 32
REMARK H PARENT
REMARK Flexibility Score: inf
ROOT
ATOM      1  C   UNL     1     -27.019 -53.039  31.550  1.00  0.00     0.000 C 
ENDROOT
BRANCH   1   2
ATOM      2  C   UNL     1     -25.704 -52.250  31.370  1.00  0.00     0.000 C 
BRANCH   2   3
ATOM      3  C   UNL     1     -25.700 -50.890  32.091  1.00  0.00     0.000 C 
BRANCH   3   4
ATOM      4  C   UNL     1     -24.745 -50.857  33.291  1.00  0.00     0.000 C 
BRANCH   4   5
ATOM      5  C   UNL     1     -25.498 -50.566  34.595  1.00  0.00     0.000 C 
BRANCH   5   6
ATOM      6  C   UNL     1     -26.917 -50.056  34.303  1.00  0.00     0.000 C 
BRANCH   6   7
ATOM      7  C   UNL     1     -27.249 -48.751  35.043  1.00  0.00     0.000 C 
BRANCH   7   8
ATOM      8  C   UNL     1     -28.260 -48.952  36.183  1.00  0.00     0.000 C 
BRANCH   8   9
ATOM      9  C   UNL     1     -29.012 -50.277  36.016  1.00  0.00     0.000 C 
BRANCH   9  10
ATOM     10  C   UNL     1     -30.505 -50.037  35.747  1.00  0.00     0.000 C 
BRANCH  10  11
ATOM     11  C   UNL     1     -31.042 -48.777  36.447  1.00  0.00     0.000 C 
BRANCH  11  12
ATOM     12  C   UNL     1     -32.569 -48.744  36.647  1.00  0.00     0.000 C 
BRANCH  12  13
ATOM     13  C   UNL     1     -33.368 -49.333  35.466  1.00  0.00     0.006 C 
BRANCH  13  14
ATOM     14  C   UNL     1     -33.574 -48.318  34.332  1.00  0.00     0.053 C 
BRANCH  14  15
ATOM     15  C   UNL     1     -34.963 -47.764  34.371  1.00  0.00     0.041 C 
ATOM     16  O   UNL     1     -35.191 -46.598  33.957  1.00  0.00    -0.550 OA
ATOM     17  O   UNL     1     -35.999 -48.519  34.906  1.00  0.00    -0.550 OA
ENDBRANCH  14  15
ENDBRANCH  13  14
ENDBRANCH  12  13
ENDBRANCH  11  12
ENDBRANCH  10  11
ENDBRANCH   9  10
ENDBRANCH   8   9
ENDBRANCH   7   8
ENDBRANCH   6   7
ENDBRANCH   5   6
ENDBRANCH   4   5
ENDBRANCH   3   4
ENDBRANCH   2   3
ENDBRANCH   1   2
BRANCH   1  18
ATOM     18  C   UNL     1     -27.027 -53.876  32.842  1.00  0.00     0.000 C 
BRANCH  18  19
ATOM     19  C   UNL     1     -28.080 -53.377  33.854  1.00  0.00     0.000 C 
BRANCH  19  20
ATOM     20  C   UNL     1     -29.331 -54.267  33.932  1.00  0.00     0.000 C 
BRANCH  20  21
ATOM     21  C   UNL     1     -30.541 -53.544  34.549  1.00  0.00     0.000 C 
BRANCH  21  22
ATOM     22  C   UNL     1     -31.783 -53.579  33.631  1.00  0.00     0.000 C 
BRANCH  22  23
ATOM     23  C   UNL     1     -32.585 -52.264  33.608  1.00  0.00     0.000 C 
BRANCH  23  24
ATOM     24  C   UNL     1     -32.397 -51.407  32.344  1.00  0.00    -0.000 C 
BRANCH  24  25
ATOM     25  C   UNL     1     -31.039 -51.578  31.632  1.00  0.00    -0.000 C 
BRANCH  25  26
ATOM     26  C   UNL     1     -29.898 -50.746  32.255  1.00  0.00    -0.000 C 
BRANCH  26  27
ATOM     27  C   UNL     1     -29.203 -49.836  31.225  1.00  0.00    -0.000 C 
BRANCH  27  28
ATOM     28  C   UNL     1     -29.018 -48.399  31.737  1.00  0.00    -0.000 C 
BRANCH  28  29
ATOM     29  C   UNL     1     -30.063 -48.008  32.798  1.00  0.00    -0.000 C 
BRANCH  29  30
ATOM     30  C   UNL     1     -30.324 -46.491  32.847  1.00  0.00    -0.000 C 
BRANCH  30  31
ATOM     31  C   UNL     1     -29.074 -45.633  33.118  1.00  0.00    -0.003 C 
ATOM     32  C   UNL     1     -29.368 -44.408  33.982  1.00  0.00     0.004 C 
ENDBRANCH  30  31
ENDBRANCH  29  30
ENDBRANCH  28  29
ENDBRANCH  27  28
ENDBRANCH  26  27
ENDBRANCH  25  26
ENDBRANCH  24  25
ENDBRANCH  23  24
ENDBRANCH  22  23
ENDBRANCH  21  22
ENDBRANCH  20  21
ENDBRANCH  19  20
ENDBRANCH  18  19
ENDBRANCH   1  18
TORSDOF 28
ENDMDL
MODEL 8
REMARK VINA RESULT:    -3.877      3.315      6.861
REMARK INTER + INTRA:         -16.231
REMARK INTER:                 -10.028
REMARK INTRA:                  -6.204
REMARK UNBOUND:                -6.008
REMARK SMILES CCCCCCCCCCCCCCCCCCCCCCCCCCCCCC(=O)[O-]
REMARK SMILES IDX 16 1 17 2 18 3 19 4 20 5 21 6 22 7 23 8 24 9 25 10 26 11
REMARK SMILES IDX 27 12 28 13 29 14 30 15 31 16 32 17 15 18 14 19 13 20 12 21
REMARK SMILES IDX 11 22 10 23 9 24 8 25 7 26 6 27 5 28 4 29 3 30 2 31 1 32
REMARK H PARENT
REMARK Flexibility Score: inf
ROOT
ATOM      1  C   UNL     1     -33.172 -48.075  31.691  1.00  0.00     0.000 C 
ENDROOT
BRANCH   1   2
ATOM      2  C   UNL     1     -32.151 -48.827  32.571  1.00  0.00     0.000 C 
BRANCH   2   3
ATOM      3  C   UNL     1     -30.702 -48.350  32.377  1.00  0.00     0.000 C 
BRANCH   3   4
ATOM      4  C   UNL     1     -29.748 -49.488  31.990  1.00  0.00     0.000 C 
BRANCH   4   5
ATOM      5  C   UNL     1     -28.422 -49.386  32.753  1.00  0.00     0.000 C 
BRANCH   5   6
ATOM      6  C   UNL     1     -28.578 -48.510  34.005  1.00  0.00     0.000 C 
BRANCH   6   7
ATOM      7  C   UNL     1     -28.665 -49.329  35.302  1.00  0.00     0.000 C 
BRANCH   7   8
ATOM      8  C   UNL     1     -30.088 -49.384  35.878  1.00  0.00     0.000 C 
BRANCH   8   9
ATOM      9  C   UNL     1     -30.730 -50.751  35.613  1.00  0.00     0.000 C 
BRANCH   9  10
ATOM     10  C   UNL     1     -29.660 -51.834  35.405  1.00  0.00     0.000 C 
BRANCH  10  11
ATOM     11  C   UNL     1     -29.862 -52.630  34.106  1.00  0.00     0.000 C 
BRANCH  11  12
ATOM     12  C   UNL     1     -28.570 -53.174  33.467  1.00  0.00     0.000 C 
BRANCH  12  13
ATOM     13  C   UNL     1     -27.277 -52.632  34.112  1.00  0.00     0.006 C 
BRANCH  13  14
ATOM     14  C   UNL     1     -26.201 -52.288  33.073  1.00  0.00     0.053 C 
BRANCH  14  15
ATOM     15  C   UNL     1     -25.313 -51.197  33.581  1.00  0.00     0.041 C 
ATOM     16  O   UNL     1     -24.617 -50.521  32.779  1.00  0.00    -0.550 OA
ATOM     17  O   UNL     1     -25.218 -50.955  34.946  1.00  0.00    -0.550 OA
ENDBRANCH  14  15
ENDBRANCH  13  14
ENDBRANCH  12  13
ENDBRANCH  11  12
ENDBRANCH  10  11
ENDBRANCH   9  10
ENDBRANCH   8   9
ENDBRANCH   7   8
ENDBRANCH   6   7
ENDBRANCH   5   6
ENDBRANCH   4   5
ENDBRANCH   3   4
ENDBRANCH   2   3
ENDBRANCH   1   2
BRANCH   1  18
ATOM     18  C   UNL     1     -33.222 -46.570  32.009  1.00  0.00     0.000 C 
BRANCH  18  19
ATOM     19  C   UNL     1     -33.976 -46.275  33.323  1.00  0.00     0.000 C 
BRANCH  19  20
ATOM     20  C   UNL     1     -33.173 -45.422  34.318  1.00  0.00     0.000 C 
BRANCH  20  21
ATOM     21  C   UNL     1     -32.157 -46.246  35.128  1.00  0.00     0.000 C 
BRANCH  21  22
ATOM     22  C   UNL     1     -30.723 -45.681  35.027  1.00  0.00     0.000 C 
BRANCH  22  23
ATOM     23  C   UNL     1     -30.626 -44.346  34.264  1.00  0.00     0.000 C 
BRANCH  23  24
ATOM     24  C   UNL     1     -29.195 -43.845  34.005  1.00  0.00    -0.000 C 
BRANCH  24  25
ATOM     25  C   UNL     1     -28.208 -44.915  33.496  1.00  0.00    -0.000 C 
BRANCH  25  26
ATOM     26  C   UNL     1     -27.743 -44.697  32.040  1.00  0.00    -0.000 C 
BRANCH  26  27
ATOM     27  C   UNL     1     -27.692 -46.009  31.235  1.00  0.00    -0.000 C 
BRANCH  27  28
ATOM     28  C   UNL     1     -28.650 -46.003  30.035  1.00  0.00    -0.000 C 
BRANCH  28  29
ATOM     29  C   UNL     1     -28.565 -47.294  29.201  1.00  0.00    -0.000 C 
BRANCH  29  30
ATOM     30  C   UNL     1     -27.309 -48.126  29.518  1.00  0.00    -0.000 C 
BRANCH  30  31
ATOM     31  C   UNL     1     -27.357 -49.580  29.009  1.00  0.00    -0.003 C 
ATOM     32  C   UNL     1     -26.364 -50.495  29.725  1.00  0.00     0.004 C 
ENDBRANCH  30  31
ENDBRANCH  29  30
ENDBRANCH  28  29
ENDBRANCH  27  28
ENDBRANCH  26  27
ENDBRANCH  25  26
ENDBRANCH  24  25
ENDBRANCH  23  24
ENDBRANCH  22  23
ENDBRANCH  21  22
ENDBRANCH  20  21
ENDBRANCH  19  20
ENDBRANCH  18  19
ENDBRANCH   1  18
TORSDOF 28
ENDMDL
MODEL 9
REMARK VINA RESULT:    -3.857      3.682      7.499
REMARK INTER + INTRA:         -16.180
REMARK INTER:                 -10.516
REMARK INTRA:                  -5.664
REMARK UNBOUND:                -6.008
REMARK SMILES CCCCCCCCCCCCCCCCCCCCCCCCCCCCCC(=O)[O-]
REMARK SMILES IDX 16 1 17 2 18 3 19 4 20 5 21 6 22 7 23 8 24 9 25 10 26 11
REMARK SMILES IDX 27 12 28 13 29 14 30 15 31 16 32 17 15 18 14 19 13 20 12 21
REMARK SMILES IDX 11 22 10 23 9 24 8 25 7 26 6 27 5 28 4 29 3 30 2 31 1 32
REMARK H PARENT
REMARK Flexibility Score: inf
ROOT
ATOM      1  C   UNL     1     -30.574 -50.213  31.842  1.00  0.00     0.000 C 
ENDROOT
BRANCH   1   2
ATOM      2  C   UNL     1     -30.611 -51.741  32.062  1.00  0.00     0.000 C 
BRANCH   2   3
ATOM      3  C   UNL     1     -30.975 -52.147  33.500  1.00  0.00     0.000 C 
BRANCH   3   4
ATOM      4  C   UNL     1     -31.428 -50.958  34.357  1.00  0.00     0.000 C 
BRANCH   4   5
ATOM      5  C   UNL     1     -30.406 -50.641  35.455  1.00  0.00     0.000 C 
BRANCH   5   6
ATOM      6  C   UNL     1     -30.173 -49.127  35.565  1.00  0.00     0.000 C 
BRANCH   6   7
ATOM      7  C   UNL     1     -28.695 -48.735  35.416  1.00  0.00     0.000 C 
BRANCH   7   8
ATOM      8  C   UNL     1     -27.762 -49.952  35.315  1.00  0.00     0.000 C 
BRANCH   8   9
ATOM      9  C   UNL     1     -26.728 -49.753  34.202  1.00  0.00     0.000 C 
BRANCH   9  10
ATOM     10  C   UNL     1     -26.579 -51.024  33.350  1.00  0.00     0.000 C 
BRANCH  10  11
ATOM     11  C   UNL     1     -27.038 -52.293  34.087  1.00  0.00     0.000 C 
BRANCH  11  12
ATOM     12  C   UNL     1     -27.511 -53.440  33.174  1.00  0.00     0.000 C 
BRANCH  12  13
ATOM     13  C   UNL     1     -27.079 -53.287  31.701  1.00  0.00     0.006 C 
BRANCH  13  14
ATOM     14  C   UNL     1     -25.804 -54.080  31.378  1.00  0.00     0.053 C 
BRANCH  14  15
ATOM     15  C   UNL     1     -25.528 -54.050  29.908  1.00  0.00     0.041 C 
ATOM     16  O   UNL     1     -25.972 -54.960  29.161  1.00  0.00    -0.550 OA
ATOM     17  O   UNL     1     -24.742 -53.039  29.368  1.00  0.00    -0.550 OA
ENDBRANCH  14  15
ENDBRANCH  13  14
ENDBRANCH  12  13
ENDBRANCH  11  12
ENDBRANCH  10  11
ENDBRANCH   9  10
ENDBRANCH   8   9
ENDBRANCH   7   8
ENDBRANCH   6   7
ENDBRANCH   5   6
ENDBRANCH   4   5
ENDBRANCH   3   4
ENDBRANCH   2   3
ENDBRANCH   1   2
BRANCH   1  18
ATOM     18  C   UNL     1     -29.168 -49.708  31.471  1.00  0.00     0.000 C 
BRANCH  18  19
ATOM     19  C   UNL     1     -29.041 -48.177  31.613  1.00  0.00     0.000 C 
BRANCH  19  20
ATOM     20  C   UNL     1     -29.719 -47.393  30.478  1.00  0.00     0.000 C 
BRANCH  20  21
ATOM     21  C   UNL     1     -29.138 -45.980  30.296  1.00  0.00     0.000 C 
BRANCH  21  22
ATOM     22  C   UNL     1     -27.762 -45.814  30.979  1.00  0.00     0.000 C 
BRANCH  22  23
ATOM     23  C   UNL     1     -27.703 -44.663  32.001  1.00  0.00     0.000 C 
BRANCH  23  24
ATOM     24  C   UNL     1     -28.116 -45.040  33.434  1.00  0.00    -0.000 C 
BRANCH  24  25
ATOM     25  C   UNL     1     -29.541 -44.611  33.839  1.00  0.00    -0.000 C 
BRANCH  25  26
ATOM     26  C   UNL     1     -30.517 -45.791  34.037  1.00  0.00    -0.000 C 
BRANCH  26  27
ATOM     27  C   UNL     1     -31.768 -45.677  33.146  1.00  0.00    -0.000 C 
BRANCH  27  28
ATOM     28  C   UNL     1     -32.416 -47.041  32.860  1.00  0.00    -0.000 C 
BRANCH  28  29
ATOM     29  C   UNL     1     -33.116 -47.635  34.096  1.00  0.00    -0.000 C 
BRANCH  29  30
ATOM     30  C   UNL     1     -34.441 -46.926  34.428  1.00  0.00    -0.000 C 
BRANCH  30  31
ATOM     31  C   UNL     1     -35.625 -47.871  34.704  1.00  0.00    -0.003 C 
ATOM     32  C   UNL     1     -35.204 -49.171  35.388  1.00  0.00     0.004 C 
ENDBRANCH  30  31
ENDBRANCH  29  30
ENDBRANCH  28  29
ENDBRANCH  27  28
ENDBRANCH  26  27
ENDBRANCH  25  26
ENDBRANCH  24  25
ENDBRANCH  23  24
ENDBRANCH  22  23
ENDBRANCH  21  22
ENDBRANCH  20  21
ENDBRANCH  19  20
ENDBRANCH  18  19
ENDBRANCH   1  18
TORSDOF 28
ENDMDL
