MODEL 1
REMARK VINA RESULT:    -3.748      0.000      0.000
REMARK INTER + INTRA:          -6.876
REMARK INTER:                  -5.720
REMARK INTRA:                  -1.156
REMARK UNBOUND:                -1.156
REMARK SMILES CCCCCCCCCCC(=O)[O-]
REMARK SMILES IDX 7 1 8 2 9 3 10 4 11 5 12 6 13 7 6 8 5 9 4 10 3 11 2 12 1 13
REMARK H PARENT
REMARK Flexibility Score: inf
ROOT
ATOM      1  C   UNL     1      26.461  29.400 -13.739  1.00  0.00     0.000 C 
ENDROOT
BRANCH   1   2
ATOM      2  C   UNL     1      25.070  29.976 -13.447  1.00  0.00     0.000 C 
BRANCH   2   3
ATOM      3  C   UNL     1      25.168  31.257 -12.609  1.00  0.00     0.006 C 
BRANCH   3   4
ATOM      4  C   UNL     1      24.105  32.273 -13.034  1.00  0.00     0.053 C 
BRANCH   4   5
ATOM      5  C   UNL     1      24.198  32.545 -14.502  1.00  0.00     0.041 C 
ATOM      6  O   UNL     1      25.210  33.125 -14.977  1.00  0.00    -0.550 OA
ATOM      7  O   UNL     1      23.189  32.116 -15.354  1.00  0.00    -0.550 OA
ENDBRANCH   4   5
ENDBRANCH   3   4
ENDBRANCH   2   3
ENDBRANCH   1   2
BRANCH   1   8
ATOM      8  C   UNL     1      27.445  30.511 -14.136  1.00  0.00     0.000 C 
BRANCH   8   9
ATOM      9  C   UNL     1      28.733  30.491 -13.297  1.00  0.00    -0.000 C 
BRANCH   9  10
ATOM     10  C   UNL     1      28.609  29.604 -12.047  1.00  0.00    -0.000 C 
BRANCH  10  11
ATOM     11  C   UNL     1      28.402  30.414 -10.755  1.00  0.00    -0.000 C 
BRANCH  11  12
ATOM     12  C   UNL     1      27.630  29.681  -9.643  1.00  0.00    -0.003 C 
ATOM     13  C   UNL     1      26.800  28.508 -10.164  1.00  0.00     0.004 C 
ENDBRANCH  11  12
ENDBRANCH  10  11
ENDBRANCH   9  10
ENDBRANCH   8   9
ENDBRANCH   1   8
TORSDOF 9
ENDMDL
MODEL 2
REMARK VINA RESULT:    -3.616      2.816      5.008
REMARK INTER + INTRA:          -6.674
REMARK INTER:                  -5.544
REMARK INTRA:                  -1.130
REMARK UNBOUND:                -1.156
REMARK SMILES CCCCCCCCCCC(=O)[O-]
REMARK SMILES IDX 7 1 8 2 9 3 10 4 11 5 12 6 13 7 6 8 5 9 4 10 3 11 2 12 1 13
REMARK H PARENT
REMARK Flexibility Score: inf
ROOT
ATOM      1  C   UNL     1      26.359  29.376 -14.255  1.00  0.00     0.000 C 
ENDROOT
BRANCH   1   2
ATOM      2  C   UNL     1      27.425  30.470 -14.386  1.00  0.00     0.000 C 
BRANCH   2   3
ATOM      3  C   UNL     1      28.381  30.457 -13.186  1.00  0.00     0.006 C 
BRANCH   3   4
ATOM      4  C   UNL     1      28.055  29.301 -12.237  1.00  0.00     0.053 C 
BRANCH   4   5
ATOM      5  C   UNL     1      28.145  29.750 -10.813  1.00  0.00     0.041 C 
ATOM      6  O   UNL     1      28.625  30.881 -10.534  1.00  0.00    -0.550 OA
ATOM      7  O   UNL     1      27.654  28.942  -9.796  1.00  0.00    -0.550 OA
ENDBRANCH   4   5
ENDBRANCH   3   4
ENDBRANCH   2   3
ENDBRANCH   1   2
BRANCH   1   8
ATOM      8  C   UNL     1      25.408  29.388 -15.461  1.00  0.00     0.000 C 
BRANCH   8   9
ATOM      9  C   UNL     1      23.987  29.846 -15.092  1.00  0.00    -0.000 C 
BRANCH   9  10
ATOM     10  C   UNL     1      23.835  31.376 -15.115  1.00  0.00    -0.000 C 
BRANCH  10  11
ATOM     11  C   UNL     1      23.401  31.955 -13.757  1.00  0.00    -0.000 C 
BRANCH  11  12
ATOM     12  C   UNL     1      24.549  32.484 -12.878  1.00  0.00    -0.003 C 
ATOM     13  C   UNL     1      24.859  31.578 -11.687  1.00  0.00     0.004 C 
ENDBRANCH  11  12
ENDBRANCH  10  11
ENDBRANCH   9  10
ENDBRANCH   8   9
ENDBRANCH   1   8
TORSDOF 9
ENDMDL
MODEL 3
REMARK VINA RESULT:    -3.556      1.456      2.697
REMARK INTER + INTRA:          -6.583
REMARK INTER:                  -5.435
REMARK INTRA:                  -1.149
REMARK UNBOUND:                -1.156
REMARK SMILES CCCCCCCCCCC(=O)[O-]
REMARK SMILES IDX 7 1 8 2 9 3 10 4 11 5 12 6 13 7 6 8 5 9 4 10 3 11 2 12 1 13
REMARK H PARENT
REMARK Flexibility Score: inf
ROOT
ATOM      1  C   UNL     1      29.012  30.478 -13.040  1.00  0.00     0.000 C 
ENDROOT
BRANCH   1   2
ATOM      2  C   UNL     1      27.786  29.745 -13.598  1.00  0.00     0.000 C 
BRANCH   2   3
ATOM      3  C   UNL     1      26.779  30.733 -14.199  1.00  0.00     0.006 C 
BRANCH   3   4
ATOM      4  C   UNL     1      25.394  30.556 -13.571  1.00  0.00     0.053 C 
BRANCH   4   5
ATOM      5  C   UNL     1      24.936  31.835 -12.942  1.00  0.00     0.041 C 
ATOM      6  O   UNL     1      24.586  32.806 -13.663  1.00  0.00    -0.550 OA
ATOM      7  O   UNL     1      24.850  31.938 -11.560  1.00  0.00    -0.550 OA
ENDBRANCH   4   5
ENDBRANCH   3   4
ENDBRANCH   2   3
ENDBRANCH   1   2
BRANCH   1   8
ATOM      8  C   UNL     1      29.284  30.066 -11.585  1.00  0.00     0.000 C 
BRANCH   8   9
ATOM      9  C   UNL     1      28.150  30.477 -10.632  1.00  0.00    -0.000 C 
BRANCH   9  10
ATOM     10  C   UNL     1      27.591  29.287  -9.833  1.00  0.00    -0.000 C 
BRANCH  10  11
ATOM     11  C   UNL     1      26.216  28.818 -10.341  1.00  0.00    -0.000 C 
BRANCH  11  12
ATOM     12  C   UNL     1      26.084  27.298 -10.551  1.00  0.00    -0.003 C 
ATOM     13  C   UNL     1      26.677  26.823 -11.877  1.00  0.00     0.004 C 
ENDBRANCH  11  12
ENDBRANCH  10  11
ENDBRANCH   9  10
ENDBRANCH   8   9
ENDBRANCH   1   8
TORSDOF 9
ENDMDL
MODEL 4
REMARK VINA RESULT:    -3.502      3.286      5.387
REMARK INTER + INTRA:          -6.501
REMARK INTER:                  -5.598
REMARK INTRA:                  -0.903
REMARK UNBOUND:                -1.156
REMARK SMILES CCCCCCCCCCC(=O)[O-]
REMARK SMILES IDX 7 1 8 2 9 3 10 4 11 5 12 6 13 7 6 8 5 9 4 10 3 11 2 12 1 13
REMARK H PARENT
REMARK Flexibility Score: inf
ROOT
ATOM      1  C   UNL     1      28.550  29.664 -12.707  1.00  0.00     0.000 C 
ENDROOT
BRANCH   1   2
ATOM      2  C   UNL     1      28.991  30.506 -11.504  1.00  0.00     0.000 C 
BRANCH   2   3
ATOM      3  C   UNL     1      28.001  30.366 -10.341  1.00  0.00     0.006 C 
BRANCH   3   4
ATOM      4  C   UNL     1      27.277  29.018 -10.394  1.00  0.00     0.053 C 
BRANCH   4   5
ATOM      5  C   UNL     1      26.761  28.647  -9.040  1.00  0.00     0.041 C 
ATOM      6  O   UNL     1      25.852  27.784  -8.921  1.00  0.00    -0.550 OA
ATOM      7  O   UNL     1      27.317  29.220  -7.903  1.00  0.00    -0.550 OA
ENDBRANCH   4   5
ENDBRANCH   3   4
ENDBRANCH   2   3
ENDBRANCH   1   2
BRANCH   1   8
ATOM      8  C   UNL     1      27.759  30.515 -13.713  1.00  0.00     0.000 C 
BRANCH   8   9
ATOM      9  C   UNL     1      26.608  29.739 -14.371  1.00  0.00    -0.000 C 
BRANCH   9  10
ATOM     10  C   UNL     1      25.232  30.130 -13.804  1.00  0.00    -0.000 C 
BRANCH  10  11
ATOM     11  C   UNL     1      25.298  31.340 -12.855  1.00  0.00    -0.000 C 
BRANCH  11  12
ATOM     12  C   UNL     1      24.514  32.579 -13.324  1.00  0.00    -0.003 C 
ATOM     13  C   UNL     1      24.120  32.515 -14.800  1.00  0.00     0.004 C 
ENDBRANCH  11  12
ENDBRANCH  10  11
ENDBRANCH   9  10
ENDBRANCH   8   9
ENDBRANCH   1   8
TORSDOF 9
ENDMDL
MODEL 5
REMARK VINA RESULT:    -3.453      2.945      4.673
REMARK INTER + INTRA:          -6.425
REMARK INTER:                  -5.218
REMARK INTRA:                  -1.207
REMARK UNBOUND:                -1.156
REMARK SMILES CCCCCCCCCCC(=O)[O-]
REMARK SMILES IDX 7 1 8 2 9 3 10 4 11 5 12 6 13 7 6 8 5 9 4 10 3 11 2 12 1 13
REMARK H PARENT
REMARK Flexibility Score: inf
ROOT
ATOM      1  C   UNL     1      25.958  29.854 -15.072  1.00  0.00     0.000 C 
ENDROOT
BRANCH   1   2
ATOM      2  C   UNL     1      27.123  30.483 -14.299  1.00  0.00     0.000 C 
BRANCH   2   3
ATOM      3  C   UNL     1      27.649  29.529 -13.219  1.00  0.00     0.006 C 
BRANCH   3   4
ATOM      4  C   UNL     1      28.709  30.213 -12.351  1.00  0.00     0.053 C 
BRANCH   4   5
ATOM      5  C   UNL     1      28.358  30.090 -10.902  1.00  0.00     0.041 C 
ATOM      6  O   UNL     1      27.965  28.988 -10.435  1.00  0.00    -0.550 OA
ATOM      7  O   UNL     1      28.510  31.180 -10.054  1.00  0.00    -0.550 OA
ENDBRANCH   4   5
ENDBRANCH   3   4
ENDBRANCH   2   3
ENDBRANCH   1   2
BRANCH   1   8
ATOM      8  C   UNL     1      24.698  30.726 -14.973  1.00  0.00     0.000 C 
BRANCH   8   9
ATOM      9  C   UNL     1      25.015  32.189 -14.621  1.00  0.00    -0.000 C 
BRANCH   9  10
ATOM     10  C   UNL     1      24.282  32.663 -13.355  1.00  0.00    -0.000 C 
BRANCH  10  11
ATOM     11  C   UNL     1      23.765  31.499 -12.490  1.00  0.00    -0.000 C 
BRANCH  11  12
ATOM     12  C   UNL     1      24.726  31.036 -11.380  1.00  0.00    -0.003 C 
ATOM     13  C   UNL     1      24.623  29.541 -11.084  1.00  0.00     0.004 C 
ENDBRANCH  11  12
ENDBRANCH  10  11
ENDBRANCH   9  10
ENDBRANCH   8   9
ENDBRANCH   1   8
TORSDOF 9
ENDMDL
MODEL 6
REMARK VINA RESULT:    -3.415      3.584      5.125
REMARK INTER + INTRA:          -6.368
REMARK INTER:                  -5.109
REMARK INTRA:                  -1.259
REMARK UNBOUND:                -1.156
REMARK SMILES CCCCCCCCCCC(=O)[O-]
REMARK SMILES IDX 7 1 8 2 9 3 10 4 11 5 12 6 13 7 6 8 5 9 4 10 3 11 2 12 1 13
REMARK H PARENT
REMARK Flexibility Score: inf
ROOT
ATOM      1  C   UNL     1      25.658  28.959 -10.686  1.00  0.00     0.000 C 
ENDROOT
BRANCH   1   2
ATOM      2  C   UNL     1      25.453  27.831 -11.705  1.00  0.00     0.000 C 
BRANCH   2   3
ATOM      3  C   UNL     1      26.702  26.947 -11.808  1.00  0.00     0.006 C 
BRANCH   3   4
ATOM      4  C   UNL     1      27.085  26.707 -13.271  1.00  0.00     0.053 C 
BRANCH   4   5
ATOM      5  C   UNL     1      26.498  25.421 -13.762  1.00  0.00     0.041 C 
ATOM      6  O   UNL     1      26.654  24.360 -13.103  1.00  0.00    -0.550 OA
ATOM      7  O   UNL     1      25.736  25.404 -14.923  1.00  0.00    -0.550 OA
ENDBRANCH   4   5
ENDBRANCH   3   4
ENDBRANCH   2   3
ENDBRANCH   1   2
BRANCH   1   8
ATOM      8  C   UNL     1      27.123  29.027 -10.228  1.00  0.00     0.000 C 
BRANCH   8   9
ATOM      9  C   UNL     1      27.832  30.307 -10.699  1.00  0.00    -0.000 C 
BRANCH   9  10
ATOM     10  C   UNL     1      29.090  30.012 -11.532  1.00  0.00    -0.000 C 
BRANCH  10  11
ATOM     11  C   UNL     1      28.884  30.263 -13.037  1.00  0.00    -0.000 C 
BRANCH  11  12
ATOM     12  C   UNL     1      27.448  30.641 -13.443  1.00  0.00    -0.003 C 
ATOM     13  C   UNL     1      27.067  30.140 -14.835  1.00  0.00     0.004 C 
ENDBRANCH  11  12
ENDBRANCH  10  11
ENDBRANCH   9  10
ENDBRANCH   8   9
ENDBRANCH   1   8
TORSDOF 9
ENDMDL
MODEL 7
REMARK VINA RESULT:    -3.401      1.392      3.051
REMARK INTER + INTRA:          -6.347
REMARK INTER:                  -4.998
REMARK INTRA:                  -1.349
REMARK UNBOUND:                -1.156
REMARK SMILES CCCCCCCCCCC(=O)[O-]
REMARK SMILES IDX 7 1 8 2 9 3 10 4 11 5 12 6 13 7 6 8 5 9 4 10 3 11 2 12 1 13
REMARK H PARENT
REMARK Flexibility Score: inf
ROOT
ATOM      1  C   UNL     1      24.201  30.723 -11.506  1.00  0.00     0.000 C 
ENDROOT
BRANCH   1   2
ATOM      2  C   UNL     1      24.718  32.109 -11.908  1.00  0.00     0.000 C 
BRANCH   2   3
ATOM      3  C   UNL     1      24.205  32.509 -13.297  1.00  0.00     0.006 C 
BRANCH   3   4
ATOM      4  C   UNL     1      23.132  31.533 -13.788  1.00  0.00     0.053 C 
BRANCH   4   5
ATOM      5  C   UNL     1      23.072  31.529 -15.283  1.00  0.00     0.041 C 
ATOM      6  O   UNL     1      22.421  30.638 -15.889  1.00  0.00    -0.550 OA
ATOM      7  O   UNL     1      23.696  32.538 -16.006  1.00  0.00    -0.550 OA
ENDBRANCH   4   5
ENDBRANCH   3   4
ENDBRANCH   2   3
ENDBRANCH   1   2
BRANCH   1   8
ATOM      8  C   UNL     1      25.348  29.832 -11.006  1.00  0.00     0.000 C 
BRANCH   8   9
ATOM      9  C   UNL     1      26.732  30.454 -11.250  1.00  0.00    -0.000 C 
BRANCH   9  10
ATOM     10  C   UNL     1      27.583  29.634 -12.234  1.00  0.00    -0.000 C 
BRANCH  10  11
ATOM     11  C   UNL     1      28.008  30.441 -13.474  1.00  0.00    -0.000 C 
BRANCH  11  12
ATOM     12  C   UNL     1      26.948  30.533 -14.586  1.00  0.00    -0.003 C 
ATOM     13  C   UNL     1      26.054  29.295 -14.665  1.00  0.00     0.004 C 
ENDBRANCH  11  12
ENDBRANCH  10  11
ENDBRANCH   9  10
ENDBRANCH   8   9
ENDBRANCH   1   8
TORSDOF 9
ENDMDL
MODEL 8
REMARK VINA RESULT:    -3.373      2.827      5.324
REMARK INTER + INTRA:          -6.304
REMARK INTER:                  -5.250
REMARK INTRA:                  -1.054
REMARK UNBOUND:                -1.156
REMARK SMILES CCCCCCCCCCC(=O)[O-]
REMARK SMILES IDX 7 1 8 2 9 3 10 4 11 5 12 6 13 7 6 8 5 9 4 10 3 11 2 12 1 13
REMARK H PARENT
REMARK Flexibility Score: inf
ROOT
ATOM      1  C   UNL     1      25.205  31.665 -11.998  1.00  0.00     0.000 C 
ENDROOT
BRANCH   1   2
ATOM      2  C   UNL     1      26.012  30.687 -12.860  1.00  0.00     0.000 C 
BRANCH   2   3
ATOM      3  C   UNL     1      26.291  29.384 -12.102  1.00  0.00     0.006 C 
BRANCH   3   4
ATOM      4  C   UNL     1      27.704  28.871 -12.392  1.00  0.00     0.053 C 
BRANCH   4   5
ATOM      5  C   UNL     1      28.720  29.916 -12.053  1.00  0.00     0.041 C 
ATOM      6  O   UNL     1      29.498  30.356 -12.940  1.00  0.00    -0.550 OA
ATOM      7  O   UNL     1      28.775  30.440 -10.768  1.00  0.00    -0.550 OA
ENDBRANCH   4   5
ENDBRANCH   3   4
ENDBRANCH   2   3
ENDBRANCH   1   2
BRANCH   1   8
ATOM      8  C   UNL     1      24.229  32.482 -12.859  1.00  0.00     0.000 C 
BRANCH   8   9
ATOM      9  C   UNL     1      24.750  32.713 -14.287  1.00  0.00    -0.000 C 
BRANCH   9  10
ATOM     10  C   UNL     1      23.740  32.274 -15.361  1.00  0.00    -0.000 C 
BRANCH  10  11
ATOM     11  C   UNL     1      22.713  31.254 -14.837  1.00  0.00    -0.000 C 
BRANCH  11  12
ATOM     12  C   UNL     1      23.059  29.780 -15.115  1.00  0.00    -0.003 C 
ATOM     13  C   UNL     1      22.992  28.903 -13.866  1.00  0.00     0.004 C 
ENDBRANCH  11  12
ENDBRANCH  10  11
ENDBRANCH   9  10
ENDBRANCH   8   9
ENDBRANCH   1   8
TORSDOF 9
ENDMDL
MODEL 9
REMARK VINA RESULT:    -3.349      3.031      4.699
REMARK INTER + INTRA:          -6.267
REMARK INTER:                  -5.025
REMARK INTRA:                  -1.242
REMARK UNBOUND:                -1.156
REMARK SMILES CCCCCCCCCCC(=O)[O-]
REMARK SMILES IDX 7 1 8 2 9 3 10 4 11 5 12 6 13 7 6 8 5 9 4 10 3 11 2 12 1 13
REMARK H PARENT
REMARK Flexibility Score: inf
ROOT
ATOM      1  C   UNL     1      28.899  30.459 -13.124  1.00  0.00     0.000 C 
ENDROOT
BRANCH   1   2
ATOM      2  C   UNL     1      29.197  30.102 -11.663  1.00  0.00     0.000 C 
BRANCH   2   3
ATOM      3  C   UNL     1      27.966  30.329 -10.776  1.00  0.00     0.006 C 
BRANCH   3   4
ATOM      4  C   UNL     1      27.737  29.141  -9.839  1.00  0.00     0.053 C 
BRANCH   4   5
ATOM      5  C   UNL     1      26.282  28.798  -9.775  1.00  0.00     0.041 C 
ATOM      6  O   UNL     1      25.423  29.586 -10.251  1.00  0.00    -0.550 OA
ATOM      7  O   UNL     1      25.877  27.584  -9.233  1.00  0.00    -0.550 OA
ENDBRANCH   4   5
ENDBRANCH   3   4
ENDBRANCH   2   3
ENDBRANCH   1   2
BRANCH   1   8
ATOM      8  C   UNL     1      27.386  30.466 -13.390  1.00  0.00     0.000 C 
BRANCH   8   9
ATOM      9  C   UNL     1      27.035  30.077 -14.835  1.00  0.00    -0.000 C 
BRANCH   9  10
ATOM     10  C   UNL     1      26.050  28.898 -14.906  1.00  0.00    -0.000 C 
BRANCH  10  11
ATOM     11  C   UNL     1      25.335  28.633 -13.569  1.00  0.00    -0.000 C 
BRANCH  11  12
ATOM     12  C   UNL     1      25.589  27.243 -12.959  1.00  0.00    -0.003 C 
ATOM     13  C   UNL     1      27.069  26.860 -12.937  1.00  0.00     0.004 C 
ENDBRANCH  11  12
ENDBRANCH  10  11
ENDBRANCH   9  10
ENDBRANCH   8   9
ENDBRANCH   1   8
TORSDOF 9
ENDMDL
