MODEL 1
REMARK VINA RESULT:    -3.099      0.000      0.000
REMARK INTER + INTRA:          -3.931
REMARK INTER:                  -3.823
REMARK INTRA:                  -0.108
REMARK UNBOUND:                -0.108
REMARK SMILES CCCCCC(=O)[O-]
REMARK SMILES IDX 4 1 5 2 6 3 7 4 8 5 3 6 2 7 1 8
REMARK H PARENT
REMARK Flexibility Score: inf
ROOT
ATOM      1  C   UNL     1     118.074 113.500 117.517  1.00  0.00     0.006 C 
ENDROOT
BRANCH   1   2
ATOM      2  C   UNL     1     119.484 113.067 117.094  1.00  0.00     0.053 C 
BRANCH   2   3
ATOM      3  C   UNL     1     119.957 111.877 117.870  1.00  0.00     0.041 C 
ATOM      4  O   UNL     1     119.855 110.720 117.383  1.00  0.00    -0.550 OA
ATOM      5  O   UNL     1     120.481 112.041 119.147  1.00  0.00    -0.550 OA
ENDBRANCH   2   3
ENDBRANCH   1   2
BRANCH   1   6
ATOM      6  C   UNL     1     117.535 114.648 116.650  1.00  0.00     0.000 C 
BRANCH   6   7
ATOM      7  C   UNL     1     118.471 114.928 115.468  1.00  0.00    -0.003 C 
ATOM      8  C   UNL     1     118.341 116.374 114.994  1.00  0.00     0.004 C 
ENDBRANCH   6   7
ENDBRANCH   1   6
TORSDOF 4
ENDMDL
MODEL 2
REMARK VINA RESULT:    -3.031      1.966      2.796
REMARK INTER + INTRA:          -3.848
REMARK INTER:                  -3.752
REMARK INTRA:                  -0.096
REMARK UNBOUND:                -0.108
REMARK SMILES CCCCCC(=O)[O-]
REMARK SMILES IDX 4 1 5 2 6 3 7 4 8 5 3 6 2 7 1 8
REMARK H PARENT
REMARK Flexibility Score: inf
ROOT
ATOM      1  C   UNL     1     119.995 111.114 117.491  1.00  0.00     0.006 C 
ENDROOT
BRANCH   1   2
ATOM      2  C   UNL     1     121.435 111.431 117.915  1.00  0.00     0.053 C 
BRANCH   2   3
ATOM      3  C   UNL     1     121.774 110.818 119.239  1.00  0.00     0.041 C 
ATOM      4  O   UNL     1     122.220 109.643 119.297  1.00  0.00    -0.550 OA
ATOM      5  O   UNL     1     121.564 111.535 120.411  1.00  0.00    -0.550 OA
ENDBRANCH   2   3
ENDBRANCH   1   2
BRANCH   1   6
ATOM      6  C   UNL     1     118.992 112.148 118.024  1.00  0.00     0.000 C 
BRANCH   6   7
ATOM      7  C   UNL     1     118.965 113.396 117.133  1.00  0.00    -0.003 C 
ATOM      8  C   UNL     1     117.613 114.100 117.213  1.00  0.00     0.004 C 
ENDBRANCH   6   7
ENDBRANCH   1   6
TORSDOF 4
ENDMDL
MODEL 3
REMARK VINA RESULT:    -3.017      3.246      4.601
REMARK INTER + INTRA:          -3.831
REMARK INTER:                  -3.706
REMARK INTRA:                  -0.125
REMARK UNBOUND:                -0.108
REMARK SMILES CCCCCC(=O)[O-]
REMARK SMILES IDX 4 1 5 2 6 3 7 4 8 5 3 6 2 7 1 8
REMARK H PARENT
REMARK Flexibility Score: inf
ROOT
ATOM      1  C   UNL     1     117.953 114.217 116.747  1.00  0.00     0.006 C 
ENDROOT
BRANCH   1   2
ATOM      2  C   UNL     1     118.937 114.312 115.573  1.00  0.00     0.053 C 
BRANCH   2   3
ATOM      3  C   UNL     1     118.704 115.541 114.749  1.00  0.00     0.041 C 
ATOM      4  O   UNL     1     118.028 116.497 115.213  1.00  0.00    -0.550 OA
ATOM      5  O   UNL     1     119.206 115.617 113.455  1.00  0.00    -0.550 OA
ENDBRANCH   2   3
ENDBRANCH   1   2
BRANCH   1   6
ATOM      6  C   UNL     1     118.376 113.158 117.776  1.00  0.00     0.000 C 
BRANCH   6   7
ATOM      7  C   UNL     1     119.825 112.715 117.541  1.00  0.00    -0.003 C 
ATOM      8  C   UNL     1     119.941 111.193 117.541  1.00  0.00     0.004 C 
ENDBRANCH   6   7
ENDBRANCH   1   6
TORSDOF 4
ENDMDL
MODEL 4
REMARK VINA RESULT:    -3.009     11.392     12.085
REMARK INTER + INTRA:          -3.821
REMARK INTER:                  -3.749
REMARK INTRA:                  -0.072
REMARK UNBOUND:                -0.108
REMARK SMILES CCCCCC(=O)[O-]
REMARK SMILES IDX 4 1 5 2 6 3 7 4 8 5 3 6 2 7 1 8
REMARK H PARENT
REMARK Flexibility Score: inf
ROOT
ATOM      1  C   UNL     1     119.832 108.673 106.900  1.00  0.00     0.006 C 
ENDROOT
BRANCH   1   2
ATOM      2  C   UNL     1     120.817 107.790 106.122  1.00  0.00     0.053 C 
BRANCH   2   3
ATOM      3  C   UNL     1     120.109 106.792 105.259  1.00  0.00     0.041 C 
ATOM      4  O   UNL     1     119.323 105.953 105.773  1.00  0.00    -0.550 OA
ATOM      5  O   UNL     1     120.342 106.767 103.889  1.00  0.00    -0.550 OA
ENDBRANCH   2   3
ENDBRANCH   1   2
BRANCH   1   6
ATOM      6  C   UNL     1     120.549 109.655 107.839  1.00  0.00     0.000 C 
BRANCH   6   7
ATOM      7  C   UNL     1     119.984 111.072 107.684  1.00  0.00    -0.003 C 
ATOM      8  C   UNL     1     121.064 112.047 107.222  1.00  0.00     0.004 C 
ENDBRANCH   6   7
ENDBRANCH   1   6
TORSDOF 4
ENDMDL
MODEL 5
REMARK VINA RESULT:    -3.000     11.705     12.414
REMARK INTER + INTRA:          -3.810
REMARK INTER:                  -3.742
REMARK INTRA:                  -0.068
REMARK UNBOUND:                -0.108
REMARK SMILES CCCCCC(=O)[O-]
REMARK SMILES IDX 4 1 5 2 6 3 7 4 8 5 3 6 2 7 1 8
REMARK H PARENT
REMARK Flexibility Score: inf
ROOT
ATOM      1  C   UNL     1     120.743 108.109 106.410  1.00  0.00     0.006 C 
ENDROOT
BRANCH   1   2
ATOM      2  C   UNL     1     119.899 109.055 107.275  1.00  0.00     0.053 C 
BRANCH   2   3
ATOM      3  C   UNL     1     120.497 110.426 107.348  1.00  0.00     0.041 C 
ATOM      4  O   UNL     1     121.666 110.631 106.927  1.00  0.00    -0.550 OA
ATOM      5  O   UNL     1     119.776 111.471 107.912  1.00  0.00    -0.550 OA
ENDBRANCH   2   3
ENDBRANCH   1   2
BRANCH   1   6
ATOM      6  C   UNL     1     119.880 107.089 105.652  1.00  0.00     0.000 C 
BRANCH   6   7
ATOM      7  C   UNL     1     120.535 106.698 104.321  1.00  0.00    -0.003 C 
ATOM      8  C   UNL     1     121.910 106.075 104.547  1.00  0.00     0.004 C 
ENDBRANCH   6   7
ENDBRANCH   1   6
TORSDOF 4
ENDMDL
MODEL 6
REMARK VINA RESULT:    -3.000      9.680     10.479
REMARK INTER + INTRA:          -3.810
REMARK INTER:                  -3.714
REMARK INTRA:                  -0.096
REMARK UNBOUND:                -0.108
REMARK SMILES CCCCCC(=O)[O-]
REMARK SMILES IDX 4 1 5 2 6 3 7 4 8 5 3 6 2 7 1 8
REMARK H PARENT
REMARK Flexibility Score: inf
ROOT
ATOM      1  C   UNL     1     121.130 109.579 108.419  1.00  0.00     0.006 C 
ENDROOT
BRANCH   1   2
ATOM      2  C   UNL     1     120.029 109.336 107.378  1.00  0.00     0.053 C 
BRANCH   2   3
ATOM      3  C   UNL     1     120.348 108.170 106.492  1.00  0.00     0.041 C 
ATOM      4  O   UNL     1     121.534 107.954 106.132  1.00  0.00    -0.550 OA
ATOM      5  O   UNL     1     119.328 107.342 106.038  1.00  0.00    -0.550 OA
ENDBRANCH   2   3
ENDBRANCH   1   2
BRANCH   1   6
ATOM      6  C   UNL     1     120.655 109.279 109.848  1.00  0.00     0.000 C 
BRANCH   6   7
ATOM      7  C   UNL     1     119.343 110.011 110.155  1.00  0.00    -0.003 C 
ATOM      8  C   UNL     1     119.218 110.316 111.645  1.00  0.00     0.004 C 
ENDBRANCH   6   7
ENDBRANCH   1   6
TORSDOF 4
ENDMDL
MODEL 7
REMARK VINA RESULT:    -2.998      7.143      7.751
REMARK INTER + INTRA:          -3.808
REMARK INTER:                  -3.686
REMARK INTRA:                  -0.122
REMARK UNBOUND:                -0.108
REMARK SMILES CCCCCC(=O)[O-]
REMARK SMILES IDX 4 1 5 2 6 3 7 4 8 5 3 6 2 7 1 8
REMARK H PARENT
REMARK Flexibility Score: inf
ROOT
ATOM      1  C   UNL     1     119.612 109.949 109.965  1.00  0.00     0.006 C 
ENDROOT
BRANCH   1   2
ATOM      2  C   UNL     1     118.971 110.269 111.322  1.00  0.00     0.053 C 
BRANCH   2   3
ATOM      3  C   UNL     1     119.965 110.834 112.289  1.00  0.00     0.041 C 
ATOM      4  O   UNL     1     120.021 112.075 112.489  1.00  0.00    -0.550 OA
ATOM      5  O   UNL     1     120.853 109.990 112.946  1.00  0.00    -0.550 OA
ENDBRANCH   2   3
ENDBRANCH   1   2
BRANCH   1   6
ATOM      6  C   UNL     1     119.653 111.174 109.039  1.00  0.00     0.000 C 
BRANCH   6   7
ATOM      7  C   UNL     1     120.104 110.778 107.628  1.00  0.00    -0.003 C 
ATOM      8  C   UNL     1     119.965 109.274 107.407  1.00  0.00     0.004 C 
ENDBRANCH   6   7
ENDBRANCH   1   6
TORSDOF 4
ENDMDL
MODEL 8
REMARK VINA RESULT:    -2.941      1.358      2.188
REMARK INTER + INTRA:          -3.737
REMARK INTER:                  -3.621
REMARK INTRA:                  -0.116
REMARK UNBOUND:                -0.108
REMARK SMILES CCCCCC(=O)[O-]
REMARK SMILES IDX 4 1 5 2 6 3 7 4 8 5 3 6 2 7 1 8
REMARK H PARENT
REMARK Flexibility Score: inf
ROOT
ATOM      1  C   UNL     1     119.693 112.570 117.177  1.00  0.00     0.006 C 
ENDROOT
BRANCH   1   2
ATOM      2  C   UNL     1     120.095 111.134 117.539  1.00  0.00     0.053 C 
BRANCH   2   3
ATOM      3  C   UNL     1     121.210 111.103 118.538  1.00  0.00     0.041 C 
ATOM      4  O   UNL     1     121.623 112.171 119.061  1.00  0.00    -0.550 OA
ATOM      5  O   UNL     1     121.817 109.897 118.867  1.00  0.00    -0.550 OA
ENDBRANCH   2   3
ENDBRANCH   1   2
BRANCH   1   6
ATOM      6  C   UNL     1     118.402 113.007 117.886  1.00  0.00     0.000 C 
BRANCH   6   7
ATOM      7  C   UNL     1     117.689 114.110 117.094  1.00  0.00    -0.003 C 
ATOM      8  C   UNL     1     118.457 114.459 115.822  1.00  0.00     0.004 C 
ENDBRANCH   6   7
ENDBRANCH   1   6
TORSDOF 4
ENDMDL
MODEL 9
REMARK VINA RESULT:    -2.929     10.429     11.152
REMARK INTER + INTRA:          -3.723
REMARK INTER:                  -3.612
REMARK INTRA:                  -0.110
REMARK UNBOUND:                -0.108
REMARK SMILES CCCCCC(=O)[O-]
REMARK SMILES IDX 4 1 5 2 6 3 7 4 8 5 3 6 2 7 1 8
REMARK H PARENT
REMARK Flexibility Score: inf
ROOT
ATOM      1  C   UNL     1     120.625 108.798 106.977  1.00  0.00     0.006 C 
ENDROOT
BRANCH   1   2
ATOM      2  C   UNL     1     120.374 110.229 107.472  1.00  0.00     0.053 C 
BRANCH   2   3
ATOM      3  C   UNL     1     120.033 110.261 108.930  1.00  0.00     0.041 C 
ATOM      4  O   UNL     1     119.353 111.211 109.401  1.00  0.00    -0.550 OA
ATOM      5  O   UNL     1     120.493 109.259 109.775  1.00  0.00    -0.550 OA
ENDBRANCH   2   3
ENDBRANCH   1   2
BRANCH   1   6
ATOM      6  C   UNL     1     119.334 108.110 106.509  1.00  0.00     0.000 C 
BRANCH   6   7
ATOM      7  C   UNL     1     119.642 106.773 105.826  1.00  0.00    -0.003 C 
ATOM      8  C   UNL     1     120.463 106.979 104.556  1.00  0.00     0.004 C 
ENDBRANCH   6   7
ENDBRANCH   1   6
TORSDOF 4
ENDMDL
