MODEL 1
REMARK VINA RESULT:    -4.526      0.000      0.000
REMARK INTER + INTRA:          -8.318
REMARK INTER:                  -6.907
REMARK INTRA:                  -1.411
REMARK UNBOUND:                -1.411
REMARK SMILES OC[C@@H]1O[C@@H](O[C@@]2(CO)O[C@H](CO)[C@@H](O)[C@@H]2O)[C@H](O)[C@H](O)[C@H]1O
REMARK SMILES IDX 6 1 5 2 3 3 22 4 4 5 20 6 18 7 2 8 1 9 23 11 21 13 19 15
REMARK SMILES IDX 7 17 16 18 10 19 14 20 11 21 8 22 9 23 17 25 15 27 12 29
REMARK SMILES IDX 13 30
REMARK H PARENT 1 10 23 12 21 14 19 16 9 24 17 26 15 28 13 31
REMARK Flexibility Score: inf
ROOT
ATOM      1  O   UNL     1     193.749 195.508 191.153  1.00  0.00    -0.313 OA
ENDROOT
BRANCH   1   2
ATOM      2  C   UNL     1     194.904 195.232 191.947  1.00  0.00     0.285 C 
ATOM      3  C   UNL     1     197.045 195.978 192.659  1.00  0.00     0.178 C 
ATOM      4  C   UNL     1     197.635 194.538 192.601  1.00  0.00     0.177 C 
ATOM      5  O   UNL     1     195.938 196.191 191.792  1.00  0.00    -0.341 OA
ATOM      6  C   UNL     1     196.554 193.433 192.595  1.00  0.00     0.179 C 
ATOM      7  C   UNL     1     195.416 193.812 191.637  1.00  0.00     0.202 C 
BRANCH   3   8
ATOM      8  C   UNL     1     196.813 196.552 194.074  1.00  0.00     0.191 C 
BRANCH   8   9
ATOM      9  O   UNL     1     197.351 195.739 195.081  1.00  0.00    -0.394 OA
ATOM     10  H   UNL     1     197.663 196.339 195.807  1.00  0.00     0.210 HD
ENDBRANCH   8   9
ENDBRANCH   3   8
BRANCH   4  11
ATOM     11  O   UNL     1     198.411 194.424 191.433  1.00  0.00    -0.387 OA
ATOM     12  H   UNL     1     199.352 194.610 191.688  1.00  0.00     0.211 HD
ENDBRANCH   4  11
BRANCH   6  13
ATOM     13  O   UNL     1     196.051 193.217 193.889  1.00  0.00    -0.387 OA
ATOM     14  H   UNL     1     196.376 193.968 194.452  1.00  0.00     0.211 HD
ENDBRANCH   6  13
BRANCH   7  15
ATOM     15  O   UNL     1     194.378 192.863 191.686  1.00  0.00    -0.385 OA
ATOM     16  H   UNL     1     194.765 191.973 191.481  1.00  0.00     0.211 HD
ENDBRANCH   7  15
ENDBRANCH   1   2
BRANCH   1  17
ATOM     17  C   UNL     1     192.526 195.833 191.816  1.00  0.00     0.224 C 
ATOM     18  C   UNL     1     192.511 195.294 193.276  1.00  0.00     0.208 C 
ATOM     19  O   UNL     1     191.507 195.153 191.103  1.00  0.00    -0.337 OA
ATOM     20  C   UNL     1     191.231 194.502 193.356  1.00  0.00     0.180 C 
ATOM     21  C   UNL     1     191.017 194.108 191.909  1.00  0.00     0.179 C 
BRANCH  17  22
ATOM     22  C   UNL     1     192.184 197.346 191.700  1.00  0.00     0.225 C 
BRANCH  22  23
ATOM     23  O   UNL     1     193.309 198.136 191.989  1.00  0.00    -0.391 OA
ATOM     24  H   UNL     1     194.105 197.550 191.904  1.00  0.00     0.210 HD
ENDBRANCH  22  23
ENDBRANCH  17  22
BRANCH  18  25
ATOM     25  O   UNL     1     192.517 196.320 194.237  1.00  0.00    -0.385 OA
ATOM     26  H   UNL     1     192.037 195.969 195.031  1.00  0.00     0.211 HD
ENDBRANCH  18  25
BRANCH  20  27
ATOM     27  O   UNL     1     191.375 193.365 194.166  1.00  0.00    -0.387 OA
ATOM     28  H   UNL     1     190.495 193.219 194.602  1.00  0.00     0.211 HD
ENDBRANCH  20  27
BRANCH  21  29
ATOM     29  C   UNL     1     189.537 193.855 191.600  1.00  0.00     0.191 C 
BRANCH  29  30
ATOM     30  O   UNL     1     189.211 192.513 191.840  1.00  0.00    -0.394 OA
ATOM     31  H   UNL     1     189.277 192.042 190.968  1.00  0.00     0.210 HD
ENDBRANCH  29  30
ENDBRANCH  21  29
ENDBRANCH   1  17
TORSDOF 13
ENDMDL
MODEL 2
REMARK VINA RESULT:    -4.454      2.269      6.671
REMARK INTER + INTRA:          -8.208
REMARK INTER:                  -6.894
REMARK INTRA:                  -1.315
REMARK UNBOUND:                -1.411
REMARK SMILES OC[C@@H]1O[C@@H](O[C@@]2(CO)O[C@H](CO)[C@@H](O)[C@@H]2O)[C@H](O)[C@H](O)[C@H]1O
REMARK SMILES IDX 6 1 5 2 3 3 22 4 4 5 20 6 18 7 2 8 1 9 23 11 21 13 19 15
REMARK SMILES IDX 7 17 16 18 10 19 14 20 11 21 8 22 9 23 17 25 15 27 12 29
REMARK SMILES IDX 13 30
REMARK H PARENT 1 10 23 12 21 14 19 16 9 24 17 26 15 28 13 31
REMARK Flexibility Score: inf
ROOT
ATOM      1  O   UNL     1     196.471 196.590 193.379  1.00  0.00    -0.313 OA
ENDROOT
BRANCH   1   2
ATOM      2  C   UNL     1     195.231 195.915 193.160  1.00  0.00     0.285 C 
ATOM      3  C   UNL     1     192.880 196.128 192.894  1.00  0.00     0.178 C 
ATOM      4  C   UNL     1     192.607 194.830 193.712  1.00  0.00     0.177 C 
ATOM      5  O   UNL     1     194.104 196.775 193.216  1.00  0.00    -0.341 OA
ATOM      6  C   UNL     1     193.847 193.915 193.839  1.00  0.00     0.179 C 
ATOM      7  C   UNL     1     195.092 194.753 194.163  1.00  0.00     0.202 C 
BRANCH   3   8
ATOM      8  C   UNL     1     192.643 196.023 191.371  1.00  0.00     0.191 C 
BRANCH   8   9
ATOM      9  O   UNL     1     192.097 194.789 190.993  1.00  0.00    -0.394 OA
ATOM     10  H   UNL     1     191.785 194.882 190.056  1.00  0.00     0.210 HD
ENDBRANCH   8   9
ENDBRANCH   3   8
BRANCH   4  11
ATOM     11  O   UNL     1     192.179 195.199 195.000  1.00  0.00    -0.387 OA
ATOM     12  H   UNL     1     191.754 196.093 194.921  1.00  0.00     0.211 HD
ENDBRANCH   4  11
BRANCH   6  13
ATOM     13  O   UNL     1     194.048 193.178 192.661  1.00  0.00    -0.387 OA
ATOM     14  H   UNL     1     194.939 192.747 192.739  1.00  0.00     0.211 HD
ENDBRANCH   6  13
BRANCH   7  15
ATOM     15  O   UNL     1     196.247 193.951 194.191  1.00  0.00    -0.385 OA
ATOM     16  H   UNL     1     195.977 193.016 193.995  1.00  0.00     0.211 HD
ENDBRANCH   7  15
ENDBRANCH   1   2
BRANCH   1  17
ATOM     17  C   UNL     1     197.536 196.383 192.449  1.00  0.00     0.224 C 
ATOM     18  C   UNL     1     198.783 195.761 193.142  1.00  0.00     0.208 C 
ATOM     19  O   UNL     1     197.905 197.672 191.991  1.00  0.00    -0.337 OA
ATOM     20  C   UNL     1     199.908 196.688 192.760  1.00  0.00     0.180 C 
ATOM     21  C   UNL     1     199.172 197.989 192.516  1.00  0.00     0.179 C 
BRANCH  17  22
ATOM     22  C   UNL     1     197.064 195.606 191.187  1.00  0.00     0.225 C 
BRANCH  22  23
ATOM     23  O   UNL     1     198.015 195.698 190.158  1.00  0.00    -0.391 OA
ATOM     24  H   UNL     1     198.767 196.244 190.505  1.00  0.00     0.210 HD
ENDBRANCH  22  23
ENDBRANCH  17  22
BRANCH  18  25
ATOM     25  O   UNL     1     199.053 194.452 192.707  1.00  0.00    -0.385 OA
ATOM     26  H   UNL     1     199.189 193.904 193.523  1.00  0.00     0.211 HD
ENDBRANCH  18  25
BRANCH  20  27
ATOM     27  O   UNL     1     200.839 196.830 193.801  1.00  0.00    -0.387 OA
ATOM     28  H   UNL     1     201.658 196.351 193.511  1.00  0.00     0.211 HD
ENDBRANCH  20  27
BRANCH  21  29
ATOM     29  C   UNL     1     199.932 198.900 191.545  1.00  0.00     0.191 C 
BRANCH  29  30
ATOM     30  O   UNL     1     201.314 198.695 191.664  1.00  0.00    -0.394 OA
ATOM     31  H   UNL     1     201.469 198.310 192.566  1.00  0.00     0.210 HD
ENDBRANCH  29  30
ENDBRANCH  21  29
ENDBRANCH   1  17
TORSDOF 13
ENDMDL
MODEL 3
REMARK VINA RESULT:    -4.289      1.992      6.199
REMARK INTER + INTRA:          -7.957
REMARK INTER:                  -6.421
REMARK INTRA:                  -1.536
REMARK UNBOUND:                -1.411
REMARK SMILES OC[C@@H]1O[C@@H](O[C@@]2(CO)O[C@H](CO)[C@@H](O)[C@@H]2O)[C@H](O)[C@H](O)[C@H]1O
REMARK SMILES IDX 6 1 5 2 3 3 22 4 4 5 20 6 18 7 2 8 1 9 23 11 21 13 19 15
REMARK SMILES IDX 7 17 16 18 10 19 14 20 11 21 8 22 9 23 17 25 15 27 12 29
REMARK SMILES IDX 13 30
REMARK H PARENT 1 10 23 12 21 14 19 16 9 24 17 26 15 28 13 31
REMARK Flexibility Score: inf
ROOT
ATOM      1  O   UNL     1     191.379 195.875 191.827  1.00  0.00    -0.313 OA
ENDROOT
BRANCH   1   2
ATOM      2  C   UNL     1     190.637 194.875 191.127  1.00  0.00     0.285 C 
ATOM      3  C   UNL     1     189.104 194.410 189.373  1.00  0.00     0.178 C 
ATOM      4  C   UNL     1     188.366 193.331 190.220  1.00  0.00     0.177 C 
ATOM      5  O   UNL     1     189.764 195.406 190.143  1.00  0.00    -0.341 OA
ATOM      6  C   UNL     1     189.196 192.822 191.421  1.00  0.00     0.179 C 
ATOM      7  C   UNL     1     189.867 194.002 192.137  1.00  0.00     0.202 C 
BRANCH   3   8
ATOM      8  C   UNL     1     189.977 193.874 188.217  1.00  0.00     0.191 C 
BRANCH   8   9
ATOM      9  O   UNL     1     189.870 192.485 188.058  1.00  0.00    -0.394 OA
ATOM     10  H   UNL     1     190.250 192.262 187.169  1.00  0.00     0.210 HD
ENDBRANCH   8   9
ENDBRANCH   3   8
BRANCH   4  11
ATOM     11  O   UNL     1     187.165 193.887 190.698  1.00  0.00    -0.387 OA
ATOM     12  H   UNL     1     187.123 194.821 190.363  1.00  0.00     0.211 HD
ENDBRANCH   4  11
BRANCH   6  13
ATOM     13  O   UNL     1     190.161 191.891 191.004  1.00  0.00    -0.387 OA
ATOM     14  H   UNL     1     190.924 192.412 190.639  1.00  0.00     0.211 HD
ENDBRANCH   6  13
BRANCH   7  15
ATOM     15  O   UNL     1     190.701 193.552 193.177  1.00  0.00    -0.385 OA
ATOM     16  H   UNL     1     190.539 194.126 193.971  1.00  0.00     0.211 HD
ENDBRANCH   7  15
ENDBRANCH   1   2
BRANCH   1  17
ATOM     17  C   UNL     1     192.801 195.898 191.683  1.00  0.00     0.224 C 
ATOM     18  C   UNL     1     193.296 194.741 190.767  1.00  0.00     0.208 C 
ATOM     19  O   UNL     1     193.325 195.665 192.979  1.00  0.00    -0.337 OA
ATOM     20  C   UNL     1     194.349 194.050 191.595  1.00  0.00     0.180 C 
ATOM     21  C   UNL     1     193.906 194.383 193.004  1.00  0.00     0.179 C 
BRANCH  17  22
ATOM     22  C   UNL     1     193.321 197.301 191.262  1.00  0.00     0.225 C 
BRANCH  22  23
ATOM     23  O   UNL     1     192.693 197.735 190.083  1.00  0.00    -0.391 OA
ATOM     24  H   UNL     1     191.726 197.533 190.178  1.00  0.00     0.210 HD
ENDBRANCH  22  23
ENDBRANCH  17  22
BRANCH  18  25
ATOM     25  O   UNL     1     193.843 195.200 189.556  1.00  0.00    -0.385 OA
ATOM     26  H   UNL     1     194.718 194.744 189.448  1.00  0.00     0.211 HD
ENDBRANCH  18  25
BRANCH  20  27
ATOM     27  O   UNL     1     194.344 192.662 191.387  1.00  0.00    -0.387 OA
ATOM     28  H   UNL     1     193.581 192.472 190.781  1.00  0.00     0.211 HD
ENDBRANCH  20  27
BRANCH  21  29
ATOM     29  C   UNL     1     195.079 194.357 193.991  1.00  0.00     0.191 C 
BRANCH  29  30
ATOM     30  O   UNL     1     195.724 193.113 193.950  1.00  0.00    -0.394 OA
ATOM     31  H   UNL     1     195.589 192.692 194.839  1.00  0.00     0.210 HD
ENDBRANCH  29  30
ENDBRANCH  21  29
ENDBRANCH   1  17
TORSDOF 13
ENDMDL
MODEL 4
REMARK VINA RESULT:    -4.268      1.770      6.324
REMARK INTER + INTRA:          -7.925
REMARK INTER:                  -6.169
REMARK INTRA:                  -1.756
REMARK UNBOUND:                -1.411
REMARK SMILES OC[C@@H]1O[C@@H](O[C@@]2(CO)O[C@H](CO)[C@@H](O)[C@@H]2O)[C@H](O)[C@H](O)[C@H]1O
REMARK SMILES IDX 6 1 5 2 3 3 22 4 4 5 20 6 18 7 2 8 1 9 23 11 21 13 19 15
REMARK SMILES IDX 7 17 16 18 10 19 14 20 11 21 8 22 9 23 17 25 15 27 12 29
REMARK SMILES IDX 13 30
REMARK H PARENT 1 10 23 12 21 14 19 16 9 24 17 26 15 28 13 31
REMARK Flexibility Score: inf
ROOT
ATOM      1  O   UNL     1     196.190 195.689 191.277  1.00  0.00    -0.313 OA
ENDROOT
BRANCH   1   2
ATOM      2  C   UNL     1     194.902 195.752 191.891  1.00  0.00     0.285 C 
ATOM      3  C   UNL     1     192.864 194.617 192.345  1.00  0.00     0.178 C 
ATOM      4  C   UNL     1     192.024 195.911 192.133  1.00  0.00     0.177 C 
ATOM      5  O   UNL     1     194.104 194.605 191.649  1.00  0.00    -0.341 OA
ATOM      6  C   UNL     1     192.864 197.207 192.216  1.00  0.00     0.179 C 
ATOM      7  C   UNL     1     194.178 197.036 191.441  1.00  0.00     0.202 C 
BRANCH   3   8
ATOM      8  C   UNL     1     192.997 194.136 193.807  1.00  0.00     0.191 C 
BRANCH   8   9
ATOM      9  O   UNL     1     194.077 193.262 193.992  1.00  0.00    -0.394 OA
ATOM     10  H   UNL     1     194.788 193.537 193.356  1.00  0.00     0.210 HD
ENDBRANCH   8   9
ENDBRANCH   3   8
BRANCH   4  11
ATOM     11  O   UNL     1     191.416 195.842 190.866  1.00  0.00    -0.387 OA
ATOM     12  H   UNL     1     191.659 194.964 190.473  1.00  0.00     0.211 HD
ENDBRANCH   4  11
BRANCH   6  13
ATOM     13  O   UNL     1     193.125 197.549 193.552  1.00  0.00    -0.387 OA
ATOM     14  H   UNL     1     192.290 197.945 193.916  1.00  0.00     0.211 HD
ENDBRANCH   6  13
BRANCH   7  15
ATOM     15  O   UNL     1     194.997 198.171 191.582  1.00  0.00    -0.385 OA
ATOM     16  H   UNL     1     195.580 198.034 192.373  1.00  0.00     0.211 HD
ENDBRANCH   7  15
ENDBRANCH   1   2
BRANCH   1  17
ATOM     17  C   UNL     1     197.288 195.188 192.041  1.00  0.00     0.224 C 
ATOM     18  C   UNL     1     197.115 195.501 193.556  1.00  0.00     0.208 C 
ATOM     19  O   UNL     1     198.429 195.897 191.590  1.00  0.00    -0.337 OA
ATOM     20  C   UNL     1     198.404 196.185 193.933  1.00  0.00     0.180 C 
ATOM     21  C   UNL     1     198.843 196.775 192.610  1.00  0.00     0.179 C 
BRANCH  17  22
ATOM     22  C   UNL     1     197.575 193.690 191.736  1.00  0.00     0.225 C 
BRANCH  22  23
ATOM     23  O   UNL     1     196.479 192.888 192.096  1.00  0.00    -0.391 OA
ATOM     24  H   UNL     1     195.783 193.494 192.461  1.00  0.00     0.210 HD
ENDBRANCH  22  23
ENDBRANCH  17  22
BRANCH  18  25
ATOM     25  O   UNL     1     196.923 194.345 194.334  1.00  0.00    -0.385 OA
ATOM     26  H   UNL     1     197.603 193.686 194.036  1.00  0.00     0.211 HD
ENDBRANCH  18  25
BRANCH  20  27
ATOM     27  O   UNL     1     198.196 197.195 194.885  1.00  0.00    -0.387 OA
ATOM     28  H   UNL     1     198.436 198.050 194.442  1.00  0.00     0.211 HD
ENDBRANCH  20  27
BRANCH  21  29
ATOM     29  C   UNL     1     200.363 196.971 192.549  1.00  0.00     0.191 C 
BRANCH  29  30
ATOM     30  O   UNL     1     200.932 196.761 193.813  1.00  0.00    -0.394 OA
ATOM     31  H   UNL     1     201.737 197.340 193.864  1.00  0.00     0.210 HD
ENDBRANCH  29  30
ENDBRANCH  21  29
ENDBRANCH   1  17
TORSDOF 13
ENDMDL
MODEL 5
REMARK VINA RESULT:    -4.267      2.027      4.098
REMARK INTER + INTRA:          -7.923
REMARK INTER:                  -6.406
REMARK INTRA:                  -1.518
REMARK UNBOUND:                -1.411
REMARK SMILES OC[C@@H]1O[C@@H](O[C@@]2(CO)O[C@H](CO)[C@@H](O)[C@@H]2O)[C@H](O)[C@H](O)[C@H]1O
REMARK SMILES IDX 6 1 5 2 3 3 22 4 4 5 20 6 18 7 2 8 1 9 23 11 21 13 19 15
REMARK SMILES IDX 7 17 16 18 10 19 14 20 11 21 8 22 9 23 17 25 15 27 12 29
REMARK SMILES IDX 13 30
REMARK H PARENT 1 10 23 12 21 14 19 16 9 24 17 26 15 28 13 31
REMARK Flexibility Score: inf
ROOT
ATOM      1  O   UNL     1     192.440 196.357 193.524  1.00  0.00    -0.313 OA
ENDROOT
BRANCH   1   2
ATOM      2  C   UNL     1     193.324 197.000 192.605  1.00  0.00     0.285 C 
ATOM      3  C   UNL     1     195.425 198.064 192.289  1.00  0.00     0.178 C 
ATOM      4  C   UNL     1     194.816 199.117 191.317  1.00  0.00     0.177 C 
ATOM      5  O   UNL     1     194.495 197.517 193.215  1.00  0.00    -0.341 OA
ATOM      6  C   UNL     1     193.446 198.695 190.737  1.00  0.00     0.179 C 
ATOM      7  C   UNL     1     192.563 198.103 191.844  1.00  0.00     0.202 C 
BRANCH   3   8
ATOM      8  C   UNL     1     196.319 196.987 191.636  1.00  0.00     0.191 C 
BRANCH   8   9
ATOM      9  O   UNL     1     196.526 197.213 190.269  1.00  0.00    -0.394 OA
ATOM     10  H   UNL     1     196.477 196.331 189.815  1.00  0.00     0.210 HD
ENDBRANCH   8   9
ENDBRANCH   3   8
BRANCH   4  11
ATOM     11  O   UNL     1     194.662 200.328 192.016  1.00  0.00    -0.387 OA
ATOM     12  H   UNL     1     194.148 200.126 192.841  1.00  0.00     0.211 HD
ENDBRANCH   4  11
BRANCH   6  13
ATOM     13  O   UNL     1     193.609 197.769 189.694  1.00  0.00    -0.387 OA
ATOM     14  H   UNL     1     193.889 196.912 190.111  1.00  0.00     0.211 HD
ENDBRANCH   6  13
BRANCH   7  15
ATOM     15  O   UNL     1     191.347 197.628 191.319  1.00  0.00    -0.385 OA
ATOM     16  H   UNL     1     191.469 196.674 191.075  1.00  0.00     0.211 HD
ENDBRANCH   7  15
ENDBRANCH   1   2
BRANCH   1  17
ATOM     17  C   UNL     1     192.237 194.947 193.405  1.00  0.00     0.224 C 
ATOM     18  C   UNL     1     193.315 194.294 192.491  1.00  0.00     0.208 C 
ATOM     19  O   UNL     1     190.985 194.789 192.762  1.00  0.00    -0.337 OA
ATOM     20  C   UNL     1     192.509 193.531 191.471  1.00  0.00     0.180 C 
ATOM     21  C   UNL     1     191.208 194.304 191.459  1.00  0.00     0.179 C 
BRANCH  17  22
ATOM     22  C   UNL     1     192.089 194.260 194.792  1.00  0.00     0.225 C 
BRANCH  22  23
ATOM     23  O   UNL     1     191.431 193.025 194.671  1.00  0.00    -0.391 OA
ATOM     24  H   UNL     1     191.551 192.723 193.734  1.00  0.00     0.210 HD
ENDBRANCH  22  23
ENDBRANCH  17  22
BRANCH  18  25
ATOM     25  O   UNL     1     194.173 193.429 193.191  1.00  0.00    -0.385 OA
ATOM     26  H   UNL     1     195.098 193.664 192.920  1.00  0.00     0.211 HD
ENDBRANCH  18  25
BRANCH  20  27
ATOM     27  O   UNL     1     193.116 193.556 190.206  1.00  0.00    -0.387 OA
ATOM     28  H   UNL     1     192.765 194.361 189.744  1.00  0.00     0.211 HD
ENDBRANCH  20  27
BRANCH  21  29
ATOM     29  C   UNL     1     190.029 193.430 191.015  1.00  0.00     0.191 C 
BRANCH  29  30
ATOM     30  O   UNL     1     189.861 192.353 191.896  1.00  0.00    -0.394 OA
ATOM     31  H   UNL     1     188.886 192.170 191.942  1.00  0.00     0.210 HD
ENDBRANCH  29  30
ENDBRANCH  21  29
ENDBRANCH   1  17
TORSDOF 13
ENDMDL
MODEL 6
REMARK VINA RESULT:    -4.231      1.602      3.366
REMARK INTER + INTRA:          -7.868
REMARK INTER:                  -6.462
REMARK INTRA:                  -1.406
REMARK UNBOUND:                -1.411
REMARK SMILES OC[C@@H]1O[C@@H](O[C@@]2(CO)O[C@H](CO)[C@@H](O)[C@@H]2O)[C@H](O)[C@H](O)[C@H]1O
REMARK SMILES IDX 6 1 5 2 3 3 22 4 4 5 20 6 18 7 2 8 1 9 23 11 21 13 19 15
REMARK SMILES IDX 7 17 16 18 10 19 14 20 11 21 8 22 9 23 17 25 15 27 12 29
REMARK SMILES IDX 13 30
REMARK H PARENT 1 10 23 12 21 14 19 16 9 24 17 26 15 28 13 31
REMARK Flexibility Score: inf
ROOT
ATOM      1  O   UNL     1     193.825 196.285 193.326  1.00  0.00    -0.313 OA
ENDROOT
BRANCH   1   2
ATOM      2  C   UNL     1     195.243 196.118 193.268  1.00  0.00     0.285 C 
ATOM      3  C   UNL     1     197.172 195.184 194.292  1.00  0.00     0.178 C 
ATOM      4  C   UNL     1     198.035 196.436 193.954  1.00  0.00     0.177 C 
ATOM      5  O   UNL     1     195.779 195.445 194.396  1.00  0.00    -0.341 OA
ATOM      6  C   UNL     1     197.423 197.318 192.841  1.00  0.00     0.179 C 
ATOM      7  C   UNL     1     195.916 197.490 193.070  1.00  0.00     0.202 C 
BRANCH   3   8
ATOM      8  C   UNL     1     197.482 193.914 193.469  1.00  0.00     0.191 C 
BRANCH   8   9
ATOM      9  O   UNL     1     196.591 192.866 193.738  1.00  0.00    -0.394 OA
ATOM     10  H   UNL     1     196.232 192.556 192.866  1.00  0.00     0.210 HD
ENDBRANCH   8   9
ENDBRANCH   3   8
BRANCH   4  11
ATOM     11  O   UNL     1     198.173 197.208 195.122  1.00  0.00    -0.387 OA
ATOM     12  H   UNL     1     198.894 196.792 195.663  1.00  0.00     0.211 HD
ENDBRANCH   4  11
BRANCH   6  13
ATOM     13  O   UNL     1     197.664 196.762 191.574  1.00  0.00    -0.387 OA
ATOM     14  H   UNL     1     198.540 197.114 191.267  1.00  0.00     0.211 HD
ENDBRANCH   6  13
BRANCH   7  15
ATOM     15  O   UNL     1     195.325 198.213 192.017  1.00  0.00    -0.385 OA
ATOM     16  H   UNL     1     194.346 198.244 192.178  1.00  0.00     0.211 HD
ENDBRANCH   7  15
ENDBRANCH   1   2
BRANCH   1  17
ATOM     17  C   UNL     1     192.992 195.185 192.954  1.00  0.00     0.224 C 
ATOM     18  C   UNL     1     193.650 194.328 191.834  1.00  0.00     0.208 C 
ATOM     19  O   UNL     1     191.815 195.757 192.412  1.00  0.00    -0.337 OA
ATOM     20  C   UNL     1     192.590 194.254 190.765  1.00  0.00     0.180 C 
ATOM     21  C   UNL     1     191.797 195.517 191.025  1.00  0.00     0.179 C 
BRANCH  17  22
ATOM     22  C   UNL     1     192.531 194.360 194.189  1.00  0.00     0.225 C 
BRANCH  22  23
ATOM     23  O   UNL     1     191.366 193.631 193.898  1.00  0.00    -0.391 OA
ATOM     24  H   UNL     1     191.410 193.385 192.937  1.00  0.00     0.210 HD
ENDBRANCH  22  23
ENDBRANCH  17  22
BRANCH  18  25
ATOM     25  O   UNL     1     194.003 193.038 192.269  1.00  0.00    -0.385 OA
ATOM     26  H   UNL     1     194.995 193.007 192.290  1.00  0.00     0.211 HD
ENDBRANCH  18  25
BRANCH  20  27
ATOM     27  O   UNL     1     193.149 194.273 189.478  1.00  0.00    -0.387 OA
ATOM     28  H   UNL     1     192.391 194.383 188.845  1.00  0.00     0.211 HD
ENDBRANCH  20  27
BRANCH  21  29
ATOM     29  C   UNL     1     190.350 195.394 190.532  1.00  0.00     0.191 C 
BRANCH  29  30
ATOM     30  O   UNL     1     189.635 194.496 191.336  1.00  0.00    -0.394 OA
ATOM     31  H   UNL     1     190.136 194.416 192.190  1.00  0.00     0.210 HD
ENDBRANCH  29  30
ENDBRANCH  21  29
ENDBRANCH   1  17
TORSDOF 13
ENDMDL
MODEL 7
REMARK VINA RESULT:    -4.210      2.177      3.962
REMARK INTER + INTRA:          -7.836
REMARK INTER:                  -6.415
REMARK INTRA:                  -1.421
REMARK UNBOUND:                -1.411
REMARK SMILES OC[C@@H]1O[C@@H](O[C@@]2(CO)O[C@H](CO)[C@@H](O)[C@@H]2O)[C@H](O)[C@H](O)[C@H]1O
REMARK SMILES IDX 6 1 5 2 3 3 22 4 4 5 20 6 18 7 2 8 1 9 23 11 21 13 19 15
REMARK SMILES IDX 7 17 16 18 10 19 14 20 11 21 8 22 9 23 17 25 15 27 12 29
REMARK SMILES IDX 13 30
REMARK H PARENT 1 10 23 12 21 14 19 16 9 24 17 26 15 28 13 31
REMARK Flexibility Score: inf
ROOT
ATOM      1  O   UNL     1     191.525 195.491 189.929  1.00  0.00    -0.313 OA
ENDROOT
BRANCH   1   2
ATOM      2  C   UNL     1     192.177 195.205 191.168  1.00  0.00     0.285 C 
ATOM      3  C   UNL     1     192.507 195.853 193.429  1.00  0.00     0.178 C 
ATOM      4  C   UNL     1     194.018 195.476 193.382  1.00  0.00     0.177 C 
ATOM      5  O   UNL     1     191.949 196.187 192.166  1.00  0.00    -0.341 OA
ATOM      6  C   UNL     1     194.378 194.535 192.209  1.00  0.00     0.179 C 
ATOM      7  C   UNL     1     193.685 195.005 190.922  1.00  0.00     0.202 C 
BRANCH   3   8
ATOM      8  C   UNL     1     191.605 194.903 194.248  1.00  0.00     0.191 C 
BRANCH   8   9
ATOM      9  O   UNL     1     191.409 193.667 193.618  1.00  0.00    -0.394 OA
ATOM     10  H   UNL     1     192.104 193.049 193.964  1.00  0.00     0.210 HD
ENDBRANCH   8   9
ENDBRANCH   3   8
BRANCH   4  11
ATOM     11  O   UNL     1     194.766 196.662 193.262  1.00  0.00    -0.387 OA
ATOM     12  H   UNL     1     195.554 196.453 192.696  1.00  0.00     0.211 HD
ENDBRANCH   4  11
BRANCH   6  13
ATOM     13  O   UNL     1     194.017 193.210 192.502  1.00  0.00    -0.387 OA
ATOM     14  H   UNL     1     194.826 192.653 192.358  1.00  0.00     0.211 HD
ENDBRANCH   6  13
BRANCH   7  15
ATOM     15  O   UNL     1     193.926 194.109 189.864  1.00  0.00    -0.385 OA
ATOM     16  H   UNL     1     194.260 194.632 189.090  1.00  0.00     0.211 HD
ENDBRANCH   7  15
ENDBRANCH   1   2
BRANCH   1  17
ATOM     17  C   UNL     1     190.459 194.639 189.505  1.00  0.00     0.224 C 
ATOM     18  C   UNL     1     189.568 194.205 190.705  1.00  0.00     0.208 C 
ATOM     19  O   UNL     1     191.077 193.472 188.993  1.00  0.00    -0.337 OA
ATOM     20  C   UNL     1     189.533 192.702 190.604  1.00  0.00     0.180 C 
ATOM     21  C   UNL     1     190.830 192.407 189.880  1.00  0.00     0.179 C 
BRANCH  17  22
ATOM     22  C   UNL     1     189.662 195.251 188.318  1.00  0.00     0.225 C 
BRANCH  22  23
ATOM     23  O   UNL     1     189.047 196.456 188.696  1.00  0.00    -0.391 OA
ATOM     24  H   UNL     1     189.755 197.151 188.708  1.00  0.00     0.210 HD
ENDBRANCH  22  23
ENDBRANCH  17  22
BRANCH  18  25
ATOM     25  O   UNL     1     188.268 194.735 190.640  1.00  0.00    -0.385 OA
ATOM     26  H   UNL     1     187.685 194.125 191.163  1.00  0.00     0.211 HD
ENDBRANCH  18  25
BRANCH  20  27
ATOM     27  O   UNL     1     189.520 192.096 191.870  1.00  0.00    -0.387 OA
ATOM     28  H   UNL     1     190.248 191.421 191.865  1.00  0.00     0.211 HD
ENDBRANCH  20  27
BRANCH  21  29
ATOM     29  C   UNL     1     190.765 191.084 189.108  1.00  0.00     0.191 C 
BRANCH  29  30
ATOM     30  O   UNL     1     189.614 190.367 189.466  1.00  0.00    -0.394 OA
ATOM     31  H   UNL     1     189.676 189.484 189.015  1.00  0.00     0.210 HD
ENDBRANCH  29  30
ENDBRANCH  21  29
ENDBRANCH   1  17
TORSDOF 13
ENDMDL
MODEL 8
REMARK VINA RESULT:    -4.169      1.694      3.300
REMARK INTER + INTRA:          -7.773
REMARK INTER:                  -6.564
REMARK INTRA:                  -1.210
REMARK UNBOUND:                -1.411
REMARK SMILES OC[C@@H]1O[C@@H](O[C@@]2(CO)O[C@H](CO)[C@@H](O)[C@@H]2O)[C@H](O)[C@H](O)[C@H]1O
REMARK SMILES IDX 6 1 5 2 3 3 22 4 4 5 20 6 18 7 2 8 1 9 23 11 21 13 19 15
REMARK SMILES IDX 7 17 16 18 10 19 14 20 11 21 8 22 9 23 17 25 15 27 12 29
REMARK SMILES IDX 13 30
REMARK H PARENT 1 10 23 12 21 14 19 16 9 24 17 26 15 28 13 31
REMARK Flexibility Score: inf
ROOT
ATOM      1  O   UNL     1     194.400 195.948 192.149  1.00  0.00    -0.313 OA
ENDROOT
BRANCH   1   2
ATOM      2  C   UNL     1     195.820 196.032 192.286  1.00  0.00     0.285 C 
ATOM      3  C   UNL     1     197.656 196.256 193.777  1.00  0.00     0.178 C 
ATOM      4  C   UNL     1     198.426 197.182 192.789  1.00  0.00     0.177 C 
ATOM      5  O   UNL     1     196.244 196.277 193.618  1.00  0.00    -0.341 OA
ATOM      6  C   UNL     1     197.904 197.095 191.336  1.00  0.00     0.179 C 
ATOM      7  C   UNL     1     196.369 197.103 191.324  1.00  0.00     0.202 C 
BRANCH   3   8
ATOM      8  C   UNL     1     198.218 194.825 193.930  1.00  0.00     0.191 C 
BRANCH   8   9
ATOM      9  O   UNL     1     197.625 194.123 194.989  1.00  0.00    -0.394 OA
ATOM     10  H   UNL     1     198.159 194.315 195.803  1.00  0.00     0.210 HD
ENDBRANCH   8   9
ENDBRANCH   3   8
BRANCH   4  11
ATOM     11  O   UNL     1     198.303 198.510 193.239  1.00  0.00    -0.387 OA
ATOM     12  H   UNL     1     199.024 198.660 193.905  1.00  0.00     0.211 HD
ENDBRANCH   4  11
BRANCH   6  13
ATOM     13  O   UNL     1     198.391 195.944 190.698  1.00  0.00    -0.387 OA
ATOM     14  H   UNL     1     198.907 195.435 191.377  1.00  0.00     0.211 HD
ENDBRANCH   6  13
BRANCH   7  15
ATOM     15  O   UNL     1     195.874 196.932 190.018  1.00  0.00    -0.385 OA
ATOM     16  H   UNL     1     196.567 197.249 189.383  1.00  0.00     0.211 HD
ENDBRANCH   7  15
ENDBRANCH   1   2
BRANCH   1  17
ATOM     17  C   UNL     1     193.743 194.749 192.564  1.00  0.00     0.224 C 
ATOM     18  C   UNL     1     192.519 194.429 191.657  1.00  0.00     0.208 C 
ATOM     19  O   UNL     1     193.249 195.010 193.866  1.00  0.00    -0.337 OA
ATOM     20  C   UNL     1     191.383 194.254 192.632  1.00  0.00     0.180 C 
ATOM     21  C   UNL     1     191.845 195.095 193.803  1.00  0.00     0.179 C 
BRANCH  17  22
ATOM     22  C   UNL     1     194.738 193.564 192.720  1.00  0.00     0.225 C 
BRANCH  22  23
ATOM     23  O   UNL     1     195.004 193.309 194.076  1.00  0.00    -0.391 OA
ATOM     24  H   UNL     1     195.101 192.326 194.173  1.00  0.00     0.210 HD
ENDBRANCH  22  23
ENDBRANCH  17  22
BRANCH  18  25
ATOM     25  O   UNL     1     192.697 193.263 190.892  1.00  0.00    -0.385 OA
ATOM     26  H   UNL     1     192.617 193.533 189.940  1.00  0.00     0.211 HD
ENDBRANCH  18  25
BRANCH  20  27
ATOM     27  O   UNL     1     190.175 194.743 192.113  1.00  0.00    -0.387 OA
ATOM     28  H   UNL     1     189.603 194.963 192.894  1.00  0.00     0.211 HD
ENDBRANCH  20  27
BRANCH  21  29
ATOM     29  C   UNL     1     191.230 194.619 195.125  1.00  0.00     0.191 C 
BRANCH  29  30
ATOM     30  O   UNL     1     189.845 194.448 194.984  1.00  0.00    -0.394 OA
ATOM     31  H   UNL     1     189.598 193.657 195.532  1.00  0.00     0.210 HD
ENDBRANCH  29  30
ENDBRANCH  21  29
ENDBRANCH   1  17
TORSDOF 13
ENDMDL
MODEL 9
REMARK VINA RESULT:    -4.143      1.853      3.583
REMARK INTER + INTRA:          -7.734
REMARK INTER:                  -6.241
REMARK INTRA:                  -1.493
REMARK UNBOUND:                -1.411
REMARK SMILES OC[C@@H]1O[C@@H](O[C@@]2(CO)O[C@H](CO)[C@@H](O)[C@@H]2O)[C@H](O)[C@H](O)[C@H]1O
REMARK SMILES IDX 6 1 5 2 3 3 22 4 4 5 20 6 18 7 2 8 1 9 23 11 21 13 19 15
REMARK SMILES IDX 7 17 16 18 10 19 14 20 11 21 8 22 9 23 17 25 15 27 12 29
REMARK SMILES IDX 13 30
REMARK H PARENT 1 10 23 12 21 14 19 16 9 24 17 26 15 28 13 31
REMARK Flexibility Score: inf
ROOT
ATOM      1  O   UNL     1     196.221 194.173 192.444  1.00  0.00    -0.313 OA
ENDROOT
BRANCH   1   2
ATOM      2  C   UNL     1     196.958 195.349 192.784  1.00  0.00     0.285 C 
ATOM      3  C   UNL     1     198.618 196.911 192.112  1.00  0.00     0.178 C 
ATOM      4  C   UNL     1     199.195 197.012 193.555  1.00  0.00     0.177 C 
ATOM      5  O   UNL     1     197.956 195.684 191.833  1.00  0.00    -0.341 OA
ATOM      6  C   UNL     1     198.220 196.502 194.641  1.00  0.00     0.179 C 
ATOM      7  C   UNL     1     197.565 195.190 194.191  1.00  0.00     0.202 C 
BRANCH   3   8
ATOM      8  C   UNL     1     197.826 198.142 191.618  1.00  0.00     0.191 C 
BRANCH   8   9
ATOM      9  O   UNL     1     197.629 199.096 192.626  1.00  0.00    -0.394 OA
ATOM     10  H   UNL     1     198.524 199.336 192.982  1.00  0.00     0.210 HD
ENDBRANCH   8   9
ENDBRANCH   3   8
BRANCH   4  11
ATOM     11  O   UNL     1     200.379 196.254 193.613  1.00  0.00    -0.387 OA
ATOM     12  H   UNL     1     200.644 196.055 192.678  1.00  0.00     0.211 HD
ENDBRANCH   4  11
BRANCH   6  13
ATOM     13  O   UNL     1     197.239 197.466 194.925  1.00  0.00    -0.387 OA
ATOM     14  H   UNL     1     197.607 198.344 194.641  1.00  0.00     0.211 HD
ENDBRANCH   6  13
BRANCH   7  15
ATOM     15  O   UNL     1     196.605 194.758 195.125  1.00  0.00    -0.385 OA
ATOM     16  H   UNL     1     196.221 195.561 195.564  1.00  0.00     0.211 HD
ENDBRANCH   7  15
ENDBRANCH   1   2
BRANCH   1  17
ATOM     17  C   UNL     1     194.837 194.305 192.115  1.00  0.00     0.224 C 
ATOM     18  C   UNL     1     194.445 195.795 191.897  1.00  0.00     0.208 C 
ATOM     19  O   UNL     1     194.124 193.840 193.248  1.00  0.00    -0.337 OA
ATOM     20  C   UNL     1     193.263 195.995 192.811  1.00  0.00     0.180 C 
ATOM     21  C   UNL     1     193.507 194.941 193.871  1.00  0.00     0.179 C 
BRANCH  17  22
ATOM     22  C   UNL     1     194.425 193.368 190.944  1.00  0.00     0.225 C 
BRANCH  22  23
ATOM     23  O   UNL     1     193.054 193.071 190.999  1.00  0.00    -0.391 OA
ATOM     24  H   UNL     1     192.832 192.900 191.952  1.00  0.00     0.210 HD
ENDBRANCH  22  23
ENDBRANCH  17  22
BRANCH  18  25
ATOM     25  O   UNL     1     194.093 196.078 190.566  1.00  0.00    -0.385 OA
ATOM     26  H   UNL     1     193.643 196.963 190.573  1.00  0.00     0.211 HD
ENDBRANCH  18  25
BRANCH  20  27
ATOM     27  O   UNL     1     193.256 197.279 193.377  1.00  0.00    -0.387 OA
ATOM     28  H   UNL     1     192.311 197.582 193.372  1.00  0.00     0.211 HD
ENDBRANCH  20  27
BRANCH  21  29
ATOM     29  C   UNL     1     192.203 194.500 194.547  1.00  0.00     0.191 C 
BRANCH  29  30
ATOM     30  O   UNL     1     191.488 193.634 193.708  1.00  0.00    -0.394 OA
ATOM     31  H   UNL     1     190.528 193.741 193.939  1.00  0.00     0.210 HD
ENDBRANCH  29  30
ENDBRANCH  21  29
ENDBRANCH   1  17
TORSDOF 13
ENDMDL
