MODEL 1
REMARK VINA RESULT:    -5.017      0.000      0.000
REMARK INTER + INTRA:          -5.017
REMARK INTER:                  -5.017
REMARK INTRA:                   0.000
REMARK UNBOUND:                 0.000
REMARK SMILES C=C1[C@H]2CC[C@H](C2)C1(C)C
REMARK SMILES IDX 9 1 8 2 6 3 5 4 4 5 3 6 7 7 2 8 1 9 10 10
REMARK H PARENT
REMARK Flexibility Score: inf
ROOT
ATOM      1  C   UNL     1     143.737 146.859 162.786  1.00  0.00     0.016 C 
ATOM      2  C   UNL     1     142.718 146.819 163.946  1.00  0.00    -0.012 C 
ATOM      3  C   UNL     1     141.398 147.581 163.571  1.00  0.00    -0.001 C 
ATOM      4  C   UNL     1     140.459 147.706 164.795  1.00  0.00     0.005 C 
ATOM      5  C   UNL     1     140.019 146.245 165.041  1.00  0.00     0.008 C 
ATOM      6  C   UNL     1     140.668 145.488 163.870  1.00  0.00     0.015 C 
ATOM      7  C   UNL     1     140.626 146.532 162.776  1.00  0.00     0.012 C 
ATOM      8  C   UNL     1     142.149 145.432 164.134  1.00  0.00    -0.068 C 
ATOM      9  C   UNL     1     142.821 144.343 164.523  1.00  0.00     0.008 C 
ATOM     10  C   UNL     1     143.398 147.340 165.232  1.00  0.00     0.016 C 
ENDROOT
TORSDOF 0
ENDMDL
MODEL 2
REMARK VINA RESULT:    -5.017      6.116      8.157
REMARK INTER + INTRA:          -5.017
REMARK INTER:                  -5.017
REMARK INTRA:                   0.000
REMARK UNBOUND:                 0.000
REMARK SMILES C=C1[C@H]2CC[C@H](C2)C1(C)C
REMARK SMILES IDX 9 1 8 2 6 3 5 4 4 5 3 6 7 7 2 8 1 9 10 10
REMARK H PARENT
REMARK Flexibility Score: inf
ROOT
ATOM      1  C   UNL     1     147.039 143.919 162.759  1.00  0.00     0.016 C 
ATOM      2  C   UNL     1     148.053 143.927 163.924  1.00  0.00    -0.012 C 
ATOM      3  C   UNL     1     149.376 143.179 163.531  1.00  0.00    -0.001 C 
ATOM      4  C   UNL     1     150.311 143.019 164.755  1.00  0.00     0.005 C 
ATOM      5  C   UNL     1     150.746 144.472 165.047  1.00  0.00     0.008 C 
ATOM      6  C   UNL     1     150.099 145.263 163.896  1.00  0.00     0.015 C 
ATOM      7  C   UNL     1     150.148 144.253 162.772  1.00  0.00     0.012 C 
ATOM      8  C   UNL     1     148.618 145.308 164.156  1.00  0.00    -0.068 C 
ATOM      9  C   UNL     1     147.941 146.384 164.575  1.00  0.00     0.008 C 
ATOM     10  C   UNL     1     147.369 143.365 165.191  1.00  0.00     0.016 C 
ENDROOT
TORSDOF 0
ENDMDL
MODEL 3
REMARK VINA RESULT:    -5.016      3.835      5.752
REMARK INTER + INTRA:          -5.016
REMARK INTER:                  -5.016
REMARK INTRA:                   0.000
REMARK UNBOUND:                 0.000
REMARK SMILES C=C1[C@H]2CC[C@H](C2)C1(C)C
REMARK SMILES IDX 9 1 8 2 6 3 5 4 4 5 3 6 7 7 2 8 1 9 10 10
REMARK H PARENT
REMARK Flexibility Score: inf
ROOT
ATOM      1  C   UNL     1     143.918 143.742 162.783  1.00  0.00     0.016 C 
ATOM      2  C   UNL     1     143.941 142.723 163.943  1.00  0.00    -0.012 C 
ATOM      3  C   UNL     1     143.177 141.407 163.560  1.00  0.00    -0.001 C 
ATOM      4  C   UNL     1     143.035 140.467 164.782  1.00  0.00     0.005 C 
ATOM      5  C   UNL     1     144.490 140.021 165.043  1.00  0.00     0.008 C 
ATOM      6  C   UNL     1     145.263 140.668 163.881  1.00  0.00     0.015 C 
ATOM      7  C   UNL     1     144.231 140.630 162.776  1.00  0.00     0.012 C 
ATOM      8  C   UNL     1     145.323 142.148 164.146  1.00  0.00    -0.068 C 
ATOM      9  C   UNL     1     146.411 142.815 164.547  1.00  0.00     0.008 C 
ATOM     10  C   UNL     1     143.409 143.405 165.224  1.00  0.00     0.016 C 
ENDROOT
TORSDOF 0
ENDMDL
MODEL 4
REMARK VINA RESULT:    -5.015      3.833      5.751
REMARK INTER + INTRA:          -5.015
REMARK INTER:                  -5.015
REMARK INTRA:                   0.000
REMARK UNBOUND:                 0.000
REMARK SMILES C=C1[C@H]2CC[C@H](C2)C1(C)C
REMARK SMILES IDX 9 1 8 2 6 3 5 4 4 5 3 6 7 7 2 8 1 9 10 10
REMARK H PARENT
REMARK Flexibility Score: inf
ROOT
ATOM      1  C   UNL     1     146.855 147.013 162.790  1.00  0.00     0.016 C 
ATOM      2  C   UNL     1     146.813 148.036 163.946  1.00  0.00    -0.012 C 
ATOM      3  C   UNL     1     147.575 149.354 163.568  1.00  0.00    -0.001 C 
ATOM      4  C   UNL     1     147.698 150.298 164.789  1.00  0.00     0.005 C 
ATOM      5  C   UNL     1     146.237 150.738 165.030  1.00  0.00     0.008 C 
ATOM      6  C   UNL     1     145.482 150.084 163.860  1.00  0.00     0.015 C 
ATOM      7  C   UNL     1     146.529 150.123 162.768  1.00  0.00     0.012 C 
ATOM      8  C   UNL     1     145.426 148.605 164.129  1.00  0.00    -0.068 C 
ATOM      9  C   UNL     1     144.335 147.934 164.518  1.00  0.00     0.008 C 
ATOM     10  C   UNL     1     147.332 147.360 165.236  1.00  0.00     0.016 C 
ENDROOT
TORSDOF 0
ENDMDL
MODEL 5
REMARK VINA RESULT:    -4.701      0.836      2.982
REMARK INTER + INTRA:          -4.701
REMARK INTER:                  -4.701
REMARK INTRA:                   0.000
REMARK UNBOUND:                 0.000
REMARK SMILES C=C1[C@H]2CC[C@H](C2)C1(C)C
REMARK SMILES IDX 9 1 8 2 6 3 5 4 4 5 3 6 7 7 2 8 1 9 10 10
REMARK H PARENT
REMARK Flexibility Score: inf
ROOT
ATOM      1  C   UNL     1     140.128 145.733 165.231  1.00  0.00     0.016 C 
ATOM      2  C   UNL     1     141.181 145.918 164.116  1.00  0.00    -0.012 C 
ATOM      3  C   UNL     1     141.640 147.415 164.011  1.00  0.00    -0.001 C 
ATOM      4  C   UNL     1     142.546 147.636 162.775  1.00  0.00     0.005 C 
ATOM      5  C   UNL     1     143.825 146.851 163.142  1.00  0.00     0.008 C 
ATOM      6  C   UNL     1     143.538 146.375 164.576  1.00  0.00     0.015 C 
ATOM      7  C   UNL     1     142.696 147.514 165.108  1.00  0.00     0.012 C 
ATOM      8  C   UNL     1     142.501 145.288 164.492  1.00  0.00    -0.068 C 
ATOM      9  C   UNL     1     142.737 143.983 164.669  1.00  0.00     0.008 C 
ATOM     10  C   UNL     1     140.623 145.340 162.796  1.00  0.00     0.016 C 
ENDROOT
TORSDOF 0
ENDMDL
MODEL 6
REMARK VINA RESULT:    -4.681      4.494      6.033
REMARK INTER + INTRA:          -4.681
REMARK INTER:                  -4.681
REMARK INTRA:                   0.000
REMARK UNBOUND:                 0.000
REMARK SMILES C=C1[C@H]2CC[C@H](C2)C1(C)C
REMARK SMILES IDX 9 1 8 2 6 3 5 4 4 5 3 6 7 7 2 8 1 9 10 10
REMARK H PARENT
REMARK Flexibility Score: inf
ROOT
ATOM      1  C   UNL     1     147.279 147.315 165.123  1.00  0.00     0.016 C 
ATOM      2  C   UNL     1     147.013 148.402 164.058  1.00  0.00    -0.012 C 
ATOM      3  C   UNL     1     145.493 148.464 163.675  1.00  0.00    -0.001 C 
ATOM      4  C   UNL     1     145.257 149.414 162.475  1.00  0.00     0.005 C 
ATOM      5  C   UNL     1     145.576 150.803 163.070  1.00  0.00     0.008 C 
ATOM      6  C   UNL     1     145.845 150.491 164.552  1.00  0.00     0.015 C 
ATOM      7  C   UNL     1     144.908 149.327 164.789  1.00  0.00     0.012 C 
ATOM      8  C   UNL     1     147.174 149.789 164.632  1.00  0.00    -0.068 C 
ATOM      9  C   UNL     1     148.307 150.337 165.085  1.00  0.00     0.008 C 
ATOM     10  C   UNL     1     147.953 148.166 162.853  1.00  0.00     0.016 C 
ENDROOT
TORSDOF 0
ENDMDL
MODEL 7
REMARK VINA RESULT:    -4.645      3.956      6.155
REMARK INTER + INTRA:          -4.645
REMARK INTER:                  -4.645
REMARK INTRA:                   0.000
REMARK UNBOUND:                 0.000
REMARK SMILES C=C1[C@H]2CC[C@H](C2)C1(C)C
REMARK SMILES IDX 9 1 8 2 6 3 5 4 4 5 3 6 7 7 2 8 1 9 10 10
REMARK H PARENT
REMARK Flexibility Score: inf
ROOT
ATOM      1  C   UNL     1     143.464 143.459 165.204  1.00  0.00     0.016 C 
ATOM      2  C   UNL     1     143.729 142.470 164.048  1.00  0.00    -0.012 C 
ATOM      3  C   UNL     1     145.236 142.496 163.612  1.00  0.00    -0.001 C 
ATOM      4  C   UNL     1     145.462 141.653 162.333  1.00  0.00     0.005 C 
ATOM      5  C   UNL     1     145.214 140.210 162.825  1.00  0.00     0.008 C 
ATOM      6  C   UNL     1     144.987 140.395 164.335  1.00  0.00     0.015 C 
ATOM      7  C   UNL     1     145.891 141.571 164.633  1.00  0.00     0.012 C 
ATOM      8  C   UNL     1     143.638 141.037 164.514  1.00  0.00    -0.068 C 
ATOM      9  C   UNL     1     142.541 140.413 164.960  1.00  0.00     0.008 C 
ATOM     10  C   UNL     1     142.740 142.765 162.897  1.00  0.00     0.016 C 
ENDROOT
TORSDOF 0
ENDMDL
MODEL 8
REMARK VINA RESULT:    -4.619      1.264      2.907
REMARK INTER + INTRA:          -4.619
REMARK INTER:                  -4.619
REMARK INTRA:                   0.000
REMARK UNBOUND:                 0.000
REMARK SMILES C=C1[C@H]2CC[C@H](C2)C1(C)C
REMARK SMILES IDX 9 1 8 2 6 3 5 4 4 5 3 6 7 7 2 8 1 9 10 10
REMARK H PARENT
REMARK Flexibility Score: inf
ROOT
ATOM      1  C   UNL     1     142.457 144.611 162.179  1.00  0.00     0.016 C 
ATOM      2  C   UNL     1     141.433 145.609 162.763  1.00  0.00    -0.012 C 
ATOM      3  C   UNL     1     141.235 145.385 164.303  1.00  0.00    -0.001 C 
ATOM      4  C   UNL     1     140.073 146.251 164.849  1.00  0.00     0.005 C 
ATOM      5  C   UNL     1     140.628 147.687 164.724  1.00  0.00     0.008 C 
ATOM      6  C   UNL     1     142.067 147.459 164.229  1.00  0.00     0.015 C 
ATOM      7  C   UNL     1     142.412 146.149 164.902  1.00  0.00     0.012 C 
ATOM      8  C   UNL     1     141.986 147.014 162.794  1.00  0.00    -0.068 C 
ATOM      9  C   UNL     1     142.302 147.768 161.735  1.00  0.00     0.008 C 
ATOM     10  C   UNL     1     140.124 145.524 161.945  1.00  0.00     0.016 C 
ENDROOT
TORSDOF 0
ENDMDL
MODEL 9
REMARK VINA RESULT:    -4.595      4.417      5.923
REMARK INTER + INTRA:          -4.595
REMARK INTER:                  -4.595
REMARK INTRA:                   0.000
REMARK UNBOUND:                 0.000
REMARK SMILES C=C1[C@H]2CC[C@H](C2)C1(C)C
REMARK SMILES IDX 9 1 8 2 6 3 5 4 4 5 3 6 7 7 2 8 1 9 10 10
REMARK H PARENT
REMARK Flexibility Score: inf
ROOT
ATOM      1  C   UNL     1     144.669 148.418 161.894  1.00  0.00     0.016 C 
ATOM      2  C   UNL     1     145.742 149.333 162.524  1.00  0.00    -0.012 C 
ATOM      3  C   UNL     1     145.272 149.887 163.915  1.00  0.00    -0.001 C 
ATOM      4  C   UNL     1     146.259 150.950 164.455  1.00  0.00     0.005 C 
ATOM      5  C   UNL     1     147.524 150.119 164.764  1.00  0.00     0.008 C 
ATOM      6  C   UNL     1     147.070 148.679 164.469  1.00  0.00     0.015 C 
ATOM      7  C   UNL     1     145.610 148.738 164.859  1.00  0.00     0.012 C 
ATOM      8  C   UNL     1     146.946 148.541 162.976  1.00  0.00    -0.068 C 
ATOM      9  C   UNL     1     147.800 147.874 162.190  1.00  0.00     0.008 C 
ATOM     10  C   UNL     1     146.125 150.433 161.508  1.00  0.00     0.016 C 
ENDROOT
TORSDOF 0
ENDMDL
