MODEL 1
REMARK VINA RESULT:    13.312      0.000      0.000
REMARK INTER + INTRA:          24.398
REMARK INTER:                  24.985
REMARK INTRA:                  -0.588
REMARK UNBOUND:                -0.588
REMARK SMILES O=C([O-])CCCCCCCCCCCCCCC(=O)[O-]
REMARK SMILES IDX 10 1 9 2 8 3 7 4 6 5 5 6 4 7 2 8 1 9 3 10 11 11 12 12 13 13
REMARK SMILES IDX 14 14 15 15 16 16 17 17 18 18 19 19 20 20
REMARK H PARENT
REMARK Flexibility Score: inf
ROOT
ATOM      1  C   UNL     1      19.750  18.873  22.093  1.00  0.00     0.000 C 
ENDROOT
BRANCH   1   2
ATOM      2  C   UNL     1      20.808  18.993  23.200  1.00  0.00     0.000 C 
BRANCH   2   3
ATOM      3  C   UNL     1      20.853  20.395  23.827  1.00  0.00     0.000 C 
BRANCH   3   4
ATOM      4  C   UNL     1      22.028  20.522  24.806  1.00  0.00     0.000 C 
BRANCH   4   5
ATOM      5  C   UNL     1      23.313  20.932  24.071  1.00  0.00     0.000 C 
BRANCH   5   6
ATOM      6  C   UNL     1      24.345  19.795  24.005  1.00  0.00     0.006 C 
BRANCH   6   7
ATOM      7  C   UNL     1      24.849  19.538  22.580  1.00  0.00     0.053 C 
BRANCH   7   8
ATOM      8  C   UNL     1      24.795  18.077  22.263  1.00  0.00     0.041 C 
ATOM      9  O   UNL     1      24.226  17.677  21.213  1.00  0.00    -0.550 OA
ATOM     10  O   UNL     1      25.414  17.160  23.101  1.00  0.00    -0.550 OA
ENDBRANCH   7   8
ENDBRANCH   6   7
ENDBRANCH   5   6
ENDBRANCH   4   5
ENDBRANCH   3   4
ENDBRANCH   2   3
ENDBRANCH   1   2
BRANCH   1  11
ATOM     11  C   UNL     1      20.312  18.264  20.797  1.00  0.00     0.000 C 
BRANCH  11  12
ATOM     12  C   UNL     1      19.195  17.869  19.808  1.00  0.00     0.000 C 
BRANCH  12  13
ATOM     13  C   UNL     1      17.933  17.317  20.493  1.00  0.00     0.000 C 
BRANCH  13  14
ATOM     14  C   UNL     1      16.909  16.757  19.492  1.00  0.00     0.000 C 
BRANCH  14  15
ATOM     15  C   UNL     1      16.640  17.707  18.311  1.00  0.00     0.000 C 
BRANCH  15  16
ATOM     16  C   UNL     1      17.445  17.409  17.029  1.00  0.00     0.006 C 
BRANCH  16  17
ATOM     17  C   UNL     1      16.631  17.489  15.729  1.00  0.00     0.053 C 
BRANCH  17  18
ATOM     18  C   UNL     1      17.497  17.344  14.515  1.00  0.00     0.041 C 
ATOM     19  O   UNL     1      17.741  16.201  14.045  1.00  0.00    -0.550 OA
ATOM     20  O   UNL     1      18.009  18.471  13.884  1.00  0.00    -0.550 OA
ENDBRANCH  17  18
ENDBRANCH  16  17
ENDBRANCH  15  16
ENDBRANCH  14  15
ENDBRANCH  13  14
ENDBRANCH  12  13
ENDBRANCH  11  12
ENDBRANCH   1  11
TORSDOF 15
ENDMDL
MODEL 2
REMARK VINA RESULT:    13.364      0.534      8.853
REMARK INTER + INTRA:          24.495
REMARK INTER:                  25.244
REMARK INTRA:                  -0.749
REMARK UNBOUND:                -0.588
REMARK SMILES O=C([O-])CCCCCCCCCCCCCCC(=O)[O-]
REMARK SMILES IDX 10 1 9 2 8 3 7 4 6 5 5 6 4 7 2 8 1 9 3 10 11 11 12 12 13 13
REMARK SMILES IDX 14 14 15 15 16 16 17 17 18 18 19 19 20 20
REMARK H PARENT
REMARK Flexibility Score: inf
ROOT
ATOM      1  C   UNL     1      19.749  18.751  21.238  1.00  0.00     0.000 C 
ENDROOT
BRANCH   1   2
ATOM      2  C   UNL     1      19.336  17.896  20.030  1.00  0.00     0.000 C 
BRANCH   2   3
ATOM      3  C   UNL     1      17.996  17.176  20.245  1.00  0.00     0.000 C 
BRANCH   3   4
ATOM      4  C   UNL     1      16.860  17.895  19.506  1.00  0.00     0.000 C 
BRANCH   4   5
ATOM      5  C   UNL     1      16.469  17.137  18.229  1.00  0.00     0.000 C 
BRANCH   5   6
ATOM      6  C   UNL     1      17.330  17.532  17.019  1.00  0.00     0.006 C 
BRANCH   6   7
ATOM      7  C   UNL     1      16.550  17.484  15.699  1.00  0.00     0.053 C 
BRANCH   7   8
ATOM      8  C   UNL     1      17.490  17.366  14.541  1.00  0.00     0.041 C 
ATOM      9  O   UNL     1      17.804  16.232  14.094  1.00  0.00    -0.550 OA
ATOM     10  O   UNL     1      17.982  18.509  13.925  1.00  0.00    -0.550 OA
ENDBRANCH   7   8
ENDBRANCH   6   7
ENDBRANCH   5   6
ENDBRANCH   4   5
ENDBRANCH   3   4
ENDBRANCH   2   3
ENDBRANCH   1   2
BRANCH   1  11
ATOM     11  C   UNL     1      19.479  18.050  22.582  1.00  0.00     0.000 C 
BRANCH  11  12
ATOM     12  C   UNL     1      20.299  18.668  23.734  1.00  0.00     0.000 C 
BRANCH  12  13
ATOM     13  C   UNL     1      20.868  20.060  23.409  1.00  0.00     0.000 C 
BRANCH  13  14
ATOM     14  C   UNL     1      21.584  20.706  24.606  1.00  0.00     0.000 C 
BRANCH  14  15
ATOM     15  C   UNL     1      23.066  21.017  24.325  1.00  0.00     0.000 C 
BRANCH  15  16
ATOM     16  C   UNL     1      24.007  19.795  24.323  1.00  0.00     0.006 C 
BRANCH  16  17
ATOM     17  C   UNL     1      24.867  19.651  23.059  1.00  0.00     0.053 C 
BRANCH  17  18
ATOM     18  C   UNL     1      24.876  18.244  22.543  1.00  0.00     0.041 C 
ATOM     19  O   UNL     1      24.269  17.956  21.478  1.00  0.00    -0.550 OA
ATOM     20  O   UNL     1      25.580  17.258  23.222  1.00  0.00    -0.550 OA
ENDBRANCH  17  18
ENDBRANCH  16  17
ENDBRANCH  15  16
ENDBRANCH  14  15
ENDBRANCH  13  14
ENDBRANCH  12  13
ENDBRANCH  11  12
ENDBRANCH   1  11
TORSDOF 15
ENDMDL
MODEL 3
REMARK VINA RESULT:    13.731      5.317      7.899
REMARK INTER + INTRA:          25.184
REMARK INTER:                  25.948
REMARK INTRA:                  -0.764
REMARK UNBOUND:                -0.588
REMARK SMILES O=C([O-])CCCCCCCCCCCCCCC(=O)[O-]
REMARK SMILES IDX 10 1 9 2 8 3 7 4 6 5 5 6 4 7 2 8 1 9 3 10 11 11 12 12 13 13
REMARK SMILES IDX 14 14 15 15 16 16 17 17 18 18 19 19 20 20
REMARK H PARENT
REMARK Flexibility Score: inf
ROOT
ATOM      1  C   UNL     1      15.490  14.000  20.697  1.00  0.00     0.000 C 
ENDROOT
BRANCH   1   2
ATOM      2  C   UNL     1      14.238  13.269  20.189  1.00  0.00     0.000 C 
BRANCH   2   3
ATOM      3  C   UNL     1      14.567  11.927  19.518  1.00  0.00     0.000 C 
BRANCH   3   4
ATOM      4  C   UNL     1      15.699  11.204  20.259  1.00  0.00     0.000 C 
BRANCH   4   5
ATOM      5  C   UNL     1      15.735   9.714  19.889  1.00  0.00     0.000 C 
BRANCH   5   6
ATOM      6  C   UNL     1      17.144   9.234  19.509  1.00  0.00     0.006 C 
BRANCH   6   7
ATOM      7  C   UNL     1      18.153   9.398  20.653  1.00  0.00     0.053 C 
BRANCH   7   8
ATOM      8  C   UNL     1      19.406  10.046  20.154  1.00  0.00     0.041 C 
ATOM      9  O   UNL     1      19.926   9.671  19.070  1.00  0.00    -0.550 OA
ATOM     10  O   UNL     1      19.974  11.098  20.860  1.00  0.00    -0.550 OA
ENDBRANCH   7   8
ENDBRANCH   6   7
ENDBRANCH   5   6
ENDBRANCH   4   5
ENDBRANCH   3   4
ENDBRANCH   2   3
ENDBRANCH   1   2
BRANCH   1  11
ATOM     11  C   UNL     1      15.708  15.357  20.004  1.00  0.00     0.000 C 
BRANCH  11  12
ATOM     12  C   UNL     1      17.008  16.045  20.472  1.00  0.00     0.000 C 
BRANCH  12  13
ATOM     13  C   UNL     1      17.443  17.216  19.575  1.00  0.00     0.000 C 
BRANCH  13  14
ATOM     14  C   UNL     1      16.393  17.572  18.508  1.00  0.00     0.000 C 
BRANCH  14  15
ATOM     15  C   UNL     1      16.935  17.463  17.071  1.00  0.00     0.000 C 
BRANCH  15  16
ATOM     16  C   UNL     1      15.902  17.720  15.956  1.00  0.00     0.006 C 
BRANCH  16  17
ATOM     17  C   UNL     1      16.240  17.068  14.606  1.00  0.00     0.053 C 
BRANCH  17  18
ATOM     18  C   UNL     1      17.673  17.279  14.224  1.00  0.00     0.041 C 
ATOM     19  O   UNL     1      18.460  16.298  14.151  1.00  0.00    -0.550 OA
ATOM     20  O   UNL     1      18.133  18.553  13.920  1.00  0.00    -0.550 OA
ENDBRANCH  17  18
ENDBRANCH  16  17
ENDBRANCH  15  16
ENDBRANCH  14  15
ENDBRANCH  13  14
ENDBRANCH  12  13
ENDBRANCH  11  12
ENDBRANCH   1  11
TORSDOF 15
ENDMDL
MODEL 4
REMARK VINA RESULT:    13.774      5.449      8.933
REMARK INTER + INTRA:          25.264
REMARK INTER:                  25.997
REMARK INTRA:                  -0.732
REMARK UNBOUND:                -0.588
REMARK SMILES O=C([O-])CCCCCCCCCCCCCCC(=O)[O-]
REMARK SMILES IDX 10 1 9 2 8 3 7 4 6 5 5 6 4 7 2 8 1 9 3 10 11 11 12 12 13 13
REMARK SMILES IDX 14 14 15 15 16 16 17 17 18 18 19 19 20 20
REMARK H PARENT
REMARK Flexibility Score: inf
ROOT
ATOM      1  C   UNL     1      15.259  14.112  20.661  1.00  0.00     0.000 C 
ENDROOT
BRANCH   1   2
ATOM      2  C   UNL     1      15.539  15.399  19.870  1.00  0.00     0.000 C 
BRANCH   2   3
ATOM      3  C   UNL     1      16.901  16.022  20.216  1.00  0.00     0.000 C 
BRANCH   3   4
ATOM      4  C   UNL     1      17.059  17.398  19.558  1.00  0.00     0.000 C 
BRANCH   4   5
ATOM      5  C   UNL     1      16.267  17.474  18.245  1.00  0.00     0.000 C 
BRANCH   5   6
ATOM      6  C   UNL     1      17.174  17.634  17.015  1.00  0.00     0.006 C 
BRANCH   6   7
ATOM      7  C   UNL     1      16.555  17.037  15.744  1.00  0.00     0.053 C 
BRANCH   7   8
ATOM      8  C   UNL     1      17.485  17.205  14.583  1.00  0.00     0.041 C 
ATOM      9  O   UNL     1      17.800  16.213  13.875  1.00  0.00    -0.550 OA
ATOM     10  O   UNL     1      17.964  18.466  14.253  1.00  0.00    -0.550 OA
ENDBRANCH   7   8
ENDBRANCH   6   7
ENDBRANCH   5   6
ENDBRANCH   4   5
ENDBRANCH   3   4
ENDBRANCH   2   3
ENDBRANCH   1   2
BRANCH   1  11
ATOM     11  C   UNL     1      14.006  13.370  20.163  1.00  0.00     0.000 C 
BRANCH  11  12
ATOM     12  C   UNL     1      14.352  12.001  19.539  1.00  0.00     0.000 C 
BRANCH  12  13
ATOM     13  C   UNL     1      15.468  11.248  20.283  1.00  0.00     0.000 C 
BRANCH  13  14
ATOM     14  C   UNL     1      15.445   9.734  20.017  1.00  0.00     0.000 C 
BRANCH  14  15
ATOM     15  C   UNL     1      16.684   9.239  19.249  1.00  0.00     0.000 C 
BRANCH  15  16
ATOM     16  C   UNL     1      17.965   9.085  20.094  1.00  0.00     0.006 C 
BRANCH  16  17
ATOM     17  C   UNL     1      19.274   9.296  19.317  1.00  0.00     0.053 C 
BRANCH  17  18
ATOM     18  C   UNL     1      20.131  10.357  19.938  1.00  0.00     0.041 C 
ATOM     19  O   UNL     1      19.874  10.781  21.096  1.00  0.00    -0.550 OA
ATOM     20  O   UNL     1      21.230  10.855  19.251  1.00  0.00    -0.550 OA
ENDBRANCH  17  18
ENDBRANCH  16  17
ENDBRANCH  15  16
ENDBRANCH  14  15
ENDBRANCH  13  14
ENDBRANCH  12  13
ENDBRANCH  11  12
ENDBRANCH   1  11
TORSDOF 15
ENDMDL
MODEL 5
REMARK VINA RESULT:    14.156      5.659      8.873
REMARK INTER + INTRA:          25.982
REMARK INTER:                  26.602
REMARK INTRA:                  -0.620
REMARK UNBOUND:                -0.588
REMARK SMILES O=C([O-])CCCCCCCCCCCCCCC(=O)[O-]
REMARK SMILES IDX 10 1 9 2 8 3 7 4 6 5 5 6 4 7 2 8 1 9 3 10 11 11 12 12 13 13
REMARK SMILES IDX 14 14 15 15 16 16 17 17 18 18 19 19 20 20
REMARK H PARENT
REMARK Flexibility Score: inf
ROOT
ATOM      1  C   UNL     1      15.495  15.524  20.069  1.00  0.00     0.000 C 
ENDROOT
BRANCH   1   2
ATOM      2  C   UNL     1      16.906  16.130  20.025  1.00  0.00     0.000 C 
BRANCH   2   3
ATOM      3  C   UNL     1      16.946  17.486  19.304  1.00  0.00     0.000 C 
BRANCH   3   4
ATOM      4  C   UNL     1      16.350  17.378  17.895  1.00  0.00     0.000 C 
BRANCH   4   5
ATOM      5  C   UNL     1      17.448  17.465  16.825  1.00  0.00     0.000 C 
BRANCH   5   6
ATOM      6  C   UNL     1      16.942  17.080  15.426  1.00  0.00     0.006 C 
BRANCH   6   7
ATOM      7  C   UNL     1      17.810  17.664  14.304  1.00  0.00     0.053 C 
BRANCH   7   8
ATOM      8  C   UNL     1      17.822  19.158  14.377  1.00  0.00     0.041 C 
ATOM      9  O   UNL     1      18.879  19.796  14.131  1.00  0.00    -0.550 OA
ATOM     10  O   UNL     1      16.654  19.850  14.670  1.00  0.00    -0.550 OA
ENDBRANCH   7   8
ENDBRANCH   6   7
ENDBRANCH   5   6
ENDBRANCH   4   5
ENDBRANCH   3   4
ENDBRANCH   2   3
ENDBRANCH   1   2
BRANCH   1  11
ATOM     11  C   UNL     1      15.482  14.086  20.616  1.00  0.00     0.000 C 
BRANCH  11  12
ATOM     12  C   UNL     1      14.211  13.317  20.198  1.00  0.00     0.000 C 
BRANCH  12  13
ATOM     13  C   UNL     1      14.499  11.932  19.592  1.00  0.00     0.000 C 
BRANCH  13  14
ATOM     14  C   UNL     1      15.667  11.210  20.284  1.00  0.00     0.000 C 
BRANCH  14  15
ATOM     15  C   UNL     1      15.758   9.719  19.912  1.00  0.00     0.000 C 
BRANCH  15  16
ATOM     16  C   UNL     1      17.166   9.220  19.528  1.00  0.00     0.006 C 
BRANCH  16  17
ATOM     17  C   UNL     1      18.222   9.371  20.634  1.00  0.00     0.053 C 
BRANCH  17  18
ATOM     18  C   UNL     1      19.445  10.086  20.148  1.00  0.00     0.041 C 
ATOM     19  O   UNL     1      19.888  11.083  20.778  1.00  0.00    -0.550 OA
ATOM     20  O   UNL     1      20.114   9.635  19.017  1.00  0.00    -0.550 OA
ENDBRANCH  17  18
ENDBRANCH  16  17
ENDBRANCH  15  16
ENDBRANCH  14  15
ENDBRANCH  13  14
ENDBRANCH  12  13
ENDBRANCH  11  12
ENDBRANCH   1  11
TORSDOF 15
ENDMDL
MODEL 6
REMARK VINA RESULT:    14.296      1.862      9.079
REMARK INTER + INTRA:          26.245
REMARK INTER:                  26.987
REMARK INTRA:                  -0.742
REMARK UNBOUND:                -0.588
REMARK SMILES O=C([O-])CCCCCCCCCCCCCCC(=O)[O-]
REMARK SMILES IDX 10 1 9 2 8 3 7 4 6 5 5 6 4 7 2 8 1 9 3 10 11 11 12 12 13 13
REMARK SMILES IDX 14 14 15 15 16 16 17 17 18 18 19 19 20 20
REMARK H PARENT
REMARK Flexibility Score: inf
ROOT
ATOM      1  C   UNL     1      20.010  18.289  20.898  1.00  0.00     0.000 C 
ENDROOT
BRANCH   1   2
ATOM      2  C   UNL     1      18.506  17.978  20.851  1.00  0.00     0.000 C 
BRANCH   2   3
ATOM      3  C   UNL     1      18.103  17.192  19.594  1.00  0.00     0.000 C 
BRANCH   3   4
ATOM      4  C   UNL     1      16.578  17.085  19.478  1.00  0.00     0.000 C 
BRANCH   4   5
ATOM      5  C   UNL     1      16.083  17.691  18.156  1.00  0.00     0.000 C 
BRANCH   5   6
ATOM      6  C   UNL     1      17.074  17.481  17.001  1.00  0.00     0.006 C 
BRANCH   6   7
ATOM      7  C   UNL     1      16.452  17.774  15.629  1.00  0.00     0.053 C 
BRANCH   7   8
ATOM      8  C   UNL     1      17.406  17.409  14.536  1.00  0.00     0.041 C 
ATOM      9  O   UNL     1      18.008  18.309  13.894  1.00  0.00    -0.550 OA
ATOM     10  O   UNL     1      17.668  16.074  14.257  1.00  0.00    -0.550 OA
ENDBRANCH   7   8
ENDBRANCH   6   7
ENDBRANCH   5   6
ENDBRANCH   4   5
ENDBRANCH   3   4
ENDBRANCH   2   3
ENDBRANCH   1   2
BRANCH   1  11
ATOM     11  C   UNL     1      20.742  17.881  19.607  1.00  0.00     0.000 C 
BRANCH  11  12
ATOM     12  C   UNL     1      22.276  17.949  19.762  1.00  0.00     0.000 C 
BRANCH  12  13
ATOM     13  C   UNL     1      22.757  17.774  21.212  1.00  0.00     0.000 C 
BRANCH  13  14
ATOM     14  C   UNL     1      24.284  17.885  21.351  1.00  0.00     0.000 C 
BRANCH  14  15
ATOM     15  C   UNL     1      24.742  19.258  21.877  1.00  0.00     0.000 C 
BRANCH  15  16
ATOM     16  C   UNL     1      25.203  19.280  23.348  1.00  0.00     0.006 C 
BRANCH  16  17
ATOM     17  C   UNL     1      24.063  19.326  24.376  1.00  0.00     0.053 C 
BRANCH  17  18
ATOM     18  C   UNL     1      23.338  20.637  24.353  1.00  0.00     0.041 C 
ATOM     19  O   UNL     1      22.206  20.745  24.893  1.00  0.00    -0.550 OA
ATOM     20  O   UNL     1      23.927  21.749  23.763  1.00  0.00    -0.550 OA
ENDBRANCH  17  18
ENDBRANCH  16  17
ENDBRANCH  15  16
ENDBRANCH  14  15
ENDBRANCH  13  14
ENDBRANCH  12  13
ENDBRANCH  11  12
ENDBRANCH   1  11
TORSDOF 15
ENDMDL
MODEL 7
REMARK VINA RESULT:    14.570      2.193      3.123
REMARK INTER + INTRA:          26.758
REMARK INTER:                  27.456
REMARK INTRA:                  -0.697
REMARK UNBOUND:                -0.588
REMARK SMILES O=C([O-])CCCCCCCCCCCCCCC(=O)[O-]
REMARK SMILES IDX 10 1 9 2 8 3 7 4 6 5 5 6 4 7 2 8 1 9 3 10 11 11 12 12 13 13
REMARK SMILES IDX 14 14 15 15 16 16 17 17 18 18 19 19 20 20
REMARK H PARENT
REMARK Flexibility Score: inf
ROOT
ATOM      1  C   UNL     1      18.504  17.878  21.021  1.00  0.00     0.000 C 
ENDROOT
BRANCH   1   2
ATOM      2  C   UNL     1      19.970  18.313  20.872  1.00  0.00     0.000 C 
BRANCH   2   3
ATOM      3  C   UNL     1      20.568  17.924  19.511  1.00  0.00     0.000 C 
BRANCH   3   4
ATOM      4  C   UNL     1      22.098  18.024  19.534  1.00  0.00     0.000 C 
BRANCH   4   5
ATOM      5  C   UNL     1      22.648  17.739  20.939  1.00  0.00     0.000 C 
BRANCH   5   6
ATOM      6  C   UNL     1      24.183  17.746  20.986  1.00  0.00     0.006 C 
BRANCH   6   7
ATOM      7  C   UNL     1      24.738  17.076  22.250  1.00  0.00     0.053 C 
BRANCH   7   8
ATOM      8  C   UNL     1      25.335  18.100  23.164  1.00  0.00     0.041 C 
ATOM      9  O   UNL     1      25.960  17.741  24.196  1.00  0.00    -0.550 OA
ATOM     10  O   UNL     1      25.243  19.450  22.851  1.00  0.00    -0.550 OA
ENDBRANCH   7   8
ENDBRANCH   6   7
ENDBRANCH   5   6
ENDBRANCH   4   5
ENDBRANCH   3   4
ENDBRANCH   2   3
ENDBRANCH   1   2
BRANCH   1  11
ATOM     11  C   UNL     1      17.964  17.171  19.765  1.00  0.00     0.000 C 
BRANCH  11  12
ATOM     12  C   UNL     1      16.435  16.969  19.825  1.00  0.00     0.000 C 
BRANCH  12  13
ATOM     13  C   UNL     1      15.740  17.109  18.460  1.00  0.00     0.000 C 
BRANCH  13  14
ATOM     14  C   UNL     1      16.544  17.966  17.468  1.00  0.00     0.000 C 
BRANCH  14  15
ATOM     15  C   UNL     1      17.369  17.125  16.477  1.00  0.00     0.000 C 
BRANCH  15  16
ATOM     16  C   UNL     1      16.917  17.210  15.005  1.00  0.00     0.006 C 
BRANCH  16  17
ATOM     17  C   UNL     1      17.926  17.885  14.063  1.00  0.00     0.053 C 
BRANCH  17  18
ATOM     18  C   UNL     1      17.970  19.370  14.256  1.00  0.00     0.041 C 
ATOM     19  O   UNL     1      16.977  19.974  14.741  1.00  0.00    -0.550 OA
ATOM     20  O   UNL     1      19.117  20.082  13.931  1.00  0.00    -0.550 OA
ENDBRANCH  17  18
ENDBRANCH  16  17
ENDBRANCH  15  16
ENDBRANCH  14  15
ENDBRANCH  13  14
ENDBRANCH  12  13
ENDBRANCH  11  12
ENDBRANCH   1  11
TORSDOF 15
ENDMDL
MODEL 8
REMARK VINA RESULT:    14.751      1.911      2.895
REMARK INTER + INTRA:          27.098
REMARK INTER:                  27.941
REMARK INTRA:                  -0.844
REMARK UNBOUND:                -0.588
REMARK SMILES O=C([O-])CCCCCCCCCCCCCCC(=O)[O-]
REMARK SMILES IDX 10 1 9 2 8 3 7 4 6 5 5 6 4 7 2 8 1 9 3 10 11 11 12 12 13 13
REMARK SMILES IDX 14 14 15 15 16 16 17 17 18 18 19 19 20 20
REMARK H PARENT
REMARK Flexibility Score: inf
ROOT
ATOM      1  C   UNL     1      20.686  17.874  19.511  1.00  0.00     0.000 C 
ENDROOT
BRANCH   1   2
ATOM      2  C   UNL     1      22.218  17.954  19.597  1.00  0.00     0.000 C 
BRANCH   2   3
ATOM      3  C   UNL     1      22.735  17.853  21.040  1.00  0.00     0.000 C 
BRANCH   3   4
ATOM      4  C   UNL     1      24.232  18.179  21.112  1.00  0.00     0.000 C 
BRANCH   4   5
ATOM      5  C   UNL     1      24.739  18.121  22.560  1.00  0.00     0.000 C 
BRANCH   5   6
ATOM      6  C   UNL     1      24.841  19.510  23.208  1.00  0.00     0.006 C 
BRANCH   6   7
ATOM      7  C   UNL     1      23.979  19.637  24.471  1.00  0.00     0.053 C 
BRANCH   7   8
ATOM      8  C   UNL     1      23.100  20.845  24.383  1.00  0.00     0.041 C 
ATOM      9  O   UNL     1      23.549  21.922  23.910  1.00  0.00    -0.550 OA
ATOM     10  O   UNL     1      21.771  20.768  24.778  1.00  0.00    -0.550 OA
ENDBRANCH   7   8
ENDBRANCH   6   7
ENDBRANCH   5   6
ENDBRANCH   4   5
ENDBRANCH   3   4
ENDBRANCH   2   3
ENDBRANCH   1   2
BRANCH   1  11
ATOM     11  C   UNL     1      19.996  18.255  20.832  1.00  0.00     0.000 C 
BRANCH  11  12
ATOM     12  C   UNL     1      18.471  18.023  20.779  1.00  0.00     0.000 C 
BRANCH  12  13
ATOM     13  C   UNL     1      18.037  17.017  19.699  1.00  0.00     0.000 C 
BRANCH  13  14
ATOM     14  C   UNL     1      16.528  17.066  19.410  1.00  0.00     0.000 C 
BRANCH  14  15
ATOM     15  C   UNL     1      16.173  17.963  18.210  1.00  0.00     0.000 C 
BRANCH  15  16
ATOM     16  C   UNL     1      17.116  17.840  16.995  1.00  0.00     0.006 C 
BRANCH  16  17
ATOM     17  C   UNL     1      16.502  17.132  15.778  1.00  0.00     0.053 C 
BRANCH  17  18
ATOM     18  C   UNL     1      17.420  17.151  14.595  1.00  0.00     0.041 C 
ATOM     19  O   UNL     1      18.006  18.216  14.264  1.00  0.00    -0.550 OA
ATOM     20  O   UNL     1      17.654  15.986  13.875  1.00  0.00    -0.550 OA
ENDBRANCH  17  18
ENDBRANCH  16  17
ENDBRANCH  15  16
ENDBRANCH  14  15
ENDBRANCH  13  14
ENDBRANCH  12  13
ENDBRANCH  11  12
ENDBRANCH   1  11
TORSDOF 15
ENDMDL
MODEL 9
REMARK VINA RESULT:    14.838      2.103      9.102
REMARK INTER + INTRA:          27.262
REMARK INTER:                  26.698
REMARK INTRA:                   0.564
REMARK UNBOUND:                -0.588
REMARK SMILES O=C([O-])CCCCCCCCCCCCCCC(=O)[O-]
REMARK SMILES IDX 10 1 9 2 8 3 7 4 6 5 5 6 4 7 2 8 1 9 3 10 11 11 12 12 13 13
REMARK SMILES IDX 14 14 15 15 16 16 17 17 18 18 19 19 20 20
REMARK H PARENT
REMARK Flexibility Score: inf
ROOT
ATOM      1  C   UNL     1      17.802  16.988  19.957  1.00  0.00     0.000 C 
ENDROOT
BRANCH   1   2
ATOM      2  C   UNL     1      16.350  16.920  19.459  1.00  0.00     0.000 C 
BRANCH   2   3
ATOM      3  C   UNL     1      16.101  17.821  18.239  1.00  0.00     0.000 C 
BRANCH   3   4
ATOM      4  C   UNL     1      16.989  17.407  17.059  1.00  0.00     0.000 C 
BRANCH   4   5
ATOM      5  C   UNL     1      16.254  17.597  15.725  1.00  0.00     0.000 C 
BRANCH   5   6
ATOM      6  C   UNL     1      16.988  16.940  14.546  1.00  0.00     0.006 C 
BRANCH   6   7
ATOM      7  C   UNL     1      18.196  17.758  14.073  1.00  0.00     0.053 C 
BRANCH   7   8
ATOM      8  C   UNL     1      17.938  19.222  14.253  1.00  0.00     0.041 C 
ATOM      9  O   UNL     1      16.786  19.628  14.559  1.00  0.00    -0.550 OA
ATOM     10  O   UNL     1      18.979  20.132  14.130  1.00  0.00    -0.550 OA
ENDBRANCH   7   8
ENDBRANCH   6   7
ENDBRANCH   5   6
ENDBRANCH   4   5
ENDBRANCH   3   4
ENDBRANCH   2   3
ENDBRANCH   1   2
BRANCH   1  11
ATOM     11  C   UNL     1      18.040  18.151  20.937  1.00  0.00     0.000 C 
BRANCH  11  12
ATOM     12  C   UNL     1      19.511  18.618  20.938  1.00  0.00     0.000 C 
BRANCH  12  13
ATOM     13  C   UNL     1      20.432  17.757  20.057  1.00  0.00     0.000 C 
BRANCH  13  14
ATOM     14  C   UNL     1      21.842  18.352  19.909  1.00  0.00     0.000 C 
BRANCH  14  15
ATOM     15  C   UNL     1      22.950  17.405  20.404  1.00  0.00     0.000 C 
BRANCH  15  16
ATOM     16  C   UNL     1      24.204  18.099  20.975  1.00  0.00     0.006 C 
BRANCH  16  17
ATOM     17  C   UNL     1      24.883  17.346  22.128  1.00  0.00     0.053 C 
BRANCH  17  18
ATOM     18  C   UNL     1      25.262  18.262  23.251  1.00  0.00     0.041 C 
ATOM     19  O   UNL     1      25.866  17.811  24.260  1.00  0.00    -0.550 OA
ATOM     20  O   UNL     1      24.974  19.619  23.171  1.00  0.00    -0.550 OA
ENDBRANCH  17  18
ENDBRANCH  16  17
ENDBRANCH  15  16
ENDBRANCH  14  15
ENDBRANCH  13  14
ENDBRANCH  12  13
ENDBRANCH  11  12
ENDBRANCH   1  11
TORSDOF 15
ENDMDL
