MODEL 1
REMARK VINA RESULT:     8.630      0.000      0.000
REMARK INTER + INTRA:           8.960
REMARK INTER:                   9.134
REMARK INTRA:                  -0.174
REMARK UNBOUND:                -0.174
REMARK SMILES CC(C)[C@@H]1CC[C@@H](C)CC1=O
REMARK SMILES IDX 8 1 7 2 6 3 5 4 4 5 10 6 11 7 9 8 2 9 1 10 3 11
REMARK H PARENT
REMARK Flexibility Score: inf
ROOT
ATOM      1  C   UNL     1      15.860  50.026  59.036  1.00  0.00     0.008 C 
ATOM      2  C   UNL     1      16.066  51.372  59.738  1.00  0.00    -0.007 C 
ATOM      3  C   UNL     1      16.119  51.185  61.268  1.00  0.00     0.004 C 
ATOM      4  C   UNL     1      16.310  52.526  61.999  1.00  0.00     0.012 C 
ATOM      5  C   UNL     1      15.190  53.537  61.645  1.00  0.00     0.058 C 
ATOM      6  C   UNL     1      15.123  53.630  60.130  1.00  0.00     0.136 C 
ATOM      7  O   UNL     1      15.285  54.688  59.539  1.00  0.00    -0.299 OA
ATOM      8  C   UNL     1      14.951  52.360  59.350  1.00  0.00     0.079 C 
ENDROOT
BRANCH   5   9
ATOM      9  C   UNL     1      15.375  54.930  62.334  1.00  0.00    -0.007 C 
ATOM     10  C   UNL     1      14.348  55.123  63.466  1.00  0.00     0.008 C 
ATOM     11  C   UNL     1      16.787  55.124  62.917  1.00  0.00     0.008 C 
ENDBRANCH   5   9
TORSDOF 1
ENDMDL
MODEL 2
REMARK VINA RESULT:     9.171      1.666      2.118
REMARK INTER + INTRA:           9.533
REMARK INTER:                   8.854
REMARK INTRA:                   0.679
REMARK UNBOUND:                -0.174
REMARK SMILES CC(C)[C@@H]1CC[C@@H](C)CC1=O
REMARK SMILES IDX 8 1 7 2 6 3 5 4 4 5 10 6 11 7 9 8 2 9 1 10 3 11
REMARK H PARENT
REMARK Flexibility Score: inf
ROOT
ATOM      1  C   UNL     1      15.868  50.099  59.535  1.00  0.00     0.008 C 
ATOM      2  C   UNL     1      15.275  51.363  60.168  1.00  0.00    -0.007 C 
ATOM      3  C   UNL     1      16.089  52.608  59.761  1.00  0.00     0.004 C 
ATOM      4  C   UNL     1      15.523  53.891  60.396  1.00  0.00     0.012 C 
ATOM      5  C   UNL     1      15.474  53.792  61.942  1.00  0.00     0.058 C 
ATOM      6  C   UNL     1      14.732  52.514  62.294  1.00  0.00     0.136 C 
ATOM      7  O   UNL     1      13.714  52.523  62.972  1.00  0.00    -0.299 OA
ATOM      8  C   UNL     1      15.221  51.226  61.700  1.00  0.00     0.079 C 
ENDROOT
BRANCH   5   9
ATOM      9  C   UNL     1      14.860  55.061  62.623  1.00  0.00    -0.007 C 
ATOM     10  C   UNL     1      13.338  55.125  62.392  1.00  0.00     0.008 C 
ATOM     11  C   UNL     1      15.125  55.110  64.139  1.00  0.00     0.008 C 
ENDBRANCH   5   9
TORSDOF 1
ENDMDL
MODEL 3
REMARK VINA RESULT:     9.743      1.024      4.219
REMARK INTER + INTRA:          10.139
REMARK INTER:                  10.003
REMARK INTRA:                   0.136
REMARK UNBOUND:                -0.174
REMARK SMILES CC(C)[C@@H]1CC[C@@H](C)CC1=O
REMARK SMILES IDX 8 1 7 2 6 3 5 4 4 5 10 6 11 7 9 8 2 9 1 10 3 11
REMARK H PARENT
REMARK Flexibility Score: inf
ROOT
ATOM      1  C   UNL     1      14.367  55.125  64.230  1.00  0.00     0.008 C 
ATOM      2  C   UNL     1      14.387  54.333  62.918  1.00  0.00    -0.007 C 
ATOM      3  C   UNL     1      14.692  52.845  63.185  1.00  0.00     0.004 C 
ATOM      4  C   UNL     1      14.733  52.030  61.880  1.00  0.00     0.012 C 
ATOM      5  C   UNL     1      15.776  52.596  60.883  1.00  0.00     0.058 C 
ATOM      6  C   UNL     1      15.485  54.077  60.711  1.00  0.00     0.136 C 
ATOM      7  O   UNL     1      15.228  54.564  59.619  1.00  0.00    -0.299 OA
ATOM      8  C   UNL     1      15.416  54.932  61.942  1.00  0.00     0.079 C 
ENDROOT
BRANCH   5   9
ATOM      9  C   UNL     1      15.815  51.821  59.523  1.00  0.00    -0.007 C 
ATOM     10  C   UNL     1      16.315  50.378  59.729  1.00  0.00     0.008 C 
ATOM     11  C   UNL     1      14.442  51.767  58.828  1.00  0.00     0.008 C 
ENDBRANCH   5   9
TORSDOF 1
ENDMDL
MODEL 4
REMARK VINA RESULT:    10.702      1.598      1.919
REMARK INTER + INTRA:          11.154
REMARK INTER:                   9.976
REMARK INTRA:                   1.178
REMARK UNBOUND:                -0.174
REMARK SMILES CC(C)[C@@H]1CC[C@@H](C)CC1=O
REMARK SMILES IDX 8 1 7 2 6 3 5 4 4 5 10 6 11 7 9 8 2 9 1 10 3 11
REMARK H PARENT
REMARK Flexibility Score: inf
ROOT
ATOM      1  C   UNL     1      16.292  49.867  60.096  1.00  0.00     0.008 C 
ATOM      2  C   UNL     1      16.098  51.028  61.077  1.00  0.00    -0.007 C 
ATOM      3  C   UNL     1      14.690  51.641  60.923  1.00  0.00     0.004 C 
ATOM      4  C   UNL     1      14.475  52.821  61.888  1.00  0.00     0.012 C 
ATOM      5  C   UNL     1      15.541  53.928  61.688  1.00  0.00     0.058 C 
ATOM      6  C   UNL     1      16.906  53.266  61.771  1.00  0.00     0.136 C 
ATOM      7  O   UNL     1      17.740  53.603  62.600  1.00  0.00    -0.299 OA
ATOM      8  C   UNL     1      17.183  52.100  60.868  1.00  0.00     0.079 C 
ENDROOT
BRANCH   5   9
ATOM      9  C   UNL     1      15.383  55.125  62.684  1.00  0.00    -0.007 C 
ATOM     10  C   UNL     1      13.983  55.122  63.328  1.00  0.00     0.008 C 
ATOM     11  C   UNL     1      16.436  55.109  63.808  1.00  0.00     0.008 C 
ENDBRANCH   5   9
TORSDOF 1
ENDMDL
