MODEL 1
REMARK VINA RESULT:    -4.881      0.000      0.000
REMARK INTER + INTRA:          -5.024
REMARK INTER:                  -5.024
REMARK INTRA:                   0.000
REMARK UNBOUND:                 0.000
REMARK SMILES Oc1ccc2[nH]ccc2c1
REMARK SMILES IDX 3 1 4 2 5 3 9 4 8 5 7 6 6 7 10 8 2 9 1 11
REMARK H PARENT 6 10 1 12
REMARK Flexibility Score: inf
ROOT
ATOM      1  C   UNL     1      29.832  12.455  25.302  1.00  0.00     0.048 A 
ATOM      2  C   UNL     1      29.586  13.829  25.479  1.00  0.00     0.030 A 
ATOM      3  C   UNL     1      30.395  14.526  26.375  1.00  0.00     0.046 A 
ATOM      4  C   UNL     1      31.400  13.906  27.068  1.00  0.00     0.003 A 
ATOM      5  C   UNL     1      32.004  14.859  27.859  1.00  0.00     0.028 A 
ATOM      6  C   UNL     1      31.314  16.038  27.597  1.00  0.00     0.083 A 
ATOM      7  N   UNL     1      30.332  15.829  26.690  1.00  0.00    -0.361 N 
ATOM      8  C   UNL     1      31.670  12.547  26.917  1.00  0.00     0.056 A 
ATOM      9  C   UNL     1      30.871  11.812  26.019  1.00  0.00     0.116 A 
ATOM     10  H   UNL     1      29.664  16.539  26.315  1.00  0.00     0.166 HD
ENDROOT
BRANCH   9  11
ATOM     11  O   UNL     1      31.115  10.452  25.844  1.00  0.00    -0.508 OA
ATOM     12  H   UNL     1      30.378   9.765  25.954  1.00  0.00     0.293 HD
ENDBRANCH   9  11
TORSDOF 1
ENDMDL
MODEL 2
REMARK VINA RESULT:    -4.870      2.548      2.860
REMARK INTER + INTRA:          -5.012
REMARK INTER:                  -5.012
REMARK INTRA:                   0.000
REMARK UNBOUND:                 0.000
REMARK SMILES Oc1ccc2[nH]ccc2c1
REMARK SMILES IDX 3 1 4 2 5 3 9 4 8 5 7 6 6 7 10 8 2 9 1 11
REMARK H PARENT 6 10 1 12
REMARK Flexibility Score: inf
ROOT
ATOM      1  C   UNL     1      30.154  12.910  26.026  1.00  0.00     0.048 A 
ATOM      2  C   UNL     1      30.033  13.350  24.694  1.00  0.00     0.030 A 
ATOM      3  C   UNL     1      30.969  14.269  24.224  1.00  0.00     0.046 A 
ATOM      4  C   UNL     1      31.978  14.738  25.021  1.00  0.00     0.003 A 
ATOM      5  C   UNL     1      32.722  15.620  24.267  1.00  0.00     0.028 A 
ATOM      6  C   UNL     1      32.107  15.640  23.019  1.00  0.00     0.083 A 
ATOM      7  N   UNL     1      31.036  14.812  22.998  1.00  0.00    -0.361 N 
ATOM      8  C   UNL     1      32.127  14.325  26.343  1.00  0.00     0.056 A 
ATOM      9  C   UNL     1      31.198  13.396  26.852  1.00  0.00     0.116 A 
ATOM     10  H   UNL     1      30.397  14.636  22.192  1.00  0.00     0.166 HD
ENDROOT
BRANCH   9  11
ATOM     11  O   UNL     1      31.317  12.961  28.169  1.00  0.00    -0.508 OA
ATOM     12  H   UNL     1      32.029  12.294  28.444  1.00  0.00     0.293 HD
ENDBRANCH   9  11
TORSDOF 1
ENDMDL
MODEL 3
REMARK VINA RESULT:    -4.804      9.227     11.005
REMARK INTER + INTRA:          -4.944
REMARK INTER:                  -4.944
REMARK INTRA:                   0.000
REMARK UNBOUND:                 0.000
REMARK SMILES Oc1ccc2[nH]ccc2c1
REMARK SMILES IDX 3 1 4 2 5 3 9 4 8 5 7 6 6 7 10 8 2 9 1 11
REMARK H PARENT 6 10 1 12
REMARK Flexibility Score: inf
ROOT
ATOM      1  C   UNL     1      31.613  25.766  25.720  1.00  0.00     0.048 A 
ATOM      2  C   UNL     1      32.421  24.828  26.389  1.00  0.00     0.030 A 
ATOM      3  C   UNL     1      32.400  23.510  25.936  1.00  0.00     0.046 A 
ATOM      4  C   UNL     1      31.622  23.127  24.876  1.00  0.00     0.003 A 
ATOM      5  C   UNL     1      31.826  21.778  24.683  1.00  0.00     0.028 A 
ATOM      6  C   UNL     1      32.741  21.404  25.663  1.00  0.00     0.083 A 
ATOM      7  N   UNL     1      33.089  22.467  26.425  1.00  0.00    -0.361 N 
ATOM      8  C   UNL     1      30.810  24.029  24.192  1.00  0.00     0.056 A 
ATOM      9  C   UNL     1      30.807  25.370  24.624  1.00  0.00     0.116 A 
ATOM     10  H   UNL     1      33.755  22.470  27.228  1.00  0.00     0.166 HD
ENDROOT
BRANCH   9  11
ATOM     11  O   UNL     1      30.007  26.299  23.963  1.00  0.00    -0.508 OA
ATOM     12  H   UNL     1      29.230  26.008  23.381  1.00  0.00     0.293 HD
ENDBRANCH   9  11
TORSDOF 1
ENDMDL
MODEL 4
REMARK VINA RESULT:    -4.707      1.858      3.158
REMARK INTER + INTRA:          -4.844
REMARK INTER:                  -4.844
REMARK INTRA:                   0.000
REMARK UNBOUND:                 0.000
REMARK SMILES Oc1ccc2[nH]ccc2c1
REMARK SMILES IDX 3 1 4 2 5 3 9 4 8 5 7 6 6 7 10 8 2 9 1 11
REMARK H PARENT 6 10 1 12
REMARK Flexibility Score: inf
ROOT
ATOM      1  C   UNL     1      31.637  15.135  27.588  1.00  0.00     0.048 A 
ATOM      2  C   UNL     1      31.429  15.971  26.475  1.00  0.00     0.030 A 
ATOM      3  C   UNL     1      30.795  15.427  25.361  1.00  0.00     0.046 A 
ATOM      4  C   UNL     1      30.382  14.122  25.335  1.00  0.00     0.003 A 
ATOM      5  C   UNL     1      29.798  13.898  24.106  1.00  0.00     0.028 A 
ATOM      6  C   UNL     1      29.891  15.113  23.434  1.00  0.00     0.083 A 
ATOM      7  N   UNL     1      30.501  16.044  24.205  1.00  0.00    -0.361 N 
ATOM      8  C   UNL     1      30.572  13.266  26.418  1.00  0.00     0.056 A 
ATOM      9  C   UNL     1      31.210  13.784  27.562  1.00  0.00     0.116 A 
ATOM     10  H   UNL     1      30.700  17.036  23.949  1.00  0.00     0.166 HD
ENDROOT
BRANCH   9  11
ATOM     11  O   UNL     1      31.416  12.956  28.663  1.00  0.00    -0.508 OA
ATOM     12  H   UNL     1      31.975  13.257  29.453  1.00  0.00     0.293 HD
ENDBRANCH   9  11
TORSDOF 1
ENDMDL
MODEL 5
REMARK VINA RESULT:    -4.681     17.253     18.330
REMARK INTER + INTRA:          -4.818
REMARK INTER:                  -4.818
REMARK INTRA:                   0.000
REMARK UNBOUND:                 0.000
REMARK SMILES Oc1ccc2[nH]ccc2c1
REMARK SMILES IDX 3 1 4 2 5 3 9 4 8 5 7 6 6 7 10 8 2 9 1 11
REMARK H PARENT 6 10 1 12
REMARK Flexibility Score: inf
ROOT
ATOM      1  C   UNL     1      20.400  25.923  15.353  1.00  0.00     0.048 A 
ATOM      2  C   UNL     1      20.878  25.382  16.561  1.00  0.00     0.030 A 
ATOM      3  C   UNL     1      22.181  24.887  16.582  1.00  0.00     0.046 A 
ATOM      4  C   UNL     1      22.980  24.918  15.471  1.00  0.00     0.003 A 
ATOM      5  C   UNL     1      24.191  24.360  15.819  1.00  0.00     0.028 A 
ATOM      6  C   UNL     1      24.058  24.010  17.159  1.00  0.00     0.083 A 
ATOM      7  N   UNL     1      22.827  24.334  17.620  1.00  0.00    -0.361 N 
ATOM      8  C   UNL     1      22.539  25.446  14.259  1.00  0.00     0.056 A 
ATOM      9  C   UNL     1      21.227  25.955  14.202  1.00  0.00     0.116 A 
ATOM     10  H   UNL     1      22.461  24.183  18.586  1.00  0.00     0.166 HD
ENDROOT
BRANCH   9  11
ATOM     11  O   UNL     1      20.753  26.491  13.006  1.00  0.00    -0.508 OA
ATOM     12  H   UNL     1      20.619  25.913  12.185  1.00  0.00     0.293 HD
ENDBRANCH   9  11
TORSDOF 1
ENDMDL
MODEL 6
REMARK VINA RESULT:    -4.653      9.369     10.200
REMARK INTER + INTRA:          -4.789
REMARK INTER:                  -4.789
REMARK INTRA:                   0.000
REMARK UNBOUND:                 0.000
REMARK SMILES Oc1ccc2[nH]ccc2c1
REMARK SMILES IDX 3 1 4 2 5 3 9 4 8 5 7 6 6 7 10 8 2 9 1 11
REMARK H PARENT 6 10 1 12
REMARK Flexibility Score: inf
ROOT
ATOM      1  C   UNL     1      30.772  24.450  24.602  1.00  0.00     0.048 A 
ATOM      2  C   UNL     1      29.439  24.071  24.849  1.00  0.00     0.030 A 
ATOM      3  C   UNL     1      29.179  23.308  25.986  1.00  0.00     0.046 A 
ATOM      4  C   UNL     1      30.177  22.933  26.844  1.00  0.00     0.003 A 
ATOM      5  C   UNL     1      29.597  22.198  27.855  1.00  0.00     0.028 A 
ATOM      6  C   UNL     1      28.240  22.164  27.547  1.00  0.00     0.083 A 
ATOM      7  N   UNL     1      27.990  22.845  26.404  1.00  0.00    -0.361 N 
ATOM      8  C   UNL     1      31.507  23.290  26.631  1.00  0.00     0.056 A 
ATOM      9  C   UNL     1      31.806  24.061  25.490  1.00  0.00     0.116 A 
ATOM     10  H   UNL     1      27.062  22.979  25.945  1.00  0.00     0.166 HD
ENDROOT
BRANCH   9  11
ATOM     11  O   UNL     1      33.125  24.437  25.246  1.00  0.00    -0.508 OA
ATOM     12  H   UNL     1      33.365  25.388  24.992  1.00  0.00     0.293 HD
ENDBRANCH   9  11
TORSDOF 1
ENDMDL
MODEL 7
REMARK VINA RESULT:    -4.622      1.226      2.190
REMARK INTER + INTRA:          -4.757
REMARK INTER:                  -4.757
REMARK INTRA:                   0.000
REMARK UNBOUND:                 0.000
REMARK SMILES Oc1ccc2[nH]ccc2c1
REMARK SMILES IDX 3 1 4 2 5 3 9 4 8 5 7 6 6 7 10 8 2 9 1 11
REMARK H PARENT 6 10 1 12
REMARK Flexibility Score: inf
ROOT
ATOM      1  C   UNL     1      31.622  12.683  27.129  1.00  0.00     0.048 A 
ATOM      2  C   UNL     1      32.082  13.766  27.901  1.00  0.00     0.030 A 
ATOM      3  C   UNL     1      31.569  15.031  27.620  1.00  0.00     0.046 A 
ATOM      4  C   UNL     1      30.648  15.228  26.627  1.00  0.00     0.003 A 
ATOM      5  C   UNL     1      30.348  16.573  26.604  1.00  0.00     0.028 A 
ATOM      6  C   UNL     1      31.125  17.135  27.613  1.00  0.00     0.083 A 
ATOM      7  N   UNL     1      31.870  16.188  28.230  1.00  0.00    -0.361 N 
ATOM      8  C   UNL     1      30.171  14.180  25.843  1.00  0.00     0.056 A 
ATOM      9  C   UNL     1      30.668  12.887  26.100  1.00  0.00     0.116 A 
ATOM     10  H   UNL     1      32.538  16.333  29.018  1.00  0.00     0.166 HD
ENDROOT
BRANCH   9  11
ATOM     11  O   UNL     1      30.213  11.815  25.337  1.00  0.00    -0.508 OA
ATOM     12  H   UNL     1      30.847  11.262  24.771  1.00  0.00     0.293 HD
ENDBRANCH   9  11
TORSDOF 1
ENDMDL
MODEL 8
REMARK VINA RESULT:    -4.613     17.337     18.451
REMARK INTER + INTRA:          -4.748
REMARK INTER:                  -4.748
REMARK INTRA:                   0.000
REMARK UNBOUND:                 0.000
REMARK SMILES Oc1ccc2[nH]ccc2c1
REMARK SMILES IDX 3 1 4 2 5 3 9 4 8 5 7 6 6 7 10 8 2 9 1 11
REMARK H PARENT 6 10 1 12
REMARK Flexibility Score: inf
ROOT
ATOM      1  C   UNL     1      22.742  25.595  14.081  1.00  0.00     0.048 A 
ATOM      2  C   UNL     1      23.358  25.014  15.206  1.00  0.00     0.030 A 
ATOM      3  C   UNL     1      22.573  24.788  16.334  1.00  0.00     0.046 A 
ATOM      4  C   UNL     1      21.244  25.114  16.363  1.00  0.00     0.003 A 
ATOM      5  C   UNL     1      20.760  24.766  17.606  1.00  0.00     0.028 A 
ATOM      6  C   UNL     1      21.853  24.234  18.284  1.00  0.00     0.083 A 
ATOM      7  N   UNL     1      22.958  24.249  17.502  1.00  0.00    -0.361 N 
ATOM      8  C   UNL     1      20.601  25.690  15.268  1.00  0.00     0.056 A 
ATOM      9  C   UNL     1      21.365  25.933  14.110  1.00  0.00     0.116 A 
ATOM     10  H   UNL     1      23.911  23.911  17.759  1.00  0.00     0.166 HD
ENDROOT
BRANCH   9  11
ATOM     11  O   UNL     1      20.756  26.507  12.997  1.00  0.00    -0.508 OA
ATOM     12  H   UNL     1      21.262  26.649  12.131  1.00  0.00     0.293 HD
ENDBRANCH   9  11
TORSDOF 1
ENDMDL
