MODEL 1
REMARK VINA RESULT:     2.781      0.000      0.000
REMARK INTER + INTRA:           2.963
REMARK INTER:                   3.919
REMARK INTRA:                  -0.956
REMARK UNBOUND:                -0.956
REMARK SMILES COc1c(O[C@H]2O[C@@H](C(=O)[O-])[C@H](O)[C@@H](O)[C@H]2O)cc(O)c2c(=O)cc(-c3ccccc3)oc12
REMARK SMILES IDX 5 1 6 2 8 3 12 4 7 5 14 6 16 7 9 8 10 9 11 10 13 11 15 13
REMARK SMILES IDX 17 15 4 17 3 18 18 19 33 20 19 21 21 22 32 23 22 24 25 25
REMARK SMILES IDX 24 26 23 27 2 28 1 29 20 30 26 32 27 33 31 34 28 35 30 36
REMARK SMILES IDX 29 37
REMARK H PARENT 13 12 15 14 17 16 20 31
REMARK Flexibility Score: inf
ROOT
ATOM      1  O   UNL     1      20.839 -42.075  13.089  1.00  0.00    -0.458 OA
ENDROOT
BRANCH   1   2
ATOM      2  C   UNL     1      20.466 -41.112  12.031  1.00  0.00     0.339 C 
ATOM      3  C   UNL     1      18.586 -40.094  11.002  1.00  0.00     0.199 C 
ATOM      4  C   UNL     1      19.576 -39.278   9.973  1.00  0.00     0.180 C 
ATOM      5  O   UNL     1      19.251 -40.430  12.266  1.00  0.00    -0.328 OA
ATOM      6  C   UNL     1      21.173 -39.674  10.073  1.00  0.00     0.181 C 
ATOM      7  C   UNL     1      21.576 -40.041  11.620  1.00  0.00     0.214 C 
BRANCH   3   8
ATOM      8  C   UNL     1      17.386 -39.272  11.342  1.00  0.00     0.073 C 
ATOM      9  O   UNL     1      16.672 -38.828  10.405  1.00  0.00    -0.547 OA
ATOM     10  O   UNL     1      17.310 -38.642  12.580  1.00  0.00    -0.547 OA
ENDBRANCH   3   8
BRANCH   4  11
ATOM     11  O   UNL     1      19.189 -38.877   8.691  1.00  0.00    -0.387 OA
ATOM     12  H   UNL     1      19.928 -38.283   8.298  1.00  0.00     0.211 HD
ENDBRANCH   4  11
BRANCH   6  13
ATOM     13  O   UNL     1      21.986 -38.618   9.710  1.00  0.00    -0.387 OA
ATOM     14  H   UNL     1      22.933 -38.855   9.938  1.00  0.00     0.211 HD
ENDBRANCH   6  13
BRANCH   7  15
ATOM     15  O   UNL     1      21.541 -38.741  12.216  1.00  0.00    -0.384 OA
ATOM     16  H   UNL     1      20.662 -38.546  12.542  1.00  0.00     0.211 HD
ENDBRANCH   7  15
ENDBRANCH   1   2
BRANCH   1  17
ATOM     17  C   UNL     1      20.460 -43.469  13.178  1.00  0.00     0.172 A 
ATOM     18  C   UNL     1      19.072 -43.691  13.427  1.00  0.00     0.205 A 
ATOM     19  C   UNL     1      21.297 -44.501  13.722  1.00  0.00     0.097 A 
ATOM     20  C   UNL     1      18.720 -44.091  14.762  1.00  0.00     0.188 A 
ATOM     21  C   UNL     1      20.969 -45.086  14.970  1.00  0.00     0.134 A 
ATOM     22  C   UNL     1      19.707 -44.774  15.552  1.00  0.00     0.111 A 
ATOM     23  O   UNL     1      17.702 -43.474  15.351  1.00  0.00    -0.452 OA
ATOM     24  C   UNL     1      19.541 -44.755  16.947  1.00  0.00     0.197 A 
ATOM     25  C   UNL     1      17.752 -43.116  16.659  1.00  0.00     0.138 A 
ATOM     26  C   UNL     1      18.711 -43.769  17.501  1.00  0.00     0.100 A 
ATOM     27  O   UNL     1      19.636 -45.836  17.547  1.00  0.00    -0.289 OA
BRANCH  18  28
ATOM     28  O   UNL     1      18.121 -43.393  12.393  1.00  0.00    -0.490 OA
ATOM     29  C   UNL     1      16.789 -42.812  12.695  1.00  0.00     0.278 C 
ENDBRANCH  18  28
BRANCH  21  30
ATOM     30  O   UNL     1      22.013 -45.743  15.671  1.00  0.00    -0.507 OA
ATOM     31  H   UNL     1      21.831 -46.707  15.964  1.00  0.00     0.293 HD
ENDBRANCH  21  30
BRANCH  25  32
ATOM     32  C   UNL     1      16.749 -42.127  17.170  1.00  0.00     0.017 A 
ATOM     33  C   UNL     1      17.207 -40.867  17.661  1.00  0.00     0.012 A 
ATOM     34  C   UNL     1      15.359 -42.424  17.257  1.00  0.00     0.012 A 
ATOM     35  C   UNL     1      16.314 -39.898  18.124  1.00  0.00     0.001 A 
ATOM     36  C   UNL     1      14.462 -41.453  17.702  1.00  0.00     0.001 A 
ATOM     37  C   UNL     1      14.936 -40.200  18.122  1.00  0.00     0.000 A 
ENDBRANCH  25  32
ENDBRANCH   1  17
TORSDOF 9
ENDMDL
