MODEL 1
REMARK VINA RESULT:    -3.108      0.000      0.000
REMARK INTER + INTRA:          -3.950
REMARK INTER:                  -3.834
REMARK INTRA:                  -0.116
REMARK UNBOUND:                -0.116
REMARK SMILES CCCCCC(=O)[O-]
REMARK SMILES IDX 4 1 5 2 6 3 7 4 8 5 3 6 2 7 1 8
REMARK H PARENT
REMARK Flexibility Score: inf
ROOT
ATOM      1  C   UNL     1      21.156 -15.696   6.172  1.00  0.00     0.006 C 
ENDROOT
BRANCH   1   2
ATOM      2  C   UNL     1      21.576 -14.297   6.639  1.00  0.00     0.053 C 
BRANCH   2   3
ATOM      3  C   UNL     1      21.503 -14.165   8.129  1.00  0.00     0.041 C 
ATOM      4  O   UNL     1      21.288 -13.043   8.657  1.00  0.00    -0.550 OA
ATOM      5  O   UNL     1      21.706 -15.278   8.937  1.00  0.00    -0.550 OA
ENDBRANCH   2   3
ENDBRANCH   1   2
BRANCH   1   6
ATOM      6  C   UNL     1      21.485 -15.938   4.691  1.00  0.00     0.000 C 
BRANCH   6   7
ATOM      7  C   UNL     1      22.219 -14.736   4.088  1.00  0.00    -0.003 C 
ATOM      8  C   UNL     1      21.801 -14.505   2.638  1.00  0.00     0.004 C 
ENDBRANCH   6   7
ENDBRANCH   1   6
TORSDOF 4
ENDMDL
MODEL 2
REMARK VINA RESULT:    -3.073      6.970      8.147
REMARK INTER + INTRA:          -3.907
REMARK INTER:                  -3.851
REMARK INTRA:                  -0.057
REMARK UNBOUND:                -0.116
REMARK SMILES CCCCCC(=O)[O-]
REMARK SMILES IDX 4 1 5 2 6 3 7 4 8 5 3 6 2 7 1 8
REMARK H PARENT
REMARK Flexibility Score: inf
ROOT
ATOM      1  C   UNL     1      23.725  -8.164   7.989  1.00  0.00     0.006 C 
ENDROOT
BRANCH   1   2
ATOM      2  C   UNL     1      24.035  -7.109   6.920  1.00  0.00     0.053 C 
BRANCH   2   3
ATOM      3  C   UNL     1      23.829  -5.718   7.437  1.00  0.00     0.041 C 
ATOM      4  O   UNL     1      23.018  -5.504   8.376  1.00  0.00    -0.550 OA
ATOM      5  O   UNL     1      24.509  -4.653   6.858  1.00  0.00    -0.550 OA
ENDBRANCH   2   3
ENDBRANCH   1   2
BRANCH   1   6
ATOM      6  C   UNL     1      24.735  -9.320   7.975  1.00  0.00     0.000 C 
BRANCH   6   7
ATOM      7  C   UNL     1      24.064 -10.639   8.375  1.00  0.00    -0.003 C 
ATOM      8  C   UNL     1      24.690 -11.821   7.639  1.00  0.00     0.004 C 
ENDBRANCH   6   7
ENDBRANCH   1   6
TORSDOF 4
ENDMDL
MODEL 3
REMARK VINA RESULT:    -3.042      5.812      6.882
REMARK INTER + INTRA:          -3.869
REMARK INTER:                  -3.823
REMARK INTRA:                  -0.046
REMARK UNBOUND:                -0.116
REMARK SMILES CCCCCC(=O)[O-]
REMARK SMILES IDX 4 1 5 2 6 3 7 4 8 5 3 6 2 7 1 8
REMARK H PARENT
REMARK Flexibility Score: inf
ROOT
ATOM      1  C   UNL     1      24.897  -9.617   7.979  1.00  0.00     0.006 C 
ENDROOT
BRANCH   1   2
ATOM      2  C   UNL     1      24.392 -11.062   8.075  1.00  0.00     0.053 C 
BRANCH   2   3
ATOM      3  C   UNL     1      25.114 -11.965   7.123  1.00  0.00     0.041 C 
ATOM      4  O   UNL     1      26.312 -11.736   6.815  1.00  0.00    -0.550 OA
ATOM      5  O   UNL     1      24.449 -13.043   6.549  1.00  0.00    -0.550 OA
ENDBRANCH   2   3
ENDBRANCH   1   2
BRANCH   1   6
ATOM      6  C   UNL     1      23.760  -8.593   8.114  1.00  0.00     0.000 C 
BRANCH   6   7
ATOM      7  C   UNL     1      24.051  -7.338   7.284  1.00  0.00    -0.003 C 
ATOM      8  C   UNL     1      23.195  -6.161   7.746  1.00  0.00     0.004 C 
ENDBRANCH   6   7
ENDBRANCH   1   6
TORSDOF 4
ENDMDL
MODEL 4
REMARK VINA RESULT:    -3.030      4.924      5.875
REMARK INTER + INTRA:          -3.855
REMARK INTER:                  -3.755
REMARK INTRA:                  -0.100
REMARK UNBOUND:                -0.116
REMARK SMILES CCCCCC(=O)[O-]
REMARK SMILES IDX 4 1 5 2 6 3 7 4 8 5 3 6 2 7 1 8
REMARK H PARENT
REMARK Flexibility Score: inf
ROOT
ATOM      1  C   UNL     1      22.705 -12.889   0.875  1.00  0.00     0.006 C 
ENDROOT
BRANCH   1   2
ATOM      2  C   UNL     1      23.792 -12.869   1.958  1.00  0.00     0.053 C 
BRANCH   2   3
ATOM      3  C   UNL     1      24.320 -11.486   2.187  1.00  0.00     0.041 C 
ATOM      4  O   UNL     1      24.885 -11.195   3.274  1.00  0.00    -0.550 OA
ATOM      5  O   UNL     1      24.156 -10.509   1.212  1.00  0.00    -0.550 OA
ENDBRANCH   2   3
ENDBRANCH   1   2
BRANCH   1   6
ATOM      6  C   UNL     1      21.514 -13.777   1.264  1.00  0.00     0.000 C 
BRANCH   6   7
ATOM      7  C   UNL     1      21.976 -14.993   2.073  1.00  0.00    -0.003 C 
ATOM      8  C   UNL     1      21.124 -16.220   1.760  1.00  0.00     0.004 C 
ENDBRANCH   6   7
ENDBRANCH   1   6
TORSDOF 4
ENDMDL
MODEL 5
REMARK VINA RESULT:    -2.977      2.228      2.734
REMARK INTER + INTRA:          -3.790
REMARK INTER:                  -3.652
REMARK INTRA:                  -0.138
REMARK UNBOUND:                -0.116
REMARK SMILES CCCCCC(=O)[O-]
REMARK SMILES IDX 4 1 5 2 6 3 7 4 8 5 3 6 2 7 1 8
REMARK H PARENT
REMARK Flexibility Score: inf
ROOT
ATOM      1  C   UNL     1      21.868 -15.333   4.089  1.00  0.00     0.006 C 
ENDROOT
BRANCH   1   2
ATOM      2  C   UNL     1      21.974 -14.677   5.471  1.00  0.00     0.053 C 
BRANCH   2   3
ATOM      3  C   UNL     1      23.392 -14.620   5.950  1.00  0.00     0.041 C 
ATOM      4  O   UNL     1      23.872 -13.541   6.386  1.00  0.00    -0.550 OA
ATOM      5  O   UNL     1      24.194 -15.754   5.885  1.00  0.00    -0.550 OA
ENDBRANCH   2   3
ENDBRANCH   1   2
BRANCH   1   6
ATOM      6  C   UNL     1      22.263 -14.374   2.957  1.00  0.00     0.000 C 
BRANCH   6   7
ATOM      7  C   UNL     1      21.707 -14.853   1.612  1.00  0.00    -0.003 C 
ATOM      8  C   UNL     1      21.080 -16.239   1.736  1.00  0.00     0.004 C 
ENDBRANCH   6   7
ENDBRANCH   1   6
TORSDOF 4
ENDMDL
MODEL 6
REMARK VINA RESULT:    -2.956     14.263     15.631
REMARK INTER + INTRA:          -3.763
REMARK INTER:                  -3.600
REMARK INTRA:                  -0.163
REMARK UNBOUND:                -0.116
REMARK SMILES CCCCCC(=O)[O-]
REMARK SMILES IDX 4 1 5 2 6 3 7 4 8 5 3 6 2 7 1 8
REMARK H PARENT
REMARK Flexibility Score: inf
ROOT
ATOM      1  C   UNL     1      27.572  -1.493  10.670  1.00  0.00     0.006 C 
ENDROOT
BRANCH   1   2
ATOM      2  C   UNL     1      26.166  -2.045  10.399  1.00  0.00     0.053 C 
BRANCH   2   3
ATOM      3  C   UNL     1      25.103  -1.159  10.973  1.00  0.00     0.041 C 
ATOM      4  O   UNL     1      25.416  -0.091  11.560  1.00  0.00    -0.550 OA
ATOM      5  O   UNL     1      23.767  -1.533  10.887  1.00  0.00    -0.550 OA
ENDBRANCH   2   3
ENDBRANCH   1   2
BRANCH   1   6
ATOM      6  C   UNL     1      28.399  -2.424  11.569  1.00  0.00     0.000 C 
BRANCH   6   7
ATOM      7  C   UNL     1      29.451  -1.634  12.356  1.00  0.00    -0.003 C 
ATOM      8  C   UNL     1      28.970  -0.217  12.653  1.00  0.00     0.004 C 
ENDBRANCH   6   7
ENDBRANCH   1   6
TORSDOF 4
ENDMDL
MODEL 7
REMARK VINA RESULT:    -2.938     17.499     19.110
REMARK INTER + INTRA:          -3.740
REMARK INTER:                  -3.690
REMARK INTRA:                  -0.051
REMARK UNBOUND:                -0.116
REMARK SMILES CCCCCC(=O)[O-]
REMARK SMILES IDX 4 1 5 2 6 3 7 4 8 5 3 6 2 7 1 8
REMARK H PARENT
REMARK Flexibility Score: inf
ROOT
ATOM      1  C   UNL     1      14.587   1.216  13.180  1.00  0.00     0.006 C 
ENDROOT
BRANCH   1   2
ATOM      2  C   UNL     1      15.406   1.766  12.006  1.00  0.00     0.053 C 
BRANCH   2   3
ATOM      3  C   UNL     1      16.712   1.047  11.857  1.00  0.00     0.041 C 
ATOM      4  O   UNL     1      16.964   0.035  12.561  1.00  0.00    -0.550 OA
ATOM      5  O   UNL     1      17.666   1.517  10.962  1.00  0.00    -0.550 OA
ENDBRANCH   2   3
ENDBRANCH   1   2
BRANCH   1   6
ATOM      6  C   UNL     1      13.402   2.125  13.539  1.00  0.00     0.000 C 
BRANCH   6   7
ATOM      7  C   UNL     1      12.069   1.404  13.313  1.00  0.00    -0.003 C 
ATOM      8  C   UNL     1      10.931   2.103  14.051  1.00  0.00     0.004 C 
ENDBRANCH   6   7
ENDBRANCH   1   6
TORSDOF 4
ENDMDL
MODEL 8
REMARK VINA RESULT:    -2.936      1.645      2.438
REMARK INTER + INTRA:          -3.739
REMARK INTER:                  -3.651
REMARK INTRA:                  -0.089
REMARK UNBOUND:                -0.116
REMARK SMILES CCCCCC(=O)[O-]
REMARK SMILES IDX 4 1 5 2 6 3 7 4 8 5 3 6 2 7 1 8
REMARK H PARENT
REMARK Flexibility Score: inf
ROOT
ATOM      1  C   UNL     1      21.848 -15.409   4.042  1.00  0.00     0.006 C 
ENDROOT
BRANCH   1   2
ATOM      2  C   UNL     1      21.859 -14.792   5.446  1.00  0.00     0.053 C 
BRANCH   2   3
ATOM      3  C   UNL     1      21.619 -15.821   6.507  1.00  0.00     0.041 C 
ATOM      4  O   UNL     1      21.507 -15.476   7.712  1.00  0.00    -0.550 OA
ATOM      5  O   UNL     1      21.551 -17.167   6.167  1.00  0.00    -0.550 OA
ENDBRANCH   2   3
ENDBRANCH   1   2
BRANCH   1   6
ATOM      6  C   UNL     1      22.112 -14.368   2.945  1.00  0.00     0.000 C 
BRANCH   6   7
ATOM      7  C   UNL     1      21.672 -14.891   1.574  1.00  0.00    -0.003 C 
ATOM      8  C   UNL     1      21.040 -16.275   1.688  1.00  0.00     0.004 C 
ENDBRANCH   6   7
ENDBRANCH   1   6
TORSDOF 4
ENDMDL
MODEL 9
REMARK VINA RESULT:    -2.915     12.637     14.123
REMARK INTER + INTRA:          -3.713
REMARK INTER:                  -3.588
REMARK INTRA:                  -0.125
REMARK UNBOUND:                -0.116
REMARK SMILES CCCCCC(=O)[O-]
REMARK SMILES IDX 4 1 5 2 6 3 7 4 8 5 3 6 2 7 1 8
REMARK H PARENT
REMARK Flexibility Score: inf
ROOT
ATOM      1  C   UNL     1      24.624  -1.207  10.992  1.00  0.00     0.006 C 
ENDROOT
BRANCH   1   2
ATOM      2  C   UNL     1      24.379  -2.555  10.302  1.00  0.00     0.053 C 
BRANCH   2   3
ATOM      3  C   UNL     1      22.953  -2.706   9.870  1.00  0.00     0.041 C 
ATOM      4  O   UNL     1      22.409  -3.841   9.861  1.00  0.00    -0.550 OA
ATOM      5  O   UNL     1      22.234  -1.595   9.444  1.00  0.00    -0.550 OA
ENDBRANCH   2   3
ENDBRANCH   1   2
BRANCH   1   6
ATOM      6  C   UNL     1      26.094  -0.770  10.911  1.00  0.00     0.000 C 
BRANCH   6   7
ATOM      7  C   UNL     1      26.965  -1.883  10.319  1.00  0.00    -0.003 C 
ATOM      8  C   UNL     1      28.065  -2.299  11.293  1.00  0.00     0.004 C 
ENDBRANCH   6   7
ENDBRANCH   1   6
TORSDOF 4
ENDMDL
