MODEL 1
REMARK VINA RESULT:    -4.422      0.000      0.000
REMARK INTER + INTRA:          -5.158
REMARK INTER:                  -4.939
REMARK INTRA:                  -0.220
REMARK UNBOUND:                -0.220
REMARK SMILES CC(C)c1ccc(C(=O)[O-])cc1
REMARK SMILES IDX 7 1 6 2 11 3 5 4 12 5 4 6 8 7 9 8 10 9 2 10 1 11 3 12
REMARK H PARENT
REMARK Flexibility Score: inf
ROOT
ATOM      1  C   UNL     1      58.200  27.490  50.302  1.00  0.00    -0.003 A 
ATOM      2  C   UNL     1      57.250  26.454  50.335  1.00  0.00     0.010 A 
ATOM      3  C   UNL     1      57.768  28.815  50.480  1.00  0.00     0.010 A 
ATOM      4  C   UNL     1      55.897  26.739  50.543  1.00  0.00     0.004 A 
ATOM      5  C   UNL     1      56.417  29.100  50.688  1.00  0.00     0.004 A 
ATOM      6  C   UNL     1      55.465  28.066  50.722  1.00  0.00    -0.045 A 
ENDROOT
BRANCH   1   7
ATOM      7  C   UNL     1      59.632  27.193  50.083  1.00  0.00     0.071 C 
ATOM      8  O   UNL     1      60.407  28.073  49.621  1.00  0.00    -0.545 OA
ATOM      9  O   UNL     1      60.146  25.936  50.385  1.00  0.00    -0.545 OA
ENDBRANCH   1   7
BRANCH   6  10
ATOM     10  C   UNL     1      54.000  28.389  50.949  1.00  0.00     0.013 C 
ATOM     11  C   UNL     1      53.098  27.485  50.100  1.00  0.00     0.012 C 
ATOM     12  C   UNL     1      53.712  29.870  50.674  1.00  0.00     0.012 C 
ENDBRANCH   6  10
TORSDOF 2
ENDMDL
MODEL 2
REMARK VINA RESULT:    -4.399      0.108      1.402
REMARK INTER + INTRA:          -5.133
REMARK INTER:                  -4.914
REMARK INTRA:                  -0.219
REMARK UNBOUND:                -0.220
REMARK SMILES CC(C)c1ccc(C(=O)[O-])cc1
REMARK SMILES IDX 7 1 6 2 11 3 5 4 12 5 4 6 8 7 9 8 10 9 2 10 1 11 3 12
REMARK H PARENT
REMARK Flexibility Score: inf
ROOT
ATOM      1  C   UNL     1      58.194  27.582  50.309  1.00  0.00    -0.003 A 
ATOM      2  C   UNL     1      57.782  28.916  50.468  1.00  0.00     0.010 A 
ATOM      3  C   UNL     1      57.230  26.561  50.366  1.00  0.00     0.010 A 
ATOM      4  C   UNL     1      56.435  29.222  50.681  1.00  0.00     0.004 A 
ATOM      5  C   UNL     1      55.884  26.866  50.578  1.00  0.00     0.004 A 
ATOM      6  C   UNL     1      55.469  28.200  50.738  1.00  0.00    -0.045 A 
ENDROOT
BRANCH   1   7
ATOM      7  C   UNL     1      59.619  27.254  50.083  1.00  0.00     0.071 C 
ATOM      8  O   UNL     1      60.411  28.118  49.622  1.00  0.00    -0.545 OA
ATOM      9  O   UNL     1      60.105  25.985  50.378  1.00  0.00    -0.545 OA
ENDBRANCH   1   7
BRANCH   6  10
ATOM     10  C   UNL     1      54.004  28.517  50.968  1.00  0.00     0.013 C 
ATOM     11  C   UNL     1      53.102  27.603  50.130  1.00  0.00     0.012 C 
ATOM     12  C   UNL     1      53.707  29.995  50.685  1.00  0.00     0.012 C 
ENDBRANCH   6  10
TORSDOF 2
ENDMDL
MODEL 3
REMARK VINA RESULT:    -4.355      1.076      2.052
REMARK INTER + INTRA:          -5.084
REMARK INTER:                  -4.863
REMARK INTRA:                  -0.221
REMARK UNBOUND:                -0.220
REMARK SMILES CC(C)c1ccc(C(=O)[O-])cc1
REMARK SMILES IDX 7 1 6 2 11 3 5 4 12 5 4 6 8 7 9 8 10 9 2 10 1 11 3 12
REMARK H PARENT
REMARK Flexibility Score: inf
ROOT
ATOM      1  C   UNL     1      58.728  28.174  50.348  1.00  0.00    -0.003 A 
ATOM      2  C   UNL     1      57.773  29.193  50.502  1.00  0.00     0.010 A 
ATOM      3  C   UNL     1      58.296  26.837  50.315  1.00  0.00     0.010 A 
ATOM      4  C   UNL     1      56.415  28.882  50.622  1.00  0.00     0.004 A 
ATOM      5  C   UNL     1      56.940  26.525  50.434  1.00  0.00     0.004 A 
ATOM      6  C   UNL     1      55.983  27.543  50.589  1.00  0.00    -0.045 A 
ENDROOT
BRANCH   1   7
ATOM      7  C   UNL     1      60.165  28.499  50.220  1.00  0.00     0.071 C 
ATOM      8  O   UNL     1      61.011  27.593  49.995  1.00  0.00    -0.545 OA
ATOM      9  O   UNL     1      60.604  29.813  50.346  1.00  0.00    -0.545 OA
ENDBRANCH   1   7
BRANCH   6  10
ATOM     10  C   UNL     1      54.513  27.191  50.717  1.00  0.00     0.013 C 
ATOM     11  C   UNL     1      54.151  25.997  49.825  1.00  0.00     0.012 C 
ATOM     12  C   UNL     1      53.625  28.401  50.407  1.00  0.00     0.012 C 
ENDBRANCH   6  10
TORSDOF 2
ENDMDL
MODEL 4
REMARK VINA RESULT:    -4.165      3.261      4.647
REMARK INTER + INTRA:          -4.872
REMARK INTER:                  -4.673
REMARK INTRA:                  -0.199
REMARK UNBOUND:                -0.220
REMARK SMILES CC(C)c1ccc(C(=O)[O-])cc1
REMARK SMILES IDX 7 1 6 2 11 3 5 4 12 5 4 6 8 7 9 8 10 9 2 10 1 11 3 12
REMARK H PARENT
REMARK Flexibility Score: inf
ROOT
ATOM      1  C   UNL     1      54.744  26.702  50.642  1.00  0.00    -0.003 A 
ATOM      2  C   UNL     1      56.099  26.330  50.649  1.00  0.00     0.010 A 
ATOM      3  C   UNL     1      54.413  28.068  50.641  1.00  0.00     0.010 A 
ATOM      4  C   UNL     1      57.103  27.304  50.655  1.00  0.00     0.004 A 
ATOM      5  C   UNL     1      55.415  29.041  50.646  1.00  0.00     0.004 A 
ATOM      6  C   UNL     1      56.771  28.672  50.653  1.00  0.00    -0.045 A 
ENDROOT
BRANCH   1   7
ATOM      7  C   UNL     1      53.680  25.675  50.635  1.00  0.00     0.071 C 
ATOM      8  O   UNL     1      53.151  25.306  49.553  1.00  0.00    -0.545 OA
ATOM      9  O   UNL     1      53.248  25.100  51.825  1.00  0.00    -0.545 OA
ENDBRANCH   1   7
BRANCH   6  10
ATOM     10  C   UNL     1      57.850  29.739  50.660  1.00  0.00     0.013 C 
ATOM     11  C   UNL     1      58.847  29.523  49.515  1.00  0.00     0.012 C 
ATOM     12  C   UNL     1      58.566  29.793  52.014  1.00  0.00     0.012 C 
ENDBRANCH   6  10
TORSDOF 2
ENDMDL
MODEL 5
REMARK VINA RESULT:    -4.130      3.105      5.311
REMARK INTER + INTRA:          -4.832
REMARK INTER:                  -4.614
REMARK INTRA:                  -0.219
REMARK UNBOUND:                -0.220
REMARK SMILES CC(C)c1ccc(C(=O)[O-])cc1
REMARK SMILES IDX 7 1 6 2 11 3 5 4 12 5 4 6 8 7 9 8 10 9 2 10 1 11 3 12
REMARK H PARENT
REMARK Flexibility Score: inf
ROOT
ATOM      1  C   UNL     1      55.111  27.913  50.576  1.00  0.00    -0.003 A 
ATOM      2  C   UNL     1      55.969  29.020  50.689  1.00  0.00     0.010 A 
ATOM      3  C   UNL     1      55.668  26.627  50.478  1.00  0.00     0.010 A 
ATOM      4  C   UNL     1      57.356  28.844  50.704  1.00  0.00     0.004 A 
ATOM      5  C   UNL     1      57.054  26.450  50.494  1.00  0.00     0.004 A 
ATOM      6  C   UNL     1      57.915  27.556  50.607  1.00  0.00    -0.045 A 
ENDROOT
BRANCH   1   7
ATOM      7  C   UNL     1      53.643  28.094  50.560  1.00  0.00     0.071 C 
ATOM      8  O   UNL     1      52.875  27.141  50.860  1.00  0.00    -0.545 OA
ATOM      9  O   UNL     1      53.088  29.322  50.215  1.00  0.00    -0.545 OA
ENDBRANCH   1   7
BRANCH   6  10
ATOM     10  C   UNL     1      59.418  27.350  50.622  1.00  0.00     0.013 C 
ATOM     11  C   UNL     1      60.115  28.305  49.645  1.00  0.00     0.012 C 
ATOM     12  C   UNL     1      59.779  25.891  50.321  1.00  0.00     0.012 C 
ENDBRANCH   6  10
TORSDOF 2
ENDMDL
MODEL 6
REMARK VINA RESULT:    -4.077     12.896     14.219
REMARK INTER + INTRA:          -4.773
REMARK INTER:                  -4.567
REMARK INTRA:                  -0.206
REMARK UNBOUND:                -0.220
REMARK SMILES CC(C)c1ccc(C(=O)[O-])cc1
REMARK SMILES IDX 7 1 6 2 11 3 5 4 12 5 4 6 8 7 9 8 10 9 2 10 1 11 3 12
REMARK H PARENT
REMARK Flexibility Score: inf
ROOT
ATOM      1  C   UNL     1      60.378  35.384  59.405  1.00  0.00    -0.003 A 
ATOM      2  C   UNL     1      60.429  36.379  60.396  1.00  0.00     0.010 A 
ATOM      3  C   UNL     1      61.418  34.441  59.335  1.00  0.00     0.010 A 
ATOM      4  C   UNL     1      61.496  36.430  61.298  1.00  0.00     0.004 A 
ATOM      5  C   UNL     1      62.484  34.491  60.236  1.00  0.00     0.004 A 
ATOM      6  C   UNL     1      62.537  35.485  61.228  1.00  0.00    -0.045 A 
ENDROOT
BRANCH   1   7
ATOM      7  C   UNL     1      59.251  35.327  58.449  1.00  0.00     0.071 C 
ATOM      8  O   UNL     1      58.080  35.095  58.852  1.00  0.00    -0.545 OA
ATOM      9  O   UNL     1      59.467  35.529  57.091  1.00  0.00    -0.545 OA
ENDBRANCH   1   7
BRANCH   6  10
ATOM     10  C   UNL     1      63.701  35.528  62.199  1.00  0.00     0.013 C 
ATOM     11  C   UNL     1      63.367  36.391  63.422  1.00  0.00     0.012 C 
ATOM     12  C   UNL     1      64.979  36.019  61.509  1.00  0.00     0.012 C 
ENDBRANCH   6  10
TORSDOF 2
ENDMDL
MODEL 7
REMARK VINA RESULT:    -4.030      3.142      5.112
REMARK INTER + INTRA:          -4.721
REMARK INTER:                  -4.505
REMARK INTRA:                  -0.215
REMARK UNBOUND:                -0.220
REMARK SMILES CC(C)c1ccc(C(=O)[O-])cc1
REMARK SMILES IDX 7 1 6 2 11 3 5 4 12 5 4 6 8 7 9 8 10 9 2 10 1 11 3 12
REMARK H PARENT
REMARK Flexibility Score: inf
ROOT
ATOM      1  C   UNL     1      55.047  27.734  50.525  1.00  0.00    -0.003 A 
ATOM      2  C   UNL     1      55.716  26.503  50.422  1.00  0.00     0.010 A 
ATOM      3  C   UNL     1      55.803  28.907  50.689  1.00  0.00     0.010 A 
ATOM      4  C   UNL     1      57.112  26.446  50.481  1.00  0.00     0.004 A 
ATOM      5  C   UNL     1      57.198  28.851  50.748  1.00  0.00     0.004 A 
ATOM      6  C   UNL     1      57.869  27.621  50.645  1.00  0.00    -0.045 A 
ENDROOT
BRANCH   1   7
ATOM      7  C   UNL     1      53.571  27.799  50.462  1.00  0.00     0.071 C 
ATOM      8  O   UNL     1      52.876  26.761  50.631  1.00  0.00    -0.545 OA
ATOM      9  O   UNL     1      52.928  29.007  50.216  1.00  0.00    -0.545 OA
ENDBRANCH   1   7
BRANCH   6  10
ATOM     10  C   UNL     1      59.384  27.574  50.711  1.00  0.00     0.013 C 
ATOM     11  C   UNL     1      60.012  28.358  49.553  1.00  0.00     0.012 C 
ATOM     12  C   UNL     1      59.892  26.127  50.737  1.00  0.00     0.012 C 
ENDBRANCH   6  10
TORSDOF 2
ENDMDL
MODEL 8
REMARK VINA RESULT:    -3.865     12.338     13.368
REMARK INTER + INTRA:          -4.537
REMARK INTER:                  -4.324
REMARK INTRA:                  -0.213
REMARK UNBOUND:                -0.220
REMARK SMILES CC(C)c1ccc(C(=O)[O-])cc1
REMARK SMILES IDX 7 1 6 2 11 3 5 4 12 5 4 6 8 7 9 8 10 9 2 10 1 11 3 12
REMARK H PARENT
REMARK Flexibility Score: inf
ROOT
ATOM      1  C   UNL     1      62.646  32.815  59.427  1.00  0.00    -0.003 A 
ATOM      2  C   UNL     1      63.633  33.018  60.407  1.00  0.00     0.010 A 
ATOM      3  C   UNL     1      61.678  33.811  59.220  1.00  0.00     0.010 A 
ATOM      4  C   UNL     1      63.650  34.194  61.163  1.00  0.00     0.004 A 
ATOM      5  C   UNL     1      61.695  34.986  59.975  1.00  0.00     0.004 A 
ATOM      6  C   UNL     1      62.680  35.192  60.955  1.00  0.00    -0.045 A 
ENDROOT
BRANCH   1   7
ATOM      7  C   UNL     1      62.625  31.572  58.625  1.00  0.00     0.071 C 
ATOM      8  O   UNL     1      63.506  31.359  57.749  1.00  0.00    -0.545 OA
ATOM      9  O   UNL     1      61.632  30.620  58.826  1.00  0.00    -0.545 OA
ENDBRANCH   1   7
BRANCH   6  10
ATOM     10  C   UNL     1      62.687  36.473  61.769  1.00  0.00     0.013 C 
ATOM     11  C   UNL     1      63.293  36.241  63.159  1.00  0.00     0.012 C 
ATOM     12  C   UNL     1      61.278  37.068  61.875  1.00  0.00     0.012 C 
ENDBRANCH   6  10
TORSDOF 2
ENDMDL
MODEL 9
REMARK VINA RESULT:    -3.598      8.737     10.576
REMARK INTER + INTRA:          -4.239
REMARK INTER:                  -4.021
REMARK INTRA:                  -0.218
REMARK UNBOUND:                -0.220
REMARK SMILES CC(C)c1ccc(C(=O)[O-])cc1
REMARK SMILES IDX 7 1 6 2 11 3 5 4 12 5 4 6 8 7 9 8 10 9 2 10 1 11 3 12
REMARK H PARENT
REMARK Flexibility Score: inf
ROOT
ATOM      1  C   UNL     1      55.977  19.240  52.358  1.00  0.00    -0.003 A 
ATOM      2  C   UNL     1      57.099  18.810  53.087  1.00  0.00     0.010 A 
ATOM      3  C   UNL     1      55.874  18.892  51.000  1.00  0.00     0.010 A 
ATOM      4  C   UNL     1      58.097  18.049  52.471  1.00  0.00     0.004 A 
ATOM      5  C   UNL     1      56.871  18.131  50.385  1.00  0.00     0.004 A 
ATOM      6  C   UNL     1      57.994  17.700  51.112  1.00  0.00    -0.045 A 
ENDROOT
BRANCH   1   7
ATOM      7  C   UNL     1      54.919  20.045  53.006  1.00  0.00     0.071 C 
ATOM      8  O   UNL     1      55.209  20.888  53.896  1.00  0.00    -0.545 OA
ATOM      9  O   UNL     1      53.587  19.883  52.640  1.00  0.00    -0.545 OA
ENDBRANCH   1   7
BRANCH   6  10
ATOM     10  C   UNL     1      59.069  16.875  50.430  1.00  0.00     0.013 C 
ATOM     11  C   UNL     1      60.469  17.331  50.859  1.00  0.00     0.012 C 
ATOM     12  C   UNL     1      58.917  16.919  48.906  1.00  0.00     0.012 C 
ENDBRANCH   6  10
TORSDOF 2
ENDMDL
