MODEL 1
REMARK VINA RESULT:    -2.824      0.000      0.000
REMARK INTER + INTRA:          -3.698
REMARK INTER:                  -4.310
REMARK INTRA:                   0.612
REMARK UNBOUND:                 0.612
REMARK SMILES CC1=CCC[C@@H](C)C(=O)C[C@H](C(C)C)C(=O)C1
REMARK SMILES IDX 8 1 9 2 6 3 7 4 5 5 4 6 3 7 2 8 1 9 10 11 11 12 15 13 16 14
REMARK SMILES IDX 17 15 12 17 13 18 14 19
REMARK H PARENT
REMARK Flexibility Score: 70.00
ROOT
ATOM      1  C   UNL     1      25.693  -9.613   6.753  1.00  0.00     0.136 C 
ATOM      2  O   UNL     1      24.831  -8.746   6.809  1.00  0.00    -0.299 OA
ENDROOT
BRANCH   1   3
ATOM      3  C   UNL     1      26.092 -10.376   8.011  1.00  0.00     0.053 C 
ATOM      4  C   UNL     1      27.124  -9.609   8.855  1.00  0.00     0.016 C 
BRANCH   3   5
ATOM      5  C   UNL     1      26.587 -11.805   7.696  1.00  0.00     0.015 C 
BRANCH   5   6
ATOM      6  C   UNL     1      25.487 -12.876   7.828  1.00  0.00     0.028 C 
BRANCH   6   7
ATOM      7  C   UNL     1      24.101 -12.286   7.903  1.00  0.00    -0.028 C 
ATOM      8  C   UNL     1      23.220 -12.187   6.876  1.00  0.00    -0.070 CG0
ATOM      9  C   UNL     1      21.841 -11.662   7.198  1.00  0.00     0.039 C 
ATOM     10  G   UNL     1      23.554 -12.508   5.421  1.00  0.00     0.000 G0
ENDBRANCH   6   7
ENDBRANCH   5   6
ENDBRANCH   3   5
ENDBRANCH   1   3
BRANCH   1  11
ATOM     11  C   UNL     1      26.321  -9.932   5.416  1.00  0.00     0.087 C 
BRANCH  11  12
ATOM     12  C   UNL     1      25.865 -11.306   4.850  1.00  0.00     0.066 C 
BRANCH  12  13
ATOM     13  C   UNL     1      24.351 -11.439   4.705  1.00  0.00     0.140 C 
ATOM     14  O   UNL     1      23.745 -10.568   4.097  1.00  0.00    -0.299 OA
BRANCH  13  15
ATOM     15  C   UNL     1      23.557 -12.515   5.407  1.00  0.00     0.106 CG0
ATOM     16  G   UNL     1      23.205 -12.192   6.856  1.00  0.00     0.000 G0
ENDBRANCH  13  15
ENDBRANCH  12  13
BRANCH  12  17
ATOM     17  C   UNL     1      26.596 -11.715   3.529  1.00  0.00    -0.006 C 
ATOM     18  C   UNL     1      26.061 -13.004   2.882  1.00  0.00     0.008 C 
ATOM     19  C   UNL     1      26.572 -10.574   2.497  1.00  0.00     0.008 C 
ENDBRANCH  12  17
ENDBRANCH  11  12
ENDBRANCH   1  11
TORSDOF 1
ENDMDL
MODEL 2
REMARK VINA RESULT:    -1.648      1.886      4.366
REMARK INTER + INTRA:          -1.904
REMARK INTER:                  -2.813
REMARK INTRA:                   0.909
REMARK UNBOUND:                 0.612
REMARK SMILES CC1=CCC[C@@H](C)C(=O)C[C@H](C(C)C)C(=O)C1
REMARK SMILES IDX 8 1 9 2 6 3 7 4 5 5 4 6 3 7 2 8 1 9 10 11 11 12 15 13 16 14
REMARK SMILES IDX 17 15 12 17 13 18 14 19
REMARK H PARENT
REMARK Flexibility Score: 70.00
ROOT
ATOM      1  C   UNL     1      25.438 -12.652   8.079  1.00  0.00     0.136 C 
ATOM      2  O   UNL     1      26.071 -12.748   9.122  1.00  0.00    -0.299 OA
ENDROOT
BRANCH   1   3
ATOM      3  C   UNL     1      26.110 -12.109   6.824  1.00  0.00     0.053 C 
ATOM      4  C   UNL     1      27.089 -13.119   6.203  1.00  0.00     0.016 C 
BRANCH   3   5
ATOM      5  C   UNL     1      26.800 -10.749   7.072  1.00  0.00     0.015 C 
BRANCH   5   6
ATOM      6  C   UNL     1      26.304  -9.632   6.135  1.00  0.00     0.028 C 
BRANCH   6   7
ATOM      7  C   UNL     1      25.931 -10.139   4.764  1.00  0.00    -0.028 C 
ATOM      8  C   UNL     1      24.685 -10.486   4.354  1.00  0.00    -0.070 CG0
ATOM      9  C   UNL     1      24.517 -10.863   2.901  1.00  0.00     0.039 C 
ATOM     10  G   UNL     1      23.471 -10.581   5.274  1.00  0.00     0.000 G0
ENDBRANCH   6   7
ENDBRANCH   5   6
ENDBRANCH   3   5
ENDBRANCH   1   3
BRANCH   1  11
ATOM     11  C   UNL     1      23.999 -13.115   8.055  1.00  0.00     0.087 C 
BRANCH  11  12
ATOM     12  C   UNL     1      23.042 -12.070   7.415  1.00  0.00     0.066 C 
BRANCH  12  13
ATOM     13  C   UNL     1      23.233 -11.903   5.910  1.00  0.00     0.140 C 
ATOM     14  O   UNL     1      23.328 -12.908   5.220  1.00  0.00    -0.299 OA
BRANCH  13  15
ATOM     15  C   UNL     1      23.459 -10.558   5.261  1.00  0.00     0.106 CG0
ATOM     16  G   UNL     1      24.673 -10.502   4.337  1.00  0.00     0.000 G0
ENDBRANCH  13  15
ENDBRANCH  12  13
BRANCH  12  17
ATOM     17  C   UNL     1      21.536 -12.297   7.772  1.00  0.00    -0.006 C 
ATOM     18  C   UNL     1      21.304 -12.983   9.129  1.00  0.00     0.008 C 
ATOM     19  C   UNL     1      20.741 -10.981   7.718  1.00  0.00     0.008 C 
ENDBRANCH  12  17
ENDBRANCH  11  12
ENDBRANCH   1  11
TORSDOF 1
ENDMDL
MODEL 3
REMARK VINA RESULT:    -1.557      1.476      2.129
REMARK INTER + INTRA:          -1.764
REMARK INTER:                  -3.999
REMARK INTRA:                   2.235
REMARK UNBOUND:                 0.612
REMARK SMILES CC1=CCC[C@@H](C)C(=O)C[C@H](C(C)C)C(=O)C1
REMARK SMILES IDX 8 1 9 2 6 3 7 4 5 5 4 6 3 7 2 8 1 9 10 11 11 12 15 13 16 14
REMARK SMILES IDX 17 15 12 17 13 18 14 19
REMARK H PARENT
REMARK Flexibility Score: 70.00
ROOT
ATOM      1  C   UNL     1      26.891 -10.708   5.341  1.00  0.00     0.136 C 
ATOM      2  O   UNL     1      27.010  -9.755   4.583  1.00  0.00    -0.299 OA
ENDROOT
BRANCH   1   3
ATOM      3  C   UNL     1      26.940 -10.497   6.849  1.00  0.00     0.053 C 
ATOM      4  C   UNL     1      26.946 -11.825   7.624  1.00  0.00     0.016 C 
BRANCH   3   5
ATOM      5  C   UNL     1      25.809  -9.571   7.348  1.00  0.00     0.015 C 
BRANCH   5   6
ATOM      6  C   UNL     1      24.643  -9.439   6.349  1.00  0.00     0.028 C 
BRANCH   6   7
ATOM      7  C   UNL     1      23.387 -10.128   6.820  1.00  0.00    -0.028 C 
ATOM      8  C   UNL     1      23.174 -11.468   6.844  1.00  0.00    -0.070 CG0
ATOM      9  C   UNL     1      21.882 -11.951   7.460  1.00  0.00     0.039 C 
ATOM     10  G   UNL     1      24.119 -12.501   6.235  1.00  0.00     0.000 G0
ENDBRANCH   6   7
ENDBRANCH   5   6
ENDBRANCH   3   5
ENDBRANCH   1   3
BRANCH   1  11
ATOM     11  C   UNL     1      26.660 -12.081   4.754  1.00  0.00     0.087 C 
BRANCH  11  12
ATOM     12  C   UNL     1      25.353 -12.166   3.916  1.00  0.00     0.066 C 
BRANCH  12  13
ATOM     13  C   UNL     1      24.127 -12.570   4.730  1.00  0.00     0.140 C 
ATOM     14  O   UNL     1      23.088 -12.819   4.135  1.00  0.00    -0.299 OA
BRANCH  13  15
ATOM     15  C   UNL     1      24.101 -12.528   6.240  1.00  0.00     0.106 CG0
ATOM     16  G   UNL     1      23.170 -11.469   6.824  1.00  0.00     0.000 G0
ENDBRANCH  13  15
ENDBRANCH  12  13
BRANCH  12  17
ATOM     17  C   UNL     1      25.068 -10.884   3.065  1.00  0.00    -0.006 C 
ATOM     18  C   UNL     1      26.110 -10.610   1.967  1.00  0.00     0.008 C 
ATOM     19  C   UNL     1      23.662 -10.925   2.442  1.00  0.00     0.008 C 
ENDBRANCH  12  17
ENDBRANCH  11  12
ENDBRANCH   1  11
TORSDOF 1
ENDMDL
MODEL 4
REMARK VINA RESULT:     0.123      2.088      3.845
REMARK INTER + INTRA:           0.800
REMARK INTER:                  -1.998
REMARK INTRA:                   2.798
REMARK UNBOUND:                 0.612
REMARK SMILES CC1=CCC[C@@H](C)C(=O)C[C@H](C(C)C)C(=O)C1
REMARK SMILES IDX 8 1 9 2 6 3 7 4 5 5 4 6 3 7 2 8 1 9 10 11 11 12 15 13 16 14
REMARK SMILES IDX 17 15 12 17 13 18 14 19
REMARK H PARENT
REMARK Flexibility Score: 70.00
ROOT
ATOM      1  C   UNL     1      23.795 -10.067   6.348  1.00  0.00     0.136 C 
ATOM      2  O   UNL     1      22.771 -10.338   6.959  1.00  0.00    -0.299 OA
ENDROOT
BRANCH   1   3
ATOM      3  C   UNL     1      24.399 -11.078   5.380  1.00  0.00     0.053 C 
ATOM      4  C   UNL     1      23.846 -10.921   3.953  1.00  0.00     0.016 C 
BRANCH   3   5
ATOM      5  C   UNL     1      24.241 -12.531   5.878  1.00  0.00     0.015 C 
BRANCH   5   6
ATOM      6  C   UNL     1      23.830 -12.628   7.360  1.00  0.00     0.028 C 
BRANCH   6   7
ATOM      7  C   UNL     1      24.945 -13.124   8.246  1.00  0.00    -0.028 C 
ATOM      8  C   UNL     1      26.135 -12.506   8.452  1.00  0.00    -0.070 CG0
ATOM      9  C   UNL     1      27.066 -13.122   9.469  1.00  0.00     0.039 C 
ATOM     10  G   UNL     1      26.612 -11.278   7.681  1.00  0.00     0.000 G0
ENDBRANCH   6   7
ENDBRANCH   5   6
ENDBRANCH   3   5
ENDBRANCH   1   3
BRANCH   1  11
ATOM     11  C   UNL     1      24.423  -8.706   6.544  1.00  0.00     0.087 C 
BRANCH  11  12
ATOM     12  C   UNL     1      25.813  -8.778   7.236  1.00  0.00     0.066 C 
BRANCH  12  13
ATOM     13  C   UNL     1      25.978  -9.984   8.158  1.00  0.00     0.140 C 
ATOM     14  O   UNL     1      25.696  -9.856   9.341  1.00  0.00    -0.299 OA
BRANCH  13  15
ATOM     15  C   UNL     1      26.617 -11.275   7.704  1.00  0.00     0.106 CG0
ATOM     16  G   UNL     1      26.118 -12.516   8.440  1.00  0.00     0.000 G0
ENDBRANCH  13  15
ENDBRANCH  12  13
BRANCH  12  17
ATOM     17  C   UNL     1      27.016  -8.657   6.243  1.00  0.00    -0.006 C 
ATOM     18  C   UNL     1      27.113  -9.806   5.224  1.00  0.00     0.008 C 
ATOM     19  C   UNL     1      26.997  -7.310   5.500  1.00  0.00     0.008 C 
ENDBRANCH  12  17
ENDBRANCH  11  12
ENDBRANCH   1  11
TORSDOF 1
ENDMDL
