MODEL 1
REMARK VINA RESULT:    -4.770      0.000      0.000
REMARK INTER + INTRA:          -5.937
REMARK INTER:                  -5.745
REMARK INTRA:                  -0.192
REMARK UNBOUND:                -0.192
REMARK SMILES Oc1cc(O)c2cc(O)c(-c3ccc(O)c(O)c3)[o+]c2c1.[Cl-]
REMARK SMILES IDX 10 1 19 2 20 3 21 4 2 5 3 6 4 7 6 8 7 9 8 10 11 11 12 12
REMARK SMILES IDX 13 13 14 14 18 15 16 16 15 17 17 19 9 21 1 23 5 25
REMARK H PARENT 15 18 17 20 9 22 1 24 5 26
REMARK Flexibility Score: inf
ROOT
ATOM      1  C   UNL     1     -26.242  51.216  41.941  1.00  0.00     0.402 A 
ATOM      2  O   UNL     1     -26.675  51.719  43.095  1.00  0.00    -0.202 OA
ATOM      3  C   UNL     1     -26.353  52.934  43.528  1.00  0.00     0.368 A 
ATOM      4  C   UNL     1     -26.860  53.375  44.754  1.00  0.00     0.162 A 
ATOM      5  C   UNL     1     -26.540  54.649  45.231  1.00  0.00     0.128 A 
ATOM      6  C   UNL     1     -25.712  55.486  44.480  1.00  0.00     0.093 A 
ATOM      7  C   UNL     1     -25.192  55.067  43.249  1.00  0.00     0.136 A 
ATOM      8  C   UNL     1     -25.511  53.774  42.761  1.00  0.00     0.125 A 
ATOM      9  C   UNL     1     -25.024  53.265  41.545  1.00  0.00     0.078 A 
ATOM     10  C   UNL     1     -25.379  51.977  41.131  1.00  0.00     0.223 A 
ENDROOT
BRANCH   1  11
ATOM     11  C   UNL     1     -26.679  49.853  41.564  1.00  0.00     0.087 A 
ATOM     12  C   UNL     1     -26.394  48.775  42.418  1.00  0.00     0.022 A 
ATOM     13  C   UNL     1     -26.814  47.483  42.093  1.00  0.00     0.051 A 
ATOM     14  C   UNL     1     -27.538  47.252  40.916  1.00  0.00     0.157 A 
ATOM     15  C   UNL     1     -27.425  49.619  40.394  1.00  0.00     0.068 A 
ATOM     16  C   UNL     1     -27.848  48.323  40.068  1.00  0.00     0.158 A 
BRANCH  14  17
ATOM     17  O   UNL     1     -27.957  45.965  40.586  1.00  0.00    -0.504 OA
ATOM     18  H   UNL     1     -27.747  45.554  39.683  1.00  0.00     0.293 HD
ENDBRANCH  14  17
BRANCH  16  19
ATOM     19  O   UNL     1     -28.582  48.092  38.905  1.00  0.00    -0.504 OA
ATOM     20  H   UNL     1     -28.455  47.249  38.356  1.00  0.00     0.293 HD
ENDBRANCH  16  19
ENDBRANCH   1  11
BRANCH  10  21
ATOM     21  O   UNL     1     -24.857  51.454  39.949  1.00  0.00    -0.500 OA
ATOM     22  H   UNL     1     -23.864  51.476  39.750  1.00  0.00     0.294 HD
ENDBRANCH  10  21
BRANCH   5  23
ATOM     23  O   UNL     1     -27.041  55.095  46.452  1.00  0.00    -0.507 OA
ATOM     24  H   UNL     1     -26.484  55.061  47.298  1.00  0.00     0.293 HD
ENDBRANCH   5  23
BRANCH   7  25
ATOM     25  O   UNL     1     -24.373  55.965  42.557  1.00  0.00    -0.507 OA
ATOM     26  H   UNL     1     -24.628  56.917  42.340  1.00  0.00     0.293 HD
ENDBRANCH   7  25
TORSDOF 6
ENDMDL
MODEL 2
REMARK VINA RESULT:    -4.404      1.629      7.297
REMARK INTER + INTRA:          -5.497
REMARK INTER:                  -5.248
REMARK INTRA:                  -0.250
REMARK UNBOUND:                -0.192
REMARK SMILES Oc1cc(O)c2cc(O)c(-c3ccc(O)c(O)c3)[o+]c2c1.[Cl-]
REMARK SMILES IDX 10 1 19 2 20 3 21 4 2 5 3 6 4 7 6 8 7 9 8 10 11 11 12 12
REMARK SMILES IDX 13 13 14 14 18 15 16 16 15 17 17 19 9 21 1 23 5 25
REMARK H PARENT 15 18 17 20 9 22 1 24 5 26
REMARK Flexibility Score: inf
ROOT
ATOM      1  C   UNL     1     -25.876  51.854  43.883  1.00  0.00     0.402 A 
ATOM      2  O   UNL     1     -26.258  51.649  42.625  1.00  0.00    -0.202 OA
ATOM      3  C   UNL     1     -26.397  50.440  42.092  1.00  0.00     0.368 A 
ATOM      4  C   UNL     1     -26.807  50.327  40.761  1.00  0.00     0.162 A 
ATOM      5  C   UNL     1     -26.965  49.066  40.177  1.00  0.00     0.128 A 
ATOM      6  C   UNL     1     -26.713  47.915  40.927  1.00  0.00     0.093 A 
ATOM      7  C   UNL     1     -26.302  48.003  42.263  1.00  0.00     0.136 A 
ATOM      8  C   UNL     1     -26.138  49.279  42.860  1.00  0.00     0.125 A 
ATOM      9  C   UNL     1     -25.717  49.462  44.188  1.00  0.00     0.078 A 
ATOM     10  C   UNL     1     -25.573  50.753  44.706  1.00  0.00     0.223 A 
ENDROOT
BRANCH   1  11
ATOM     11  C   UNL     1     -25.767  53.250  44.364  1.00  0.00     0.087 A 
ATOM     12  C   UNL     1     -24.818  54.107  43.784  1.00  0.00     0.022 A 
ATOM     13  C   UNL     1     -24.710  55.435  44.208  1.00  0.00     0.051 A 
ATOM     14  C   UNL     1     -25.561  55.928  45.205  1.00  0.00     0.157 A 
ATOM     15  C   UNL     1     -26.633  53.756  45.350  1.00  0.00     0.068 A 
ATOM     16  C   UNL     1     -26.526  55.088  45.775  1.00  0.00     0.158 A 
BRANCH  14  17
ATOM     17  O   UNL     1     -25.456  57.250  45.633  1.00  0.00    -0.504 OA
ATOM     18  H   UNL     1     -24.655  57.574  46.163  1.00  0.00     0.293 HD
ENDBRANCH  14  17
BRANCH  16  19
ATOM     19  O   UNL     1     -27.381  55.586  46.757  1.00  0.00    -0.504 OA
ATOM     20  H   UNL     1     -27.730  54.997  47.505  1.00  0.00     0.293 HD
ENDBRANCH  16  19
ENDBRANCH   1  11
BRANCH  10  21
ATOM     21  O   UNL     1     -25.108  50.936  46.008  1.00  0.00    -0.500 OA
ATOM     22  H   UNL     1     -25.573  50.515  46.803  1.00  0.00     0.294 HD
ENDBRANCH  10  21
BRANCH   5  23
ATOM     23  O   UNL     1     -27.372  48.946  38.850  1.00  0.00    -0.507 OA
ATOM     24  H   UNL     1     -26.707  48.770  38.105  1.00  0.00     0.293 HD
ENDBRANCH   5  23
BRANCH   7  25
ATOM     25  O   UNL     1     -26.075  46.803  42.945  1.00  0.00    -0.507 OA
ATOM     26  H   UNL     1     -25.272  46.624  43.531  1.00  0.00     0.293 HD
ENDBRANCH   7  25
TORSDOF 6
ENDMDL
MODEL 3
REMARK VINA RESULT:    -4.386      1.219      1.220
REMARK INTER + INTRA:          -5.475
REMARK INTER:                  -5.124
REMARK INTRA:                  -0.352
REMARK UNBOUND:                -0.192
REMARK SMILES Oc1cc(O)c2cc(O)c(-c3ccc(O)c(O)c3)[o+]c2c1.[Cl-]
REMARK SMILES IDX 10 1 19 2 20 3 21 4 2 5 3 6 4 7 6 8 7 9 8 10 11 11 12 12
REMARK SMILES IDX 13 13 14 14 18 15 16 16 15 17 17 19 9 21 1 23 5 25
REMARK H PARENT 15 18 17 20 9 22 1 24 5 26
REMARK Flexibility Score: inf
ROOT
ATOM      1  C   UNL     1     -25.742  51.159  42.624  1.00  0.00     0.402 A 
ATOM      2  O   UNL     1     -26.478  51.896  43.452  1.00  0.00    -0.202 OA
ATOM      3  C   UNL     1     -26.009  52.963  44.092  1.00  0.00     0.368 A 
ATOM      4  C   UNL     1     -26.861  53.676  44.940  1.00  0.00     0.162 A 
ATOM      5  C   UNL     1     -26.395  54.803  45.621  1.00  0.00     0.128 A 
ATOM      6  C   UNL     1     -25.072  55.221  45.454  1.00  0.00     0.093 A 
ATOM      7  C   UNL     1     -24.200  54.523  44.609  1.00  0.00     0.136 A 
ATOM      8  C   UNL     1     -24.667  53.377  43.917  1.00  0.00     0.125 A 
ATOM      9  C   UNL     1     -23.860  52.609  43.061  1.00  0.00     0.078 A 
ATOM     10  C   UNL     1     -24.390  51.488  42.415  1.00  0.00     0.223 A 
ENDROOT
BRANCH   1  11
ATOM     11  C   UNL     1     -26.382  49.999  41.963  1.00  0.00     0.087 A 
ATOM     12  C   UNL     1     -26.464  48.774  42.645  1.00  0.00     0.022 A 
ATOM     13  C   UNL     1     -27.081  47.671  42.049  1.00  0.00     0.051 A 
ATOM     14  C   UNL     1     -27.640  47.782  40.769  1.00  0.00     0.157 A 
ATOM     15  C   UNL     1     -26.964  50.111  40.687  1.00  0.00     0.068 A 
ATOM     16  C   UNL     1     -27.585  49.005  40.089  1.00  0.00     0.158 A 
BRANCH  14  17
ATOM     17  O   UNL     1     -28.255  46.684  40.170  1.00  0.00    -0.504 OA
ATOM     18  H   UNL     1     -29.200  46.739  39.808  1.00  0.00     0.293 HD
ENDBRANCH  14  17
BRANCH  16  19
ATOM     19  O   UNL     1     -28.155  49.116  38.821  1.00  0.00    -0.504 OA
ATOM     20  H   UNL     1     -28.995  49.660  38.664  1.00  0.00     0.293 HD
ENDBRANCH  16  19
ENDBRANCH   1  11
BRANCH  10  21
ATOM     21  O   UNL     1     -23.576  50.697  41.605  1.00  0.00    -0.500 OA
ATOM     22  H   UNL     1     -22.971  49.984  41.993  1.00  0.00     0.294 HD
ENDBRANCH  10  21
BRANCH   5  23
ATOM     23  O   UNL     1     -27.238  55.518  46.469  1.00  0.00    -0.507 OA
ATOM     24  H   UNL     1     -28.129  55.142  46.772  1.00  0.00     0.293 HD
ENDBRANCH   5  23
BRANCH   7  25
ATOM     25  O   UNL     1     -22.893  55.008  44.494  1.00  0.00    -0.507 OA
ATOM     26  H   UNL     1     -22.555  55.557  43.717  1.00  0.00     0.293 HD
ENDBRANCH   7  25
TORSDOF 6
ENDMDL
MODEL 4
REMARK VINA RESULT:    -4.352      1.759      6.979
REMARK INTER + INTRA:          -5.434
REMARK INTER:                  -5.316
REMARK INTRA:                  -0.118
REMARK UNBOUND:                -0.192
REMARK SMILES Oc1cc(O)c2cc(O)c(-c3ccc(O)c(O)c3)[o+]c2c1.[Cl-]
REMARK SMILES IDX 10 1 19 2 20 3 21 4 2 5 3 6 4 7 6 8 7 9 8 10 11 11 12 12
REMARK SMILES IDX 13 13 14 14 18 15 16 16 15 17 17 19 9 21 1 23 5 25
REMARK H PARENT 15 18 17 20 9 22 1 24 5 26
REMARK Flexibility Score: inf
ROOT
ATOM      1  C   UNL     1     -25.862  52.259  43.274  1.00  0.00     0.402 A 
ATOM      2  O   UNL     1     -25.795  51.148  44.004  1.00  0.00    -0.202 OA
ATOM      3  C   UNL     1     -25.878  49.927  43.485  1.00  0.00     0.368 A 
ATOM      4  C   UNL     1     -25.793  48.821  44.334  1.00  0.00     0.162 A 
ATOM      5  C   UNL     1     -25.874  47.526  43.814  1.00  0.00     0.128 A 
ATOM      6  C   UNL     1     -26.038  47.336  42.441  1.00  0.00     0.093 A 
ATOM      7  C   UNL     1     -26.124  48.429  41.569  1.00  0.00     0.136 A 
ATOM      8  C   UNL     1     -26.046  49.745  42.091  1.00  0.00     0.125 A 
ATOM      9  C   UNL     1     -26.136  50.899  41.295  1.00  0.00     0.078 A 
ATOM     10  C   UNL     1     -26.055  52.165  41.883  1.00  0.00     0.223 A 
ENDROOT
BRANCH   1  11
ATOM     11  C   UNL     1     -25.747  53.561  43.968  1.00  0.00     0.087 A 
ATOM     12  C   UNL     1     -24.753  54.469  43.571  1.00  0.00     0.022 A 
ATOM     13  C   UNL     1     -24.638  55.713  44.199  1.00  0.00     0.051 A 
ATOM     14  C   UNL     1     -25.527  56.072  45.220  1.00  0.00     0.157 A 
ATOM     15  C   UNL     1     -26.651  53.935  44.980  1.00  0.00     0.068 A 
ATOM     16  C   UNL     1     -26.537  55.183  45.608  1.00  0.00     0.158 A 
BRANCH  14  17
ATOM     17  O   UNL     1     -25.416  57.310  45.850  1.00  0.00    -0.504 OA
ATOM     18  H   UNL     1     -25.660  57.432  46.827  1.00  0.00     0.293 HD
ENDBRANCH  14  17
BRANCH  16  19
ATOM     19  O   UNL     1     -27.429  55.549  46.615  1.00  0.00    -0.504 OA
ATOM     20  H   UNL     1     -27.569  56.520  46.873  1.00  0.00     0.293 HD
ENDBRANCH  16  19
ENDBRANCH   1  11
BRANCH  10  21
ATOM     21  O   UNL     1     -26.195  53.311  41.099  1.00  0.00    -0.500 OA
ATOM     22  H   UNL     1     -26.017  53.298  40.102  1.00  0.00     0.294 HD
ENDBRANCH  10  21
BRANCH   5  23
ATOM     23  O   UNL     1     -25.792  46.418  44.655  1.00  0.00    -0.507 OA
ATOM     24  H   UNL     1     -26.579  45.793  44.787  1.00  0.00     0.293 HD
ENDBRANCH   5  23
BRANCH   7  25
ATOM     25  O   UNL     1     -26.285  48.154  40.207  1.00  0.00    -0.507 OA
ATOM     26  H   UNL     1     -27.172  47.967  39.764  1.00  0.00     0.293 HD
ENDBRANCH   7  25
TORSDOF 6
ENDMDL
MODEL 5
REMARK VINA RESULT:    -4.206      1.633      6.934
REMARK INTER + INTRA:          -5.258
REMARK INTER:                  -4.916
REMARK INTRA:                  -0.342
REMARK UNBOUND:                -0.192
REMARK SMILES Oc1cc(O)c2cc(O)c(-c3ccc(O)c(O)c3)[o+]c2c1.[Cl-]
REMARK SMILES IDX 10 1 19 2 20 3 21 4 2 5 3 6 4 7 6 8 7 9 8 10 11 11 12 12
REMARK SMILES IDX 13 13 14 14 18 15 16 16 15 17 17 19 9 21 1 23 5 25
REMARK H PARENT 15 18 17 20 9 22 1 24 5 26
REMARK Flexibility Score: inf
ROOT
ATOM      1  C   UNL     1     -25.931  51.297  43.039  1.00  0.00     0.402 A 
ATOM      2  O   UNL     1     -26.088  50.098  43.595  1.00  0.00    -0.202 OA
ATOM      3  C   UNL     1     -26.355  48.999  42.897  1.00  0.00     0.368 A 
ATOM      4  C   UNL     1     -26.499  47.783  43.572  1.00  0.00     0.162 A 
ATOM      5  C   UNL     1     -26.776  46.612  42.861  1.00  0.00     0.128 A 
ATOM      6  C   UNL     1     -26.910  46.655  41.472  1.00  0.00     0.093 A 
ATOM      7  C   UNL     1     -26.770  47.861  40.773  1.00  0.00     0.136 A 
ATOM      8  C   UNL     1     -26.490  49.053  41.489  1.00  0.00     0.125 A 
ATOM      9  C   UNL     1     -26.347  50.308  40.873  1.00  0.00     0.078 A 
ATOM     10  C   UNL     1     -26.076  51.441  41.646  1.00  0.00     0.223 A 
ENDROOT
BRANCH   1  11
ATOM     11  C   UNL     1     -25.626  52.444  43.923  1.00  0.00     0.087 A 
ATOM     12  C   UNL     1     -24.289  52.748  44.223  1.00  0.00     0.022 A 
ATOM     13  C   UNL     1     -23.976  53.839  45.039  1.00  0.00     0.051 A 
ATOM     14  C   UNL     1     -24.996  54.650  45.553  1.00  0.00     0.157 A 
ATOM     15  C   UNL     1     -26.645  53.276  44.424  1.00  0.00     0.068 A 
ATOM     16  C   UNL     1     -26.332  54.370  45.241  1.00  0.00     0.158 A 
BRANCH  14  17
ATOM     17  O   UNL     1     -24.689  55.737  46.369  1.00  0.00    -0.504 OA
ATOM     18  H   UNL     1     -23.738  56.079  46.461  1.00  0.00     0.293 HD
ENDBRANCH  14  17
BRANCH  16  19
ATOM     19  O   UNL     1     -27.343  55.189  45.742  1.00  0.00    -0.504 OA
ATOM     20  H   UNL     1     -27.668  56.003  45.232  1.00  0.00     0.293 HD
ENDBRANCH  16  19
ENDBRANCH   1  11
BRANCH  10  21
ATOM     21  O   UNL     1     -25.983  52.695  41.041  1.00  0.00    -0.500 OA
ATOM     22  H   UNL     1     -25.103  53.054  40.694  1.00  0.00     0.294 HD
ENDBRANCH  10  21
BRANCH   5  23
ATOM     23  O   UNL     1     -26.922  45.397  43.528  1.00  0.00    -0.507 OA
ATOM     24  H   UNL     1     -26.400  44.574  43.249  1.00  0.00     0.293 HD
ENDBRANCH   5  23
BRANCH   7  25
ATOM     25  O   UNL     1     -26.915  47.819  39.383  1.00  0.00    -0.507 OA
ATOM     26  H   UNL     1     -26.410  47.190  38.776  1.00  0.00     0.293 HD
ENDBRANCH   7  25
TORSDOF 6
ENDMDL
MODEL 6
REMARK VINA RESULT:    -4.014      1.845      7.141
REMARK INTER + INTRA:          -5.028
REMARK INTER:                  -4.679
REMARK INTRA:                  -0.349
REMARK UNBOUND:                -0.192
REMARK SMILES Oc1cc(O)c2cc(O)c(-c3ccc(O)c(O)c3)[o+]c2c1.[Cl-]
REMARK SMILES IDX 10 1 19 2 20 3 21 4 2 5 3 6 4 7 6 8 7 9 8 10 11 11 12 12
REMARK SMILES IDX 13 13 14 14 18 15 16 16 15 17 17 19 9 21 1 23 5 25
REMARK H PARENT 15 18 17 20 9 22 1 24 5 26
REMARK Flexibility Score: inf
ROOT
ATOM      1  C   UNL     1     -25.440  53.175  44.330  1.00  0.00     0.402 A 
ATOM      2  O   UNL     1     -25.731  51.879  44.409  1.00  0.00    -0.202 OA
ATOM      3  C   UNL     1     -25.768  51.073  43.353  1.00  0.00     0.368 A 
ATOM      4  C   UNL     1     -26.081  49.723  43.538  1.00  0.00     0.162 A 
ATOM      5  C   UNL     1     -26.123  48.854  42.444  1.00  0.00     0.128 A 
ATOM      6  C   UNL     1     -25.849  49.334  41.162  1.00  0.00     0.093 A 
ATOM      7  C   UNL     1     -25.532  50.682  40.951  1.00  0.00     0.136 A 
ATOM      8  C   UNL     1     -25.491  51.569  42.056  1.00  0.00     0.125 A 
ATOM      9  C   UNL     1     -25.196  52.938  41.938  1.00  0.00     0.078 A 
ATOM     10  C   UNL     1     -25.178  53.753  43.074  1.00  0.00     0.223 A 
ENDROOT
BRANCH   1  11
ATOM     11  C   UNL     1     -25.422  53.966  45.581  1.00  0.00     0.087 A 
ATOM     12  C   UNL     1     -24.215  54.126  46.279  1.00  0.00     0.022 A 
ATOM     13  C   UNL     1     -24.170  54.886  47.451  1.00  0.00     0.051 A 
ATOM     14  C   UNL     1     -25.328  55.509  47.933  1.00  0.00     0.157 A 
ATOM     15  C   UNL     1     -26.578  54.612  46.057  1.00  0.00     0.068 A 
ATOM     16  C   UNL     1     -26.533  55.375  47.233  1.00  0.00     0.158 A 
BRANCH  14  17
ATOM     17  O   UNL     1     -25.289  56.265  49.103  1.00  0.00    -0.504 OA
ATOM     18  H   UNL     1     -25.977  56.142  49.837  1.00  0.00     0.293 HD
ENDBRANCH  14  17
BRANCH  16  19
ATOM     19  O   UNL     1     -27.681  56.008  47.707  1.00  0.00    -0.504 OA
ATOM     20  H   UNL     1     -27.754  56.325  48.667  1.00  0.00     0.293 HD
ENDBRANCH  16  19
ENDBRANCH   1  11
BRANCH  10  21
ATOM     21  O   UNL     1     -24.934  55.121  42.950  1.00  0.00    -0.500 OA
ATOM     22  H   UNL     1     -25.541  55.810  43.377  1.00  0.00     0.294 HD
ENDBRANCH  10  21
BRANCH   5  23
ATOM     23  O   UNL     1     -26.435  47.507  42.621  1.00  0.00    -0.507 OA
ATOM     24  H   UNL     1     -26.753  47.150  43.515  1.00  0.00     0.293 HD
ENDBRANCH   5  23
BRANCH   7  25
ATOM     25  O   UNL     1     -25.268  51.082  39.637  1.00  0.00    -0.507 OA
ATOM     26  H   UNL     1     -24.693  51.873  39.387  1.00  0.00     0.293 HD
ENDBRANCH   7  25
TORSDOF 6
ENDMDL
MODEL 7
REMARK VINA RESULT:    -4.010      1.719      3.274
REMARK INTER + INTRA:          -5.023
REMARK INTER:                  -4.741
REMARK INTRA:                  -0.282
REMARK UNBOUND:                -0.192
REMARK SMILES Oc1cc(O)c2cc(O)c(-c3ccc(O)c(O)c3)[o+]c2c1.[Cl-]
REMARK SMILES IDX 10 1 19 2 20 3 21 4 2 5 3 6 4 7 6 8 7 9 8 10 11 11 12 12
REMARK SMILES IDX 13 13 14 14 18 15 16 16 15 17 17 19 9 21 1 23 5 25
REMARK H PARENT 15 18 17 20 9 22 1 24 5 26
REMARK Flexibility Score: inf
ROOT
ATOM      1  C   UNL     1     -25.884  52.614  43.592  1.00  0.00     0.402 A 
ATOM      2  O   UNL     1     -24.785  53.297  43.282  1.00  0.00    -0.202 OA
ATOM      3  C   UNL     1     -24.504  54.496  43.783  1.00  0.00     0.368 A 
ATOM      4  C   UNL     1     -23.321  55.133  43.399  1.00  0.00     0.162 A 
ATOM      5  C   UNL     1     -23.000  56.392  43.913  1.00  0.00     0.128 A 
ATOM      6  C   UNL     1     -23.865  57.017  44.815  1.00  0.00     0.093 A 
ATOM      7  C   UNL     1     -25.056  56.399  45.215  1.00  0.00     0.136 A 
ATOM      8  C   UNL     1     -25.388  55.121  44.695  1.00  0.00     0.125 A 
ATOM      9  C   UNL     1     -26.566  54.433  45.029  1.00  0.00     0.078 A 
ATOM     10  C   UNL     1     -26.828  53.178  44.471  1.00  0.00     0.223 A 
ENDROOT
BRANCH   1  11
ATOM     11  C   UNL     1     -26.079  51.283  42.975  1.00  0.00     0.087 A 
ATOM     12  C   UNL     1     -25.934  50.129  43.762  1.00  0.00     0.022 A 
ATOM     13  C   UNL     1     -26.133  48.863  43.206  1.00  0.00     0.051 A 
ATOM     14  C   UNL     1     -26.495  48.733  41.860  1.00  0.00     0.157 A 
ATOM     15  C   UNL     1     -26.464  51.147  41.628  1.00  0.00     0.068 A 
ATOM     16  C   UNL     1     -26.665  49.877  41.070  1.00  0.00     0.158 A 
BRANCH  14  17
ATOM     17  O   UNL     1     -26.692  47.471  41.300  1.00  0.00    -0.504 OA
ATOM     18  H   UNL     1     -25.995  47.041  40.703  1.00  0.00     0.293 HD
ENDBRANCH  14  17
BRANCH  16  19
ATOM     19  O   UNL     1     -27.039  49.744  39.734  1.00  0.00    -0.504 OA
ATOM     20  H   UNL     1     -26.354  49.584  39.004  1.00  0.00     0.293 HD
ENDBRANCH  16  19
ENDBRANCH   1  11
BRANCH  10  21
ATOM     21  O   UNL     1     -28.020  52.517  44.764  1.00  0.00    -0.500 OA
ATOM     22  H   UNL     1     -28.853  52.650  44.205  1.00  0.00     0.294 HD
ENDBRANCH  10  21
BRANCH   5  23
ATOM     23  O   UNL     1     -21.823  57.034  43.534  1.00  0.00    -0.507 OA
ATOM     24  H   UNL     1     -21.166  57.385  44.221  1.00  0.00     0.293 HD
ENDBRANCH   5  23
BRANCH   7  25
ATOM     25  O   UNL     1     -25.865  57.089  46.123  1.00  0.00    -0.507 OA
ATOM     26  H   UNL     1     -25.518  57.599  46.922  1.00  0.00     0.293 HD
ENDBRANCH   7  25
TORSDOF 6
ENDMDL
MODEL 8
REMARK VINA RESULT:    -4.000      7.775      8.764
REMARK INTER + INTRA:          -5.010
REMARK INTER:                  -4.712
REMARK INTRA:                  -0.299
REMARK UNBOUND:                -0.192
REMARK SMILES Oc1cc(O)c2cc(O)c(-c3ccc(O)c(O)c3)[o+]c2c1.[Cl-]
REMARK SMILES IDX 10 1 19 2 20 3 21 4 2 5 3 6 4 7 6 8 7 9 8 10 11 11 12 12
REMARK SMILES IDX 13 13 14 14 18 15 16 16 15 17 17 19 9 21 1 23 5 25
REMARK H PARENT 15 18 17 20 9 22 1 24 5 26
REMARK Flexibility Score: inf
ROOT
ATOM      1  C   UNL     1     -27.171  55.080  34.280  1.00  0.00     0.402 A 
ATOM      2  O   UNL     1     -27.182  55.682  35.467  1.00  0.00    -0.202 OA
ATOM      3  C   UNL     1     -27.497  56.962  35.634  1.00  0.00     0.368 A 
ATOM      4  C   UNL     1     -27.482  57.503  36.923  1.00  0.00     0.162 A 
ATOM      5  C   UNL     1     -27.812  58.846  37.127  1.00  0.00     0.128 A 
ATOM      6  C   UNL     1     -28.159  59.650  36.039  1.00  0.00     0.093 A 
ATOM      7  C   UNL     1     -28.182  59.131  34.739  1.00  0.00     0.136 A 
ATOM      8  C   UNL     1     -27.845  57.770  34.525  1.00  0.00     0.125 A 
ATOM      9  C   UNL     1     -27.828  57.168  33.256  1.00  0.00     0.078 A 
ATOM     10  C   UNL     1     -27.481  55.820  33.123  1.00  0.00     0.223 A 
ENDROOT
BRANCH   1  11
ATOM     11  C   UNL     1     -26.813  53.645  34.225  1.00  0.00     0.087 A 
ATOM     12  C   UNL     1     -25.486  53.255  34.470  1.00  0.00     0.022 A 
ATOM     13  C   UNL     1     -25.129  51.904  34.443  1.00  0.00     0.051 A 
ATOM     14  C   UNL     1     -26.096  50.924  34.187  1.00  0.00     0.157 A 
ATOM     15  C   UNL     1     -27.784  52.655  33.989  1.00  0.00     0.068 A 
ATOM     16  C   UNL     1     -27.426  51.299  33.964  1.00  0.00     0.158 A 
BRANCH  14  17
ATOM     17  O   UNL     1     -25.744  49.576  34.157  1.00  0.00    -0.504 OA
ATOM     18  H   UNL     1     -25.376  49.106  34.977  1.00  0.00     0.293 HD
ENDBRANCH  14  17
BRANCH  16  19
ATOM     19  O   UNL     1     -28.389  50.320  33.723  1.00  0.00    -0.504 OA
ATOM     20  H   UNL     1     -28.332  49.706  32.919  1.00  0.00     0.293 HD
ENDBRANCH  16  19
ENDBRANCH   1  11
BRANCH  10  21
ATOM     21  O   UNL     1     -27.415  55.236  31.859  1.00  0.00    -0.500 OA
ATOM     22  H   UNL     1     -27.339  55.795  31.018  1.00  0.00     0.294 HD
ENDBRANCH  10  21
BRANCH   5  23
ATOM     23  O   UNL     1     -27.799  59.392  38.408  1.00  0.00    -0.507 OA
ATOM     24  H   UNL     1     -27.737  60.393  38.557  1.00  0.00     0.293 HD
ENDBRANCH   5  23
BRANCH   7  25
ATOM     25  O   UNL     1     -28.543  60.001  33.705  1.00  0.00    -0.507 OA
ATOM     26  H   UNL     1     -29.297  59.833  33.056  1.00  0.00     0.293 HD
ENDBRANCH   7  25
TORSDOF 6
ENDMDL
MODEL 9
REMARK VINA RESULT:    -3.942      2.599      4.299
REMARK INTER + INTRA:          -4.940
REMARK INTER:                  -4.658
REMARK INTRA:                  -0.282
REMARK UNBOUND:                -0.192
REMARK SMILES Oc1cc(O)c2cc(O)c(-c3ccc(O)c(O)c3)[o+]c2c1.[Cl-]
REMARK SMILES IDX 10 1 19 2 20 3 21 4 2 5 3 6 4 7 6 8 7 9 8 10 11 11 12 12
REMARK SMILES IDX 13 13 14 14 18 15 16 16 15 17 17 19 9 21 1 23 5 25
REMARK H PARENT 15 18 17 20 9 22 1 24 5 26
REMARK Flexibility Score: inf
ROOT
ATOM      1  C   UNL     1     -24.894  52.299  44.365  1.00  0.00     0.402 A 
ATOM      2  O   UNL     1     -25.606  53.359  44.741  1.00  0.00    -0.202 OA
ATOM      3  C   UNL     1     -25.698  53.767  46.002  1.00  0.00     0.368 A 
ATOM      4  C   UNL     1     -26.469  54.895  46.297  1.00  0.00     0.162 A 
ATOM      5  C   UNL     1     -26.579  55.349  47.614  1.00  0.00     0.128 A 
ATOM      6  C   UNL     1     -25.916  54.673  48.641  1.00  0.00     0.093 A 
ATOM      7  C   UNL     1     -25.137  53.541  48.371  1.00  0.00     0.136 A 
ATOM      8  C   UNL     1     -25.023  53.075  47.036  1.00  0.00     0.125 A 
ATOM      9  C   UNL     1     -24.276  51.942  46.674  1.00  0.00     0.078 A 
ATOM     10  C   UNL     1     -24.214  51.540  45.336  1.00  0.00     0.223 A 
ENDROOT
BRANCH   1  11
ATOM     11  C   UNL     1     -24.863  51.950  42.927  1.00  0.00     0.087 A 
ATOM     12  C   UNL     1     -23.690  52.172  42.188  1.00  0.00     0.022 A 
ATOM     13  C   UNL     1     -23.631  51.831  40.834  1.00  0.00     0.051 A 
ATOM     14  C   UNL     1     -24.738  51.249  40.205  1.00  0.00     0.157 A 
ATOM     15  C   UNL     1     -25.965  51.345  42.295  1.00  0.00     0.068 A 
ATOM     16  C   UNL     1     -25.905  51.002  40.937  1.00  0.00     0.158 A 
BRANCH  14  17
ATOM     17  O   UNL     1     -24.684  50.910  38.854  1.00  0.00    -0.504 OA
ATOM     18  H   UNL     1     -25.146  50.081  38.497  1.00  0.00     0.293 HD
ENDBRANCH  14  17
BRANCH  16  19
ATOM     19  O   UNL     1     -27.001  50.409  40.311  1.00  0.00    -0.504 OA
ATOM     20  H   UNL     1     -27.770  50.962  39.952  1.00  0.00     0.293 HD
ENDBRANCH  16  19
ENDBRANCH   1  11
BRANCH  10  21
ATOM     21  O   UNL     1     -23.513  50.386  44.984  1.00  0.00    -0.500 OA
ATOM     22  H   UNL     1     -22.914  49.906  45.643  1.00  0.00     0.294 HD
ENDBRANCH  10  21
BRANCH   5  23
ATOM     23  O   UNL     1     -27.347  56.471  47.916  1.00  0.00    -0.507 OA
ATOM     24  H   UNL     1     -27.948  56.500  48.732  1.00  0.00     0.293 HD
ENDBRANCH   5  23
BRANCH   7  25
ATOM     25  O   UNL     1     -24.502  52.924  49.453  1.00  0.00    -0.507 OA
ATOM     26  H   UNL     1     -23.743  52.264  49.369  1.00  0.00     0.293 HD
ENDBRANCH   7  25
TORSDOF 6
ENDMDL
