MODEL 1
REMARK VINA RESULT:    -4.232      0.000      0.000
REMARK INTER + INTRA:          -4.912
REMARK INTER:                  -4.851
REMARK INTRA:                  -0.061
REMARK UNBOUND:                -0.061
REMARK SMILES CC(C)[C@H]([NH3+])C(=O)[O-]
REMARK SMILES IDX 4 1 5 2 6 6 7 7 8 8 2 9 1 10 3 11
REMARK H PARENT 5 3 5 4 5 5
REMARK Flexibility Score: inf
ROOT
ATOM      1  C   UNL     1      36.331 107.611  75.089  1.00  0.00     0.230 C 
ENDROOT
BRANCH   1   2
ATOM      2  N   UNL     1      37.362 108.390  74.387  1.00  0.00    -0.350 N 
ATOM      3  H   UNL     1      37.040 108.648  73.425  1.00  0.00     0.345 HD
ATOM      4  H   UNL     1      37.588 109.257  74.924  1.00  0.00     0.345 HD
ATOM      5  H   UNL     1      38.245 107.834  74.313  1.00  0.00     0.345 HD
ENDBRANCH   1   2
BRANCH   1   6
ATOM      6  C   UNL     1      36.667 107.552  76.559  1.00  0.00     0.099 C 
ATOM      7  O   UNL     1      37.115 106.489  77.066  1.00  0.00    -0.544 OA
ATOM      8  O   UNL     1      36.486 108.671  77.363  1.00  0.00    -0.544 OA
ENDBRANCH   1   6
BRANCH   1   9
ATOM      9  C   UNL     1      36.187 106.175  74.499  1.00  0.00     0.047 C 
ATOM     10  C   UNL     1      36.773 106.077  73.081  1.00  0.00     0.014 C 
ATOM     11  C   UNL     1      34.714 105.731  74.468  1.00  0.00     0.014 C 
ENDBRANCH   1   9
TORSDOF 3
ENDMDL
MODEL 2
REMARK VINA RESULT:    -3.926      2.253      2.679
REMARK INTER + INTRA:          -4.560
REMARK INTER:                  -4.512
REMARK INTRA:                  -0.048
REMARK UNBOUND:                -0.061
REMARK SMILES CC(C)[C@H]([NH3+])C(=O)[O-]
REMARK SMILES IDX 4 1 5 2 6 6 7 7 8 8 2 9 1 10 3 11
REMARK H PARENT 5 3 5 4 5 5
REMARK Flexibility Score: inf
ROOT
ATOM      1  C   UNL     1      35.172 106.842  76.952  1.00  0.00     0.230 C 
ENDROOT
BRANCH   1   2
ATOM      2  N   UNL     1      33.828 107.357  76.647  1.00  0.00    -0.350 N 
ATOM      3  H   UNL     1      33.111 106.907  77.263  1.00  0.00     0.345 HD
ATOM      4  H   UNL     1      33.800 108.394  76.776  1.00  0.00     0.345 HD
ATOM      5  H   UNL     1      33.587 107.164  75.647  1.00  0.00     0.345 HD
ENDBRANCH   1   2
BRANCH   1   6
ATOM      6  C   UNL     1      36.194 107.910  76.649  1.00  0.00     0.099 C 
ATOM      7  O   UNL     1      36.514 108.750  77.532  1.00  0.00    -0.544 OA
ATOM      8  O   UNL     1      36.789 107.973  75.396  1.00  0.00    -0.544 OA
ENDBRANCH   1   6
BRANCH   1   9
ATOM      9  C   UNL     1      35.487 105.538  76.159  1.00  0.00     0.047 C 
ATOM     10  C   UNL     1      34.473 105.295  75.028  1.00  0.00     0.014 C 
ATOM     11  C   UNL     1      35.507 104.311  77.089  1.00  0.00     0.014 C 
ENDBRANCH   1   9
TORSDOF 3
ENDMDL
MODEL 3
REMARK VINA RESULT:    -3.855      2.123      2.563
REMARK INTER + INTRA:          -4.479
REMARK INTER:                  -4.416
REMARK INTRA:                  -0.063
REMARK UNBOUND:                -0.061
REMARK SMILES CC(C)[C@H]([NH3+])C(=O)[O-]
REMARK SMILES IDX 4 1 5 2 6 6 7 7 8 8 2 9 1 10 3 11
REMARK H PARENT 5 3 5 4 5 5
REMARK Flexibility Score: inf
ROOT
ATOM      1  C   UNL     1      35.662 106.143  75.915  1.00  0.00     0.230 C 
ENDROOT
BRANCH   1   2
ATOM      2  N   UNL     1      35.129 105.765  77.232  1.00  0.00    -0.350 N 
ATOM      3  H   UNL     1      35.847 105.914  77.979  1.00  0.00     0.345 HD
ATOM      4  H   UNL     1      34.274 106.324  77.451  1.00  0.00     0.345 HD
ATOM      5  H   UNL     1      34.845 104.757  77.229  1.00  0.00     0.345 HD
ENDBRANCH   1   2
BRANCH   1   6
ATOM      6  C   UNL     1      36.284 107.515  76.005  1.00  0.00     0.099 C 
ATOM      7  O   UNL     1      36.906 107.995  75.021  1.00  0.00    -0.544 OA
ATOM      8  O   UNL     1      36.172 108.257  77.173  1.00  0.00    -0.544 OA
ENDBRANCH   1   6
BRANCH   1   9
ATOM      9  C   UNL     1      34.561 106.108  74.812  1.00  0.00     0.047 C 
ATOM     10  C   UNL     1      33.213 106.638  75.330  1.00  0.00     0.014 C 
ATOM     11  C   UNL     1      34.366 104.683  74.264  1.00  0.00     0.014 C 
ENDBRANCH   1   9
TORSDOF 3
ENDMDL
MODEL 4
REMARK VINA RESULT:    -3.720      3.619      4.216
REMARK INTER + INTRA:          -4.324
REMARK INTER:                  -4.279
REMARK INTRA:                  -0.045
REMARK UNBOUND:                -0.061
REMARK SMILES CC(C)[C@H]([NH3+])C(=O)[O-]
REMARK SMILES IDX 4 1 5 2 6 6 7 7 8 8 2 9 1 10 3 11
REMARK H PARENT 5 3 5 4 5 5
REMARK Flexibility Score: inf
ROOT
ATOM      1  C   UNL     1      33.752 106.832  75.454  1.00  0.00     0.230 C 
ENDROOT
BRANCH   1   2
ATOM      2  N   UNL     1      33.996 107.248  76.843  1.00  0.00    -0.350 N 
ATOM      3  H   UNL     1      34.413 106.464  77.397  1.00  0.00     0.345 HD
ATOM      4  H   UNL     1      34.636 108.073  76.866  1.00  0.00     0.345 HD
ATOM      5  H   UNL     1      33.098 107.542  77.293  1.00  0.00     0.345 HD
ENDBRANCH   1   2
BRANCH   1   6
ATOM      6  C   UNL     1      32.279 106.957  75.148  1.00  0.00     0.099 C 
ATOM      7  O   UNL     1      31.593 107.861  75.695  1.00  0.00    -0.544 OA
ATOM      8  O   UNL     1      31.672 106.078  74.260  1.00  0.00    -0.544 OA
ENDBRANCH   1   6
BRANCH   1   9
ATOM      9  C   UNL     1      34.247 105.378  75.188  1.00  0.00     0.047 C 
ATOM     10  C   UNL     1      35.071 104.829  76.365  1.00  0.00     0.014 C 
ATOM     11  C   UNL     1      35.092 105.303  73.903  1.00  0.00     0.014 C 
ENDBRANCH   1   9
TORSDOF 3
ENDMDL
MODEL 5
REMARK VINA RESULT:    -3.710      2.334      2.979
REMARK INTER + INTRA:          -4.312
REMARK INTER:                  -4.265
REMARK INTRA:                  -0.047
REMARK UNBOUND:                -0.061
REMARK SMILES CC(C)[C@H]([NH3+])C(=O)[O-]
REMARK SMILES IDX 4 1 5 2 6 6 7 7 8 8 2 9 1 10 3 11
REMARK H PARENT 5 3 5 4 5 5
REMARK Flexibility Score: inf
ROOT
ATOM      1  C   UNL     1      35.126 105.986  76.172  1.00  0.00     0.230 C 
ENDROOT
BRANCH   1   2
ATOM      2  N   UNL     1      34.581 107.167  76.859  1.00  0.00    -0.350 N 
ATOM      3  H   UNL     1      35.067 108.038  76.541  1.00  0.00     0.345 HD
ATOM      4  H   UNL     1      33.556 107.252  76.676  1.00  0.00     0.345 HD
ATOM      5  H   UNL     1      34.702 107.069  77.894  1.00  0.00     0.345 HD
ENDBRANCH   1   2
BRANCH   1   6
ATOM      6  C   UNL     1      35.549 104.965  77.199  1.00  0.00     0.099 C 
ATOM      7  O   UNL     1      36.094 105.333  78.272  1.00  0.00    -0.544 OA
ATOM      8  O   UNL     1      35.337 103.612  76.966  1.00  0.00    -0.544 OA
ENDBRANCH   1   6
BRANCH   1   9
ATOM      9  C   UNL     1      36.318 106.356  75.239  1.00  0.00     0.047 C 
ATOM     10  C   UNL     1      36.698 107.842  75.356  1.00  0.00     0.014 C 
ATOM     11  C   UNL     1      35.997 106.032  73.769  1.00  0.00     0.014 C 
ENDBRANCH   1   9
TORSDOF 3
ENDMDL
MODEL 6
REMARK VINA RESULT:    -3.661      2.753      3.485
REMARK INTER + INTRA:          -4.256
REMARK INTER:                  -4.202
REMARK INTRA:                  -0.055
REMARK UNBOUND:                -0.061
REMARK SMILES CC(C)[C@H]([NH3+])C(=O)[O-]
REMARK SMILES IDX 4 1 5 2 6 6 7 7 8 8 2 9 1 10 3 11
REMARK H PARENT 5 3 5 4 5 5
REMARK Flexibility Score: inf
ROOT
ATOM      1  C   UNL     1      34.700 106.696  74.990  1.00  0.00     0.230 C 
ENDROOT
BRANCH   1   2
ATOM      2  N   UNL     1      34.314 107.211  76.313  1.00  0.00    -0.350 N 
ATOM      3  H   UNL     1      33.417 106.777  76.632  1.00  0.00     0.345 HD
ATOM      4  H   UNL     1      35.066 107.014  77.011  1.00  0.00     0.345 HD
ATOM      5  H   UNL     1      34.194 108.250  76.274  1.00  0.00     0.345 HD
ENDBRANCH   1   2
BRANCH   1   6
ATOM      6  C   UNL     1      34.042 105.357  74.766  1.00  0.00     0.099 C 
ATOM      7  O   UNL     1      34.537 104.315  75.271  1.00  0.00    -0.544 OA
ATOM      8  O   UNL     1      32.885 105.265  74.003  1.00  0.00    -0.544 OA
ENDBRANCH   1   6
BRANCH   1   9
ATOM      9  C   UNL     1      36.247 106.583  74.840  1.00  0.00     0.047 C 
ATOM     10  C   UNL     1      36.967 107.841  75.355  1.00  0.00     0.014 C 
ATOM     11  C   UNL     1      36.648 106.335  73.375  1.00  0.00     0.014 C 
ENDBRANCH   1   9
TORSDOF 3
ENDMDL
MODEL 7
REMARK VINA RESULT:    -3.628      2.702      3.394
REMARK INTER + INTRA:          -4.219
REMARK INTER:                  -4.195
REMARK INTRA:                  -0.024
REMARK UNBOUND:                -0.061
REMARK SMILES CC(C)[C@H]([NH3+])C(=O)[O-]
REMARK SMILES IDX 4 1 5 2 6 6 7 7 8 8 2 9 1 10 3 11
REMARK H PARENT 5 3 5 4 5 5
REMARK Flexibility Score: inf
ROOT
ATOM      1  C   UNL     1      35.567 106.943  76.775  1.00  0.00     0.230 C 
ENDROOT
BRANCH   1   2
ATOM      2  N   UNL     1      34.101 106.833  76.836  1.00  0.00    -0.350 N 
ATOM      3  H   UNL     1      33.814 106.044  77.461  1.00  0.00     0.345 HD
ATOM      4  H   UNL     1      33.686 107.726  77.185  1.00  0.00     0.345 HD
ATOM      5  H   UNL     1      33.713 106.667  75.878  1.00  0.00     0.345 HD
ENDBRANCH   1   2
BRANCH   1   6
ATOM      6  C   UNL     1      35.988 107.200  75.349  1.00  0.00     0.099 C 
ATOM      7  O   UNL     1      35.457 106.557  74.405  1.00  0.00    -0.544 OA
ATOM      8  O   UNL     1      36.963 108.149  75.068  1.00  0.00    -0.544 OA
ENDBRANCH   1   6
BRANCH   1   9
ATOM      9  C   UNL     1      36.268 105.668  77.335  1.00  0.00     0.047 C 
ATOM     10  C   UNL     1      35.428 104.402  77.100  1.00  0.00     0.014 C 
ATOM     11  C   UNL     1      36.559 105.808  78.840  1.00  0.00     0.014 C 
ENDBRANCH   1   9
TORSDOF 3
ENDMDL
MODEL 8
REMARK VINA RESULT:    -3.586      2.083      3.249
REMARK INTER + INTRA:          -4.171
REMARK INTER:                  -4.116
REMARK INTRA:                  -0.055
REMARK UNBOUND:                -0.061
REMARK SMILES CC(C)[C@H]([NH3+])C(=O)[O-]
REMARK SMILES IDX 4 1 5 2 6 6 7 7 8 8 2 9 1 10 3 11
REMARK H PARENT 5 3 5 4 5 5
REMARK Flexibility Score: inf
ROOT
ATOM      1  C   UNL     1      36.680 107.072  75.523  1.00  0.00     0.230 C 
ENDROOT
BRANCH   1   2
ATOM      2  N   UNL     1      37.208 108.273  74.858  1.00  0.00    -0.350 N 
ATOM      3  H   UNL     1      38.218 108.149  74.615  1.00  0.00     0.345 HD
ATOM      4  H   UNL     1      36.661 108.476  73.991  1.00  0.00     0.345 HD
ATOM      5  H   UNL     1      37.109 109.104  75.487  1.00  0.00     0.345 HD
ENDBRANCH   1   2
BRANCH   1   6
ATOM      6  C   UNL     1      35.669 106.407  74.621  1.00  0.00     0.099 C 
ATOM      7  O   UNL     1      36.046 105.804  73.581  1.00  0.00    -0.544 OA
ATOM      8  O   UNL     1      34.317 106.456  74.932  1.00  0.00    -0.544 OA
ENDBRANCH   1   6
BRANCH   1   9
ATOM      9  C   UNL     1      36.049 107.405  76.908  1.00  0.00     0.047 C 
ATOM     10  C   UNL     1      36.628 108.698  77.506  1.00  0.00     0.014 C 
ATOM     11  C   UNL     1      36.254 106.251  77.906  1.00  0.00     0.014 C 
ENDBRANCH   1   9
TORSDOF 3
ENDMDL
MODEL 9
REMARK VINA RESULT:    -3.579      2.407      3.059
REMARK INTER + INTRA:          -4.162
REMARK INTER:                  -4.106
REMARK INTRA:                  -0.056
REMARK UNBOUND:                -0.061
REMARK SMILES CC(C)[C@H]([NH3+])C(=O)[O-]
REMARK SMILES IDX 4 1 5 2 6 6 7 7 8 8 2 9 1 10 3 11
REMARK H PARENT 5 3 5 4 5 5
REMARK Flexibility Score: inf
ROOT
ATOM      1  C   UNL     1      36.254 106.657  75.673  1.00  0.00     0.230 C 
ENDROOT
BRANCH   1   2
ATOM      2  N   UNL     1      35.834 107.890  76.355  1.00  0.00    -0.350 N 
ATOM      3  H   UNL     1      34.791 107.986  76.339  1.00  0.00     0.345 HD
ATOM      4  H   UNL     1      36.170 107.890  77.345  1.00  0.00     0.345 HD
ATOM      5  H   UNL     1      36.259 108.724  75.886  1.00  0.00     0.345 HD
ENDBRANCH   1   2
BRANCH   1   6
ATOM      6  C   UNL     1      36.714 106.993  74.276  1.00  0.00     0.099 C 
ATOM      7  O   UNL     1      37.046 108.172  73.984  1.00  0.00    -0.544 OA
ATOM      8  O   UNL     1      36.776 106.003  73.303  1.00  0.00    -0.544 OA
ENDBRANCH   1   6
BRANCH   1   9
ATOM      9  C   UNL     1      35.114 105.596  75.638  1.00  0.00     0.047 C 
ATOM     10  C   UNL     1      33.722 106.250  75.615  1.00  0.00     0.014 C 
ATOM     11  C   UNL     1      35.202 104.641  76.842  1.00  0.00     0.014 C 
ENDBRANCH   1   9
TORSDOF 3
ENDMDL
