MODEL 1
REMARK VINA RESULT:    -4.584      0.000      0.000
REMARK INTER + INTRA:          -4.718
REMARK INTER:                  -4.718
REMARK INTRA:                   0.000
REMARK UNBOUND:                 0.000
REMARK SMILES Nc1ncnc2nc[nH]c12
REMARK SMILES IDX 8 1 7 2 6 3 5 4 4 5 3 6 2 7 10 8 9 9 1 11
REMARK H PARENT 9 10 1 12 1 13
REMARK Flexibility Score: inf
ROOT
ATOM      1  C   UNL     1     122.516 124.148 104.361  1.00  0.00     0.199 A 
ATOM      2  N   UNL     1     122.902 122.924 104.814  1.00  0.00    -0.217 NA
ATOM      3  C   UNL     1     124.220 123.097 105.016  1.00  0.00     0.182 A 
ATOM      4  N   UNL     1     125.096 122.170 105.471  1.00  0.00    -0.215 NA
ATOM      5  C   UNL     1     126.406 122.535 105.612  1.00  0.00     0.226 A 
ATOM      6  N   UNL     1     126.812 123.808 105.299  1.00  0.00    -0.217 NA
ATOM      7  C   UNL     1     125.930 124.743 104.839  1.00  0.00     0.152 A 
ATOM      8  C   UNL     1     124.600 124.356 104.700  1.00  0.00     0.127 A 
ATOM      9  N   UNL     1     123.531 125.046 104.281  1.00  0.00    -0.340 N 
ATOM     10  H   UNL     1     123.478 126.039 103.964  1.00  0.00     0.168 HD
ENDROOT
BRANCH   7  11
ATOM     11  N   UNL     1     126.376 126.063 104.518  1.00  0.00    -0.382 N 
ATOM     12  H   UNL     1     127.391 126.300 104.486  1.00  0.00     0.158 HD
ATOM     13  H   UNL     1     125.681 126.812 104.311  1.00  0.00     0.158 HD
ENDBRANCH   7  11
TORSDOF 1
ENDMDL
MODEL 2
REMARK VINA RESULT:    -4.545      1.114      2.937
REMARK INTER + INTRA:          -4.677
REMARK INTER:                  -4.677
REMARK INTRA:                   0.000
REMARK UNBOUND:                 0.000
REMARK SMILES Nc1ncnc2nc[nH]c12
REMARK SMILES IDX 8 1 7 2 6 3 5 4 4 5 3 6 2 7 10 8 9 9 1 11
REMARK H PARENT 9 10 1 12 1 13
REMARK Flexibility Score: inf
ROOT
ATOM      1  C   UNL     1     127.333 123.416 105.479  1.00  0.00     0.199 A 
ATOM      2  N   UNL     1     126.462 122.385 105.647  1.00  0.00    -0.217 NA
ATOM      3  C   UNL     1     125.296 122.929 105.257  1.00  0.00     0.182 A 
ATOM      4  N   UNL     1     124.088 122.317 105.229  1.00  0.00    -0.215 NA
ATOM      5  C   UNL     1     123.009 123.039 104.799  1.00  0.00     0.226 A 
ATOM      6  N   UNL     1     123.157 124.346 104.409  1.00  0.00    -0.217 NA
ATOM      7  C   UNL     1     124.374 124.965 104.438  1.00  0.00     0.152 A 
ATOM      8  C   UNL     1     125.463 124.216 104.878  1.00  0.00     0.127 A 
ATOM      9  N   UNL     1     126.753 124.550 105.010  1.00  0.00    -0.340 N 
ATOM     10  H   UNL     1     127.216 125.463 104.805  1.00  0.00     0.168 HD
ENDROOT
BRANCH   7  11
ATOM     11  N   UNL     1     124.504 126.327 104.027  1.00  0.00    -0.382 N 
ATOM     12  H   UNL     1     124.244 127.113 104.662  1.00  0.00     0.158 HD
ATOM     13  H   UNL     1     124.865 126.552 103.075  1.00  0.00     0.158 HD
ENDBRANCH   7  11
TORSDOF 1
ENDMDL
MODEL 3
REMARK VINA RESULT:    -4.517      1.372      2.425
REMARK INTER + INTRA:          -4.649
REMARK INTER:                  -4.649
REMARK INTRA:                   0.000
REMARK UNBOUND:                 0.000
REMARK SMILES Nc1ncnc2nc[nH]c12
REMARK SMILES IDX 8 1 7 2 6 3 5 4 4 5 3 6 2 7 10 8 9 9 1 11
REMARK H PARENT 9 10 1 12 1 13
REMARK Flexibility Score: inf
ROOT
ATOM      1  C   UNL     1     123.744 125.346 104.438  1.00  0.00     0.199 A 
ATOM      2  N   UNL     1     123.000 124.423 103.770  1.00  0.00    -0.217 NA
ATOM      3  C   UNL     1     123.598 123.269 104.116  1.00  0.00     0.182 A 
ATOM      4  N   UNL     1     123.244 122.024 103.717  1.00  0.00    -0.215 NA
ATOM      5  C   UNL     1     123.978 120.967 104.178  1.00  0.00     0.226 A 
ATOM      6  N   UNL     1     125.042 121.171 105.021  1.00  0.00    -0.217 NA
ATOM      7  C   UNL     1     125.400 122.427 105.423  1.00  0.00     0.152 A 
ATOM      8  C   UNL     1     124.643 123.493 104.945  1.00  0.00     0.127 A 
ATOM      9  N   UNL     1     124.756 124.809 105.165  1.00  0.00    -0.340 N 
ATOM     10  H   UNL     1     125.454 125.315 105.755  1.00  0.00     0.168 HD
ENDROOT
BRANCH   7  11
ATOM     11  N   UNL     1     126.512 122.616 106.301  1.00  0.00    -0.382 N 
ATOM     12  H   UNL     1     127.485 122.392 106.000  1.00  0.00     0.158 HD
ATOM     13  H   UNL     1     126.359 122.985 107.264  1.00  0.00     0.158 HD
ENDBRANCH   7  11
TORSDOF 1
ENDMDL
MODEL 4
REMARK VINA RESULT:    -4.510      5.608      7.528
REMARK INTER + INTRA:          -4.642
REMARK INTER:                  -4.642
REMARK INTRA:                   0.000
REMARK UNBOUND:                 0.000
REMARK SMILES Nc1ncnc2nc[nH]c12
REMARK SMILES IDX 8 1 7 2 6 3 5 4 4 5 3 6 2 7 10 8 9 9 1 11
REMARK H PARENT 9 10 1 12 1 13
REMARK Flexibility Score: inf
ROOT
ATOM      1  C   UNL     1     128.218 127.540 102.892  1.00  0.00     0.199 A 
ATOM      2  N   UNL     1     126.995 128.136 102.882  1.00  0.00    -0.217 NA
ATOM      3  C   UNL     1     127.304 129.425 103.109  1.00  0.00     0.182 A 
ATOM      4  N   UNL     1     126.435 130.460 103.197  1.00  0.00    -0.215 NA
ATOM      5  C   UNL     1     126.941 131.708 103.434  1.00  0.00     0.226 A 
ATOM      6  N   UNL     1     128.293 131.896 103.575  1.00  0.00    -0.217 NA
ATOM      7  C   UNL     1     129.170 130.853 103.487  1.00  0.00     0.152 A 
ATOM      8  C   UNL     1     128.639 129.588 103.246  1.00  0.00     0.127 A 
ATOM      9  N   UNL     1     129.244 128.401 103.111  1.00  0.00    -0.340 N 
ATOM     10  H   UNL     1     130.262 128.178 103.161  1.00  0.00     0.168 HD
ENDROOT
BRANCH   7  11
ATOM     11  N   UNL     1     130.574 131.073 103.638  1.00  0.00    -0.382 N 
ATOM     12  H   UNL     1     131.206 130.323 103.992  1.00  0.00     0.158 HD
ATOM     13  H   UNL     1     130.986 131.998 103.391  1.00  0.00     0.158 HD
ENDBRANCH   7  11
TORSDOF 1
ENDMDL
MODEL 5
REMARK VINA RESULT:    -4.491      1.478      3.219
REMARK INTER + INTRA:          -4.622
REMARK INTER:                  -4.622
REMARK INTRA:                   0.000
REMARK UNBOUND:                 0.000
REMARK SMILES Nc1ncnc2nc[nH]c12
REMARK SMILES IDX 8 1 7 2 6 3 5 4 4 5 3 6 2 7 10 8 9 9 1 11
REMARK H PARENT 9 10 1 12 1 13
REMARK Flexibility Score: inf
ROOT
ATOM      1  C   UNL     1     127.815 123.013 105.612  1.00  0.00     0.199 A 
ATOM      2  N   UNL     1     126.513 122.703 105.859  1.00  0.00    -0.217 NA
ATOM      3  C   UNL     1     125.859 123.682 105.210  1.00  0.00     0.182 A 
ATOM      4  N   UNL     1     124.516 123.845 105.136  1.00  0.00    -0.215 NA
ATOM      5  C   UNL     1     124.034 124.908 104.425  1.00  0.00     0.226 A 
ATOM      6  N   UNL     1     124.895 125.780 103.807  1.00  0.00    -0.217 NA
ATOM      7  C   UNL     1     126.249 125.617 103.881  1.00  0.00     0.152 A 
ATOM      8  C   UNL     1     126.724 124.530 104.609  1.00  0.00     0.127 A 
ATOM      9  N   UNL     1     127.977 124.124 104.851  1.00  0.00    -0.340 N 
ATOM     10  H   UNL     1     128.875 124.553 104.534  1.00  0.00     0.168 HD
ENDROOT
BRANCH   7  11
ATOM     11  N   UNL     1     127.125 126.538 103.229  1.00  0.00    -0.382 N 
ATOM     12  H   UNL     1     127.922 126.982 103.737  1.00  0.00     0.158 HD
ATOM     13  H   UNL     1     126.976 126.779 102.226  1.00  0.00     0.158 HD
ENDBRANCH   7  11
TORSDOF 1
ENDMDL
MODEL 6
REMARK VINA RESULT:    -4.456      1.108      2.802
REMARK INTER + INTRA:          -4.587
REMARK INTER:                  -4.587
REMARK INTRA:                   0.000
REMARK UNBOUND:                 0.000
REMARK SMILES Nc1ncnc2nc[nH]c12
REMARK SMILES IDX 8 1 7 2 6 3 5 4 4 5 3 6 2 7 10 8 9 9 1 11
REMARK H PARENT 9 10 1 12 1 13
REMARK Flexibility Score: inf
ROOT
ATOM      1  C   UNL     1     125.247 121.075 104.756  1.00  0.00     0.199 A 
ATOM      2  N   UNL     1     123.931 121.244 104.456  1.00  0.00    -0.217 NA
ATOM      3  C   UNL     1     123.805 122.583 104.467  1.00  0.00     0.182 A 
ATOM      4  N   UNL     1     122.675 123.290 104.227  1.00  0.00    -0.215 NA
ATOM      5  C   UNL     1     122.745 124.654 104.284  1.00  0.00     0.226 A 
ATOM      6  N   UNL     1     123.931 125.280 104.576  1.00  0.00    -0.217 NA
ATOM      7  C   UNL     1     125.070 124.567 104.820  1.00  0.00     0.152 A 
ATOM      8  C   UNL     1     124.983 123.179 104.758  1.00  0.00     0.127 A 
ATOM      9  N   UNL     1     125.918 122.239 104.946  1.00  0.00    -0.340 N 
ATOM     10  H   UNL     1     126.927 122.360 105.183  1.00  0.00     0.168 HD
ENDROOT
BRANCH   7  11
ATOM     11  N   UNL     1     126.294 125.241 105.123  1.00  0.00    -0.382 N 
ATOM     12  H   UNL     1     127.196 124.722 105.195  1.00  0.00     0.158 HD
ATOM     13  H   UNL     1     126.297 126.272 105.276  1.00  0.00     0.158 HD
ENDBRANCH   7  11
TORSDOF 1
ENDMDL
MODEL 7
REMARK VINA RESULT:    -4.442      1.470      2.782
REMARK INTER + INTRA:          -4.572
REMARK INTER:                  -4.572
REMARK INTRA:                   0.000
REMARK UNBOUND:                 0.000
REMARK SMILES Nc1ncnc2nc[nH]c12
REMARK SMILES IDX 8 1 7 2 6 3 5 4 4 5 3 6 2 7 10 8 9 9 1 11
REMARK H PARENT 9 10 1 12 1 13
REMARK Flexibility Score: inf
ROOT
ATOM      1  C   UNL     1     122.742 124.546 104.179  1.00  0.00     0.199 A 
ATOM      2  N   UNL     1     123.861 124.821 104.902  1.00  0.00    -0.217 NA
ATOM      3  C   UNL     1     124.557 123.676 104.799  1.00  0.00     0.182 A 
ATOM      4  N   UNL     1     125.768 123.414 105.347  1.00  0.00    -0.215 NA
ATOM      5  C   UNL     1     126.321 122.182 105.130  1.00  0.00     0.226 A 
ATOM      6  N   UNL     1     125.660 121.245 104.376  1.00  0.00    -0.217 NA
ATOM      7  C   UNL     1     124.439 121.508 103.824  1.00  0.00     0.152 A 
ATOM      8  C   UNL     1     123.889 122.766 104.054  1.00  0.00     0.127 A 
ATOM      9  N   UNL     1     122.729 123.297 103.647  1.00  0.00    -0.340 N 
ATOM     10  H   UNL     1     121.983 122.864 103.060  1.00  0.00     0.168 HD
ENDROOT
BRANCH   7  11
ATOM     11  N   UNL     1     123.769 120.516 103.044  1.00  0.00    -0.382 N 
ATOM     12  H   UNL     1     124.170 120.170 102.145  1.00  0.00     0.158 HD
ATOM     13  H   UNL     1     122.860 120.122 103.370  1.00  0.00     0.158 HD
ENDBRANCH   7  11
TORSDOF 1
ENDMDL
MODEL 8
REMARK VINA RESULT:    -4.026      2.050      2.694
REMARK INTER + INTRA:          -4.143
REMARK INTER:                  -4.143
REMARK INTRA:                   0.000
REMARK UNBOUND:                 0.000
REMARK SMILES Nc1ncnc2nc[nH]c12
REMARK SMILES IDX 8 1 7 2 6 3 5 4 4 5 3 6 2 7 10 8 9 9 1 11
REMARK H PARENT 9 10 1 12 1 13
REMARK Flexibility Score: inf
ROOT
ATOM      1  C   UNL     1     125.370 124.494 105.772  1.00  0.00     0.199 A 
ATOM      2  N   UNL     1     125.417 123.168 105.469  1.00  0.00    -0.217 NA
ATOM      3  C   UNL     1     126.432 123.112 104.590  1.00  0.00     0.182 A 
ATOM      4  N   UNL     1     126.902 122.004 103.969  1.00  0.00    -0.215 NA
ATOM      5  C   UNL     1     127.949 122.147 103.102  1.00  0.00     0.226 A 
ATOM      6  N   UNL     1     128.503 123.381 102.875  1.00  0.00    -0.217 NA
ATOM      7  C   UNL     1     128.030 124.499 103.501  1.00  0.00     0.152 A 
ATOM      8  C   UNL     1     126.963 124.338 104.381  1.00  0.00     0.127 A 
ATOM      9  N   UNL     1     126.303 125.236 105.124  1.00  0.00    -0.340 N 
ATOM     10  H   UNL     1     126.459 126.265 105.195  1.00  0.00     0.168 HD
ENDROOT
BRANCH   7  11
ATOM     11  N   UNL     1     128.622 125.775 103.249  1.00  0.00    -0.382 N 
ATOM     12  H   UNL     1     129.423 125.882 102.589  1.00  0.00     0.158 HD
ATOM     13  H   UNL     1     128.255 126.625 103.730  1.00  0.00     0.158 HD
ENDBRANCH   7  11
TORSDOF 1
ENDMDL
