MODEL 1
REMARK VINA RESULT:    -0.079      0.000      0.000
REMARK INTER + INTRA:          -0.320
REMARK INTER:                  -0.093
REMARK INTRA:                  -0.227
REMARK UNBOUND:                -0.227
REMARK SMILES O=c1c(O)c(-c2ccc(O)cc2)oc2cc(O)cc(O)c12
REMARK SMILES IDX 5 1 3 2 2 3 1 4 21 5 19 6 18 7 16 8 15 9 14 10 13 11 6 12
REMARK SMILES IDX 7 13 8 14 9 15 12 16 11 17 10 18 4 20 20 22 17 24
REMARK H PARENT 10 19 4 21 20 23 17 25
REMARK Flexibility Score: inf
ROOT
ATOM      1  C   UNL     1      13.229  -9.768 -28.147  1.00  0.00     0.180 A 
ATOM      2  C   UNL     1      13.918 -10.536 -27.189  1.00  0.00     0.208 A 
ATOM      3  C   UNL     1      13.481 -11.844 -26.927  1.00  0.00     0.238 A 
ATOM      4  O   UNL     1      14.083 -12.537 -26.062  1.00  0.00    -0.285 OA
ATOM      5  C   UNL     1      12.380 -12.366 -27.636  1.00  0.00     0.111 A 
ATOM      6  C   UNL     1      11.879 -13.675 -27.434  1.00  0.00     0.134 A 
ATOM      7  C   UNL     1      10.785 -14.125 -28.188  1.00  0.00     0.093 A 
ATOM      8  C   UNL     1      10.184 -13.296 -29.136  1.00  0.00     0.123 A 
ATOM      9  C   UNL     1      10.675 -12.001 -29.340  1.00  0.00     0.094 A 
ATOM     10  C   UNL     1      11.763 -11.533 -28.598  1.00  0.00     0.146 A 
ATOM     11  O   UNL     1      12.206 -10.299 -28.808  1.00  0.00    -0.452 OA
ENDROOT
BRANCH   1  12
ATOM     12  C   UNL     1      13.619  -8.375 -28.466  1.00  0.00     0.021 A 
ATOM     13  C   UNL     1      14.748  -8.140 -29.268  1.00  0.00     0.016 A 
ATOM     14  C   UNL     1      15.122  -6.834 -29.601  1.00  0.00     0.047 A 
ATOM     15  C   UNL     1      14.362  -5.748 -29.147  1.00  0.00     0.115 A 
ATOM     16  C   UNL     1      12.850  -7.280 -28.033  1.00  0.00     0.016 A 
ATOM     17  C   UNL     1      13.225  -5.975 -28.367  1.00  0.00     0.047 A 
BRANCH  15  18
ATOM     18  O   UNL     1      14.724  -4.443 -29.472  1.00  0.00    -0.508 OA
ATOM     19  H   UNL     1      15.620  -4.231 -29.894  1.00  0.00     0.293 HD
ENDBRANCH  15  18
ENDBRANCH   1  12
BRANCH   2  20
ATOM     20  O   UNL     1      15.037 -10.013 -26.535  1.00  0.00    -0.502 OA
ATOM     21  H   UNL     1      15.249 -10.224 -25.567  1.00  0.00     0.293 HD
ENDBRANCH   2  20
BRANCH   6  22
ATOM     22  O   UNL     1      12.458 -14.529 -26.494  1.00  0.00    -0.507 OA
ATOM     23  H   UNL     1      12.390 -14.352 -25.499  1.00  0.00     0.293 HD
ENDBRANCH   6  22
BRANCH   8  24
ATOM     24  O   UNL     1       9.099 -13.767 -29.872  1.00  0.00    -0.508 OA
ATOM     25  H   UNL     1       9.196 -14.534 -30.528  1.00  0.00     0.293 HD
ENDBRANCH   8  24
TORSDOF 5
ENDMDL
MODEL 2
REMARK VINA RESULT:     1.408      2.051      3.241
REMARK INTER + INTRA:           1.428
REMARK INTER:                   1.654
REMARK INTRA:                  -0.226
REMARK UNBOUND:                -0.227
REMARK SMILES O=c1c(O)c(-c2ccc(O)cc2)oc2cc(O)cc(O)c12
REMARK SMILES IDX 5 1 3 2 2 3 1 4 21 5 19 6 18 7 16 8 15 9 14 10 13 11 6 12
REMARK SMILES IDX 7 13 8 14 9 15 12 16 11 17 10 18 4 20 20 22 17 24
REMARK H PARENT 10 19 4 21 20 23 17 25
REMARK Flexibility Score: inf
ROOT
ATOM      1  C   UNL     1      12.353 -10.008 -27.826  1.00  0.00     0.180 A 
ATOM      2  C   UNL     1      11.997 -11.050 -28.705  1.00  0.00     0.208 A 
ATOM      3  C   UNL     1      11.448 -12.227 -28.173  1.00  0.00     0.238 A 
ATOM      4  O   UNL     1      11.136 -13.171 -28.950  1.00  0.00    -0.285 OA
ATOM      5  C   UNL     1      11.246 -12.336 -26.782  1.00  0.00     0.111 A 
ATOM      6  C   UNL     1      10.695 -13.486 -26.168  1.00  0.00     0.134 A 
ATOM      7  C   UNL     1      10.517 -13.513 -24.777  1.00  0.00     0.093 A 
ATOM      8  C   UNL     1      10.877 -12.418 -23.990  1.00  0.00     0.123 A 
ATOM      9  C   UNL     1      11.422 -11.278 -24.592  1.00  0.00     0.094 A 
ATOM     10  C   UNL     1      11.610 -11.232 -25.977  1.00  0.00     0.146 A 
ATOM     11  O   UNL     1      12.134 -10.140 -26.522  1.00  0.00    -0.452 OA
ENDROOT
BRANCH   1  12
ATOM     12  C   UNL     1      12.955  -8.745 -28.309  1.00  0.00     0.021 A 
ATOM     13  C   UNL     1      12.210  -7.555 -28.243  1.00  0.00     0.016 A 
ATOM     14  C   UNL     1      12.765  -6.346 -28.671  1.00  0.00     0.047 A 
ATOM     15  C   UNL     1      14.079  -6.308 -29.157  1.00  0.00     0.115 A 
ATOM     16  C   UNL     1      14.280  -8.694 -28.778  1.00  0.00     0.016 A 
ATOM     17  C   UNL     1      14.834  -7.483 -29.206  1.00  0.00     0.047 A 
BRANCH  15  18
ATOM     18  O   UNL     1      14.643  -5.109 -29.586  1.00  0.00    -0.508 OA
ATOM     19  H   UNL     1      15.513  -4.765 -29.200  1.00  0.00     0.293 HD
ENDBRANCH  15  18
ENDBRANCH   1  12
BRANCH   2  20
ATOM     20  O   UNL     1      12.161 -10.898 -30.084  1.00  0.00    -0.502 OA
ATOM     21  H   UNL     1      11.563 -10.298 -30.639  1.00  0.00     0.293 HD
ENDBRANCH   2  20
BRANCH   6  22
ATOM     22  O   UNL     1      10.324 -14.598 -26.925  1.00  0.00    -0.507 OA
ATOM     23  H   UNL     1      10.552 -15.542 -26.635  1.00  0.00     0.293 HD
ENDBRANCH   6  22
BRANCH   8  24
ATOM     24  O   UNL     1      10.689 -12.470 -22.611  1.00  0.00    -0.508 OA
ATOM     25  H   UNL     1      10.258 -11.705 -22.105  1.00  0.00     0.293 HD
ENDBRANCH   8  24
TORSDOF 5
ENDMDL
MODEL 3
REMARK VINA RESULT:     1.945      1.966      3.140
REMARK INTER + INTRA:           2.060
REMARK INTER:                   1.581
REMARK INTRA:                   0.479
REMARK UNBOUND:                -0.227
REMARK SMILES O=c1c(O)c(-c2ccc(O)cc2)oc2cc(O)cc(O)c12
REMARK SMILES IDX 5 1 3 2 2 3 1 4 21 5 19 6 18 7 16 8 15 9 14 10 13 11 6 12
REMARK SMILES IDX 7 13 8 14 9 15 12 16 11 17 10 18 4 20 20 22 17 24
REMARK H PARENT 10 19 4 21 20 23 17 25
REMARK Flexibility Score: inf
ROOT
ATOM      1  C   UNL     1      13.294  -9.789 -27.605  1.00  0.00     0.180 A 
ATOM      2  C   UNL     1      12.032 -10.040 -27.032  1.00  0.00     0.208 A 
ATOM      3  C   UNL     1      11.773 -11.309 -26.492  1.00  0.00     0.238 A 
ATOM      4  O   UNL     1      10.642 -11.549 -25.986  1.00  0.00    -0.285 OA
ATOM      5  C   UNL     1      12.780 -12.296 -26.515  1.00  0.00     0.111 A 
ATOM      6  C   UNL     1      12.601 -13.597 -25.989  1.00  0.00     0.134 A 
ATOM      7  C   UNL     1      13.656 -14.520 -26.041  1.00  0.00     0.093 A 
ATOM      8  C   UNL     1      14.883 -14.168 -26.607  1.00  0.00     0.123 A 
ATOM      9  C   UNL     1      15.066 -12.883 -27.129  1.00  0.00     0.094 A 
ATOM     10  C   UNL     1      14.026 -11.949 -27.088  1.00  0.00     0.146 A 
ATOM     11  O   UNL     1      14.224 -10.738 -27.595  1.00  0.00    -0.452 OA
ENDROOT
BRANCH   1  12
ATOM     12  C   UNL     1      13.636  -8.482 -28.211  1.00  0.00     0.021 A 
ATOM     13  C   UNL     1      12.888  -7.343 -27.865  1.00  0.00     0.016 A 
ATOM     14  C   UNL     1      13.207  -6.095 -28.407  1.00  0.00     0.047 A 
ATOM     15  C   UNL     1      14.287  -5.966 -29.290  1.00  0.00     0.115 A 
ATOM     16  C   UNL     1      14.732  -8.340 -29.082  1.00  0.00     0.016 A 
ATOM     17  C   UNL     1      15.049  -7.090 -29.622  1.00  0.00     0.047 A 
BRANCH  15  18
ATOM     18  O   UNL     1      14.614  -4.727 -29.837  1.00  0.00    -0.508 OA
ATOM     19  H   UNL     1      15.220  -4.648 -30.645  1.00  0.00     0.293 HD
ENDBRANCH  15  18
ENDBRANCH   1  12
BRANCH   2  20
ATOM     20  O   UNL     1      11.068  -9.030 -26.977  1.00  0.00    -0.502 OA
ATOM     21  H   UNL     1      10.306  -9.042 -26.309  1.00  0.00     0.293 HD
ENDBRANCH   2  20
BRANCH   6  22
ATOM     22  O   UNL     1      11.387 -13.981 -25.416  1.00  0.00    -0.507 OA
ATOM     23  H   UNL     1      10.999 -13.496 -24.615  1.00  0.00     0.293 HD
ENDBRANCH   6  22
BRANCH   8  24
ATOM     24  O   UNL     1      15.915 -15.103 -26.646  1.00  0.00    -0.508 OA
ATOM     25  H   UNL     1      16.147 -15.602 -27.498  1.00  0.00     0.293 HD
ENDBRANCH   8  24
TORSDOF 5
ENDMDL
