MODEL 1
REMARK VINA RESULT:    -4.286      0.000      0.000
REMARK INTER + INTRA:          -8.537
REMARK INTER:                  -7.918
REMARK INTRA:                  -0.619
REMARK UNBOUND:                -0.619
REMARK SMILES CCCCCCCCCCCCCCCCO
REMARK SMILES IDX 9 1 8 2 7 3 6 4 5 5 4 6 3 7 2 8 1 9 10 10 11 11 12 12 13 13
REMARK SMILES IDX 14 14 15 15 16 16 17 17
REMARK H PARENT 17 18
REMARK Flexibility Score: inf
ROOT
ATOM      1  C   UNL     1       0.537  -6.202  -1.640  1.00  0.00     0.000 C 
ENDROOT
BRANCH   1   2
ATOM      2  C   UNL     1       0.732  -4.757  -2.126  1.00  0.00    -0.000 C 
BRANCH   2   3
ATOM      3  C   UNL     1       0.344  -3.718  -1.059  1.00  0.00    -0.000 C 
BRANCH   3   4
ATOM      4  C   UNL     1       0.762  -2.290  -1.449  1.00  0.00    -0.000 C 
BRANCH   4   5
ATOM      5  C   UNL     1       1.125  -2.163  -2.939  1.00  0.00    -0.000 C 
BRANCH   5   6
ATOM      6  C   UNL     1       2.538  -1.602  -3.157  1.00  0.00    -0.000 C 
BRANCH   6   7
ATOM      7  C   UNL     1       3.054  -0.815  -1.943  1.00  0.00    -0.000 C 
BRANCH   7   8
ATOM      8  C   UNL     1       4.573  -0.624  -2.020  1.00  0.00    -0.003 C 
ATOM      9  C   UNL     1       5.133  -0.114  -0.696  1.00  0.00     0.004 C 
ENDBRANCH   7   8
ENDBRANCH   6   7
ENDBRANCH   5   6
ENDBRANCH   4   5
ENDBRANCH   3   4
ENDBRANCH   2   3
ENDBRANCH   1   2
BRANCH   1  10
ATOM     10  C   UNL     1      -0.757  -6.835  -2.181  1.00  0.00     0.000 C 
BRANCH  10  11
ATOM     11  C   UNL     1      -0.815  -8.358  -1.959  1.00  0.00     0.000 C 
BRANCH  11  12
ATOM     12  C   UNL     1      -1.045  -8.801  -0.499  1.00  0.00     0.000 C 
BRANCH  12  13
ATOM     13  C   UNL     1      -1.726 -10.171  -0.333  1.00  0.00     0.000 C 
BRANCH  13  14
ATOM     14  C   UNL     1      -2.000 -10.525   1.139  1.00  0.00     0.002 C 
BRANCH  14  15
ATOM     15  C   UNL     1      -2.186  -9.280   2.019  1.00  0.00     0.028 C 
BRANCH  15  16
ATOM     16  C   UNL     1      -2.509  -9.630   3.477  1.00  0.00     0.156 C 
BRANCH  16  17
ATOM     17  O   UNL     1      -1.718  -8.863   4.344  1.00  0.00    -0.396 OA
ATOM     18  H   UNL     1      -0.773  -9.095   4.149  1.00  0.00     0.210 HD
ENDBRANCH  16  17
ENDBRANCH  15  16
ENDBRANCH  14  15
ENDBRANCH  13  14
ENDBRANCH  12  13
ENDBRANCH  11  12
ENDBRANCH  10  11
ENDBRANCH   1  10
TORSDOF 15
ENDMDL
MODEL 2
REMARK VINA RESULT:    -4.035      8.756     10.885
REMARK INTER + INTRA:          -8.074
REMARK INTER:                  -6.013
REMARK INTRA:                  -2.061
REMARK UNBOUND:                -0.619
REMARK SMILES CCCCCCCCCCCCCCCCO
REMARK SMILES IDX 9 1 8 2 7 3 6 4 5 5 4 6 3 7 2 8 1 9 10 10 11 11 12 12 13 13
REMARK SMILES IDX 14 14 15 15 16 16 17 17
REMARK H PARENT 17 18
REMARK Flexibility Score: inf
ROOT
ATOM      1  C   UNL     1      -4.561  -4.091   5.098  1.00  0.00     0.000 C 
ENDROOT
BRANCH   1   2
ATOM      2  C   UNL     1      -3.766  -2.794   5.317  1.00  0.00    -0.000 C 
BRANCH   2   3
ATOM      3  C   UNL     1      -3.666  -2.407   6.803  1.00  0.00    -0.000 C 
BRANCH   3   4
ATOM      4  C   UNL     1      -4.811  -1.480   7.247  1.00  0.00    -0.000 C 
BRANCH   4   5
ATOM      5  C   UNL     1      -5.401  -0.665   6.083  1.00  0.00    -0.000 C 
BRANCH   5   6
ATOM      6  C   UNL     1      -6.913  -0.439   6.227  1.00  0.00    -0.000 C 
BRANCH   6   7
ATOM      7  C   UNL     1      -7.737  -1.660   5.793  1.00  0.00    -0.000 C 
BRANCH   7   8
ATOM      8  C   UNL     1      -8.827  -1.980   6.823  1.00  0.00    -0.003 C 
ATOM      9  C   UNL     1     -10.108  -2.451   6.142  1.00  0.00     0.004 C 
ENDBRANCH   7   8
ENDBRANCH   6   7
ENDBRANCH   5   6
ENDBRANCH   4   5
ENDBRANCH   3   4
ENDBRANCH   2   3
ENDBRANCH   1   2
BRANCH   1  10
ATOM     10  C   UNL     1      -4.067  -5.244   5.990  1.00  0.00     0.000 C 
BRANCH  10  11
ATOM     11  C   UNL     1      -5.157  -5.771   6.942  1.00  0.00     0.000 C 
BRANCH  11  12
ATOM     12  C   UNL     1      -6.435  -4.909   7.020  1.00  0.00     0.000 C 
BRANCH  12  13
ATOM     13  C   UNL     1      -7.724  -5.614   6.563  1.00  0.00     0.000 C 
BRANCH  13  14
ATOM     14  C   UNL     1      -7.957  -5.504   5.046  1.00  0.00     0.002 C 
BRANCH  14  15
ATOM     15  C   UNL     1      -9.401  -5.845   4.646  1.00  0.00     0.028 C 
BRANCH  15  16
ATOM     16  C   UNL     1      -9.520  -7.219   3.976  1.00  0.00     0.156 C 
BRANCH  16  17
ATOM     17  O   UNL     1      -8.719  -7.266   2.826  1.00  0.00    -0.396 OA
ATOM     18  H   UNL     1      -9.303  -7.570   2.083  1.00  0.00     0.210 HD
ENDBRANCH  16  17
ENDBRANCH  15  16
ENDBRANCH  14  15
ENDBRANCH  13  14
ENDBRANCH  12  13
ENDBRANCH  11  12
ENDBRANCH  10  11
ENDBRANCH   1  10
TORSDOF 15
ENDMDL
MODEL 3
REMARK VINA RESULT:    -3.943      9.097     12.019
REMARK INTER + INTRA:          -7.904
REMARK INTER:                  -5.929
REMARK INTRA:                  -1.975
REMARK UNBOUND:                -0.619
REMARK SMILES CCCCCCCCCCCCCCCCO
REMARK SMILES IDX 9 1 8 2 7 3 6 4 5 5 4 6 3 7 2 8 1 9 10 10 11 11 12 12 13 13
REMARK SMILES IDX 14 14 15 15 16 16 17 17
REMARK H PARENT 17 18
REMARK Flexibility Score: inf
ROOT
ATOM      1  C   UNL     1      -3.039  -4.033   6.839  1.00  0.00     0.000 C 
ENDROOT
BRANCH   1   2
ATOM      2  C   UNL     1      -3.534  -4.745   8.109  1.00  0.00    -0.000 C 
BRANCH   2   3
ATOM      3  C   UNL     1      -5.038  -5.066   8.057  1.00  0.00    -0.000 C 
BRANCH   3   4
ATOM      4  C   UNL     1      -5.313  -6.568   7.877  1.00  0.00    -0.000 C 
BRANCH   4   5
ATOM      5  C   UNL     1      -6.400  -6.850   6.825  1.00  0.00    -0.000 C 
BRANCH   5   6
ATOM      6  C   UNL     1      -7.459  -5.740   6.757  1.00  0.00    -0.000 C 
BRANCH   6   7
ATOM      7  C   UNL     1      -7.690  -5.229   5.327  1.00  0.00    -0.000 C 
BRANCH   7   8
ATOM      8  C   UNL     1      -9.031  -5.728   4.777  1.00  0.00    -0.003 C 
ATOM      9  C   UNL     1      -8.841  -6.961   3.898  1.00  0.00     0.004 C 
ENDBRANCH   7   8
ENDBRANCH   6   7
ENDBRANCH   5   6
ENDBRANCH   4   5
ENDBRANCH   3   4
ENDBRANCH   2   3
ENDBRANCH   1   2
BRANCH   1  10
ATOM     10  C   UNL     1      -3.615  -4.653   5.554  1.00  0.00     0.000 C 
BRANCH  10  11
ATOM     11  C   UNL     1      -4.486  -3.666   4.753  1.00  0.00     0.000 C 
BRANCH  11  12
ATOM     12  C   UNL     1      -4.666  -2.277   5.399  1.00  0.00     0.000 C 
BRANCH  12  13
ATOM     13  C   UNL     1      -6.125  -1.811   5.544  1.00  0.00     0.000 C 
BRANCH  13  14
ATOM     14  C   UNL     1      -6.631  -1.884   6.995  1.00  0.00     0.002 C 
BRANCH  14  15
ATOM     15  C   UNL     1      -5.961  -0.845   7.907  1.00  0.00     0.028 C 
BRANCH  15  16
ATOM     16  C   UNL     1      -5.927   0.555   7.281  1.00  0.00     0.156 C 
BRANCH  16  17
ATOM     17  O   UNL     1      -7.112   1.245   7.577  1.00  0.00    -0.396 OA
ATOM     18  H   UNL     1      -7.176   1.993   6.928  1.00  0.00     0.210 HD
ENDBRANCH  16  17
ENDBRANCH  15  16
ENDBRANCH  14  15
ENDBRANCH  13  14
ENDBRANCH  12  13
ENDBRANCH  11  12
ENDBRANCH  10  11
ENDBRANCH   1  10
TORSDOF 15
ENDMDL
MODEL 4
REMARK VINA RESULT:    -3.893      7.652     10.054
REMARK INTER + INTRA:          -7.812
REMARK INTER:                  -6.330
REMARK INTRA:                  -1.482
REMARK UNBOUND:                -0.619
REMARK SMILES CCCCCCCCCCCCCCCCO
REMARK SMILES IDX 9 1 8 2 7 3 6 4 5 5 4 6 3 7 2 8 1 9 10 10 11 11 12 12 13 13
REMARK SMILES IDX 14 14 15 15 16 16 17 17
REMARK H PARENT 17 18
REMARK Flexibility Score: inf
ROOT
ATOM      1  C   UNL     1      -5.594  -4.694   5.665  1.00  0.00     0.000 C 
ENDROOT
BRANCH   1   2
ATOM      2  C   UNL     1      -4.892  -3.669   4.759  1.00  0.00    -0.000 C 
BRANCH   2   3
ATOM      3  C   UNL     1      -3.859  -2.820   5.519  1.00  0.00    -0.000 C 
BRANCH   3   4
ATOM      4  C   UNL     1      -4.516  -1.753   6.411  1.00  0.00    -0.000 C 
BRANCH   4   5
ATOM      5  C   UNL     1      -5.629  -0.976   5.686  1.00  0.00    -0.000 C 
BRANCH   5   6
ATOM      6  C   UNL     1      -6.850  -0.720   6.581  1.00  0.00    -0.000 C 
BRANCH   6   7
ATOM      7  C   UNL     1      -6.973  -1.744   7.720  1.00  0.00    -0.000 C 
BRANCH   7   8
ATOM      8  C   UNL     1      -8.108  -2.736   7.444  1.00  0.00    -0.003 C 
ATOM      9  C   UNL     1      -9.231  -2.081   6.645  1.00  0.00     0.004 C 
ENDBRANCH   7   8
ENDBRANCH   6   7
ENDBRANCH   5   6
ENDBRANCH   4   5
ENDBRANCH   3   4
ENDBRANCH   2   3
ENDBRANCH   1   2
BRANCH   1  10
ATOM     10  C   UNL     1      -4.607  -5.464   6.559  1.00  0.00     0.000 C 
BRANCH  10  11
ATOM     11  C   UNL     1      -5.178  -6.801   7.067  1.00  0.00     0.000 C 
BRANCH  11  12
ATOM     12  C   UNL     1      -6.379  -7.348   6.266  1.00  0.00     0.000 C 
BRANCH  12  13
ATOM     13  C   UNL     1      -6.191  -8.766   5.700  1.00  0.00     0.000 C 
BRANCH  13  14
ATOM     14  C   UNL     1      -4.740  -9.266   5.815  1.00  0.00     0.002 C 
BRANCH  14  15
ATOM     15  C   UNL     1      -4.243  -9.936   4.526  1.00  0.00     0.028 C 
BRANCH  15  16
ATOM     16  C   UNL     1      -2.880  -9.401   4.069  1.00  0.00     0.156 C 
BRANCH  16  17
ATOM     17  O   UNL     1      -2.613  -8.171   4.689  1.00  0.00    -0.396 OA
ATOM     18  H   UNL     1      -3.051  -7.472   4.136  1.00  0.00     0.210 HD
ENDBRANCH  16  17
ENDBRANCH  15  16
ENDBRANCH  14  15
ENDBRANCH  13  14
ENDBRANCH  12  13
ENDBRANCH  11  12
ENDBRANCH  10  11
ENDBRANCH   1  10
TORSDOF 15
ENDMDL
MODEL 5
REMARK VINA RESULT:    -3.878      9.296     11.850
REMARK INTER + INTRA:          -7.783
REMARK INTER:                  -5.624
REMARK INTRA:                  -2.159
REMARK UNBOUND:                -0.619
REMARK SMILES CCCCCCCCCCCCCCCCO
REMARK SMILES IDX 9 1 8 2 7 3 6 4 5 5 4 6 3 7 2 8 1 9 10 10 11 11 12 12 13 13
REMARK SMILES IDX 14 14 15 15 16 16 17 17
REMARK H PARENT 17 18
REMARK Flexibility Score: inf
ROOT
ATOM      1  C   UNL     1      -8.442  -5.951   4.760  1.00  0.00     0.000 C 
ENDROOT
BRANCH   1   2
ATOM      2  C   UNL     1      -8.296  -7.476   4.876  1.00  0.00    -0.000 C 
BRANCH   2   3
ATOM      3  C   UNL     1      -7.141  -7.890   5.804  1.00  0.00    -0.000 C 
BRANCH   3   4
ATOM      4  C   UNL     1      -7.012  -6.969   7.029  1.00  0.00    -0.000 C 
BRANCH   4   5
ATOM      5  C   UNL     1      -5.552  -6.597   7.340  1.00  0.00    -0.000 C 
BRANCH   5   6
ATOM      6  C   UNL     1      -4.922  -5.716   6.251  1.00  0.00    -0.000 C 
BRANCH   6   7
ATOM      7  C   UNL     1      -3.938  -4.684   6.821  1.00  0.00    -0.000 C 
BRANCH   7   8
ATOM      8  C   UNL     1      -4.010  -3.368   6.038  1.00  0.00    -0.003 C 
ATOM      9  C   UNL     1      -4.826  -3.531   4.760  1.00  0.00     0.004 C 
ENDBRANCH   7   8
ENDBRANCH   6   7
ENDBRANCH   5   6
ENDBRANCH   4   5
ENDBRANCH   3   4
ENDBRANCH   2   3
ENDBRANCH   1   2
BRANCH   1  10
ATOM     10  C   UNL     1      -9.794  -5.446   5.294  1.00  0.00     0.000 C 
BRANCH  10  11
ATOM     11  C   UNL     1      -9.685  -4.084   6.005  1.00  0.00     0.000 C 
BRANCH  11  12
ATOM     12  C   UNL     1      -8.249  -3.546   6.176  1.00  0.00     0.000 C 
BRANCH  12  13
ATOM     13  C   UNL     1      -7.793  -3.360   7.634  1.00  0.00     0.000 C 
BRANCH  13  14
ATOM     14  C   UNL     1      -6.911  -2.114   7.827  1.00  0.00     0.002 C 
BRANCH  14  15
ATOM     15  C   UNL     1      -7.238  -0.998   6.823  1.00  0.00     0.028 C 
BRANCH  15  16
ATOM     16  C   UNL     1      -6.355   0.242   7.009  1.00  0.00     0.156 C 
BRANCH  16  17
ATOM     17  O   UNL     1      -7.109   1.295   7.546  1.00  0.00    -0.396 OA
ATOM     18  H   UNL     1      -6.931   2.091   6.979  1.00  0.00     0.210 HD
ENDBRANCH  16  17
ENDBRANCH  15  16
ENDBRANCH  14  15
ENDBRANCH  13  14
ENDBRANCH  12  13
ENDBRANCH  11  12
ENDBRANCH  10  11
ENDBRANCH   1  10
TORSDOF 15
ENDMDL
MODEL 6
REMARK VINA RESULT:    -3.866      8.161      9.776
REMARK INTER + INTRA:          -7.762
REMARK INTER:                  -5.951
REMARK INTRA:                  -1.811
REMARK UNBOUND:                -0.619
REMARK SMILES CCCCCCCCCCCCCCCCO
REMARK SMILES IDX 9 1 8 2 7 3 6 4 5 5 4 6 3 7 2 8 1 9 10 10 11 11 12 12 13 13
REMARK SMILES IDX 14 14 15 15 16 16 17 17
REMARK H PARENT 17 18
REMARK Flexibility Score: inf
ROOT
ATOM      1  C   UNL     1      -7.078  -4.911   5.402  1.00  0.00     0.000 C 
ENDROOT
BRANCH   1   2
ATOM      2  C   UNL     1      -5.986  -5.408   6.363  1.00  0.00    -0.000 C 
BRANCH   2   3
ATOM      3  C   UNL     1      -4.567  -5.087   5.861  1.00  0.00    -0.000 C 
BRANCH   3   4
ATOM      4  C   UNL     1      -4.527  -3.833   4.972  1.00  0.00    -0.000 C 
BRANCH   4   5
ATOM      5  C   UNL     1      -3.744  -2.674   5.615  1.00  0.00    -0.000 C 
BRANCH   5   6
ATOM      6  C   UNL     1      -4.641  -1.746   6.447  1.00  0.00    -0.000 C 
BRANCH   6   7
ATOM      7  C   UNL     1      -5.648  -0.969   5.586  1.00  0.00    -0.000 C 
BRANCH   7   8
ATOM      8  C   UNL     1      -7.087  -1.275   6.014  1.00  0.00    -0.003 C 
ATOM      9  C   UNL     1      -7.139  -1.768   7.458  1.00  0.00     0.004 C 
ENDBRANCH   7   8
ENDBRANCH   6   7
ENDBRANCH   5   6
ENDBRANCH   4   5
ENDBRANCH   3   4
ENDBRANCH   2   3
ENDBRANCH   1   2
BRANCH   1  10
ATOM     10  C   UNL     1      -8.389  -5.704   5.538  1.00  0.00     0.000 C 
BRANCH  10  11
ATOM     11  C   UNL     1      -8.887  -6.270   4.195  1.00  0.00     0.000 C 
BRANCH  11  12
ATOM     12  C   UNL     1      -8.708  -7.792   4.017  1.00  0.00     0.000 C 
BRANCH  12  13
ATOM     13  C   UNL     1      -8.047  -8.513   5.205  1.00  0.00     0.000 C 
BRANCH  13  14
ATOM     14  C   UNL     1      -6.755  -9.250   4.811  1.00  0.00     0.002 C 
BRANCH  14  15
ATOM     15  C   UNL     1      -5.598  -8.971   5.782  1.00  0.00     0.028 C 
BRANCH  15  16
ATOM     16  C   UNL     1      -4.234  -9.367   5.206  1.00  0.00     0.156 C 
BRANCH  16  17
ATOM     17  O   UNL     1      -4.401 -10.017   3.974  1.00  0.00    -0.396 OA
ATOM     18  H   UNL     1      -3.520  -9.991   3.516  1.00  0.00     0.210 HD
ENDBRANCH  16  17
ENDBRANCH  15  16
ENDBRANCH  14  15
ENDBRANCH  13  14
ENDBRANCH  12  13
ENDBRANCH  11  12
ENDBRANCH  10  11
ENDBRANCH   1  10
TORSDOF 15
ENDMDL
MODEL 7
REMARK VINA RESULT:    -3.860      6.825     10.153
REMARK INTER + INTRA:          -7.751
REMARK INTER:                  -6.701
REMARK INTRA:                  -1.050
REMARK UNBOUND:                -0.619
REMARK SMILES CCCCCCCCCCCCCCCCO
REMARK SMILES IDX 9 1 8 2 7 3 6 4 5 5 4 6 3 7 2 8 1 9 10 10 11 11 12 12 13 13
REMARK SMILES IDX 14 14 15 15 16 16 17 17
REMARK H PARENT 17 18
REMARK Flexibility Score: inf
ROOT
ATOM      1  C   UNL     1      -6.000  -8.206   6.857  1.00  0.00     0.000 C 
ENDROOT
BRANCH   1   2
ATOM      2  C   UNL     1      -4.882  -9.222   6.573  1.00  0.00    -0.000 C 
BRANCH   2   3
ATOM      3  C   UNL     1      -5.285 -10.264   5.515  1.00  0.00    -0.000 C 
BRANCH   3   4
ATOM      4  C   UNL     1      -4.259 -10.373   4.375  1.00  0.00    -0.000 C 
BRANCH   4   5
ATOM      5  C   UNL     1      -3.241  -9.219   4.380  1.00  0.00    -0.000 C 
BRANCH   5   6
ATOM      6  C   UNL     1      -2.219  -9.329   3.238  1.00  0.00    -0.000 C 
BRANCH   6   7
ATOM      7  C   UNL     1      -2.372 -10.626   2.431  1.00  0.00    -0.000 C 
BRANCH   7   8
ATOM      8  C   UNL     1      -1.359 -10.679   1.281  1.00  0.00    -0.003 C 
ATOM      9  C   UNL     1      -2.052 -10.538  -0.071  1.00  0.00     0.004 C 
ENDBRANCH   7   8
ENDBRANCH   6   7
ENDBRANCH   5   6
ENDBRANCH   4   5
ENDBRANCH   3   4
ENDBRANCH   2   3
ENDBRANCH   1   2
BRANCH   1  10
ATOM     10  C   UNL     1      -5.474  -6.763   6.956  1.00  0.00     0.000 C 
BRANCH  10  11
ATOM     11  C   UNL     1      -6.029  -5.848   5.848  1.00  0.00     0.000 C 
BRANCH  11  12
ATOM     12  C   UNL     1      -6.556  -4.480   6.330  1.00  0.00     0.000 C 
BRANCH  12  13
ATOM     13  C   UNL     1      -5.867  -3.258   5.699  1.00  0.00     0.000 C 
BRANCH  13  14
ATOM     14  C   UNL     1      -4.617  -3.634   4.885  1.00  0.00     0.002 C 
BRANCH  14  15
ATOM     15  C   UNL     1      -3.312  -3.213   5.578  1.00  0.00     0.028 C 
BRANCH  15  16
ATOM     16  C   UNL     1      -2.648  -4.366   6.340  1.00  0.00     0.156 C 
BRANCH  16  17
ATOM     17  O   UNL     1      -2.368  -5.425   5.464  1.00  0.00    -0.396 OA
ATOM     18  H   UNL     1      -1.946  -5.026   4.660  1.00  0.00     0.210 HD
ENDBRANCH  16  17
ENDBRANCH  15  16
ENDBRANCH  14  15
ENDBRANCH  13  14
ENDBRANCH  12  13
ENDBRANCH  11  12
ENDBRANCH  10  11
ENDBRANCH   1  10
TORSDOF 15
ENDMDL
MODEL 8
REMARK VINA RESULT:    -3.772      8.232     10.412
REMARK INTER + INTRA:          -7.588
REMARK INTER:                  -5.425
REMARK INTRA:                  -2.163
REMARK UNBOUND:                -0.619
REMARK SMILES CCCCCCCCCCCCCCCCO
REMARK SMILES IDX 9 1 8 2 7 3 6 4 5 5 4 6 3 7 2 8 1 9 10 10 11 11 12 12 13 13
REMARK SMILES IDX 14 14 15 15 16 16 17 17
REMARK H PARENT 17 18
REMARK Flexibility Score: inf
ROOT
ATOM      1  C   UNL     1      -7.795  -1.440   6.988  1.00  0.00     0.000 C 
ENDROOT
BRANCH   1   2
ATOM      2  C   UNL     1      -6.842  -1.073   5.839  1.00  0.00    -0.000 C 
BRANCH   2   3
ATOM      3  C   UNL     1      -5.628  -0.257   6.316  1.00  0.00    -0.000 C 
BRANCH   3   4
ATOM      4  C   UNL     1      -5.250  -0.563   7.775  1.00  0.00    -0.000 C 
BRANCH   4   5
ATOM      5  C   UNL     1      -4.017  -1.477   7.889  1.00  0.00    -0.000 C 
BRANCH   5   6
ATOM      6  C   UNL     1      -4.391  -2.965   7.968  1.00  0.00    -0.000 C 
BRANCH   6   7
ATOM      7  C   UNL     1      -3.576  -3.831   6.996  1.00  0.00    -0.000 C 
BRANCH   7   8
ATOM      8  C   UNL     1      -3.386  -3.116   5.654  1.00  0.00    -0.003 C 
ATOM      9  C   UNL     1      -4.425  -3.573   4.634  1.00  0.00     0.004 C 
ENDBRANCH   7   8
ENDBRANCH   6   7
ENDBRANCH   5   6
ENDBRANCH   4   5
ENDBRANCH   3   4
ENDBRANCH   2   3
ENDBRANCH   1   2
BRANCH   1  10
ATOM     10  C   UNL     1      -8.689  -2.645   6.650  1.00  0.00     0.000 C 
BRANCH  10  11
ATOM     11  C   UNL     1      -7.927  -3.768   5.922  1.00  0.00     0.000 C 
BRANCH  11  12
ATOM     12  C   UNL     1      -7.251  -4.806   6.841  1.00  0.00     0.000 C 
BRANCH  12  13
ATOM     13  C   UNL     1      -6.704  -6.053   6.124  1.00  0.00     0.000 C 
BRANCH  13  14
ATOM     14  C   UNL     1      -5.727  -6.861   6.996  1.00  0.00     0.002 C 
BRANCH  14  15
ATOM     15  C   UNL     1      -5.930  -8.377   6.859  1.00  0.00     0.028 C 
BRANCH  15  16
ATOM     16  C   UNL     1      -5.175  -8.969   5.662  1.00  0.00     0.156 C 
BRANCH  16  17
ATOM     17  O   UNL     1      -4.000  -9.599   6.097  1.00  0.00    -0.396 OA
ATOM     18  H   UNL     1      -3.273  -8.927   6.027  1.00  0.00     0.210 HD
ENDBRANCH  16  17
ENDBRANCH  15  16
ENDBRANCH  14  15
ENDBRANCH  13  14
ENDBRANCH  12  13
ENDBRANCH  11  12
ENDBRANCH  10  11
ENDBRANCH   1  10
TORSDOF 15
ENDMDL
MODEL 9
REMARK VINA RESULT:    -3.709      8.987     12.300
REMARK INTER + INTRA:          -7.472
REMARK INTER:                  -5.440
REMARK INTRA:                  -2.032
REMARK UNBOUND:                -0.619
REMARK SMILES CCCCCCCCCCCCCCCCO
REMARK SMILES IDX 9 1 8 2 7 3 6 4 5 5 4 6 3 7 2 8 1 9 10 10 11 11 12 12 13 13
REMARK SMILES IDX 14 14 15 15 16 16 17 17
REMARK H PARENT 17 18
REMARK Flexibility Score: inf
ROOT
ATOM      1  C   UNL     1      -4.474  -3.929   4.715  1.00  0.00     0.000 C 
ENDROOT
BRANCH   1   2
ATOM      2  C   UNL     1      -5.952  -3.819   5.124  1.00  0.00    -0.000 C 
BRANCH   2   3
ATOM      3  C   UNL     1      -6.267  -4.598   6.413  1.00  0.00    -0.000 C 
BRANCH   3   4
ATOM      4  C   UNL     1      -7.411  -3.961   7.221  1.00  0.00    -0.000 C 
BRANCH   4   5
ATOM      5  C   UNL     1      -8.374  -3.142   6.342  1.00  0.00    -0.000 C 
BRANCH   5   6
ATOM      6  C   UNL     1      -9.774  -3.768   6.259  1.00  0.00    -0.000 C 
BRANCH   6   7
ATOM      7  C   UNL     1      -9.760  -5.282   6.516  1.00  0.00    -0.000 C 
BRANCH   7   8
ATOM      8  C   UNL     1     -10.122  -6.057   5.244  1.00  0.00    -0.003 C 
ATOM      9  C   UNL     1      -8.899  -6.255   4.352  1.00  0.00     0.004 C 
ENDBRANCH   7   8
ENDBRANCH   6   7
ENDBRANCH   5   6
ENDBRANCH   4   5
ENDBRANCH   3   4
ENDBRANCH   2   3
ENDBRANCH   1   2
BRANCH   1  10
ATOM     10  C   UNL     1      -3.569  -4.350   5.886  1.00  0.00     0.000 C 
BRANCH  10  11
ATOM     11  C   UNL     1      -2.547  -3.264   6.271  1.00  0.00     0.000 C 
BRANCH  11  12
ATOM     12  C   UNL     1      -2.700  -2.694   7.697  1.00  0.00     0.000 C 
BRANCH  12  13
ATOM     13  C   UNL     1      -4.147  -2.392   8.125  1.00  0.00     0.000 C 
BRANCH  13  14
ATOM     14  C   UNL     1      -4.531  -0.916   7.925  1.00  0.00     0.002 C 
BRANCH  14  15
ATOM     15  C   UNL     1      -5.240  -0.667   6.585  1.00  0.00     0.028 C 
BRANCH  15  16
ATOM     16  C   UNL     1      -6.143   0.572   6.614  1.00  0.00     0.156 C 
BRANCH  16  17
ATOM     17  O   UNL     1      -7.291   0.314   7.377  1.00  0.00    -0.396 OA
ATOM     18  H   UNL     1      -7.833  -0.341   6.864  1.00  0.00     0.210 HD
ENDBRANCH  16  17
ENDBRANCH  15  16
ENDBRANCH  14  15
ENDBRANCH  13  14
ENDBRANCH  12  13
ENDBRANCH  11  12
ENDBRANCH  10  11
ENDBRANCH   1  10
TORSDOF 15
ENDMDL
