MODEL 1
REMARK VINA RESULT:    -4.002      0.000      0.000
REMARK INTER + INTRA:          -5.989
REMARK INTER:                  -5.406
REMARK INTRA:                  -0.583
REMARK UNBOUND:                -0.583
REMARK SMILES C[C@@H](O)[C@H](O)[C@H](O)[C@@H](O)C=O
REMARK SMILES IDX 4 1 2 2 1 3 3 4 6 6 8 7 10 8 11 9 9 10 7 12 5 14
REMARK H PARENT 3 5 9 11 7 13 5 15
REMARK Flexibility Score: inf
ROOT
ATOM      1  C   UNL     1      -0.086  -8.860   6.510  1.00  0.00     0.174 C 
ENDROOT
BRANCH   1   2
ATOM      2  C   UNL     1       0.023  -8.829   8.062  1.00  0.00     0.142 C 
ATOM      3  C   UNL     1       1.191  -9.638   8.645  1.00  0.00     0.041 C 
BRANCH   2   4
ATOM      4  O   UNL     1       0.071  -7.506   8.522  1.00  0.00    -0.391 OA
ATOM      5  H   UNL     1      -0.090  -7.530   9.502  1.00  0.00     0.211 HD
ENDBRANCH   2   4
ENDBRANCH   1   2
BRANCH   1   6
ATOM      6  C   UNL     1      -1.221  -8.027   5.828  1.00  0.00     0.181 C 
BRANCH   6   7
ATOM      7  C   UNL     1      -2.670  -8.261   6.348  1.00  0.00     0.209 C 
BRANCH   7   8
ATOM      8  C   UNL     1      -3.751  -8.011   5.324  1.00  0.00     0.258 C 
ATOM      9  O   UNL     1      -3.898  -6.896   4.851  1.00  0.00    -0.300 OA
ENDBRANCH   7   8
BRANCH   7  10
ATOM     10  O   UNL     1      -2.910  -7.554   7.542  1.00  0.00    -0.383 OA
ATOM     11  H   UNL     1      -3.264  -6.657   7.306  1.00  0.00     0.211 HD
ENDBRANCH   7  10
ENDBRANCH   6   7
BRANCH   6  12
ATOM     12  O   UNL     1      -0.905  -6.658   5.822  1.00  0.00    -0.387 OA
ATOM     13  H   UNL     1      -1.462  -6.227   6.522  1.00  0.00     0.211 HD
ENDBRANCH   6  12
ENDBRANCH   1   6
BRANCH   1  14
ATOM     14  O   UNL     1       1.161  -8.542   5.940  1.00  0.00    -0.388 OA
ATOM     15  H   UNL     1       1.393  -9.252   5.287  1.00  0.00     0.211 HD
ENDBRANCH   1  14
TORSDOF 8
ENDMDL
MODEL 2
REMARK VINA RESULT:    -3.988      8.493      9.932
REMARK INTER + INTRA:          -5.970
REMARK INTER:                  -5.463
REMARK INTRA:                  -0.507
REMARK UNBOUND:                -0.583
REMARK SMILES C[C@@H](O)[C@H](O)[C@H](O)[C@@H](O)C=O
REMARK SMILES IDX 4 1 2 2 1 3 3 4 6 6 8 7 10 8 11 9 9 10 7 12 5 14
REMARK H PARENT 3 5 9 11 7 13 5 15
REMARK Flexibility Score: inf
ROOT
ATOM      1  C   UNL     1      -4.239  -8.800  -1.489  1.00  0.00     0.174 C 
ENDROOT
BRANCH   1   2
ATOM      2  C   UNL     1      -3.273 -10.010  -1.645  1.00  0.00     0.142 C 
ATOM      3  C   UNL     1      -2.847 -10.317  -3.088  1.00  0.00     0.041 C 
BRANCH   2   4
ATOM      4  O   UNL     1      -2.145  -9.842  -0.830  1.00  0.00    -0.391 OA
ATOM      5  H   UNL     1      -2.447  -9.935   0.112  1.00  0.00     0.211 HD
ENDBRANCH   2   4
ENDBRANCH   1   2
BRANCH   1   6
ATOM      6  C   UNL     1      -5.311  -8.558  -2.602  1.00  0.00     0.181 C 
BRANCH   6   7
ATOM      7  C   UNL     1      -6.748  -9.084  -2.318  1.00  0.00     0.209 C 
BRANCH   7   8
ATOM      8  C   UNL     1      -7.648  -9.141  -3.529  1.00  0.00     0.258 C 
ATOM      9  O   UNL     1      -7.651  -8.220  -4.330  1.00  0.00    -0.300 OA
ENDBRANCH   7   8
BRANCH   7  10
ATOM     10  O   UNL     1      -7.352  -8.387  -1.254  1.00  0.00    -0.383 OA
ATOM     11  H   UNL     1      -7.749  -9.051  -0.633  1.00  0.00     0.211 HD
ENDBRANCH   7  10
ENDBRANCH   6   7
BRANCH   6  12
ATOM     12  O   UNL     1      -5.339  -7.207  -2.989  1.00  0.00    -0.387 OA
ATOM     13  H   UNL     1      -6.294  -6.944  -3.061  1.00  0.00     0.211 HD
ENDBRANCH   6  12
ENDBRANCH   1   6
BRANCH   1  14
ATOM     14  O   UNL     1      -4.853  -8.841  -0.223  1.00  0.00    -0.388 OA
ATOM     15  H   UNL     1      -4.268  -9.361   0.387  1.00  0.00     0.211 HD
ENDBRANCH   1  14
TORSDOF 8
ENDMDL
MODEL 3
REMARK VINA RESULT:    -3.903      8.036     10.107
REMARK INTER + INTRA:          -5.856
REMARK INTER:                  -5.532
REMARK INTRA:                  -0.324
REMARK UNBOUND:                -0.583
REMARK SMILES C[C@@H](O)[C@H](O)[C@H](O)[C@@H](O)C=O
REMARK SMILES IDX 4 1 2 2 1 3 3 4 6 6 8 7 10 8 11 9 9 10 7 12 5 14
REMARK H PARENT 3 5 9 11 7 13 5 15
REMARK Flexibility Score: inf
ROOT
ATOM      1  C   UNL     1      -5.586  -8.512  -1.264  1.00  0.00     0.174 C 
ENDROOT
BRANCH   1   2
ATOM      2  C   UNL     1      -6.469  -8.908  -2.483  1.00  0.00     0.142 C 
ATOM      3  C   UNL     1      -7.980  -8.930  -2.208  1.00  0.00     0.041 C 
BRANCH   2   4
ATOM      4  O   UNL     1      -6.186  -8.081  -3.579  1.00  0.00    -0.391 OA
ATOM      5  H   UNL     1      -6.984  -7.507  -3.726  1.00  0.00     0.211 HD
ENDBRANCH   2   4
ENDBRANCH   1   2
BRANCH   1   6
ATOM      6  C   UNL     1      -4.507  -9.529  -0.768  1.00  0.00     0.181 C 
BRANCH   6   7
ATOM      7  C   UNL     1      -3.146  -9.532  -1.525  1.00  0.00     0.209 C 
BRANCH   7   8
ATOM      8  C   UNL     1      -3.131 -10.364  -2.785  1.00  0.00     0.258 C 
ATOM      9  O   UNL     1      -3.525  -9.886  -3.837  1.00  0.00    -0.300 OA
ENDBRANCH   7   8
BRANCH   7  10
ATOM     10  O   UNL     1      -2.079  -9.864  -0.669  1.00  0.00    -0.383 OA
ATOM     11  H   UNL     1      -1.839 -10.814  -0.827  1.00  0.00     0.211 HD
ENDBRANCH   7  10
ENDBRANCH   6   7
BRANCH   6  12
ATOM     12  O   UNL     1      -4.309  -9.417   0.619  1.00  0.00    -0.387 OA
ATOM     13  H   UNL     1      -4.966  -8.752   0.954  1.00  0.00     0.211 HD
ENDBRANCH   6  12
ENDBRANCH   1   6
BRANCH   1  14
ATOM     14  O   UNL     1      -5.002  -7.252  -1.490  1.00  0.00    -0.388 OA
ATOM     15  H   UNL     1      -4.960  -6.771  -0.623  1.00  0.00     0.211 HD
ENDBRANCH   1  14
TORSDOF 8
ENDMDL
MODEL 4
REMARK VINA RESULT:    -3.816      1.690      4.294
REMARK INTER + INTRA:          -5.737
REMARK INTER:                  -5.157
REMARK INTRA:                  -0.580
REMARK UNBOUND:                -0.583
REMARK SMILES C[C@@H](O)[C@H](O)[C@H](O)[C@@H](O)C=O
REMARK SMILES IDX 4 1 2 2 1 3 3 4 6 6 8 7 10 8 11 9 9 10 7 12 5 14
REMARK H PARENT 3 5 9 11 7 13 5 15
REMARK Flexibility Score: inf
ROOT
ATOM      1  C   UNL     1      -1.871  -7.873   6.144  1.00  0.00     0.174 C 
ENDROOT
BRANCH   1   2
ATOM      2  C   UNL     1      -3.403  -7.699   5.933  1.00  0.00     0.142 C 
ATOM      3  C   UNL     1      -4.190  -7.312   7.194  1.00  0.00     0.041 C 
BRANCH   2   4
ATOM      4  O   UNL     1      -3.653  -6.781   4.903  1.00  0.00    -0.391 OA
ATOM      5  H   UNL     1      -4.453  -6.254   5.168  1.00  0.00     0.211 HD
ENDBRANCH   2   4
ENDBRANCH   1   2
BRANCH   1   6
ATOM      6  C   UNL     1      -1.177  -9.138   5.539  1.00  0.00     0.181 C 
BRANCH   6   7
ATOM      7  C   UNL     1       0.237  -9.489   6.085  1.00  0.00     0.209 C 
BRANCH   7   8
ATOM      8  C   UNL     1       0.278  -9.817   7.558  1.00  0.00     0.258 C 
ATOM      9  O   UNL     1      -0.377 -10.749   7.994  1.00  0.00    -0.300 OA
ENDBRANCH   7   8
BRANCH   7  10
ATOM     10  O   UNL     1       1.182  -8.502   5.745  1.00  0.00    -0.383 OA
ATOM     11  H   UNL     1       1.156  -7.794   6.441  1.00  0.00     0.211 HD
ENDBRANCH   7  10
ENDBRANCH   6   7
BRANCH   6  12
ATOM     12  O   UNL     1      -2.029 -10.254   5.596  1.00  0.00    -0.387 OA
ATOM     13  H   UNL     1      -2.258 -10.398   6.551  1.00  0.00     0.211 HD
ENDBRANCH   6  12
ENDBRANCH   1   6
BRANCH   1  14
ATOM     14  O   UNL     1      -1.199  -6.706   5.734  1.00  0.00    -0.388 OA
ATOM     15  H   UNL     1      -1.231  -6.053   6.479  1.00  0.00     0.211 HD
ENDBRANCH   1  14
TORSDOF 8
ENDMDL
MODEL 5
REMARK VINA RESULT:    -3.769      1.695      2.540
REMARK INTER + INTRA:          -5.674
REMARK INTER:                  -5.189
REMARK INTRA:                  -0.484
REMARK UNBOUND:                -0.583
REMARK SMILES C[C@@H](O)[C@H](O)[C@H](O)[C@@H](O)C=O
REMARK SMILES IDX 4 1 2 2 1 3 3 4 6 6 8 7 10 8 11 9 9 10 7 12 5 14
REMARK H PARENT 3 5 9 11 7 13 5 15
REMARK Flexibility Score: inf
ROOT
ATOM      1  C   UNL     1       0.801  -8.756   8.004  1.00  0.00     0.174 C 
ENDROOT
BRANCH   1   2
ATOM      2  C   UNL     1       0.932  -9.990   8.944  1.00  0.00     0.142 C 
ATOM      3  C   UNL     1      -0.273 -10.942   8.933  1.00  0.00     0.041 C 
BRANCH   2   4
ATOM      4  O   UNL     1       2.111 -10.695   8.662  1.00  0.00    -0.391 OA
ATOM      5  H   UNL     1       1.904 -11.329   7.926  1.00  0.00     0.211 HD
ENDBRANCH   2   4
ENDBRANCH   1   2
BRANCH   1   6
ATOM      6  C   UNL     1       0.124  -8.954   6.608  1.00  0.00     0.181 C 
BRANCH   6   7
ATOM      7  C   UNL     1      -1.160  -8.120   6.328  1.00  0.00     0.209 C 
BRANCH   7   8
ATOM      8  C   UNL     1      -2.173  -8.805   5.442  1.00  0.00     0.258 C 
ATOM      9  O   UNL     1      -1.859  -9.803   4.815  1.00  0.00    -0.300 OA
ENDBRANCH   7   8
BRANCH   7  10
ATOM     10  O   UNL     1      -0.846  -6.831   5.859  1.00  0.00    -0.383 OA
ATOM     11  H   UNL     1       0.027  -6.562   6.249  1.00  0.00     0.211 HD
ENDBRANCH   7  10
ENDBRANCH   6   7
BRANCH   6  12
ATOM     12  O   UNL     1       1.058  -8.802   5.569  1.00  0.00    -0.387 OA
ATOM     13  H   UNL     1       1.017  -7.854   5.278  1.00  0.00     0.211 HD
ENDBRANCH   6  12
ENDBRANCH   1   6
BRANCH   1  14
ATOM     14  O   UNL     1       0.189  -7.694   8.696  1.00  0.00    -0.388 OA
ATOM     15  H   UNL     1       0.717  -6.871   8.529  1.00  0.00     0.211 HD
ENDBRANCH   1  14
TORSDOF 8
ENDMDL
MODEL 6
REMARK VINA RESULT:    -3.725      1.316      4.485
REMARK INTER + INTRA:          -5.614
REMARK INTER:                  -4.728
REMARK INTRA:                  -0.886
REMARK UNBOUND:                -0.583
REMARK SMILES C[C@@H](O)[C@H](O)[C@H](O)[C@@H](O)C=O
REMARK SMILES IDX 4 1 2 2 1 3 3 4 6 6 8 7 10 8 11 9 9 10 7 12 5 14
REMARK H PARENT 3 5 9 11 7 13 5 15
REMARK Flexibility Score: inf
ROOT
ATOM      1  C   UNL     1      -3.233  -8.489   6.141  1.00  0.00     0.174 C 
ENDROOT
BRANCH   1   2
ATOM      2  C   UNL     1      -4.136  -7.932   5.002  1.00  0.00     0.142 C 
ATOM      3  C   UNL     1      -5.641  -8.179   5.190  1.00  0.00     0.041 C 
BRANCH   2   4
ATOM      4  O   UNL     1      -3.888  -6.566   4.807  1.00  0.00    -0.391 OA
ATOM      5  H   UNL     1      -4.660  -6.198   4.301  1.00  0.00     0.211 HD
ENDBRANCH   2   4
ENDBRANCH   1   2
BRANCH   1   6
ATOM      6  C   UNL     1      -1.808  -9.014   5.769  1.00  0.00     0.181 C 
BRANCH   6   7
ATOM      7  C   UNL     1      -0.621  -8.030   5.985  1.00  0.00     0.209 C 
BRANCH   7   8
ATOM      8  C   UNL     1       0.108  -8.204   7.297  1.00  0.00     0.258 C 
ATOM      9  O   UNL     1      -0.518  -8.452   8.314  1.00  0.00    -0.300 OA
ENDBRANCH   7   8
BRANCH   7  10
ATOM     10  O   UNL     1      -1.014  -6.693   5.782  1.00  0.00    -0.383 OA
ATOM     11  H   UNL     1      -0.483  -6.324   5.030  1.00  0.00     0.211 HD
ENDBRANCH   7  10
ENDBRANCH   6   7
BRANCH   6  12
ATOM     12  O   UNL     1      -1.551 -10.252   6.382  1.00  0.00    -0.387 OA
ATOM     13  H   UNL     1      -2.227 -10.367   7.100  1.00  0.00     0.211 HD
ENDBRANCH   6  12
ENDBRANCH   1   6
BRANCH   1  14
ATOM     14  O   UNL     1      -3.149  -7.547   7.184  1.00  0.00    -0.388 OA
ATOM     15  H   UNL     1      -4.053  -7.439   7.577  1.00  0.00     0.211 HD
ENDBRANCH   1  14
TORSDOF 8
ENDMDL
MODEL 7
REMARK VINA RESULT:    -3.717      1.938      2.753
REMARK INTER + INTRA:          -5.605
REMARK INTER:                  -5.339
REMARK INTRA:                  -0.265
REMARK UNBOUND:                -0.583
REMARK SMILES C[C@@H](O)[C@H](O)[C@H](O)[C@@H](O)C=O
REMARK SMILES IDX 4 1 2 2 1 3 3 4 6 6 8 7 10 8 11 9 9 10 7 12 5 14
REMARK H PARENT 3 5 9 11 7 13 5 15
REMARK Flexibility Score: inf
ROOT
ATOM      1  C   UNL     1       0.288  -8.275   6.830  1.00  0.00     0.174 C 
ENDROOT
BRANCH   1   2
ATOM      2  C   UNL     1      -0.161  -8.497   8.304  1.00  0.00     0.142 C 
ATOM      3  C   UNL     1       0.317  -9.814   8.933  1.00  0.00     0.041 C 
BRANCH   2   4
ATOM      4  O   UNL     1       0.224  -7.409   9.100  1.00  0.00    -0.391 OA
ATOM      5  H   UNL     1       1.164  -7.191   8.863  1.00  0.00     0.211 HD
ENDBRANCH   2   4
ENDBRANCH   1   2
BRANCH   1   6
ATOM      6  C   UNL     1       0.165  -9.469   5.828  1.00  0.00     0.181 C 
BRANCH   6   7
ATOM      7  C   UNL     1      -1.056  -9.451   4.862  1.00  0.00     0.209 C 
BRANCH   7   8
ATOM      8  C   UNL     1      -2.314 -10.066   5.428  1.00  0.00     0.258 C 
ATOM      9  O   UNL     1      -2.273 -10.672   6.486  1.00  0.00    -0.300 OA
ENDBRANCH   7   8
BRANCH   7  10
ATOM     10  O   UNL     1      -0.729  -9.998   3.607  1.00  0.00    -0.383 OA
ATOM     11  H   UNL     1      -0.014 -10.674   3.739  1.00  0.00     0.211 HD
ENDBRANCH   7  10
ENDBRANCH   6   7
BRANCH   6  12
ATOM     12  O   UNL     1       1.364  -9.657   5.118  1.00  0.00    -0.387 OA
ATOM     13  H   UNL     1       1.740 -10.529   5.407  1.00  0.00     0.211 HD
ENDBRANCH   6  12
ENDBRANCH   1   6
BRANCH   1  14
ATOM     14  O   UNL     1      -0.347  -7.133   6.307  1.00  0.00    -0.388 OA
ATOM     15  H   UNL     1      -0.840  -7.400   5.489  1.00  0.00     0.211 HD
ENDBRANCH   1  14
TORSDOF 8
ENDMDL
MODEL 8
REMARK VINA RESULT:    -3.658      7.913      9.096
REMARK INTER + INTRA:          -5.524
REMARK INTER:                  -4.849
REMARK INTRA:                  -0.675
REMARK UNBOUND:                -0.583
REMARK SMILES C[C@@H](O)[C@H](O)[C@H](O)[C@@H](O)C=O
REMARK SMILES IDX 4 1 2 2 1 3 3 4 6 6 8 7 10 8 11 9 9 10 7 12 5 14
REMARK H PARENT 3 5 9 11 7 13 5 15
REMARK Flexibility Score: inf
ROOT
ATOM      1  C   UNL     1      -4.902  -8.942  -1.947  1.00  0.00     0.174 C 
ENDROOT
BRANCH   1   2
ATOM      2  C   UNL     1      -3.764 -10.003  -1.997  1.00  0.00     0.142 C 
ATOM      3  C   UNL     1      -3.128 -10.205  -3.381  1.00  0.00     0.041 C 
BRANCH   2   4
ATOM      4  O   UNL     1      -2.777  -9.704  -1.047  1.00  0.00    -0.391 OA
ATOM      5  H   UNL     1      -3.231  -9.630  -0.166  1.00  0.00     0.211 HD
ENDBRANCH   2   4
ENDBRANCH   1   2
BRANCH   1   6
ATOM      6  C   UNL     1      -6.204  -9.286  -1.152  1.00  0.00     0.181 C 
BRANCH   6   7
ATOM      7  C   UNL     1      -6.047  -9.522   0.379  1.00  0.00     0.209 C 
BRANCH   7   8
ATOM      8  C   UNL     1      -7.289  -9.236   1.189  1.00  0.00     0.258 C 
ATOM      9  O   UNL     1      -8.333  -9.809   0.927  1.00  0.00    -0.300 OA
ENDBRANCH   7   8
BRANCH   7  10
ATOM     10  O   UNL     1      -4.924  -8.846   0.893  1.00  0.00    -0.383 OA
ATOM     11  H   UNL     1      -4.585  -9.356   1.675  1.00  0.00     0.211 HD
ENDBRANCH   7  10
ENDBRANCH   6   7
BRANCH   6  12
ATOM     12  O   UNL     1      -7.217  -8.347  -1.414  1.00  0.00    -0.387 OA
ATOM     13  H   UNL     1      -6.917  -7.804  -2.189  1.00  0.00     0.211 HD
ENDBRANCH   6  12
ENDBRANCH   1   6
BRANCH   1  14
ATOM     14  O   UNL     1      -4.381  -7.706  -1.519  1.00  0.00    -0.388 OA
ATOM     15  H   UNL     1      -3.669  -7.434  -2.154  1.00  0.00     0.211 HD
ENDBRANCH   1  14
TORSDOF 8
ENDMDL
