MODEL 1
REMARK VINA RESULT:    -6.994      0.000      0.000
REMARK INTER + INTRA:          -7.812
REMARK INTER:                  -7.812
REMARK INTRA:                   0.000
REMARK UNBOUND:                 0.000
REMARK SMILES Oc1cc(O)c2c(ccc3ccc(O)c(O)c32)c1
REMARK SMILES IDX 9 1 8 2 7 3 18 4 2 5 3 6 4 7 6 8 17 9 10 10 11 11 12 12
REMARK SMILES IDX 13 13 15 14 16 15 1 17 5 19 14 21
REMARK H PARENT 16 16 1 18 5 20 14 22
REMARK Flexibility Score: inf
ROOT
ATOM      1  C   UNL     1      49.181  50.627  35.257  1.00  0.00     0.009 A 
ATOM      2  C   UNL     1      47.900  50.155  35.002  1.00  0.00     0.009 A 
ATOM      3  C   UNL     1      47.445  48.981  35.610  1.00  0.00    -0.010 A 
ATOM      4  C   UNL     1      46.175  48.486  35.276  1.00  0.00     0.055 A 
ATOM      5  C   UNL     1      45.748  47.253  35.763  1.00  0.00     0.119 A 
ATOM      6  C   UNL     1      46.612  46.479  36.537  1.00  0.00     0.093 A 
ATOM      7  C   UNL     1      47.894  46.945  36.865  1.00  0.00     0.127 A 
ATOM      8  C   UNL     1      48.280  48.270  36.518  1.00  0.00     0.035 A 
ATOM      9  C   UNL     1      49.503  48.885  36.946  1.00  0.00     0.039 A 
ATOM     10  C   UNL     1      49.984  50.013  36.225  1.00  0.00    -0.014 A 
ATOM     11  C   UNL     1      51.246  50.549  36.507  1.00  0.00     0.013 A 
ATOM     12  C   UNL     1      52.019  50.019  37.533  1.00  0.00     0.051 A 
ATOM     13  C   UNL     1      51.512  49.012  38.353  1.00  0.00     0.158 A 
ATOM     14  C   UNL     1      50.212  48.504  38.121  1.00  0.00     0.166 A 
ENDROOT
BRANCH  14  15
ATOM     15  O   UNL     1      49.577  47.732  39.098  1.00  0.00    -0.504 OA
ATOM     16  H   UNL     1      50.015  46.954  39.574  1.00  0.00     0.293 HD
ENDBRANCH  14  15
BRANCH   5  17
ATOM     17  O   UNL     1      44.475  46.789  35.438  1.00  0.00    -0.508 OA
ATOM     18  H   UNL     1      44.283  45.799  35.333  1.00  0.00     0.293 HD
ENDBRANCH   5  17
BRANCH   7  19
ATOM     19  O   UNL     1      48.797  46.051  37.440  1.00  0.00    -0.507 OA
ATOM     20  H   UNL     1      49.546  46.362  38.048  1.00  0.00     0.293 HD
ENDBRANCH   7  19
BRANCH  13  21
ATOM     21  O   UNL     1      52.321  48.547  39.392  1.00  0.00    -0.504 OA
ATOM     22  H   UNL     1      53.222  48.115  39.246  1.00  0.00     0.293 HD
ENDBRANCH  13  21
TORSDOF 4
ENDMDL
MODEL 2
REMARK VINA RESULT:    -6.952      3.587      6.332
REMARK INTER + INTRA:          -7.765
REMARK INTER:                  -7.765
REMARK INTRA:                   0.000
REMARK UNBOUND:                 0.000
REMARK SMILES Oc1cc(O)c2c(ccc3ccc(O)c(O)c32)c1
REMARK SMILES IDX 9 1 8 2 7 3 18 4 2 5 3 6 4 7 6 8 17 9 10 10 11 11 12 12
REMARK SMILES IDX 13 13 15 14 16 15 1 17 5 19 14 21
REMARK H PARENT 16 16 1 18 5 20 14 22
REMARK Flexibility Score: inf
ROOT
ATOM      1  C   UNL     1      45.257  46.398  35.193  1.00  0.00     0.009 A 
ATOM      2  C   UNL     1      45.636  47.713  35.425  1.00  0.00     0.009 A 
ATOM      3  C   UNL     1      46.781  48.238  34.815  1.00  0.00    -0.010 A 
ATOM      4  C   UNL     1      47.182  49.546  35.126  1.00  0.00     0.055 A 
ATOM      5  C   UNL     1      48.386  50.048  34.639  1.00  0.00     0.119 A 
ATOM      6  C   UNL     1      49.225  49.225  33.888  1.00  0.00     0.093 A 
ATOM      7  C   UNL     1      48.853  47.908  33.584  1.00  0.00     0.127 A 
ATOM      8  C   UNL     1      47.556  47.436  33.929  1.00  0.00     0.035 A 
ATOM      9  C   UNL     1      47.032  46.165  33.523  1.00  0.00     0.039 A 
ATOM     10  C   UNL     1      45.935  45.621  34.246  1.00  0.00    -0.014 A 
ATOM     11  C   UNL     1      45.491  44.319  33.986  1.00  0.00     0.013 A 
ATOM     12  C   UNL     1      46.082  43.564  32.980  1.00  0.00     0.051 A 
ATOM     13  C   UNL     1      47.058  44.124  32.158  1.00  0.00     0.158 A 
ATOM     14  C   UNL     1      47.471  45.461  32.365  1.00  0.00     0.166 A 
ENDROOT
BRANCH  14  15
ATOM     15  O   UNL     1      48.204  46.128  31.381  1.00  0.00    -0.504 OA
ATOM     16  H   UNL     1      47.854  46.919  30.856  1.00  0.00     0.293 HD
ENDBRANCH  14  15
BRANCH   5  17
ATOM     17  O   UNL     1      48.757  51.357  34.940  1.00  0.00    -0.508 OA
ATOM     18  H   UNL     1      48.368  51.848  35.737  1.00  0.00     0.293 HD
ENDBRANCH   5  17
BRANCH   7  19
ATOM     19  O   UNL     1      49.813  47.059  33.034  1.00  0.00    -0.507 OA
ATOM     20  H   UNL     1      50.760  47.017  33.392  1.00  0.00     0.293 HD
ENDBRANCH   7  19
BRANCH  13  21
ATOM     21  O   UNL     1      47.586  43.329  31.138  1.00  0.00    -0.504 OA
ATOM     22  H   UNL     1      47.373  43.463  30.160  1.00  0.00     0.293 HD
ENDBRANCH  13  21
TORSDOF 4
ENDMDL
MODEL 3
REMARK VINA RESULT:    -6.244      3.407      4.624
REMARK INTER + INTRA:          -6.975
REMARK INTER:                  -6.975
REMARK INTRA:                   0.000
REMARK UNBOUND:                 0.000
REMARK SMILES Oc1cc(O)c2c(ccc3ccc(O)c(O)c32)c1
REMARK SMILES IDX 9 1 8 2 7 3 18 4 2 5 3 6 4 7 6 8 17 9 10 10 11 11 12 12
REMARK SMILES IDX 13 13 15 14 16 15 1 17 5 19 14 21
REMARK H PARENT 16 16 1 18 5 20 14 22
REMARK Flexibility Score: inf
ROOT
ATOM      1  C   UNL     1      45.526  47.543  35.500  1.00  0.00     0.009 A 
ATOM      2  C   UNL     1      45.007  46.356  35.000  1.00  0.00     0.009 A 
ATOM      3  C   UNL     1      45.719  45.617  34.048  1.00  0.00    -0.010 A 
ATOM      4  C   UNL     1      45.137  44.462  33.505  1.00  0.00     0.055 A 
ATOM      5  C   UNL     1      45.763  43.782  32.463  1.00  0.00     0.119 A 
ATOM      6  C   UNL     1      46.944  44.286  31.918  1.00  0.00     0.093 A 
ATOM      7  C   UNL     1      47.530  45.451  32.432  1.00  0.00     0.127 A 
ATOM      8  C   UNL     1      46.996  46.061  33.601  1.00  0.00     0.035 A 
ATOM      9  C   UNL     1      47.618  47.156  34.288  1.00  0.00     0.039 A 
ATOM     10  C   UNL     1      46.822  47.948  35.162  1.00  0.00    -0.014 A 
ATOM     11  C   UNL     1      47.344  49.116  35.732  1.00  0.00     0.013 A 
ATOM     12  C   UNL     1      48.663  49.484  35.492  1.00  0.00     0.051 A 
ATOM     13  C   UNL     1      49.508  48.651  34.762  1.00  0.00     0.158 A 
ATOM     14  C   UNL     1      49.014  47.435  34.234  1.00  0.00     0.166 A 
ENDROOT
BRANCH  14  15
ATOM     15  O   UNL     1      49.901  46.459  33.775  1.00  0.00    -0.504 OA
ATOM     16  H   UNL     1      49.754  45.465  33.890  1.00  0.00     0.293 HD
ENDBRANCH  14  15
BRANCH   5  17
ATOM     17  O   UNL     1      45.181  42.624  31.951  1.00  0.00    -0.508 OA
ATOM     18  H   UNL     1      44.364  42.661  31.353  1.00  0.00     0.293 HD
ENDBRANCH   5  17
BRANCH   7  19
ATOM     19  O   UNL     1      48.572  46.040  31.716  1.00  0.00    -0.507 OA
ATOM     20  H   UNL     1      48.507  46.211  30.719  1.00  0.00     0.293 HD
ENDBRANCH   7  19
BRANCH  13  21
ATOM     21  O   UNL     1      50.833  49.056  34.588  1.00  0.00    -0.504 OA
ATOM     22  H   UNL     1      51.624  48.550  34.960  1.00  0.00     0.293 HD
ENDBRANCH  13  21
TORSDOF 4
ENDMDL
MODEL 4
REMARK VINA RESULT:    -6.238      1.144      4.927
REMARK INTER + INTRA:          -6.968
REMARK INTER:                  -6.968
REMARK INTRA:                   0.000
REMARK UNBOUND:                 0.000
REMARK SMILES Oc1cc(O)c2c(ccc3ccc(O)c(O)c32)c1
REMARK SMILES IDX 9 1 8 2 7 3 18 4 2 5 3 6 4 7 6 8 17 9 10 10 11 11 12 12
REMARK SMILES IDX 13 13 15 14 16 15 1 17 5 19 14 21
REMARK H PARENT 16 16 1 18 5 20 14 22
REMARK Flexibility Score: inf
ROOT
ATOM      1  C   UNL     1      48.039  50.234  34.928  1.00  0.00     0.009 A 
ATOM      2  C   UNL     1      49.184  50.871  35.387  1.00  0.00     0.009 A 
ATOM      3  C   UNL     1      49.993  50.266  36.354  1.00  0.00    -0.010 A 
ATOM      4  C   UNL     1      51.101  50.965  36.854  1.00  0.00     0.055 A 
ATOM      5  C   UNL     1      51.846  50.445  37.909  1.00  0.00     0.119 A 
ATOM      6  C   UNL     1      51.451  49.250  38.511  1.00  0.00     0.093 A 
ATOM      7  C   UNL     1      50.333  48.546  38.041  1.00  0.00     0.127 A 
ATOM      8  C   UNL     1      49.664  48.976  36.861  1.00  0.00     0.035 A 
ATOM      9  C   UNL     1      48.618  48.236  36.220  1.00  0.00     0.039 A 
ATOM     10  C   UNL     1      47.750  48.923  35.326  1.00  0.00    -0.014 A 
ATOM     11  C   UNL     1      46.623  48.281  34.798  1.00  0.00     0.013 A 
ATOM     12  C   UNL     1      46.371  46.948  35.098  1.00  0.00     0.051 A 
ATOM     13  C   UNL     1      47.282  46.208  35.849  1.00  0.00     0.158 A 
ATOM     14  C   UNL     1      48.459  46.825  36.336  1.00  0.00     0.166 A 
ENDROOT
BRANCH  14  15
ATOM     15  O   UNL     1      49.513  46.043  36.814  1.00  0.00    -0.504 OA
ATOM     16  H   UNL     1      50.481  46.337  36.807  1.00  0.00     0.293 HD
ENDBRANCH  14  15
BRANCH   5  17
ATOM     17  O   UNL     1      52.957  51.143  38.377  1.00  0.00    -0.508 OA
ATOM     18  H   UNL     1      53.182  52.071  38.036  1.00  0.00     0.293 HD
ENDBRANCH   5  17
BRANCH   7  19
ATOM     19  O   UNL     1      49.844  47.490  38.810  1.00  0.00    -0.507 OA
ATOM     20  H   UNL     1      50.432  46.983  39.461  1.00  0.00     0.293 HD
ENDBRANCH   7  19
BRANCH  13  21
ATOM     21  O   UNL     1      46.993  44.862  36.084  1.00  0.00    -0.504 OA
ATOM     22  H   UNL     1      46.898  44.466  37.009  1.00  0.00     0.293 HD
ENDBRANCH  13  21
TORSDOF 4
ENDMDL
MODEL 5
REMARK VINA RESULT:    -5.883      1.925      2.978
REMARK INTER + INTRA:          -6.571
REMARK INTER:                  -6.571
REMARK INTRA:                   0.000
REMARK UNBOUND:                 0.000
REMARK SMILES Oc1cc(O)c2c(ccc3ccc(O)c(O)c32)c1
REMARK SMILES IDX 9 1 8 2 7 3 18 4 2 5 3 6 4 7 6 8 17 9 10 10 11 11 12 12
REMARK SMILES IDX 13 13 15 14 16 15 1 17 5 19 14 21
REMARK H PARENT 16 16 1 18 5 20 14 22
REMARK Flexibility Score: inf
ROOT
ATOM      1  C   UNL     1      49.421  47.084  39.119  1.00  0.00     0.009 A 
ATOM      2  C   UNL     1      48.274  46.536  38.561  1.00  0.00     0.009 A 
ATOM      3  C   UNL     1      47.730  47.074  37.390  1.00  0.00    -0.010 A 
ATOM      4  C   UNL     1      46.528  46.550  36.890  1.00  0.00     0.055 A 
ATOM      5  C   UNL     1      45.895  47.150  35.804  1.00  0.00     0.119 A 
ATOM      6  C   UNL     1      46.428  48.313  35.249  1.00  0.00     0.093 A 
ATOM      7  C   UNL     1      47.617  48.866  35.747  1.00  0.00     0.127 A 
ATOM      8  C   UNL     1      48.363  48.174  36.742  1.00  0.00     0.035 A 
ATOM      9  C   UNL     1      49.661  48.579  37.195  1.00  0.00     0.039 A 
ATOM     10  C   UNL     1      50.125  48.091  38.449  1.00  0.00    -0.014 A 
ATOM     11  C   UNL     1      51.314  48.580  39.003  1.00  0.00     0.013 A 
ATOM     12  C   UNL     1      52.083  49.506  38.309  1.00  0.00     0.051 A 
ATOM     13  C   UNL     1      51.730  49.890  37.016  1.00  0.00     0.158 A 
ATOM     14  C   UNL     1      50.566  49.356  36.416  1.00  0.00     0.166 A 
ENDROOT
BRANCH  14  15
ATOM     15  O   UNL     1      50.367  49.482  35.039  1.00  0.00    -0.504 OA
ATOM     16  H   UNL     1      50.461  50.353  34.533  1.00  0.00     0.293 HD
ENDBRANCH  14  15
BRANCH   5  17
ATOM     17  O   UNL     1      44.715  46.601  35.308  1.00  0.00    -0.508 OA
ATOM     18  H   UNL     1      44.704  45.705  34.835  1.00  0.00     0.293 HD
ENDBRANCH   5  17
BRANCH   7  19
ATOM     19  O   UNL     1      47.985  50.141  35.319  1.00  0.00    -0.507 OA
ATOM     20  H   UNL     1      47.436  50.658  34.641  1.00  0.00     0.293 HD
ENDBRANCH   7  19
BRANCH  13  21
ATOM     21  O   UNL     1      52.564  50.794  36.354  1.00  0.00    -0.504 OA
ATOM     22  H   UNL     1      53.572  50.732  36.363  1.00  0.00     0.293 HD
ENDBRANCH  13  21
TORSDOF 4
ENDMDL
MODEL 6
REMARK VINA RESULT:    -5.795      8.224      9.339
REMARK INTER + INTRA:          -6.473
REMARK INTER:                  -6.473
REMARK INTRA:                   0.000
REMARK UNBOUND:                 0.000
REMARK SMILES Oc1cc(O)c2c(ccc3ccc(O)c(O)c32)c1
REMARK SMILES IDX 9 1 8 2 7 3 18 4 2 5 3 6 4 7 6 8 17 9 10 10 11 11 12 12
REMARK SMILES IDX 13 13 15 14 16 15 1 17 5 19 14 21
REMARK H PARENT 16 16 1 18 5 20 14 22
REMARK Flexibility Score: inf
ROOT
ATOM      1  C   UNL     1      43.987  53.248  35.032  1.00  0.00     0.009 A 
ATOM      2  C   UNL     1      43.111  52.460  34.296  1.00  0.00     0.009 A 
ATOM      3  C   UNL     1      41.743  52.461  34.587  1.00  0.00    -0.010 A 
ATOM      4  C   UNL     1      40.893  51.598  33.878  1.00  0.00     0.055 A 
ATOM      5  C   UNL     1      39.552  51.481  34.235  1.00  0.00     0.119 A 
ATOM      6  C   UNL     1      39.066  52.179  35.340  1.00  0.00     0.093 A 
ATOM      7  C   UNL     1      39.905  53.030  36.075  1.00  0.00     0.127 A 
ATOM      8  C   UNL     1      41.229  53.290  35.624  1.00  0.00     0.035 A 
ATOM      9  C   UNL     1      42.100  54.262  36.218  1.00  0.00     0.039 A 
ATOM     10  C   UNL     1      43.499  54.153  35.982  1.00  0.00    -0.014 A 
ATOM     11  C   UNL     1      44.398  54.981  36.663  1.00  0.00     0.013 A 
ATOM     12  C   UNL     1      43.931  55.957  37.536  1.00  0.00     0.051 A 
ATOM     13  C   UNL     1      42.563  56.185  37.673  1.00  0.00     0.158 A 
ATOM     14  C   UNL     1      41.641  55.400  36.943  1.00  0.00     0.166 A 
ENDROOT
BRANCH  14  15
ATOM     15  O   UNL     1      40.310  55.807  36.828  1.00  0.00    -0.504 OA
ATOM     16  H   UNL     1      39.718  56.028  37.619  1.00  0.00     0.293 HD
ENDBRANCH  14  15
BRANCH   5  17
ATOM     17  O   UNL     1      38.719  50.636  33.505  1.00  0.00    -0.508 OA
ATOM     18  H   UNL     1      37.746  50.503  33.757  1.00  0.00     0.293 HD
ENDBRANCH   5  17
BRANCH   7  19
ATOM     19  O   UNL     1      39.442  53.523  37.295  1.00  0.00    -0.507 OA
ATOM     20  H   UNL     1      38.504  53.892  37.403  1.00  0.00     0.293 HD
ENDBRANCH   7  19
BRANCH  13  21
ATOM     21  O   UNL     1      42.156  57.206  38.535  1.00  0.00    -0.504 OA
ATOM     22  H   UNL     1      42.777  57.668  39.184  1.00  0.00     0.293 HD
ENDBRANCH  13  21
TORSDOF 4
ENDMDL
MODEL 7
REMARK VINA RESULT:    -5.700      3.500      6.101
REMARK INTER + INTRA:          -6.367
REMARK INTER:                  -6.367
REMARK INTRA:                   0.000
REMARK UNBOUND:                 0.000
REMARK SMILES Oc1cc(O)c2c(ccc3ccc(O)c(O)c32)c1
REMARK SMILES IDX 9 1 8 2 7 3 18 4 2 5 3 6 4 7 6 8 17 9 10 10 11 11 12 12
REMARK SMILES IDX 13 13 15 14 16 15 1 17 5 19 14 21
REMARK H PARENT 16 16 1 18 5 20 14 22
REMARK Flexibility Score: inf
ROOT
ATOM      1  C   UNL     1      48.945  46.573  31.405  1.00  0.00     0.009 A 
ATOM      2  C   UNL     1      49.462  47.693  32.041  1.00  0.00     0.009 A 
ATOM      3  C   UNL     1      48.875  48.175  33.216  1.00  0.00    -0.010 A 
ATOM      4  C   UNL     1      49.370  49.352  33.795  1.00  0.00     0.055 A 
ATOM      5  C   UNL     1      48.724  49.927  34.887  1.00  0.00     0.119 A 
ATOM      6  C   UNL     1      47.543  49.361  35.368  1.00  0.00     0.093 A 
ATOM      7  C   UNL     1      47.019  48.196  34.789  1.00  0.00     0.127 A 
ATOM      8  C   UNL     1      47.755  47.505  33.787  1.00  0.00     0.035 A 
ATOM      9  C   UNL     1      47.377  46.229  33.253  1.00  0.00     0.039 A 
ATOM     10  C   UNL     1      47.917  45.832  31.998  1.00  0.00    -0.014 A 
ATOM     11  C   UNL     1      47.459  44.669  31.366  1.00  0.00     0.013 A 
ATOM     12  C   UNL     1      46.511  43.862  31.983  1.00  0.00     0.051 A 
ATOM     13  C   UNL     1      46.075  44.147  33.276  1.00  0.00     0.158 A 
ATOM     14  C   UNL     1      46.577  45.282  33.955  1.00  0.00     0.166 A 
ENDROOT
BRANCH  14  15
ATOM     15  O   UNL     1      46.395  45.411  35.334  1.00  0.00    -0.504 OA
ATOM     16  H   UNL     1      46.704  46.211  35.870  1.00  0.00     0.293 HD
ENDBRANCH  14  15
BRANCH   5  17
ATOM     17  O   UNL     1      49.244  51.084  35.463  1.00  0.00    -0.508 OA
ATOM     18  H   UNL     1      48.648  51.862  35.722  1.00  0.00     0.293 HD
ENDBRANCH   5  17
BRANCH   7  19
ATOM     19  O   UNL     1      45.731  47.801  35.148  1.00  0.00    -0.507 OA
ATOM     20  H   UNL     1      44.907  48.186  34.700  1.00  0.00     0.293 HD
ENDBRANCH   7  19
BRANCH  13  21
ATOM     21  O   UNL     1      45.151  43.277  33.859  1.00  0.00    -0.504 OA
ATOM     22  H   UNL     1      45.194  42.984  34.825  1.00  0.00     0.293 HD
ENDBRANCH  13  21
TORSDOF 4
ENDMDL
MODEL 8
REMARK VINA RESULT:    -5.648      7.904     10.352
REMARK INTER + INTRA:          -6.309
REMARK INTER:                  -6.309
REMARK INTRA:                   0.000
REMARK UNBOUND:                 0.000
REMARK SMILES Oc1cc(O)c2c(ccc3ccc(O)c(O)c32)c1
REMARK SMILES IDX 9 1 8 2 7 3 18 4 2 5 3 6 4 7 6 8 17 9 10 10 11 11 12 12
REMARK SMILES IDX 13 13 15 14 16 15 1 17 5 19 14 21
REMARK H PARENT 16 16 1 18 5 20 14 22
REMARK Flexibility Score: inf
ROOT
ATOM      1  C   UNL     1      43.543  52.754  34.551  1.00  0.00     0.009 A 
ATOM      2  C   UNL     1      44.351  53.521  35.381  1.00  0.00     0.009 A 
ATOM      3  C   UNL     1      43.782  54.425  36.284  1.00  0.00    -0.010 A 
ATOM      4  C   UNL     1      44.622  55.241  37.056  1.00  0.00     0.055 A 
ATOM      5  C   UNL     1      44.086  56.239  37.865  1.00  0.00     0.119 A 
ATOM      6  C   UNL     1      42.709  56.468  37.862  1.00  0.00     0.093 A 
ATOM      7  C   UNL     1      41.854  55.677  37.082  1.00  0.00     0.127 A 
ATOM      8  C   UNL     1      42.366  54.548  36.383  1.00  0.00     0.035 A 
ATOM      9  C   UNL     1      41.547  53.596  35.692  1.00  0.00     0.039 A 
ATOM     10  C   UNL     1      42.152  52.774  34.700  1.00  0.00    -0.014 A 
ATOM     11  C   UNL     1      41.366  51.942  33.894  1.00  0.00     0.013 A 
ATOM     12  C   UNL     1      39.992  51.868  34.091  1.00  0.00     0.051 A 
ATOM     13  C   UNL     1      39.393  52.548  35.150  1.00  0.00     0.158 A 
ATOM     14  C   UNL     1      40.183  53.342  36.014  1.00  0.00     0.166 A 
ENDROOT
BRANCH  14  15
ATOM     15  O   UNL     1      39.666  53.771  37.239  1.00  0.00    -0.504 OA
ATOM     16  H   UNL     1      39.895  54.659  37.667  1.00  0.00     0.293 HD
ENDBRANCH  14  15
BRANCH   5  17
ATOM     17  O   UNL     1      44.935  57.025  38.641  1.00  0.00    -0.508 OA
ATOM     18  H   UNL     1      45.084  58.007  38.436  1.00  0.00     0.293 HD
ENDBRANCH   5  17
BRANCH   7  19
ATOM     19  O   UNL     1      40.528  56.084  36.933  1.00  0.00    -0.507 OA
ATOM     20  H   UNL     1      40.258  56.798  36.267  1.00  0.00     0.293 HD
ENDBRANCH   7  19
BRANCH  13  21
ATOM     21  O   UNL     1      38.014  52.403  35.321  1.00  0.00    -0.504 OA
ATOM     22  H   UNL     1      37.330  52.890  34.761  1.00  0.00     0.293 HD
ENDBRANCH  13  21
TORSDOF 4
ENDMDL
MODEL 9
REMARK VINA RESULT:    -5.534      8.125     10.866
REMARK INTER + INTRA:          -6.181
REMARK INTER:                  -6.181
REMARK INTRA:                   0.000
REMARK UNBOUND:                 0.000
REMARK SMILES Oc1cc(O)c2c(ccc3ccc(O)c(O)c32)c1
REMARK SMILES IDX 9 1 8 2 7 3 18 4 2 5 3 6 4 7 6 8 17 9 10 10 11 11 12 12
REMARK SMILES IDX 13 13 15 14 16 15 1 17 5 19 14 21
REMARK H PARENT 16 16 1 18 5 20 14 22
REMARK Flexibility Score: inf
ROOT
ATOM      1  C   UNL     1      42.402  51.402  35.025  1.00  0.00     0.009 A 
ATOM      2  C   UNL     1      43.164  52.336  35.714  1.00  0.00     0.009 A 
ATOM      3  C   UNL     1      43.000  53.704  35.469  1.00  0.00    -0.010 A 
ATOM      4  C   UNL     1      43.836  54.621  36.123  1.00  0.00     0.055 A 
ATOM      5  C   UNL     1      43.785  55.975  35.801  1.00  0.00     0.119 A 
ATOM      6  C   UNL     1      42.941  56.412  34.780  1.00  0.00     0.093 A 
ATOM      7  C   UNL     1      42.113  55.508  34.099  1.00  0.00     0.127 A 
ATOM      8  C   UNL     1      42.030  54.154  34.529  1.00  0.00     0.035 A 
ATOM      9  C   UNL     1      41.099  53.202  33.998  1.00  0.00     0.039 A 
ATOM     10  C   UNL     1      41.368  51.817  34.178  1.00  0.00    -0.014 A 
ATOM     11  C   UNL     1      40.573  50.852  33.546  1.00  0.00     0.013 A 
ATOM     12  C   UNL     1      39.479  51.237  32.782  1.00  0.00     0.051 A 
ATOM     13  C   UNL     1      39.103  52.577  32.710  1.00  0.00     0.158 A 
ATOM     14  C   UNL     1      39.857  53.558  33.395  1.00  0.00     0.166 A 
ENDROOT
BRANCH  14  15
ATOM     15  O   UNL     1      39.332  54.838  33.589  1.00  0.00    -0.504 OA
ATOM     16  H   UNL     1      38.343  55.048  33.577  1.00  0.00     0.293 HD
ENDBRANCH  14  15
BRANCH   5  17
ATOM     17  O   UNL     1      44.608  56.873  36.477  1.00  0.00    -0.508 OA
ATOM     18  H   UNL     1      45.504  56.590  36.856  1.00  0.00     0.293 HD
ENDBRANCH   5  17
BRANCH   7  19
ATOM     19  O   UNL     1      41.464  55.945  32.944  1.00  0.00    -0.507 OA
ATOM     20  H   UNL     1      40.542  55.610  32.688  1.00  0.00     0.293 HD
ENDBRANCH   7  19
BRANCH  13  21
ATOM     21  O   UNL     1      37.970  52.898  31.958  1.00  0.00    -0.504 OA
ATOM     22  H   UNL     1      37.137  52.327  31.935  1.00  0.00     0.293 HD
ENDBRANCH  13  21
TORSDOF 4
ENDMDL
