MODEL 1
REMARK VINA RESULT:    -8.279      0.000      0.000
REMARK INTER + INTRA:          -9.105
REMARK INTER:                  -9.247
REMARK INTRA:                   0.142
REMARK UNBOUND:                 0.142
REMARK SMILES CC1(C)CC[C@@]2(C(=O)[O-])[C@H](C1)C1=CC[C@@H]3[C@]4(C)CC[C@H](O)C(C)(C)[C@@H]4CC[C@@]3(C)[C@]1(C)C[C@@H]2O
REMARK SMILES IDX 6 1 5 2 10 3 33 4 4 5 11 6 12 7 32 8 2 9 13 10 30 11 1 12
REMARK SMILES IDX 3 13 14 14 28 15 31 16 15 17 27 18 29 19 16 20 26 21 18 22
REMARK SMILES IDX 17 23 25 24 19 25 22 26 20 27 23 28 24 29 7 30 8 31 9 32
REMARK SMILES IDX 34 33 21 35
REMARK H PARENT 34 34 21 36
REMARK Flexibility Score: inf
ROOT
ATOM      1  C   UNL     1     -19.784 -29.747  -5.224  1.00  0.00     0.042 C 
ATOM      2  C   UNL     1     -20.732 -30.959  -5.001  1.00  0.00     0.017 C 
ATOM      3  C   UNL     1     -20.104 -28.664  -4.143  1.00  0.00     0.030 C 
ATOM      4  C   UNL     1     -18.316 -30.230  -5.028  1.00  0.00     0.127 C 
ATOM      5  C   UNL     1     -22.216 -30.564  -5.070  1.00  0.00     0.007 C 
ATOM      6  C   UNL     1     -21.606 -28.252  -4.180  1.00  0.00     0.015 C 
ATOM      7  C   UNL     1     -19.080 -27.502  -4.188  1.00  0.00    -0.063 C 
ATOM      8  C   UNL     1     -17.317 -29.058  -5.146  1.00  0.00     0.044 C 
ATOM      9  C   UNL     1     -22.591 -29.451  -4.061  1.00  0.00    -0.035 C 
ATOM     10  C   UNL     1     -19.496 -26.207  -4.113  1.00  0.00    -0.027 C 
ATOM     11  C   UNL     1     -17.572 -27.867  -4.151  1.00  0.00    -0.003 C 
ATOM     12  C   UNL     1     -22.611 -30.008  -2.616  1.00  0.00     0.011 C 
ATOM     13  C   UNL     1     -24.015 -28.951  -4.390  1.00  0.00     0.011 C 
ATOM     14  C   UNL     1     -18.591 -25.005  -4.131  1.00  0.00     0.032 C 
ATOM     15  C   UNL     1     -16.655 -26.584  -4.533  1.00  0.00    -0.020 C 
ATOM     16  C   UNL     1     -17.249 -28.410  -2.716  1.00  0.00     0.017 C 
ATOM     17  C   UNL     1     -17.147 -25.340  -3.701  1.00  0.00     0.006 C 
ATOM     18  C   UNL     1     -15.168 -26.833  -4.193  1.00  0.00     0.008 C 
ATOM     19  C   UNL     1     -16.757 -26.315  -6.074  1.00  0.00     0.012 C 
ATOM     20  C   UNL     1     -16.195 -24.051  -3.520  1.00  0.00    -0.025 C 
ATOM     21  C   UNL     1     -14.304 -25.600  -4.440  1.00  0.00     0.005 C 
ATOM     22  C   UNL     1     -16.452 -22.983  -4.635  1.00  0.00     0.010 C 
ATOM     23  C   UNL     1     -16.609 -23.407  -2.146  1.00  0.00     0.012 C 
ATOM     24  C   UNL     1     -14.648 -24.448  -3.459  1.00  0.00     0.003 C 
ATOM     25  C   UNL     1     -15.477 -21.799  -4.633  1.00  0.00     0.033 C 
ATOM     26  C   UNL     1     -13.622 -23.228  -3.575  1.00  0.00    -0.006 C 
ATOM     27  C   UNL     1     -14.018 -22.255  -4.728  1.00  0.00     0.120 C 
ATOM     28  C   UNL     1     -13.534 -22.448  -2.231  1.00  0.00     0.014 C 
ATOM     29  C   UNL     1     -12.163 -23.711  -3.831  1.00  0.00     0.014 C 
ENDROOT
BRANCH   1  30
ATOM     30  C   UNL     1     -19.966 -29.224  -6.651  1.00  0.00     0.051 C 
ATOM     31  O   UNL     1     -19.856 -27.998  -6.919  1.00  0.00    -0.549 OA
ATOM     32  O   UNL     1     -20.197 -30.114  -7.696  1.00  0.00    -0.549 OA
ENDBRANCH   1  30
BRANCH   4  33
ATOM     33  O   UNL     1     -17.999 -31.207  -5.989  1.00  0.00    -0.392 OA
ATOM     34  H   UNL     1     -17.136 -30.939  -6.402  1.00  0.00     0.210 HD
ENDBRANCH   4  33
BRANCH  27  35
ATOM     35  O   UNL     1     -13.802 -22.859  -5.981  1.00  0.00    -0.393 OA
ATOM     36  H   UNL     1     -13.685 -23.832  -5.821  1.00  0.00     0.210 HD
ENDBRANCH  27  35
TORSDOF 3
ENDMDL
MODEL 2
REMARK VINA RESULT:    -7.760      5.426      8.790
REMARK INTER + INTRA:          -8.526
REMARK INTER:                  -8.608
REMARK INTRA:                   0.082
REMARK UNBOUND:                 0.142
REMARK SMILES CC1(C)CC[C@@]2(C(=O)[O-])[C@H](C1)C1=CC[C@@H]3[C@]4(C)CC[C@H](O)C(C)(C)[C@@H]4CC[C@@]3(C)[C@]1(C)C[C@@H]2O
REMARK SMILES IDX 6 1 5 2 10 3 33 4 4 5 11 6 12 7 32 8 2 9 13 10 30 11 1 12
REMARK SMILES IDX 3 13 14 14 28 15 31 16 15 17 27 18 29 19 16 20 26 21 18 22
REMARK SMILES IDX 17 23 25 24 19 25 22 26 20 27 23 28 24 29 7 30 8 31 9 32
REMARK SMILES IDX 34 33 21 35
REMARK H PARENT 34 34 21 36
REMARK Flexibility Score: inf
ROOT
ATOM      1  C   UNL     1     -13.355 -24.614  -3.785  1.00  0.00     0.042 C 
ATOM      2  C   UNL     1     -14.069 -24.165  -5.092  1.00  0.00     0.017 C 
ATOM      3  C   UNL     1     -14.258 -24.223  -2.570  1.00  0.00     0.030 C 
ATOM      4  C   UNL     1     -13.203 -26.164  -3.817  1.00  0.00     0.127 C 
ATOM      5  C   UNL     1     -14.362 -22.657  -5.113  1.00  0.00     0.007 C 
ATOM      6  C   UNL     1     -14.582 -22.700  -2.571  1.00  0.00     0.015 C 
ATOM      7  C   UNL     1     -13.698 -24.798  -1.244  1.00  0.00    -0.063 C 
ATOM      8  C   UNL     1     -12.580 -26.695  -2.507  1.00  0.00     0.044 C 
ATOM      9  C   UNL     1     -15.207 -22.190  -3.902  1.00  0.00    -0.035 C 
ATOM     10  C   UNL     1     -13.644 -24.027  -0.122  1.00  0.00    -0.027 C 
ATOM     11  C   UNL     1     -13.363 -26.312  -1.198  1.00  0.00    -0.003 C 
ATOM     12  C   UNL     1     -16.673 -22.668  -4.043  1.00  0.00     0.011 C 
ATOM     13  C   UNL     1     -15.218 -20.646  -3.880  1.00  0.00     0.011 C 
ATOM     14  C   UNL     1     -13.137 -24.484   1.219  1.00  0.00     0.032 C 
ATOM     15  C   UNL     1     -12.495 -26.674   0.124  1.00  0.00    -0.020 C 
ATOM     16  C   UNL     1     -14.717 -27.101  -1.242  1.00  0.00     0.017 C 
ATOM     17  C   UNL     1     -13.183 -26.019   1.381  1.00  0.00     0.006 C 
ATOM     18  C   UNL     1     -12.428 -28.201   0.355  1.00  0.00     0.008 C 
ATOM     19  C   UNL     1     -11.029 -26.151  -0.059  1.00  0.00     0.012 C 
ATOM     20  C   UNL     1     -12.833 -26.538   2.867  1.00  0.00    -0.025 C 
ATOM     21  C   UNL     1     -11.712 -28.560   1.653  1.00  0.00     0.005 C 
ATOM     22  C   UNL     1     -11.660 -25.717   3.502  1.00  0.00     0.010 C 
ATOM     23  C   UNL     1     -14.120 -26.262   3.728  1.00  0.00     0.012 C 
ATOM     24  C   UNL     1     -12.515 -28.104   2.900  1.00  0.00     0.003 C 
ATOM     25  C   UNL     1     -11.155 -26.250   4.849  1.00  0.00     0.033 C 
ATOM     26  C   UNL     1     -11.877 -28.645   4.261  1.00  0.00    -0.006 C 
ATOM     27  C   UNL     1     -10.727 -27.719   4.763  1.00  0.00     0.120 C 
ATOM     28  C   UNL     1     -12.965 -28.785   5.366  1.00  0.00     0.014 C 
ATOM     29  C   UNL     1     -11.303 -30.085   4.107  1.00  0.00     0.014 C 
ENDROOT
BRANCH   1  30
ATOM     30  C   UNL     1     -11.971 -23.963  -3.722  1.00  0.00     0.051 C 
ATOM     31  O   UNL     1     -11.518 -23.490  -2.646  1.00  0.00    -0.549 OA
ATOM     32  O   UNL     1     -11.158 -23.941  -4.852  1.00  0.00    -0.549 OA
ENDBRANCH   1  30
BRANCH   4  33
ATOM     33  O   UNL     1     -12.394 -26.546  -4.903  1.00  0.00    -0.392 OA
ATOM     34  H   UNL     1     -12.839 -27.321  -5.337  1.00  0.00     0.210 HD
ENDBRANCH   4  33
BRANCH  27  35
ATOM     35  O   UNL     1      -9.603 -27.825   3.923  1.00  0.00    -0.393 OA
ATOM     36  H   UNL     1      -9.065 -28.593   4.249  1.00  0.00     0.210 HD
ENDBRANCH  27  35
TORSDOF 3
ENDMDL
MODEL 3
REMARK VINA RESULT:    -7.757      2.172      3.075
REMARK INTER + INTRA:          -8.523
REMARK INTER:                  -8.587
REMARK INTRA:                   0.065
REMARK UNBOUND:                 0.142
REMARK SMILES CC1(C)CC[C@@]2(C(=O)[O-])[C@H](C1)C1=CC[C@@H]3[C@]4(C)CC[C@H](O)C(C)(C)[C@@H]4CC[C@@]3(C)[C@]1(C)C[C@@H]2O
REMARK SMILES IDX 6 1 5 2 10 3 33 4 4 5 11 6 12 7 32 8 2 9 13 10 30 11 1 12
REMARK SMILES IDX 3 13 14 14 28 15 31 16 15 17 27 18 29 19 16 20 26 21 18 22
REMARK SMILES IDX 17 23 25 24 19 25 22 26 20 27 23 28 24 29 7 30 8 31 9 32
REMARK SMILES IDX 34 33 21 35
REMARK H PARENT 34 34 21 36
REMARK Flexibility Score: inf
ROOT
ATOM      1  C   UNL     1     -20.860 -28.498  -8.250  1.00  0.00     0.042 C 
ATOM      2  C   UNL     1     -21.499 -29.706  -8.993  1.00  0.00     0.017 C 
ATOM      3  C   UNL     1     -20.419 -28.971  -6.826  1.00  0.00     0.030 C 
ATOM      4  C   UNL     1     -19.595 -28.049  -9.040  1.00  0.00     0.127 C 
ATOM      5  C   UNL     1     -22.699 -30.293  -8.234  1.00  0.00     0.007 C 
ATOM      6  C   UNL     1     -21.614 -29.583  -6.037  1.00  0.00     0.015 C 
ATOM      7  C   UNL     1     -19.612 -27.871  -6.091  1.00  0.00    -0.063 C 
ATOM      8  C   UNL     1     -18.853 -26.906  -8.314  1.00  0.00     0.044 C 
ATOM      9  C   UNL     1     -22.346 -30.731  -6.792  1.00  0.00    -0.035 C 
ATOM     10  C   UNL     1     -19.861 -27.584  -4.783  1.00  0.00    -0.027 C 
ATOM     11  C   UNL     1     -18.411 -27.235  -6.841  1.00  0.00    -0.003 C 
ATOM     12  C   UNL     1     -21.485 -32.018  -6.808  1.00  0.00     0.011 C 
ATOM     13  C   UNL     1     -23.657 -31.053  -6.042  1.00  0.00     0.011 C 
ATOM     14  C   UNL     1     -19.130 -26.551  -3.969  1.00  0.00     0.032 C 
ATOM     15  C   UNL     1     -17.893 -25.899  -6.078  1.00  0.00    -0.020 C 
ATOM     16  C   UNL     1     -17.286 -28.321  -6.946  1.00  0.00     0.017 C 
ATOM     17  C   UNL     1     -17.737 -26.217  -4.543  1.00  0.00     0.006 C 
ATOM     18  C   UNL     1     -16.518 -25.440  -6.616  1.00  0.00     0.008 C 
ATOM     19  C   UNL     1     -18.916 -24.736  -6.317  1.00  0.00     0.012 C 
ATOM     20  C   UNL     1     -16.844 -25.262  -3.599  1.00  0.00    -0.025 C 
ATOM     21  C   UNL     1     -15.960 -24.252  -5.839  1.00  0.00     0.005 C 
ATOM     22  C   UNL     1     -17.707 -24.139  -2.934  1.00  0.00     0.010 C 
ATOM     23  C   UNL     1     -16.308 -26.188  -2.446  1.00  0.00     0.012 C 
ATOM     24  C   UNL     1     -15.598 -24.636  -4.380  1.00  0.00     0.003 C 
ATOM     25  C   UNL     1     -16.910 -23.090  -2.150  1.00  0.00     0.033 C 
ATOM     26  C   UNL     1     -14.833 -23.459  -3.617  1.00  0.00    -0.006 C 
ATOM     27  C   UNL     1     -15.830 -22.425  -3.011  1.00  0.00     0.120 C 
ATOM     28  C   UNL     1     -13.916 -24.030  -2.495  1.00  0.00     0.014 C 
ATOM     29  C   UNL     1     -13.854 -22.692  -4.555  1.00  0.00     0.014 C 
ENDROOT
BRANCH   1  30
ATOM     30  C   UNL     1     -21.870 -27.348  -8.201  1.00  0.00     0.051 C 
ATOM     31  O   UNL     1     -22.133 -26.753  -7.122  1.00  0.00    -0.549 OA
ATOM     32  O   UNL     1     -22.472 -26.899  -9.371  1.00  0.00    -0.549 OA
ENDBRANCH   1  30
BRANCH   4  33
ATOM     33  O   UNL     1     -19.962 -27.617 -10.329  1.00  0.00    -0.392 OA
ATOM     34  H   UNL     1     -19.294 -27.993 -10.961  1.00  0.00     0.210 HD
ENDBRANCH   4  33
BRANCH  27  35
ATOM     35  O   UNL     1     -16.447 -21.677  -4.030  1.00  0.00    -0.393 OA
ATOM     36  H   UNL     1     -17.170 -21.143  -3.606  1.00  0.00     0.210 HD
ENDBRANCH  27  35
TORSDOF 3
ENDMDL
MODEL 4
REMARK VINA RESULT:    -7.740      3.487      9.231
REMARK INTER + INTRA:          -8.504
REMARK INTER:                  -8.568
REMARK INTRA:                   0.064
REMARK UNBOUND:                 0.142
REMARK SMILES CC1(C)CC[C@@]2(C(=O)[O-])[C@H](C1)C1=CC[C@@H]3[C@]4(C)CC[C@H](O)C(C)(C)[C@@H]4CC[C@@]3(C)[C@]1(C)C[C@@H]2O
REMARK SMILES IDX 6 1 5 2 10 3 33 4 4 5 11 6 12 7 32 8 2 9 13 10 30 11 1 12
REMARK SMILES IDX 3 13 14 14 28 15 31 16 15 17 27 18 29 19 16 20 26 21 18 22
REMARK SMILES IDX 17 23 25 24 19 25 22 26 20 27 23 28 24 29 7 30 8 31 9 32
REMARK SMILES IDX 34 33 21 35
REMARK H PARENT 34 34 21 36
REMARK Flexibility Score: inf
ROOT
ATOM      1  C   UNL     1     -10.607 -24.424  -0.454  1.00  0.00     0.042 C 
ATOM      2  C   UNL     1      -9.319 -23.749   0.097  1.00  0.00     0.017 C 
ATOM      3  C   UNL     1     -11.528 -23.312  -1.056  1.00  0.00     0.030 C 
ATOM      4  C   UNL     1     -10.199 -25.404  -1.593  1.00  0.00     0.127 C 
ATOM      5  C   UNL     1      -9.623 -22.681   1.159  1.00  0.00     0.007 C 
ATOM      6  C   UNL     1     -11.843 -22.207  -0.005  1.00  0.00     0.015 C 
ATOM      7  C   UNL     1     -12.750 -23.925  -1.786  1.00  0.00    -0.063 C 
ATOM      8  C   UNL     1     -11.439 -26.048  -2.253  1.00  0.00     0.044 C 
ATOM      9  C   UNL     1     -10.579 -21.576   0.646  1.00  0.00    -0.035 C 
ATOM     10  C   UNL     1     -13.997 -23.406  -1.607  1.00  0.00    -0.027 C 
ATOM     11  C   UNL     1     -12.480 -25.028  -2.843  1.00  0.00    -0.003 C 
ATOM     12  C   UNL     1      -9.849 -20.645  -0.354  1.00  0.00     0.011 C 
ATOM     13  C   UNL     1     -11.023 -20.715   1.849  1.00  0.00     0.011 C 
ATOM     14  C   UNL     1     -15.248 -23.910  -2.275  1.00  0.00     0.032 C 
ATOM     15  C   UNL     1     -13.856 -25.780  -3.261  1.00  0.00    -0.020 C 
ATOM     16  C   UNL     1     -11.788 -24.349  -4.075  1.00  0.00     0.017 C 
ATOM     17  C   UNL     1     -14.955 -24.695  -3.572  1.00  0.00     0.006 C 
ATOM     18  C   UNL     1     -13.664 -26.645  -4.527  1.00  0.00     0.008 C 
ATOM     19  C   UNL     1     -14.304 -26.726  -2.095  1.00  0.00     0.012 C 
ATOM     20  C   UNL     1     -16.271 -25.085  -4.419  1.00  0.00    -0.025 C 
ATOM     21  C   UNL     1     -14.970 -27.273  -5.004  1.00  0.00     0.005 C 
ATOM     22  C   UNL     1     -17.448 -25.524  -3.486  1.00  0.00     0.010 C 
ATOM     23  C   UNL     1     -16.714 -23.763  -5.147  1.00  0.00     0.012 C 
ATOM     24  C   UNL     1     -15.969 -26.204  -5.520  1.00  0.00     0.003 C 
ATOM     25  C   UNL     1     -18.683 -26.067  -4.216  1.00  0.00     0.033 C 
ATOM     26  C   UNL     1     -17.257 -26.859  -6.201  1.00  0.00    -0.006 C 
ATOM     27  C   UNL     1     -18.336 -27.238  -5.141  1.00  0.00     0.120 C 
ATOM     28  C   UNL     1     -17.872 -25.900  -7.263  1.00  0.00     0.014 C 
ATOM     29  C   UNL     1     -16.903 -28.143  -7.009  1.00  0.00     0.014 C 
ENDROOT
BRANCH   1  30
ATOM     30  C   UNL     1     -11.288 -25.202   0.675  1.00  0.00     0.051 C 
ATOM     31  O   UNL     1     -12.522 -25.085   0.900  1.00  0.00    -0.549 OA
ATOM     32  O   UNL     1     -10.556 -26.107   1.437  1.00  0.00    -0.549 OA
ENDBRANCH   1  30
BRANCH   4  33
ATOM     33  O   UNL     1      -9.369 -26.418  -1.081  1.00  0.00    -0.392 OA
ATOM     34  H   UNL     1      -9.096 -26.986  -1.848  1.00  0.00     0.210 HD
ENDBRANCH   4  33
BRANCH  27  35
ATOM     35  O   UNL     1     -17.906 -28.329  -4.364  1.00  0.00    -0.393 OA
ATOM     36  H   UNL     1     -17.605 -27.966  -3.490  1.00  0.00     0.210 HD
ENDBRANCH  27  35
TORSDOF 3
ENDMDL
MODEL 5
REMARK VINA RESULT:    -7.698      6.809      9.582
REMARK INTER + INTRA:          -8.457
REMARK INTER:                  -8.573
REMARK INTRA:                   0.117
REMARK UNBOUND:                 0.142
REMARK SMILES CC1(C)CC[C@@]2(C(=O)[O-])[C@H](C1)C1=CC[C@@H]3[C@]4(C)CC[C@H](O)C(C)(C)[C@@H]4CC[C@@]3(C)[C@]1(C)C[C@@H]2O
REMARK SMILES IDX 6 1 5 2 10 3 33 4 4 5 11 6 12 7 32 8 2 9 13 10 30 11 1 12
REMARK SMILES IDX 3 13 14 14 28 15 31 16 15 17 27 18 29 19 16 20 26 21 18 22
REMARK SMILES IDX 17 23 25 24 19 25 22 26 20 27 23 28 24 29 7 30 8 31 9 32
REMARK SMILES IDX 34 33 21 35
REMARK H PARENT 34 34 21 36
REMARK Flexibility Score: inf
ROOT
ATOM      1  C   UNL     1     -11.703 -25.648   4.104  1.00  0.00     0.042 C 
ATOM      2  C   UNL     1     -11.848 -26.018   5.607  1.00  0.00     0.017 C 
ATOM      3  C   UNL     1     -13.132 -25.587   3.470  1.00  0.00     0.030 C 
ATOM      4  C   UNL     1     -11.054 -24.235   4.006  1.00  0.00     0.127 C 
ATOM      5  C   UNL     1     -12.577 -27.355   5.815  1.00  0.00     0.007 C 
ATOM      6  C   UNL     1     -13.900 -26.926   3.676  1.00  0.00     0.015 C 
ATOM      7  C   UNL     1     -13.082 -25.049   2.017  1.00  0.00    -0.063 C 
ATOM      8  C   UNL     1     -10.958 -23.759   2.540  1.00  0.00     0.044 C 
ATOM      9  C   UNL     1     -13.980 -27.384   5.161  1.00  0.00    -0.035 C 
ATOM     10  C   UNL     1     -13.801 -25.651   1.029  1.00  0.00    -0.027 C 
ATOM     11  C   UNL     1     -12.327 -23.717   1.767  1.00  0.00    -0.003 C 
ATOM     12  C   UNL     1     -14.973 -26.502   5.959  1.00  0.00     0.011 C 
ATOM     13  C   UNL     1     -14.508 -28.836   5.200  1.00  0.00     0.011 C 
ATOM     14  C   UNL     1     -13.839 -25.206  -0.407  1.00  0.00     0.032 C 
ATOM     15  C   UNL     1     -12.090 -23.473   0.180  1.00  0.00    -0.020 C 
ATOM     16  C   UNL     1     -13.169 -22.564   2.416  1.00  0.00     0.017 C 
ATOM     17  C   UNL     1     -13.447 -23.723  -0.581  1.00  0.00     0.006 C 
ATOM     18  C   UNL     1     -11.638 -22.023  -0.107  1.00  0.00     0.008 C 
ATOM     19  C   UNL     1     -10.966 -24.438  -0.330  1.00  0.00     0.012 C 
ATOM     20  C   UNL     1     -13.661 -23.153  -2.075  1.00  0.00    -0.025 C 
ATOM     21  C   UNL     1     -11.517 -21.740  -1.601  1.00  0.00     0.005 C 
ATOM     22  C   UNL     1     -13.249 -24.205  -3.158  1.00  0.00     0.010 C 
ATOM     23  C   UNL     1     -15.209 -22.911  -2.218  1.00  0.00     0.012 C 
ATOM     24  C   UNL     1     -12.898 -21.768  -2.307  1.00  0.00     0.003 C 
ATOM     25  C   UNL     1     -13.267 -23.688  -4.601  1.00  0.00     0.033 C 
ATOM     26  C   UNL     1     -12.811 -21.281  -3.826  1.00  0.00    -0.006 C 
ATOM     27  C   UNL     1     -12.391 -22.443  -4.778  1.00  0.00     0.120 C 
ATOM     28  C   UNL     1     -14.168 -20.677  -4.294  1.00  0.00     0.014 C 
ATOM     29  C   UNL     1     -11.793 -20.116  -4.010  1.00  0.00     0.014 C 
ENDROOT
BRANCH   1  30
ATOM     30  C   UNL     1     -10.800 -26.677   3.419  1.00  0.00     0.051 C 
ATOM     31  O   UNL     1     -11.020 -27.061   2.240  1.00  0.00    -0.549 OA
ATOM     32  O   UNL     1      -9.673 -27.162   4.076  1.00  0.00    -0.549 OA
ENDBRANCH   1  30
BRANCH   4  33
ATOM     33  O   UNL     1      -9.765 -24.259   4.570  1.00  0.00    -0.392 OA
ATOM     34  H   UNL     1      -9.520 -23.318   4.774  1.00  0.00     0.210 HD
ENDBRANCH   4  33
BRANCH  27  35
ATOM     35  O   UNL     1     -11.044 -22.792  -4.569  1.00  0.00    -0.393 OA
ATOM     36  H   UNL     1     -10.998 -23.783  -4.547  1.00  0.00     0.210 HD
ENDBRANCH  27  35
TORSDOF 3
ENDMDL
MODEL 6
REMARK VINA RESULT:    -7.592      7.558      9.478
REMARK INTER + INTRA:          -8.338
REMARK INTER:                  -8.460
REMARK INTRA:                   0.122
REMARK UNBOUND:                 0.142
REMARK SMILES CC1(C)CC[C@@]2(C(=O)[O-])[C@H](C1)C1=CC[C@@H]3[C@]4(C)CC[C@H](O)C(C)(C)[C@@H]4CC[C@@]3(C)[C@]1(C)C[C@@H]2O
REMARK SMILES IDX 6 1 5 2 10 3 33 4 4 5 11 6 12 7 32 8 2 9 13 10 30 11 1 12
REMARK SMILES IDX 3 13 14 14 28 15 31 16 15 17 27 18 29 19 16 20 26 21 18 22
REMARK SMILES IDX 17 23 25 24 19 25 22 26 20 27 23 28 24 29 7 30 8 31 9 32
REMARK SMILES IDX 34 33 21 35
REMARK H PARENT 34 34 21 36
REMARK Flexibility Score: inf
ROOT
ATOM      1  C   UNL     1     -14.753 -31.431   1.890  1.00  0.00     0.042 C 
ATOM      2  C   UNL     1     -14.902 -32.931   1.508  1.00  0.00     0.017 C 
ATOM      3  C   UNL     1     -13.591 -31.299   2.930  1.00  0.00     0.030 C 
ATOM      4  C   UNL     1     -14.369 -30.633   0.609  1.00  0.00     0.127 C 
ATOM      5  C   UNL     1     -15.178 -33.824   2.728  1.00  0.00     0.007 C 
ATOM      6  C   UNL     1     -13.838 -32.204   4.173  1.00  0.00     0.015 C 
ATOM      7  C   UNL     1     -13.264 -29.813   3.224  1.00  0.00    -0.063 C 
ATOM      8  C   UNL     1     -14.115 -29.143   0.928  1.00  0.00     0.044 C 
ATOM      9  C   UNL     1     -14.093 -33.699   3.825  1.00  0.00    -0.035 C 
ATOM     10  C   UNL     1     -13.063 -29.387   4.502  1.00  0.00    -0.027 C 
ATOM     11  C   UNL     1     -13.009 -28.877   2.013  1.00  0.00    -0.003 C 
ATOM     12  C   UNL     1     -12.782 -34.393   3.377  1.00  0.00     0.011 C 
ATOM     13  C   UNL     1     -14.595 -34.420   5.095  1.00  0.00     0.011 C 
ATOM     14  C   UNL     1     -12.725 -27.976   4.901  1.00  0.00     0.032 C 
ATOM     15  C   UNL     1     -13.009 -27.321   2.472  1.00  0.00    -0.020 C 
ATOM     16  C   UNL     1     -11.642 -29.295   1.367  1.00  0.00     0.017 C 
ATOM     17  C   UNL     1     -12.095 -27.166   3.747  1.00  0.00     0.006 C 
ATOM     18  C   UNL     1     -12.444 -26.405   1.363  1.00  0.00     0.008 C 
ATOM     19  C   UNL     1     -14.480 -26.868   2.768  1.00  0.00     0.012 C 
ATOM     20  C   UNL     1     -11.542 -25.716   4.183  1.00  0.00    -0.025 C 
ATOM     21  C   UNL     1     -12.331 -24.952   1.814  1.00  0.00     0.005 C 
ATOM     22  C   UNL     1     -12.503 -25.014   5.201  1.00  0.00     0.010 C 
ATOM     23  C   UNL     1     -10.183 -25.986   4.928  1.00  0.00     0.012 C 
ATOM     24  C   UNL     1     -11.261 -24.774   2.923  1.00  0.00     0.003 C 
ATOM     25  C   UNL     1     -12.135 -23.565   5.542  1.00  0.00     0.033 C 
ATOM     26  C   UNL     1     -10.993 -23.235   3.263  1.00  0.00    -0.006 C 
ATOM     27  C   UNL     1     -12.031 -22.687   4.290  1.00  0.00     0.120 C 
ATOM     28  C   UNL     1      -9.550 -23.032   3.810  1.00  0.00     0.014 C 
ATOM     29  C   UNL     1     -11.050 -22.336   1.993  1.00  0.00     0.014 C 
ENDROOT
BRANCH   1  30
ATOM     30  C   UNL     1     -16.088 -30.918   2.434  1.00  0.00     0.051 C 
ATOM     31  O   UNL     1     -16.135 -30.072   3.367  1.00  0.00    -0.549 OA
ATOM     32  O   UNL     1     -17.283 -31.336   1.857  1.00  0.00    -0.549 OA
ENDBRANCH   1  30
BRANCH   4  33
ATOM     33  O   UNL     1     -15.397 -30.734  -0.346  1.00  0.00    -0.392 OA
ATOM     34  H   UNL     1     -15.296 -29.963  -0.964  1.00  0.00     0.210 HD
ENDBRANCH   4  33
BRANCH  27  35
ATOM     35  O   UNL     1     -13.302 -22.574   3.697  1.00  0.00    -0.393 OA
ATOM     36  H   UNL     1     -13.221 -22.907   2.765  1.00  0.00     0.210 HD
ENDBRANCH  27  35
TORSDOF 3
ENDMDL
MODEL 7
REMARK VINA RESULT:    -7.521      2.793      4.940
REMARK INTER + INTRA:          -8.258
REMARK INTER:                  -8.326
REMARK INTRA:                   0.068
REMARK UNBOUND:                 0.142
REMARK SMILES CC1(C)CC[C@@]2(C(=O)[O-])[C@H](C1)C1=CC[C@@H]3[C@]4(C)CC[C@H](O)C(C)(C)[C@@H]4CC[C@@]3(C)[C@]1(C)C[C@@H]2O
REMARK SMILES IDX 6 1 5 2 10 3 33 4 4 5 11 6 12 7 32 8 2 9 13 10 30 11 1 12
REMARK SMILES IDX 3 13 14 14 28 15 31 16 15 17 27 18 29 19 16 20 26 21 18 22
REMARK SMILES IDX 17 23 25 24 19 25 22 26 20 27 23 28 24 29 7 30 8 31 9 32
REMARK SMILES IDX 34 33 21 35
REMARK H PARENT 34 34 21 36
REMARK Flexibility Score: inf
ROOT
ATOM      1  C   UNL     1     -17.692 -27.011  -4.940  1.00  0.00     0.042 C 
ATOM      2  C   UNL     1     -19.093 -27.196  -5.589  1.00  0.00     0.017 C 
ATOM      3  C   UNL     1     -17.150 -25.597  -5.330  1.00  0.00     0.030 C 
ATOM      4  C   UNL     1     -17.856 -27.073  -3.393  1.00  0.00     0.127 C 
ATOM      5  C   UNL     1     -19.056 -27.046  -7.119  1.00  0.00     0.007 C 
ATOM      6  C   UNL     1     -17.113 -25.410  -6.876  1.00  0.00     0.015 C 
ATOM      7  C   UNL     1     -15.837 -25.268  -4.574  1.00  0.00    -0.063 C 
ATOM      8  C   UNL     1     -16.515 -26.807  -2.673  1.00  0.00     0.044 C 
ATOM      9  C   UNL     1     -18.475 -25.686  -7.577  1.00  0.00    -0.035 C 
ATOM     10  C   UNL     1     -14.781 -24.710  -5.229  1.00  0.00    -0.027 C 
ATOM     11  C   UNL     1     -15.831 -25.438  -3.032  1.00  0.00    -0.003 C 
ATOM     12  C   UNL     1     -19.480 -24.541  -7.299  1.00  0.00     0.011 C 
ATOM     13  C   UNL     1     -18.239 -25.743  -9.102  1.00  0.00     0.011 C 
ATOM     14  C   UNL     1     -13.469 -24.335  -4.594  1.00  0.00     0.032 C 
ATOM     15  C   UNL     1     -14.319 -25.374  -2.447  1.00  0.00    -0.020 C 
ATOM     16  C   UNL     1     -16.740 -24.314  -2.425  1.00  0.00     0.017 C 
ATOM     17  C   UNL     1     -13.585 -24.125  -3.068  1.00  0.00     0.006 C 
ATOM     18  C   UNL     1     -14.314 -25.218  -0.910  1.00  0.00     0.008 C 
ATOM     19  C   UNL     1     -13.571 -26.706  -2.799  1.00  0.00     0.012 C 
ATOM     20  C   UNL     1     -12.251 -23.537  -2.379  1.00  0.00    -0.025 C 
ATOM     21  C   UNL     1     -12.906 -25.044  -0.350  1.00  0.00     0.005 C 
ATOM     22  C   UNL     1     -10.958 -24.176  -2.987  1.00  0.00     0.010 C 
ATOM     23  C   UNL     1     -12.231 -22.005  -2.735  1.00  0.00     0.012 C 
ATOM     24  C   UNL     1     -12.273 -23.698  -0.789  1.00  0.00     0.003 C 
ATOM     25  C   UNL     1      -9.653 -23.793  -2.277  1.00  0.00     0.033 C 
ATOM     26  C   UNL     1     -10.883 -23.414  -0.053  1.00  0.00    -0.006 C 
ATOM     27  C   UNL     1      -9.695 -24.117  -0.780  1.00  0.00     0.120 C 
ATOM     28  C   UNL     1     -10.611 -21.884   0.048  1.00  0.00     0.014 C 
ATOM     29  C   UNL     1     -10.895 -23.897   1.428  1.00  0.00     0.014 C 
ENDROOT
BRANCH   1  30
ATOM     30  C   UNL     1     -16.771 -28.142  -5.405  1.00  0.00     0.051 C 
ATOM     31  O   UNL     1     -15.653 -27.901  -5.934  1.00  0.00    -0.549 OA
ATOM     32  O   UNL     1     -17.132 -29.468  -5.191  1.00  0.00    -0.549 OA
ENDBRANCH   1  30
BRANCH   4  33
ATOM     33  O   UNL     1     -18.344 -28.337  -3.011  1.00  0.00    -0.392 OA
ATOM     34  H   UNL     1     -18.036 -28.498  -2.081  1.00  0.00     0.210 HD
ENDBRANCH   4  33
BRANCH  27  35
ATOM     35  O   UNL     1      -9.766 -25.511  -0.610  1.00  0.00    -0.393 OA
ATOM     36  H   UNL     1      -9.938 -25.908  -1.505  1.00  0.00     0.210 HD
ENDBRANCH  27  35
TORSDOF 3
ENDMDL
MODEL 8
REMARK VINA RESULT:    -7.505      2.624      8.651
REMARK INTER + INTRA:          -8.240
REMARK INTER:                  -8.308
REMARK INTRA:                   0.068
REMARK UNBOUND:                 0.142
REMARK SMILES CC1(C)CC[C@@]2(C(=O)[O-])[C@H](C1)C1=CC[C@@H]3[C@]4(C)CC[C@H](O)C(C)(C)[C@@H]4CC[C@@]3(C)[C@]1(C)C[C@@H]2O
REMARK SMILES IDX 6 1 5 2 10 3 33 4 4 5 11 6 12 7 32 8 2 9 13 10 30 11 1 12
REMARK SMILES IDX 3 13 14 14 28 15 31 16 15 17 27 18 29 19 16 20 26 21 18 22
REMARK SMILES IDX 17 23 25 24 19 25 22 26 20 27 23 28 24 29 7 30 8 31 9 32
REMARK SMILES IDX 34 33 21 35
REMARK H PARENT 34 34 21 36
REMARK Flexibility Score: inf
ROOT
ATOM      1  C   UNL     1     -12.472 -22.868  -1.485  1.00  0.00     0.042 C 
ATOM      2  C   UNL     1     -11.827 -22.073  -0.313  1.00  0.00     0.017 C 
ATOM      3  C   UNL     1     -13.464 -23.917  -0.882  1.00  0.00     0.030 C 
ATOM      4  C   UNL     1     -13.277 -21.871  -2.370  1.00  0.00     0.127 C 
ATOM      5  C   UNL     1     -11.093 -22.986   0.682  1.00  0.00     0.007 C 
ATOM      6  C   UNL     1     -12.750 -24.849   0.141  1.00  0.00     0.015 C 
ATOM      7  C   UNL     1     -14.279 -24.625  -1.994  1.00  0.00    -0.063 C 
ATOM      8  C   UNL     1     -14.022 -22.602  -3.507  1.00  0.00     0.044 C 
ATOM      9  C   UNL     1     -12.006 -24.088   1.275  1.00  0.00    -0.035 C 
ATOM     10  C   UNL     1     -14.465 -25.974  -1.966  1.00  0.00    -0.027 C 
ATOM     11  C   UNL     1     -15.007 -23.733  -3.034  1.00  0.00    -0.003 C 
ATOM     12  C   UNL     1     -13.011 -23.479   2.284  1.00  0.00     0.011 C 
ATOM     13  C   UNL     1     -11.121 -25.094   2.044  1.00  0.00     0.011 C 
ATOM     14  C   UNL     1     -15.249 -26.761  -2.980  1.00  0.00     0.032 C 
ATOM     15  C   UNL     1     -15.526 -24.615  -4.293  1.00  0.00    -0.020 C 
ATOM     16  C   UNL     1     -16.190 -23.013  -2.298  1.00  0.00     0.017 C 
ATOM     17  C   UNL     1     -16.269 -25.893  -3.748  1.00  0.00     0.006 C 
ATOM     18  C   UNL     1     -16.520 -23.819  -5.169  1.00  0.00     0.008 C 
ATOM     19  C   UNL     1     -14.302 -25.008  -5.190  1.00  0.00     0.012 C 
ATOM     20  C   UNL     1     -17.262 -26.730  -4.704  1.00  0.00    -0.025 C 
ATOM     21  C   UNL     1     -17.106 -24.665  -6.295  1.00  0.00     0.005 C 
ATOM     22  C   UNL     1     -16.513 -27.892  -5.438  1.00  0.00     0.010 C 
ATOM     23  C   UNL     1     -18.323 -27.385  -3.745  1.00  0.00     0.012 C 
ATOM     24  C   UNL     1     -18.023 -25.793  -5.751  1.00  0.00     0.003 C 
ATOM     25  C   UNL     1     -17.345 -28.635  -6.489  1.00  0.00     0.033 C 
ATOM     26  C   UNL     1     -18.796 -26.559  -6.921  1.00  0.00    -0.006 C 
ATOM     27  C   UNL     1     -17.918 -27.686  -7.547  1.00  0.00     0.120 C 
ATOM     28  C   UNL     1     -20.135 -27.160  -6.399  1.00  0.00     0.014 C 
ATOM     29  C   UNL     1     -19.232 -25.596  -8.065  1.00  0.00     0.014 C 
ENDROOT
BRANCH   1  30
ATOM     30  C   UNL     1     -11.365 -23.517  -2.319  1.00  0.00     0.051 C 
ATOM     31  O   UNL     1     -11.409 -24.738  -2.629  1.00  0.00    -0.549 OA
ATOM     32  O   UNL     1     -10.314 -22.746  -2.804  1.00  0.00    -0.549 OA
ENDBRANCH   1  30
BRANCH   4  33
ATOM     33  O   UNL     1     -12.409 -20.913  -2.925  1.00  0.00    -0.392 OA
ATOM     34  H   UNL     1     -12.804 -20.631  -3.792  1.00  0.00     0.210 HD
ENDBRANCH   4  33
BRANCH  27  35
ATOM     35  O   UNL     1     -16.861 -27.133  -8.293  1.00  0.00    -0.393 OA
ATOM     36  H   UNL     1     -16.818 -27.628  -9.152  1.00  0.00     0.210 HD
ENDBRANCH  27  35
TORSDOF 3
ENDMDL
MODEL 9
REMARK VINA RESULT:    -7.500      2.167      8.288
REMARK INTER + INTRA:          -8.235
REMARK INTER:                  -8.367
REMARK INTRA:                   0.132
REMARK UNBOUND:                 0.142
REMARK SMILES CC1(C)CC[C@@]2(C(=O)[O-])[C@H](C1)C1=CC[C@@H]3[C@]4(C)CC[C@H](O)C(C)(C)[C@@H]4CC[C@@]3(C)[C@]1(C)C[C@@H]2O
REMARK SMILES IDX 6 1 5 2 10 3 33 4 4 5 11 6 12 7 32 8 2 9 13 10 30 11 1 12
REMARK SMILES IDX 3 13 14 14 28 15 31 16 15 17 27 18 29 19 16 20 26 21 18 22
REMARK SMILES IDX 17 23 25 24 19 25 22 26 20 27 23 28 24 29 7 30 8 31 9 32
REMARK SMILES IDX 34 33 21 35
REMARK H PARENT 34 34 21 36
REMARK Flexibility Score: inf
ROOT
ATOM      1  C   UNL     1     -14.831 -23.985  -3.204  1.00  0.00     0.042 C 
ATOM      2  C   UNL     1     -13.444 -23.479  -2.714  1.00  0.00     0.017 C 
ATOM      3  C   UNL     1     -14.738 -24.272  -4.738  1.00  0.00     0.030 C 
ATOM      4  C   UNL     1     -15.157 -25.316  -2.465  1.00  0.00     0.127 C 
ATOM      5  C   UNL     1     -12.980 -22.220  -3.463  1.00  0.00     0.007 C 
ATOM      6  C   UNL     1     -14.258 -23.016  -5.523  1.00  0.00     0.015 C 
ATOM      7  C   UNL     1     -16.030 -24.949  -5.264  1.00  0.00    -0.063 C 
ATOM      8  C   UNL     1     -16.484 -25.928  -2.966  1.00  0.00     0.044 C 
ATOM      9  C   UNL     1     -12.921 -22.418  -4.997  1.00  0.00    -0.035 C 
ATOM     10  C   UNL     1     -16.603 -24.539  -6.429  1.00  0.00    -0.027 C 
ATOM     11  C   UNL     1     -16.543 -26.206  -4.512  1.00  0.00    -0.003 C 
ATOM     12  C   UNL     1     -11.722 -23.319  -5.385  1.00  0.00     0.011 C 
ATOM     13  C   UNL     1     -12.705 -21.040  -5.661  1.00  0.00     0.011 C 
ATOM     14  C   UNL     1     -17.844 -25.133  -7.040  1.00  0.00     0.032 C 
ATOM     15  C   UNL     1     -18.051 -26.585  -4.977  1.00  0.00    -0.020 C 
ATOM     16  C   UNL     1     -15.535 -27.374  -4.793  1.00  0.00     0.017 C 
ATOM     17  C   UNL     1     -18.117 -26.571  -6.551  1.00  0.00     0.006 C 
ATOM     18  C   UNL     1     -18.454 -27.995  -4.491  1.00  0.00     0.008 C 
ATOM     19  C   UNL     1     -19.058 -25.556  -4.357  1.00  0.00     0.012 C 
ATOM     20  C   UNL     1     -19.323 -27.313  -7.324  1.00  0.00    -0.025 C 
ATOM     21  C   UNL     1     -19.825 -28.417  -5.011  1.00  0.00     0.005 C 
ATOM     22  C   UNL     1     -20.517 -26.339  -7.601  1.00  0.00     0.010 C 
ATOM     23  C   UNL     1     -18.733 -27.744  -8.717  1.00  0.00     0.012 C 
ATOM     24  C   UNL     1     -19.822 -28.619  -6.549  1.00  0.00     0.003 C 
ATOM     25  C   UNL     1     -21.769 -27.003  -8.185  1.00  0.00     0.033 C 
ATOM     26  C   UNL     1     -21.192 -29.249  -7.079  1.00  0.00    -0.006 C 
ATOM     27  C   UNL     1     -22.276 -28.151  -7.307  1.00  0.00     0.120 C 
ATOM     28  C   UNL     1     -20.962 -30.048  -8.395  1.00  0.00     0.014 C 
ATOM     29  C   UNL     1     -21.773 -30.303  -6.090  1.00  0.00     0.014 C 
ENDROOT
BRANCH   1  30
ATOM     30  C   UNL     1     -15.894 -22.936  -2.866  1.00  0.00     0.051 C 
ATOM     31  O   UNL     1     -16.160 -22.634  -1.672  1.00  0.00    -0.549 OA
ATOM     32  O   UNL     1     -16.545 -22.249  -3.886  1.00  0.00    -0.549 OA
ENDBRANCH   1  30
BRANCH   4  33
ATOM     33  O   UNL     1     -15.246 -25.088  -1.079  1.00  0.00    -0.392 OA
ATOM     34  H   UNL     1     -14.468 -25.541  -0.660  1.00  0.00     0.210 HD
ENDBRANCH   4  33
BRANCH  27  35
ATOM     35  O   UNL     1     -22.721 -27.632  -6.077  1.00  0.00    -0.393 OA
ATOM     36  H   UNL     1     -22.998 -26.692  -6.239  1.00  0.00     0.210 HD
ENDBRANCH  27  35
TORSDOF 3
ENDMDL
