MODEL 1
REMARK VINA RESULT:    -3.514      0.000      0.000
REMARK INTER + INTRA:          -3.712
REMARK INTER:                  -4.336
REMARK INTRA:                   0.624
REMARK UNBOUND:                 0.624
REMARK SMILES C=C1[C@H]2CC[C@@H]3[C@H]2C(C)(C)CCC[C@]13C
REMARK SMILES IDX 14 1 6 2 7 3 3 4 2 5 1 6 4 7 5 8 15 9 8 10 9 11 10 12 11 13
REMARK SMILES IDX 13 15 12 16
REMARK H PARENT
REMARK Flexibility Score: 80.00
ROOT
ATOM      1  C   UNL     1       7.237  21.029  25.956  1.00  0.00    -0.008 C 
ATOM      2  C   UNL     1       7.291  19.464  25.749  1.00  0.00     0.003 C 
ATOM      3  C   UNL     1       8.442  19.242  24.747  1.00  0.00     0.006 C 
ATOM      4  C   UNL     1       9.444  20.058  25.565  1.00  0.00     0.019 C 
ATOM      5  C   UNL     1       8.701  21.348  25.777  1.00  0.00    -0.068 C 
ATOM      6  C   UNL     1       9.269  22.555  25.881  1.00  0.00     0.009 C 
ATOM      7  C   UNL     1       9.407  19.301  26.915  1.00  0.00     0.008 C 
ATOM      8  C   UNL     1       7.942  18.799  26.994  1.00  0.00     0.005 C 
ATOM      9  C   UNL     1       6.753  21.452  27.370  1.00  0.00     0.016 C 
ENDROOT
BRANCH   3  10
ATOM     10  C   UNL     1       8.227  19.570  23.206  1.00  0.00    -0.032 C 
ATOM     11  C   UNL     1       9.470  20.267  22.595  1.00  0.00     0.011 C 
ATOM     12  C   UNL     1       8.073  18.221  22.451  1.00  0.00     0.011 C 
BRANCH  10  13
ATOM     13  C   UNL     1       6.935  20.371  22.882  1.00  0.00     0.007 CG0
ATOM     14  G   UNL     1       6.845  21.766  23.495  1.00  0.00     0.000 G0
ENDBRANCH  10  13
ENDBRANCH   3  10
BRANCH   1  15
ATOM     15  C   UNL     1       6.325  21.741  24.922  1.00  0.00     0.011 C 
BRANCH  15  16
ATOM     16  C   UNL     1       6.837  21.766  23.484  1.00  0.00     0.001 CG0
ATOM     17  G   UNL     1       6.936  20.368  22.878  1.00  0.00     0.000 G0
ENDBRANCH  15  16
ENDBRANCH   1  15
TORSDOF 0
ENDMDL
MODEL 2
REMARK VINA RESULT:    -3.491      1.729      3.217
REMARK INTER + INTRA:          -3.684
REMARK INTER:                  -4.313
REMARK INTRA:                   0.629
REMARK UNBOUND:                 0.624
REMARK SMILES C=C1[C@H]2CC[C@@H]3[C@H]2C(C)(C)CCC[C@]13C
REMARK SMILES IDX 14 1 6 2 7 3 3 4 2 5 1 6 4 7 5 8 15 9 8 10 9 11 10 12 11 13
REMARK SMILES IDX 13 15 12 16
REMARK H PARENT
REMARK Flexibility Score: 80.00
ROOT
ATOM      1  C   UNL     1       7.411  21.278  25.204  1.00  0.00    -0.008 C 
ATOM      2  C   UNL     1       7.520  21.376  23.631  1.00  0.00     0.003 C 
ATOM      3  C   UNL     1       8.537  20.284  23.243  1.00  0.00     0.006 C 
ATOM      4  C   UNL     1       7.800  19.184  24.009  1.00  0.00     0.019 C 
ATOM      5  C   UNL     1       7.649  19.798  25.373  1.00  0.00    -0.068 C 
ATOM      6  C   UNL     1       7.638  19.119  26.526  1.00  0.00     0.009 C 
ATOM      7  C   UNL     1       6.405  19.246  23.342  1.00  0.00     0.008 C 
ATOM      8  C   UNL     1       6.254  20.747  22.985  1.00  0.00     0.005 C 
ATOM      9  C   UNL     1       6.013  21.674  25.755  1.00  0.00     0.016 C 
ENDROOT
BRANCH   3  10
ATOM     10  C   UNL     1      10.089  20.519  23.496  1.00  0.00    -0.032 C 
ATOM     11  C   UNL     1      10.777  19.240  24.038  1.00  0.00     0.011 C 
ATOM     12  C   UNL     1      10.754  20.819  22.124  1.00  0.00     0.011 C 
BRANCH  10  13
ATOM     13  C   UNL     1      10.428  21.744  24.392  1.00  0.00     0.007 CG0
ATOM     14  G   UNL     1       9.911  21.682  25.827  1.00  0.00     0.000 G0
ENDBRANCH  10  13
ENDBRANCH   3  10
BRANCH   1  15
ATOM     15  C   UNL     1       8.462  22.156  25.935  1.00  0.00     0.011 C 
BRANCH  15  16
ATOM     16  C   UNL     1       9.912  21.694  25.824  1.00  0.00     0.001 CG0
ATOM     17  G   UNL     1      10.430  21.745  24.388  1.00  0.00     0.000 G0
ENDBRANCH  15  16
ENDBRANCH   1  15
TORSDOF 0
ENDMDL
MODEL 3
REMARK VINA RESULT:    -3.463      2.689      4.785
REMARK INTER + INTRA:          -3.649
REMARK INTER:                  -4.288
REMARK INTRA:                   0.640
REMARK UNBOUND:                 0.624
REMARK SMILES C=C1[C@H]2CC[C@@H]3[C@H]2C(C)(C)CCC[C@]13C
REMARK SMILES IDX 14 1 6 2 7 3 3 4 2 5 1 6 4 7 5 8 15 9 8 10 9 11 10 12 11 13
REMARK SMILES IDX 13 15 12 16
REMARK H PARENT
REMARK Flexibility Score: 80.00
ROOT
ATOM      1  C   UNL     1      10.507  21.272  24.203  1.00  0.00    -0.008 C 
ATOM      2  C   UNL     1      12.003  20.985  24.620  1.00  0.00     0.003 C 
ATOM      3  C   UNL     1      11.934  19.688  25.451  1.00  0.00     0.006 C 
ATOM      4  C   UNL     1      11.155  18.925  24.380  1.00  0.00     0.019 C 
ATOM      5  C   UNL     1      10.005  19.853  24.104  1.00  0.00    -0.068 C 
ATOM      6  C   UNL     1       8.776  19.468  23.743  1.00  0.00     0.009 C 
ATOM      7  C   UNL     1      12.118  19.046  23.174  1.00  0.00     0.008 C 
ATOM      8  C   UNL     1      12.783  20.428  23.396  1.00  0.00     0.005 C 
ATOM      9  C   UNL     1      10.371  21.997  22.836  1.00  0.00     0.016 C 
ENDROOT
BRANCH   3  10
ATOM     10  C   UNL     1      11.389  19.732  26.945  1.00  0.00    -0.032 C 
ATOM     11  C   UNL     1      10.465  18.524  27.247  1.00  0.00     0.011 C 
ATOM     12  C   UNL     1      12.607  19.593  27.899  1.00  0.00     0.011 C 
BRANCH  10  13
ATOM     13  C   UNL     1      10.699  21.064  27.351  1.00  0.00     0.007 CG0
ATOM     14  G   UNL     1       9.437  21.426  26.571  1.00  0.00     0.000 G0
ENDBRANCH  10  13
ENDBRANCH   3  10
BRANCH   1  15
ATOM     15  C   UNL     1       9.742  22.121  25.254  1.00  0.00     0.011 C 
BRANCH  15  16
ATOM     16  C   UNL     1       9.435  21.426  26.578  1.00  0.00     0.001 CG0
ATOM     17  G   UNL     1      10.700  21.065  27.352  1.00  0.00     0.000 G0
ENDBRANCH  15  16
ENDBRANCH   1  15
TORSDOF 0
ENDMDL
MODEL 4
REMARK VINA RESULT:    -3.461      2.695      3.713
REMARK INTER + INTRA:          -3.647
REMARK INTER:                  -4.279
REMARK INTRA:                   0.632
REMARK UNBOUND:                 0.624
REMARK SMILES C=C1[C@H]2CC[C@@H]3[C@H]2C(C)(C)CCC[C@]13C
REMARK SMILES IDX 14 1 6 2 7 3 3 4 2 5 1 6 4 7 5 8 15 9 8 10 9 11 10 12 11 13
REMARK SMILES IDX 13 15 12 16
REMARK H PARENT
REMARK Flexibility Score: 80.00
ROOT
ATOM      1  C   UNL     1      11.252  21.396  26.368  1.00  0.00    -0.008 C 
ATOM      2  C   UNL     1       9.839  20.800  25.990  1.00  0.00     0.003 C 
ATOM      3  C   UNL     1      10.157  19.572  25.113  1.00  0.00     0.006 C 
ATOM      4  C   UNL     1      11.125  18.969  26.133  1.00  0.00     0.019 C 
ATOM      5  C   UNL     1      12.054  20.119  26.402  1.00  0.00    -0.068 C 
ATOM      6  C   UNL     1      13.351  20.004  26.710  1.00  0.00     0.009 C 
ATOM      7  C   UNL     1      10.206  18.845  27.372  1.00  0.00     0.008 C 
ATOM      8  C   UNL     1       9.248  20.053  27.219  1.00  0.00     0.005 C 
ATOM      9  C   UNL     1      11.280  22.097  27.754  1.00  0.00     0.016 C 
ENDROOT
BRANCH   3  10
ATOM     10  C   UNL     1      10.621  19.772  23.606  1.00  0.00    -0.032 C 
ATOM     11  C   UNL     1      11.767  18.798  23.230  1.00  0.00     0.011 C 
ATOM     12  C   UNL     1       9.423  19.405  22.687  1.00  0.00     0.011 C 
BRANCH  10  13
ATOM     13  C   UNL     1      10.997  21.232  23.226  1.00  0.00     0.007 CG0
ATOM     14  G   UNL     1      12.192  21.827  23.967  1.00  0.00     0.000 G0
ENDBRANCH  10  13
ENDBRANCH   3  10
BRANCH   1  15
ATOM     15  C   UNL     1      11.772  22.419  25.322  1.00  0.00     0.011 C 
BRANCH  15  16
ATOM     16  C   UNL     1      12.178  21.842  23.969  1.00  0.00     0.001 CG0
ATOM     17  G   UNL     1      10.998  21.227  23.221  1.00  0.00     0.000 G0
ENDBRANCH  15  16
ENDBRANCH   1  15
TORSDOF 0
ENDMDL
MODEL 5
REMARK VINA RESULT:    -3.419      1.757      3.964
REMARK INTER + INTRA:          -3.594
REMARK INTER:                  -4.232
REMARK INTRA:                   0.637
REMARK UNBOUND:                 0.624
REMARK SMILES C=C1[C@H]2CC[C@@H]3[C@H]2C(C)(C)CCC[C@]13C
REMARK SMILES IDX 14 1 6 2 7 3 3 4 2 5 1 6 4 7 5 8 15 9 8 10 9 11 10 12 11 13
REMARK SMILES IDX 13 15 12 16
REMARK H PARENT
REMARK Flexibility Score: 80.00
ROOT
ATOM      1  C   UNL     1       9.533  20.883  23.588  1.00  0.00    -0.008 C 
ATOM      2  C   UNL     1       9.165  19.370  23.852  1.00  0.00     0.003 C 
ATOM      3  C   UNL     1       7.876  19.423  24.697  1.00  0.00     0.006 C 
ATOM      4  C   UNL     1       7.153  20.348  23.717  1.00  0.00     0.019 C 
ATOM      5  C   UNL     1       8.142  21.468  23.553  1.00  0.00    -0.068 C 
ATOM      6  C   UNL     1       7.825  22.747  23.323  1.00  0.00     0.009 C 
ATOM      7  C   UNL     1       7.219  19.509  22.418  1.00  0.00     0.008 C 
ATOM      8  C   UNL     1       8.564  18.750  22.560  1.00  0.00     0.005 C 
ATOM      9  C   UNL     1      10.260  21.119  22.236  1.00  0.00     0.016 C 
ENDROOT
BRANCH   3  10
ATOM     10  C   UNL     1       7.953  19.809  26.237  1.00  0.00    -0.032 C 
ATOM     11  C   UNL     1       6.799  20.761  26.643  1.00  0.00     0.011 C 
ATOM     12  C   UNL     1       7.750  18.508  27.063  1.00  0.00     0.011 C 
BRANCH  10  13
ATOM     13  C   UNL     1       9.322  20.380  26.702  1.00  0.00     0.007 CG0
ATOM     14  G   UNL     1       9.746  21.699  26.059  1.00  0.00     0.000 G0
ENDBRANCH  10  13
ENDBRANCH   3  10
BRANCH   1  15
ATOM     15  C   UNL     1      10.424  21.488  24.705  1.00  0.00     0.011 C 
BRANCH  15  16
ATOM     16  C   UNL     1       9.752  21.692  26.060  1.00  0.00     0.001 CG0
ATOM     17  G   UNL     1       9.318  20.374  26.698  1.00  0.00     0.000 G0
ENDBRANCH  15  16
ENDBRANCH   1  15
TORSDOF 0
ENDMDL
MODEL 6
REMARK VINA RESULT:    -3.400      2.021      3.679
REMARK INTER + INTRA:          -3.571
REMARK INTER:                  -4.201
REMARK INTRA:                   0.630
REMARK UNBOUND:                 0.624
REMARK SMILES C=C1[C@H]2CC[C@@H]3[C@H]2C(C)(C)CCC[C@]13C
REMARK SMILES IDX 14 1 6 2 7 3 3 4 2 5 1 6 4 7 5 8 15 9 8 10 9 11 10 12 11 13
REMARK SMILES IDX 13 15 12 16
REMARK H PARENT
REMARK Flexibility Score: 80.00
ROOT
ATOM      1  C   UNL     1      11.374  20.990  25.417  1.00  0.00    -0.008 C 
ATOM      2  C   UNL     1      10.662  21.078  26.824  1.00  0.00     0.003 C 
ATOM      3  C   UNL     1       9.497  20.071  26.735  1.00  0.00     0.006 C 
ATOM      4  C   UNL     1      10.393  18.923  26.271  1.00  0.00     0.019 C 
ATOM      5  C   UNL     1      11.113  19.537  25.104  1.00  0.00    -0.068 C 
ATOM      6  C   UNL     1      11.527  18.873  24.019  1.00  0.00     0.009 C 
ATOM      7  C   UNL     1      11.413  18.858  27.433  1.00  0.00     0.008 C 
ATOM      8  C   UNL     1      11.521  20.336  27.886  1.00  0.00     0.005 C 
ATOM      9  C   UNL     1      12.900  21.272  25.475  1.00  0.00     0.016 C 
ENDROOT
BRANCH   3  10
ATOM     10  C   UNL     1       8.191  20.440  25.906  1.00  0.00    -0.032 C 
ATOM     11  C   UNL     1       7.682  19.231  25.081  1.00  0.00     0.011 C 
ATOM     12  C   UNL     1       7.063  20.777  26.920  1.00  0.00     0.011 C 
BRANCH  10  13
ATOM     13  C   UNL     1       8.323  21.700  25.005  1.00  0.00     0.007 CG0
ATOM     14  G   UNL     1       9.367  21.620  23.894  1.00  0.00     0.000 G0
ENDBRANCH  10  13
ENDBRANCH   3  10
BRANCH   1  15
ATOM     15  C   UNL     1      10.763  21.962  24.373  1.00  0.00     0.011 C 
BRANCH  15  16
ATOM     16  C   UNL     1       9.356  21.623  23.888  1.00  0.00     0.001 CG0
ATOM     17  G   UNL     1       8.321  21.701  25.008  1.00  0.00     0.000 G0
ENDBRANCH  15  16
ENDBRANCH   1  15
TORSDOF 0
ENDMDL
MODEL 7
REMARK VINA RESULT:    -3.353      1.595      2.468
REMARK INTER + INTRA:          -3.513
REMARK INTER:                  -4.145
REMARK INTRA:                   0.632
REMARK UNBOUND:                 0.624
REMARK SMILES C=C1[C@H]2CC[C@@H]3[C@H]2C(C)(C)CCC[C@]13C
REMARK SMILES IDX 14 1 6 2 7 3 3 4 2 5 1 6 4 7 5 8 15 9 8 10 9 11 10 12 11 13
REMARK SMILES IDX 13 15 12 16
REMARK H PARENT
REMARK Flexibility Score: 80.00
ROOT
ATOM      1  C   UNL     1       8.427  19.638  25.832  1.00  0.00    -0.008 C 
ATOM      2  C   UNL     1       9.817  18.906  25.992  1.00  0.00     0.003 C 
ATOM      3  C   UNL     1      10.831  19.842  25.304  1.00  0.00     0.006 C 
ATOM      4  C   UNL     1      10.386  21.072  26.096  1.00  0.00     0.019 C 
ATOM      5  C   UNL     1       8.900  21.070  25.870  1.00  0.00    -0.068 C 
ATOM      6  C   UNL     1       8.130  22.162  25.809  1.00  0.00     0.009 C 
ATOM      7  C   UNL     1      10.611  20.584  27.548  1.00  0.00     0.008 C 
ATOM      8  C   UNL     1      10.319  19.064  27.455  1.00  0.00     0.005 C 
ATOM      9  C   UNL     1       7.438  19.357  26.997  1.00  0.00     0.016 C 
ENDROOT
BRANCH   3  10
ATOM     10  C   UNL     1      10.901  19.906  23.717  1.00  0.00    -0.032 C 
ATOM     11  C   UNL     1      11.074  21.362  23.215  1.00  0.00     0.011 C 
ATOM     12  C   UNL     1      12.175  19.139  23.266  1.00  0.00     0.011 C 
BRANCH  10  13
ATOM     13  C   UNL     1       9.722  19.210  22.982  1.00  0.00     0.007 CG0
ATOM     14  G   UNL     1       8.337  19.799  23.237  1.00  0.00     0.000 G0
ENDBRANCH  10  13
ENDBRANCH   3  10
BRANCH   1  15
ATOM     15  C   UNL     1       7.702  19.267  24.511  1.00  0.00     0.011 C 
BRANCH  15  16
ATOM     16  C   UNL     1       8.340  19.793  23.228  1.00  0.00     0.001 CG0
ATOM     17  G   UNL     1       9.725  19.200  22.981  1.00  0.00     0.000 G0
ENDBRANCH  15  16
ENDBRANCH   1  15
TORSDOF 0
ENDMDL
MODEL 8
REMARK VINA RESULT:    -3.255      1.272      3.514
REMARK INTER + INTRA:          -3.393
REMARK INTER:                  -4.019
REMARK INTRA:                   0.626
REMARK UNBOUND:                 0.624
REMARK SMILES C=C1[C@H]2CC[C@@H]3[C@H]2C(C)(C)CCC[C@]13C
REMARK SMILES IDX 14 1 6 2 7 3 3 4 2 5 1 6 4 7 5 8 15 9 8 10 9 11 10 12 11 13
REMARK SMILES IDX 13 15 12 16
REMARK H PARENT
REMARK Flexibility Score: 80.00
ROOT
ATOM      1  C   UNL     1       9.207  20.272  24.506  1.00  0.00    -0.008 C 
ATOM      2  C   UNL     1       9.260  20.868  25.968  1.00  0.00     0.003 C 
ATOM      3  C   UNL     1       7.787  21.143  26.330  1.00  0.00     0.006 C 
ATOM      4  C   UNL     1       7.329  19.729  25.971  1.00  0.00     0.019 C 
ATOM      5  C   UNL     1       7.875  19.566  24.580  1.00  0.00    -0.068 C 
ATOM      6  C   UNL     1       7.308  18.837  23.611  1.00  0.00     0.009 C 
ATOM      7  C   UNL     1       8.233  18.883  26.900  1.00  0.00     0.008 C 
ATOM      8  C   UNL     1       9.533  19.723  26.983  1.00  0.00     0.005 C 
ATOM      9  C   UNL     1      10.347  19.261  24.205  1.00  0.00     0.016 C 
ENDROOT
BRANCH   3  10
ATOM     10  C   UNL     1       7.038  22.399  25.706  1.00  0.00    -0.032 C 
ATOM     11  C   UNL     1       5.587  22.046  25.289  1.00  0.00     0.011 C 
ATOM     12  C   UNL     1       6.918  23.481  26.815  1.00  0.00     0.011 C 
BRANCH  10  13
ATOM     13  C   UNL     1       7.790  23.094  24.536  1.00  0.00     0.007 CG0
ATOM     14  G   UNL     1       8.019  22.240  23.291  1.00  0.00     0.000 G0
ENDBRANCH  10  13
ENDBRANCH   3  10
BRANCH   1  15
ATOM     15  C   UNL     1       9.259  21.368  23.409  1.00  0.00     0.011 C 
BRANCH  15  16
ATOM     16  C   UNL     1       8.022  22.253  23.288  1.00  0.00     0.001 CG0
ATOM     17  G   UNL     1       7.788  23.099  24.536  1.00  0.00     0.000 G0
ENDBRANCH  15  16
ENDBRANCH   1  15
TORSDOF 0
ENDMDL
MODEL 9
REMARK VINA RESULT:    -3.253      2.119      3.679
REMARK INTER + INTRA:          -3.390
REMARK INTER:                  -4.016
REMARK INTRA:                   0.626
REMARK UNBOUND:                 0.624
REMARK SMILES C=C1[C@H]2CC[C@@H]3[C@H]2C(C)(C)CCC[C@]13C
REMARK SMILES IDX 14 1 6 2 7 3 3 4 2 5 1 6 4 7 5 8 15 9 8 10 9 11 10 12 11 13
REMARK SMILES IDX 13 15 12 16
REMARK H PARENT
REMARK Flexibility Score: 80.00
ROOT
ATOM      1  C   UNL     1       8.276  19.886  24.508  1.00  0.00    -0.008 C 
ATOM      2  C   UNL     1       8.359  19.261  25.956  1.00  0.00     0.003 C 
ATOM      3  C   UNL     1       9.373  20.148  26.705  1.00  0.00     0.006 C 
ATOM      4  C   UNL     1       8.653  21.448  26.346  1.00  0.00     0.019 C 
ATOM      5  C   UNL     1       8.522  21.334  24.853  1.00  0.00    -0.068 C 
ATOM      6  C   UNL     1       8.533  22.363  23.999  1.00  0.00     0.009 C 
ATOM      7  C   UNL     1       7.247  21.177  26.934  1.00  0.00     0.008 C 
ATOM      8  C   UNL     1       7.085  19.646  26.759  1.00  0.00     0.005 C 
ATOM      9  C   UNL     1       6.886  19.713  23.835  1.00  0.00     0.016 C 
ENDROOT
BRANCH   3  10
ATOM     10  C   UNL     1      10.928  19.998  26.410  1.00  0.00    -0.032 C 
ATOM     11  C   UNL     1      11.630  21.379  26.346  1.00  0.00     0.011 C 
ATOM     12  C   UNL     1      11.569  19.243  27.608  1.00  0.00     0.011 C 
BRANCH  10  13
ATOM     13  C   UNL     1      11.277  19.148  25.156  1.00  0.00     0.007 CG0
ATOM     14  G   UNL     1      10.780  19.697  23.820  1.00  0.00     0.000 G0
ENDBRANCH  10  13
ENDBRANCH   3  10
BRANCH   1  15
ATOM     15  C   UNL     1       9.335  19.298  23.538  1.00  0.00     0.011 C 
BRANCH  15  16
ATOM     16  C   UNL     1      10.784  19.686  23.817  1.00  0.00     0.001 CG0
ATOM     17  G   UNL     1      11.282  19.151  25.158  1.00  0.00     0.000 G0
ENDBRANCH  15  16
ENDBRANCH   1  15
TORSDOF 0
ENDMDL
