MODEL 1
REMARK VINA RESULT:    -6.800      0.000      0.000
REMARK INTER + INTRA:          -9.149
REMARK INTER:                  -8.589
REMARK INTRA:                  -0.561
REMARK UNBOUND:                -0.561
REMARK SMILES Oc1cc(O)cc(CCc2ccccc2O)c1
REMARK SMILES IDX 9 1 10 2 12 3 13 4 11 5 14 6 15 7 16 8 8 10 7 11 6 12 17 13
REMARK SMILES IDX 4 14 2 15 3 16 5 17 1 19
REMARK H PARENT 16 9 5 18 1 20
REMARK Flexibility Score: inf
ROOT
ATOM      1  C   UNL     1      31.051 -10.879  42.937  1.00  0.00     0.044 C 
ENDROOT
BRANCH   1   2
ATOM      2  C   UNL     1      30.422 -11.166  44.279  1.00  0.00    -0.006 A 
ATOM      3  C   UNL     1      28.690 -12.306  45.555  1.00  0.00     0.001 A 
ATOM      4  C   UNL     1      29.167 -11.728  46.732  1.00  0.00     0.004 A 
ATOM      5  C   UNL     1      29.309 -12.025  44.336  1.00  0.00     0.007 A 
ATOM      6  C   UNL     1      30.260 -10.861  46.691  1.00  0.00     0.046 A 
ATOM      7  C   UNL     1      30.890 -10.565  45.475  1.00  0.00     0.118 A 
BRANCH   7   8
ATOM      8  O   UNL     1      31.964  -9.673  45.495  1.00  0.00    -0.508 OA
ATOM      9  H   UNL     1      31.873  -8.684  45.309  1.00  0.00     0.293 HD
ENDBRANCH   7   8
ENDBRANCH   1   2
BRANCH   1  10
ATOM     10  C   UNL     1      32.453 -11.488  42.851  1.00  0.00     0.040 C 
BRANCH  10  11
ATOM     11  C   UNL     1      32.373 -12.961  42.548  1.00  0.00    -0.040 A 
ATOM     12  C   UNL     1      31.435 -13.444  41.622  1.00  0.00     0.050 A 
ATOM     13  C   UNL     1      33.197 -13.869  43.233  1.00  0.00     0.050 A 
ATOM     14  C   UNL     1      31.336 -14.815  41.364  1.00  0.00     0.119 A 
ATOM     15  C   UNL     1      33.102 -15.240  42.978  1.00  0.00     0.119 A 
ATOM     16  C   UNL     1      32.173 -15.713  42.042  1.00  0.00     0.092 A 
BRANCH  14  17
ATOM     17  O   UNL     1      30.404 -15.275  40.437  1.00  0.00    -0.508 OA
ATOM     18  H   UNL     1      29.831 -16.089  40.622  1.00  0.00     0.293 HD
ENDBRANCH  14  17
BRANCH  15  19
ATOM     19  O   UNL     1      33.932 -16.125  43.663  1.00  0.00    -0.508 OA
ATOM     20  H   UNL     1      34.774 -15.808  44.131  1.00  0.00     0.293 HD
ENDBRANCH  15  19
ENDBRANCH  10  11
ENDBRANCH   1  10
TORSDOF 6
ENDMDL
MODEL 2
REMARK VINA RESULT:    -6.793      2.225      5.395
REMARK INTER + INTRA:          -9.141
REMARK INTER:                  -8.489
REMARK INTRA:                  -0.653
REMARK UNBOUND:                -0.561
REMARK SMILES Oc1cc(O)cc(CCc2ccccc2O)c1
REMARK SMILES IDX 9 1 10 2 12 3 13 4 11 5 14 6 15 7 16 8 8 10 7 11 6 12 17 13
REMARK SMILES IDX 4 14 2 15 3 16 5 17 1 19
REMARK H PARENT 16 9 5 18 1 20
REMARK Flexibility Score: inf
ROOT
ATOM      1  C   UNL     1      32.910 -11.768  42.768  1.00  0.00     0.044 C 
ENDROOT
BRANCH   1   2
ATOM      2  C   UNL     1      32.569 -13.194  42.410  1.00  0.00    -0.006 A 
ATOM      3  C   UNL     1      32.958 -15.571  42.766  1.00  0.00     0.001 A 
ATOM      4  C   UNL     1      32.020 -15.880  41.781  1.00  0.00     0.004 A 
ATOM      5  C   UNL     1      33.235 -14.238  43.077  1.00  0.00     0.007 A 
ATOM      6  C   UNL     1      31.362 -14.856  41.098  1.00  0.00     0.046 A 
ATOM      7  C   UNL     1      31.631 -13.513  41.394  1.00  0.00     0.118 A 
BRANCH   7   8
ATOM      8  O   UNL     1      30.958 -12.533  40.661  1.00  0.00    -0.508 OA
ATOM      9  H   UNL     1      30.457 -11.764  41.084  1.00  0.00     0.293 HD
ENDBRANCH   7   8
ENDBRANCH   1   2
BRANCH   1  10
ATOM     10  C   UNL     1      32.248 -11.364  44.089  1.00  0.00     0.040 C 
BRANCH  10  11
ATOM     11  C   UNL     1      30.752 -11.293  43.931  1.00  0.00    -0.040 A 
ATOM     12  C   UNL     1      29.939 -12.335  44.405  1.00  0.00     0.050 A 
ATOM     13  C   UNL     1      30.164 -10.211  43.255  1.00  0.00     0.050 A 
ATOM     14  C   UNL     1      28.553 -12.287  44.229  1.00  0.00     0.119 A 
ATOM     15  C   UNL     1      28.778 -10.159  43.078  1.00  0.00     0.119 A 
ATOM     16  C   UNL     1      27.972 -11.196  43.568  1.00  0.00     0.092 A 
BRANCH  14  17
ATOM     17  O   UNL     1      27.762 -13.326  44.713  1.00  0.00    -0.508 OA
ATOM     18  H   UNL     1      26.971 -13.151  45.321  1.00  0.00     0.293 HD
ENDBRANCH  14  17
BRANCH  15  19
ATOM     19  O   UNL     1      28.212  -9.075  42.411  1.00  0.00    -0.508 OA
ATOM     20  H   UNL     1      27.582  -8.434  42.881  1.00  0.00     0.293 HD
ENDBRANCH  15  19
ENDBRANCH  10  11
ENDBRANCH   1  10
TORSDOF 6
ENDMDL
MODEL 3
REMARK VINA RESULT:    -6.788      0.080      2.041
REMARK INTER + INTRA:          -9.134
REMARK INTER:                  -8.565
REMARK INTRA:                  -0.569
REMARK UNBOUND:                -0.561
REMARK SMILES Oc1cc(O)cc(CCc2ccccc2O)c1
REMARK SMILES IDX 9 1 10 2 12 3 13 4 11 5 14 6 15 7 16 8 8 10 7 11 6 12 17 13
REMARK SMILES IDX 4 14 2 15 3 16 5 17 1 19
REMARK H PARENT 16 9 5 18 1 20
REMARK Flexibility Score: inf
ROOT
ATOM      1  C   UNL     1      31.040 -10.860  42.930  1.00  0.00     0.044 C 
ENDROOT
BRANCH   1   2
ATOM      2  C   UNL     1      30.433 -11.108  44.290  1.00  0.00    -0.006 A 
ATOM      3  C   UNL     1      28.721 -12.208  45.628  1.00  0.00     0.001 A 
ATOM      4  C   UNL     1      29.217 -11.596  46.779  1.00  0.00     0.004 A 
ATOM      5  C   UNL     1      29.321 -11.963  44.390  1.00  0.00     0.007 A 
ATOM      6  C   UNL     1      30.310 -10.731  46.695  1.00  0.00     0.046 A 
ATOM      7  C   UNL     1      30.920 -10.471  45.460  1.00  0.00     0.118 A 
BRANCH   7   8
ATOM      8  O   UNL     1      31.994  -9.580  45.437  1.00  0.00    -0.508 OA
ATOM      9  H   UNL     1      32.263  -9.008  46.225  1.00  0.00     0.293 HD
ENDBRANCH   7   8
ENDBRANCH   1   2
BRANCH   1  10
ATOM     10  C   UNL     1      32.430 -11.495  42.831  1.00  0.00     0.040 C 
BRANCH  10  11
ATOM     11  C   UNL     1      32.319 -12.976  42.586  1.00  0.00    -0.040 A 
ATOM     12  C   UNL     1      33.181 -13.870  43.241  1.00  0.00     0.050 A 
ATOM     13  C   UNL     1      31.391 -13.471  41.654  1.00  0.00     0.050 A 
ATOM     14  C   UNL     1      33.102 -15.243  42.989  1.00  0.00     0.119 A 
ATOM     15  C   UNL     1      31.308 -14.843  41.400  1.00  0.00     0.119 A 
ATOM     16  C   UNL     1      32.163 -15.730  42.069  1.00  0.00     0.092 A 
BRANCH  14  17
ATOM     17  O   UNL     1      33.961 -16.115  43.654  1.00  0.00    -0.508 OA
ATOM     18  H   UNL     1      34.965 -16.071  43.525  1.00  0.00     0.293 HD
ENDBRANCH  14  17
BRANCH  15  19
ATOM     19  O   UNL     1      30.377 -15.315  40.478  1.00  0.00    -0.508 OA
ATOM     20  H   UNL     1      30.541 -15.254  39.479  1.00  0.00     0.293 HD
ENDBRANCH  15  19
ENDBRANCH  10  11
ENDBRANCH   1  10
TORSDOF 6
ENDMDL
MODEL 4
REMARK VINA RESULT:    -6.706      2.223      5.254
REMARK INTER + INTRA:          -9.030
REMARK INTER:                  -8.400
REMARK INTRA:                  -0.631
REMARK UNBOUND:                -0.561
REMARK SMILES Oc1cc(O)cc(CCc2ccccc2O)c1
REMARK SMILES IDX 9 1 10 2 12 3 13 4 11 5 14 6 15 7 16 8 8 10 7 11 6 12 17 13
REMARK SMILES IDX 4 14 2 15 3 16 5 17 1 19
REMARK H PARENT 16 9 5 18 1 20
REMARK Flexibility Score: inf
ROOT
ATOM      1  C   UNL     1      32.912 -11.770  42.791  1.00  0.00     0.044 C 
ENDROOT
BRANCH   1   2
ATOM      2  C   UNL     1      32.578 -13.197  42.425  1.00  0.00    -0.006 A 
ATOM      3  C   UNL     1      32.972 -15.574  42.778  1.00  0.00     0.001 A 
ATOM      4  C   UNL     1      32.045 -15.882  41.782  1.00  0.00     0.004 A 
ATOM      5  C   UNL     1      33.241 -14.241  43.095  1.00  0.00     0.007 A 
ATOM      6  C   UNL     1      31.390 -14.858  41.096  1.00  0.00     0.046 A 
ATOM      7  C   UNL     1      31.652 -13.515  41.399  1.00  0.00     0.118 A 
BRANCH   7   8
ATOM      8  O   UNL     1      30.983 -12.536  40.663  1.00  0.00    -0.508 OA
ATOM      9  H   UNL     1      30.606 -12.692  39.738  1.00  0.00     0.293 HD
ENDBRANCH   7   8
ENDBRANCH   1   2
BRANCH   1  10
ATOM     10  C   UNL     1      32.215 -11.365  44.093  1.00  0.00     0.040 C 
BRANCH  10  11
ATOM     11  C   UNL     1      30.722 -11.319  43.903  1.00  0.00    -0.040 A 
ATOM     12  C   UNL     1      30.122 -10.221  43.267  1.00  0.00     0.050 A 
ATOM     13  C   UNL     1      29.913 -12.348  44.413  1.00  0.00     0.050 A 
ATOM     14  C   UNL     1      28.732 -10.161  43.120  1.00  0.00     0.119 A 
ATOM     15  C   UNL     1      28.523 -12.292  44.268  1.00  0.00     0.119 A 
ATOM     16  C   UNL     1      27.933 -11.199  43.619  1.00  0.00     0.092 A 
BRANCH  14  17
ATOM     17  O   UNL     1      28.155  -9.066  42.480  1.00  0.00    -0.508 OA
ATOM     18  H   UNL     1      28.714  -8.406  41.953  1.00  0.00     0.293 HD
ENDBRANCH  14  17
BRANCH  15  19
ATOM     19  O   UNL     1      27.738 -13.325  44.774  1.00  0.00    -0.508 OA
ATOM     20  H   UNL     1      28.059 -14.287  44.767  1.00  0.00     0.293 HD
ENDBRANCH  15  19
ENDBRANCH  10  11
ENDBRANCH   1  10
TORSDOF 6
ENDMDL
MODEL 5
REMARK VINA RESULT:    -6.597      1.466      1.860
REMARK INTER + INTRA:          -8.893
REMARK INTER:                  -8.157
REMARK INTRA:                  -0.737
REMARK UNBOUND:                -0.561
REMARK SMILES Oc1cc(O)cc(CCc2ccccc2O)c1
REMARK SMILES IDX 9 1 10 2 12 3 13 4 11 5 14 6 15 7 16 8 8 10 7 11 6 12 17 13
REMARK SMILES IDX 4 14 2 15 3 16 5 17 1 19
REMARK H PARENT 16 9 5 18 1 20
REMARK Flexibility Score: inf
ROOT
ATOM      1  C   UNL     1      29.875 -11.216  42.684  1.00  0.00     0.044 C 
ENDROOT
BRANCH   1   2
ATOM      2  C   UNL     1      29.854 -11.256  44.193  1.00  0.00    -0.006 A 
ATOM      3  C   UNL     1      30.654 -10.339  46.302  1.00  0.00     0.001 A 
ATOM      4  C   UNL     1      29.902 -11.281  47.005  1.00  0.00     0.004 A 
ATOM      5  C   UNL     1      30.635 -10.328  44.906  1.00  0.00     0.007 A 
ATOM      6  C   UNL     1      29.135 -12.219  46.312  1.00  0.00     0.046 A 
ATOM      7  C   UNL     1      29.108 -12.225  44.911  1.00  0.00     0.118 A 
BRANCH   7   8
ATOM      8  O   UNL     1      28.340 -13.202  44.276  1.00  0.00    -0.508 OA
ATOM      9  H   UNL     1      27.886 -13.064  43.383  1.00  0.00     0.293 HD
ENDBRANCH   7   8
ENDBRANCH   1   2
BRANCH   1  10
ATOM     10  C   UNL     1      31.306 -11.353  42.155  1.00  0.00     0.040 C 
BRANCH  10  11
ATOM     11  C   UNL     1      31.731 -12.797  42.145  1.00  0.00    -0.040 A 
ATOM     12  C   UNL     1      31.010 -13.744  41.400  1.00  0.00     0.050 A 
ATOM     13  C   UNL     1      32.818 -13.219  42.929  1.00  0.00     0.050 A 
ATOM     14  C   UNL     1      31.383 -15.091  41.417  1.00  0.00     0.119 A 
ATOM     15  C   UNL     1      33.195 -14.565  42.949  1.00  0.00     0.119 A 
ATOM     16  C   UNL     1      32.479 -15.501  42.190  1.00  0.00     0.092 A 
BRANCH  14  17
ATOM     17  O   UNL     1      30.660 -16.014  40.666  1.00  0.00    -0.508 OA
ATOM     18  H   UNL     1      29.676 -16.183  40.838  1.00  0.00     0.293 HD
ENDBRANCH  14  17
BRANCH  15  19
ATOM     19  O   UNL     1      34.280 -14.963  43.726  1.00  0.00    -0.508 OA
ATOM     20  H   UNL     1      35.176 -14.491  43.668  1.00  0.00     0.293 HD
ENDBRANCH  15  19
ENDBRANCH  10  11
ENDBRANCH   1  10
TORSDOF 6
ENDMDL
MODEL 6
REMARK VINA RESULT:    -6.592      1.608      5.492
REMARK INTER + INTRA:          -8.886
REMARK INTER:                  -8.263
REMARK INTRA:                  -0.624
REMARK UNBOUND:                -0.561
REMARK SMILES Oc1cc(O)cc(CCc2ccccc2O)c1
REMARK SMILES IDX 9 1 10 2 12 3 13 4 11 5 14 6 15 7 16 8 8 10 7 11 6 12 17 13
REMARK SMILES IDX 4 14 2 15 3 16 5 17 1 19
REMARK H PARENT 16 9 5 18 1 20
REMARK Flexibility Score: inf
ROOT
ATOM      1  C   UNL     1      30.788 -12.208  41.814  1.00  0.00     0.044 C 
ENDROOT
BRANCH   1   2
ATOM      2  C   UNL     1      31.456 -13.562  41.802  1.00  0.00    -0.006 A 
ATOM      3  C   UNL     1      31.441 -15.875  41.041  1.00  0.00     0.001 A 
ATOM      4  C   UNL     1      32.614 -16.125  41.754  1.00  0.00     0.004 A 
ATOM      5  C   UNL     1      30.862 -14.604  41.067  1.00  0.00     0.007 A 
ATOM      6  C   UNL     1      33.207 -15.106  42.501  1.00  0.00     0.046 A 
ATOM      7  C   UNL     1      32.637 -13.826  42.542  1.00  0.00     0.118 A 
BRANCH   7   8
ATOM      8  O   UNL     1      33.264 -12.855  43.325  1.00  0.00    -0.508 OA
ATOM      9  H   UNL     1      33.133 -11.862  43.195  1.00  0.00     0.293 HD
ENDBRANCH   7   8
ENDBRANCH   1   2
BRANCH   1  10
ATOM     10  C   UNL     1      29.507 -12.240  42.654  1.00  0.00     0.040 C 
BRANCH  10  11
ATOM     11  C   UNL     1      29.778 -11.750  44.051  1.00  0.00    -0.040 A 
ATOM     12  C   UNL     1      29.002 -12.212  45.127  1.00  0.00     0.050 A 
ATOM     13  C   UNL     1      30.769 -10.782  44.280  1.00  0.00     0.050 A 
ATOM     14  C   UNL     1      29.230 -11.732  46.420  1.00  0.00     0.119 A 
ATOM     15  C   UNL     1      31.000 -10.300  45.572  1.00  0.00     0.119 A 
ATOM     16  C   UNL     1      30.232 -10.777  46.643  1.00  0.00     0.092 A 
BRANCH  14  17
ATOM     17  O   UNL     1      28.456 -12.207  47.476  1.00  0.00    -0.508 OA
ATOM     18  H   UNL     1      27.805 -12.973  47.352  1.00  0.00     0.293 HD
ENDBRANCH  14  17
BRANCH  15  19
ATOM     19  O   UNL     1      31.993  -9.345  45.782  1.00  0.00    -0.508 OA
ATOM     20  H   UNL     1      32.931  -9.608  46.063  1.00  0.00     0.293 HD
ENDBRANCH  15  19
ENDBRANCH  10  11
ENDBRANCH   1  10
TORSDOF 6
ENDMDL
MODEL 7
REMARK VINA RESULT:    -6.583      1.606      5.522
REMARK INTER + INTRA:          -8.876
REMARK INTER:                  -8.222
REMARK INTRA:                  -0.654
REMARK UNBOUND:                -0.561
REMARK SMILES Oc1cc(O)cc(CCc2ccccc2O)c1
REMARK SMILES IDX 9 1 10 2 12 3 13 4 11 5 14 6 15 7 16 8 8 10 7 11 6 12 17 13
REMARK SMILES IDX 4 14 2 15 3 16 5 17 1 19
REMARK H PARENT 16 9 5 18 1 20
REMARK Flexibility Score: inf
ROOT
ATOM      1  C   UNL     1      30.888 -12.112  41.760  1.00  0.00     0.044 C 
ENDROOT
BRANCH   1   2
ATOM      2  C   UNL     1      31.484 -13.499  41.774  1.00  0.00    -0.006 A 
ATOM      3  C   UNL     1      31.385 -15.807  41.005  1.00  0.00     0.001 A 
ATOM      4  C   UNL     1      32.508 -16.119  41.771  1.00  0.00     0.004 A 
ATOM      5  C   UNL     1      30.872 -14.509  41.009  1.00  0.00     0.007 A 
ATOM      6  C   UNL     1      33.118 -15.133  42.549  1.00  0.00     0.046 A 
ATOM      7  C   UNL     1      32.614 -13.825  42.567  1.00  0.00     0.118 A 
BRANCH   7   8
ATOM      8  O   UNL     1      33.253 -12.889  43.383  1.00  0.00    -0.508 OA
ATOM      9  H   UNL     1      33.110 -11.892  43.307  1.00  0.00     0.293 HD
ENDBRANCH   7   8
ENDBRANCH   1   2
BRANCH   1  10
ATOM     10  C   UNL     1      29.562 -12.082  42.527  1.00  0.00     0.040 C 
BRANCH  10  11
ATOM     11  C   UNL     1      29.782 -11.630  43.946  1.00  0.00    -0.040 A 
ATOM     12  C   UNL     1      30.780 -10.688  44.243  1.00  0.00     0.050 A 
ATOM     13  C   UNL     1      29.030 -12.192  44.991  1.00  0.00     0.050 A 
ATOM     14  C   UNL     1      31.009 -10.292  45.565  1.00  0.00     0.119 A 
ATOM     15  C   UNL     1      29.255 -11.798  46.314  1.00  0.00     0.119 A 
ATOM     16  C   UNL     1      30.243 -10.846  46.600  1.00  0.00     0.092 A 
BRANCH  14  17
ATOM     17  O   UNL     1      31.998  -9.351  45.840  1.00  0.00    -0.508 OA
ATOM     18  H   UNL     1      32.260  -9.121  46.790  1.00  0.00     0.293 HD
ENDBRANCH  14  17
BRANCH  15  19
ATOM     19  O   UNL     1      28.494 -12.361  47.336  1.00  0.00    -0.508 OA
ATOM     20  H   UNL     1      27.796 -13.072  47.147  1.00  0.00     0.293 HD
ENDBRANCH  15  19
ENDBRANCH  10  11
ENDBRANCH   1  10
TORSDOF 6
ENDMDL
MODEL 8
REMARK VINA RESULT:    -6.356      1.940      5.191
REMARK INTER + INTRA:          -8.588
REMARK INTER:                  -8.002
REMARK INTRA:                  -0.586
REMARK UNBOUND:                -0.561
REMARK SMILES Oc1cc(O)cc(CCc2ccccc2O)c1
REMARK SMILES IDX 9 1 10 2 12 3 13 4 11 5 14 6 15 7 16 8 8 10 7 11 6 12 17 13
REMARK SMILES IDX 4 14 2 15 3 16 5 17 1 19
REMARK H PARENT 16 9 5 18 1 20
REMARK Flexibility Score: inf
ROOT
ATOM      1  C   UNL     1      31.651 -10.906  42.759  1.00  0.00     0.044 C 
ENDROOT
BRANCH   1   2
ATOM      2  C   UNL     1      31.881 -12.377  42.507  1.00  0.00    -0.006 A 
ATOM      3  C   UNL     1      32.868 -14.478  43.242  1.00  0.00     0.001 A 
ATOM      4  C   UNL     1      32.388 -15.113  42.097  1.00  0.00     0.004 A 
ATOM      5  C   UNL     1      32.621 -13.118  43.445  1.00  0.00     0.007 A 
ATOM      6  C   UNL     1      31.666 -14.388  41.148  1.00  0.00     0.046 A 
ATOM      7  C   UNL     1      31.412 -13.023  41.334  1.00  0.00     0.118 A 
BRANCH   7   8
ATOM      8  O   UNL     1      30.704 -12.347  40.338  1.00  0.00    -0.508 OA
ATOM      9  H   UNL     1      30.084 -12.805  39.684  1.00  0.00     0.293 HD
ENDBRANCH   7   8
ENDBRANCH   1   2
BRANCH   1  10
ATOM     10  C   UNL     1      30.157 -10.610  42.928  1.00  0.00     0.040 C 
BRANCH  10  11
ATOM     11  C   UNL     1      29.620 -11.283  44.164  1.00  0.00    -0.040 A 
ATOM     12  C   UNL     1      28.663 -12.304  44.056  1.00  0.00     0.050 A 
ATOM     13  C   UNL     1      30.030 -10.851  45.437  1.00  0.00     0.050 A 
ATOM     14  C   UNL     1      28.139 -12.906  45.205  1.00  0.00     0.119 A 
ATOM     15  C   UNL     1      29.508 -11.451  46.587  1.00  0.00     0.119 A 
ATOM     16  C   UNL     1      28.564 -12.480  46.471  1.00  0.00     0.092 A 
BRANCH  14  17
ATOM     17  O   UNL     1      27.195 -13.923  45.078  1.00  0.00    -0.508 OA
ATOM     18  H   UNL     1      26.926 -14.285  44.171  1.00  0.00     0.293 HD
ENDBRANCH  14  17
BRANCH  15  19
ATOM     19  O   UNL     1      29.931 -11.015  47.841  1.00  0.00    -0.508 OA
ATOM     20  H   UNL     1      29.270 -10.811  48.582  1.00  0.00     0.293 HD
ENDBRANCH  15  19
ENDBRANCH  10  11
ENDBRANCH   1  10
TORSDOF 6
ENDMDL
MODEL 9
REMARK VINA RESULT:    -6.274      1.932      5.477
REMARK INTER + INTRA:          -8.484
REMARK INTER:                  -7.931
REMARK INTRA:                  -0.554
REMARK UNBOUND:                -0.561
REMARK SMILES Oc1cc(O)cc(CCc2ccccc2O)c1
REMARK SMILES IDX 9 1 10 2 12 3 13 4 11 5 14 6 15 7 16 8 8 10 7 11 6 12 17 13
REMARK SMILES IDX 4 14 2 15 3 16 5 17 1 19
REMARK H PARENT 16 9 5 18 1 20
REMARK Flexibility Score: inf
ROOT
ATOM      1  C   UNL     1      31.617 -10.907  42.771  1.00  0.00     0.044 C 
ENDROOT
BRANCH   1   2
ATOM      2  C   UNL     1      31.853 -12.377  42.525  1.00  0.00    -0.006 A 
ATOM      3  C   UNL     1      32.875 -14.464  43.253  1.00  0.00     0.001 A 
ATOM      4  C   UNL     1      32.373 -15.113  42.125  1.00  0.00     0.004 A 
ATOM      5  C   UNL     1      32.622 -13.105  43.451  1.00  0.00     0.007 A 
ATOM      6  C   UNL     1      31.622 -14.402  41.187  1.00  0.00     0.046 A 
ATOM      7  C   UNL     1      31.362 -13.036  41.368  1.00  0.00     0.118 A 
BRANCH   7   8
ATOM      8  O   UNL     1      30.625 -12.375  40.384  1.00  0.00    -0.508 OA
ATOM      9  H   UNL     1      30.637 -11.372  40.257  1.00  0.00     0.293 HD
ENDBRANCH   7   8
ENDBRANCH   1   2
BRANCH   1  10
ATOM     10  C   UNL     1      30.119 -10.606  42.877  1.00  0.00     0.040 C 
BRANCH  10  11
ATOM     11  C   UNL     1      29.546 -11.205  44.134  1.00  0.00    -0.040 A 
ATOM     12  C   UNL     1      29.978 -10.758  45.392  1.00  0.00     0.050 A 
ATOM     13  C   UNL     1      28.619 -12.257  44.056  1.00  0.00     0.050 A 
ATOM     14  C   UNL     1      29.473 -11.337  46.561  1.00  0.00     0.119 A 
ATOM     15  C   UNL     1      28.110 -12.838  45.222  1.00  0.00     0.119 A 
ATOM     16  C   UNL     1      28.535 -12.376  46.475  1.00  0.00     0.092 A 
BRANCH  14  17
ATOM     17  O   UNL     1      29.908 -10.875  47.801  1.00  0.00    -0.508 OA
ATOM     18  H   UNL     1      30.252 -11.509  48.511  1.00  0.00     0.293 HD
ENDBRANCH  14  17
BRANCH  15  19
ATOM     19  O   UNL     1      27.185 -13.875  45.125  1.00  0.00    -0.508 OA
ATOM     20  H   UNL     1      26.203 -13.731  45.334  1.00  0.00     0.293 HD
ENDBRANCH  15  19
ENDBRANCH  10  11
ENDBRANCH   1  10
TORSDOF 6
ENDMDL
