MODEL 1
REMARK VINA RESULT:    -5.230      0.000      0.000
REMARK INTER + INTRA:          -8.370
REMARK INTER:                  -7.982
REMARK INTRA:                  -0.389
REMARK UNBOUND:                -0.389
REMARK SMILES CC1=CCC[C@H](C)C(=O)C[C@H](C(C)C)C(=O)C1
REMARK SMILES IDX 8 1 9 2 6 3 7 4 5 5 4 6 3 7 2 8 1 9 10 11 11 12 15 13 16 14
REMARK SMILES IDX 17 15 12 17 13 18 14 19
REMARK H PARENT
REMARK Flexibility Score: 70.00
ROOT
ATOM      1  C   UNL     1      -3.772 -13.193  27.956  1.00  0.00     0.136 C 
ATOM      2  O   UNL     1      -3.398 -14.303  27.611  1.00  0.00    -0.299 OA
ENDROOT
BRANCH   1   3
ATOM      3  C   UNL     1      -3.012 -11.963  27.442  1.00  0.00     0.053 C 
ATOM      4  C   UNL     1      -3.349 -11.679  25.973  1.00  0.00     0.016 C 
BRANCH   3   5
ATOM      5  C   UNL     1      -3.424 -10.840  28.370  1.00  0.00     0.015 C 
BRANCH   5   6
ATOM      6  C   UNL     1      -2.654 -10.247  29.512  1.00  0.00     0.028 C 
BRANCH   6   7
ATOM      7  C   UNL     1      -1.580 -11.254  29.941  1.00  0.00    -0.028 C 
ATOM      8  C   UNL     1      -1.610 -12.227  30.928  1.00  0.00    -0.070 CG0
ATOM      9  C   UNL     1      -0.381 -13.105  31.010  1.00  0.00     0.039 C 
ATOM     10  G   UNL     1      -2.738 -12.516  31.962  1.00  0.00     0.000 G0
ENDBRANCH   6   7
ENDBRANCH   5   6
ENDBRANCH   3   5
ENDBRANCH   1   3
BRANCH   1  11
ATOM     11  C   UNL     1      -4.978 -13.076  28.905  1.00  0.00     0.087 C 
BRANCH  11  12
ATOM     12  C   UNL     1      -4.725 -13.553  30.384  1.00  0.00     0.066 C 
BRANCH  12  13
ATOM     13  C   UNL     1      -4.164 -12.532  31.412  1.00  0.00     0.140 C 
ATOM     14  O   UNL     1      -4.893 -11.601  31.727  1.00  0.00    -0.299 OA
BRANCH  13  15
ATOM     15  C   UNL     1      -2.738 -12.523  31.983  1.00  0.00     0.106 CG0
ATOM     16  G   UNL     1      -1.625 -12.238  30.932  1.00  0.00     0.000 G0
ENDBRANCH  13  15
ENDBRANCH  12  13
BRANCH  12  17
ATOM     17  C   UNL     1      -5.956 -14.333  30.944  1.00  0.00    -0.006 C 
ATOM     18  C   UNL     1      -6.623 -15.206  29.868  1.00  0.00     0.008 C 
ATOM     19  C   UNL     1      -5.650 -15.175  32.194  1.00  0.00     0.008 C 
ENDBRANCH  12  17
ENDBRANCH  11  12
ENDBRANCH   1  11
TORSDOF 1
ENDMDL
MODEL 2
REMARK VINA RESULT:    -4.987      1.933      4.943
REMARK INTER + INTRA:          -8.000
REMARK INTER:                  -8.100
REMARK INTRA:                   0.101
REMARK UNBOUND:                -0.389
REMARK SMILES CC1=CCC[C@H](C)C(=O)C[C@H](C(C)C)C(=O)C1
REMARK SMILES IDX 8 1 9 2 6 3 7 4 5 5 4 6 3 7 2 8 1 9 10 11 11 12 15 13 16 14
REMARK SMILES IDX 17 15 12 17 13 18 14 19
REMARK H PARENT
REMARK Flexibility Score: 70.00
ROOT
ATOM      1  C   UNL     1      -4.104 -13.190  32.051  1.00  0.00     0.136 C 
ATOM      2  O   UNL     1      -4.663 -12.475  32.868  1.00  0.00    -0.299 OA
ENDROOT
BRANCH   1   3
ATOM      3  C   UNL     1      -4.876 -14.373  31.452  1.00  0.00     0.053 C 
ATOM      4  C   UNL     1      -5.718 -15.080  32.521  1.00  0.00     0.016 C 
BRANCH   3   5
ATOM      5  C   UNL     1      -5.714 -13.765  30.347  1.00  0.00     0.015 C 
BRANCH   5   6
ATOM      6  C   UNL     1      -6.234 -14.425  29.105  1.00  0.00     0.028 C 
BRANCH   6   7
ATOM      7  C   UNL     1      -5.198 -14.235  27.990  1.00  0.00    -0.028 C 
ATOM      8  C   UNL     1      -4.366 -13.162  27.717  1.00  0.00    -0.070 CG0
ATOM      9  C   UNL     1      -3.399 -13.366  26.571  1.00  0.00     0.039 C 
ATOM     10  G   UNL     1      -4.311 -11.778  28.430  1.00  0.00     0.000 G0
ENDBRANCH   6   7
ENDBRANCH   5   6
ENDBRANCH   3   5
ENDBRANCH   1   3
BRANCH   1  11
ATOM     11  C   UNL     1      -2.645 -12.883  31.669  1.00  0.00     0.087 C 
BRANCH  11  12
ATOM     12  C   UNL     1      -2.367 -12.719  30.127  1.00  0.00     0.066 C 
BRANCH  12  13
ATOM     13  C   UNL     1      -3.093 -11.582  29.355  1.00  0.00     0.140 C 
ATOM     14  O   UNL     1      -2.730 -10.436  29.580  1.00  0.00    -0.299 OA
BRANCH  13  15
ATOM     15  C   UNL     1      -4.299 -11.759  28.421  1.00  0.00     0.106 CG0
ATOM     16  G   UNL     1      -4.371 -13.146  27.716  1.00  0.00     0.000 G0
ENDBRANCH  13  15
ENDBRANCH  12  13
BRANCH  12  17
ATOM     17  C   UNL     1      -0.837 -12.751  29.822  1.00  0.00    -0.006 C 
ATOM     18  C   UNL     1       0.006 -12.799  31.108  1.00  0.00     0.008 C 
ATOM     19  C   UNL     1      -0.410 -13.878  28.866  1.00  0.00     0.008 C 
ENDBRANCH  12  17
ENDBRANCH  11  12
ENDBRANCH   1  11
TORSDOF 1
ENDMDL
MODEL 3
REMARK VINA RESULT:    -4.954      1.736      4.043
REMARK INTER + INTRA:          -7.949
REMARK INTER:                  -7.911
REMARK INTRA:                  -0.038
REMARK UNBOUND:                -0.389
REMARK SMILES CC1=CCC[C@H](C)C(=O)C[C@H](C(C)C)C(=O)C1
REMARK SMILES IDX 8 1 9 2 6 3 7 4 5 5 4 6 3 7 2 8 1 9 10 11 11 12 15 13 16 14
REMARK SMILES IDX 17 15 12 17 13 18 14 19
REMARK H PARENT
REMARK Flexibility Score: 70.00
ROOT
ATOM      1  C   UNL     1      -4.504 -13.642  28.520  1.00  0.00     0.136 C 
ATOM      2  O   UNL     1      -4.779 -13.404  27.354  1.00  0.00    -0.299 OA
ENDROOT
BRANCH   1   3
ATOM      3  C   UNL     1      -5.637 -13.681  29.554  1.00  0.00     0.053 C 
ATOM      4  C   UNL     1      -6.868 -14.404  28.998  1.00  0.00     0.016 C 
BRANCH   3   5
ATOM      5  C   UNL     1      -5.035 -14.377  30.757  1.00  0.00     0.015 C 
BRANCH   5   6
ATOM      6  C   UNL     1      -4.195 -13.786  31.849  1.00  0.00     0.028 C 
BRANCH   6   7
ATOM      7  C   UNL     1      -4.672 -12.351  32.100  1.00  0.00    -0.028 C 
ATOM      8  C   UNL     1      -4.106 -11.142  31.728  1.00  0.00    -0.070 CG0
ATOM      9  C   UNL     1      -4.915  -9.913  32.077  1.00  0.00     0.039 C 
ATOM     10  G   UNL     1      -2.746 -10.896  31.011  1.00  0.00     0.000 G0
ENDBRANCH   6   7
ENDBRANCH   5   6
ENDBRANCH   3   5
ENDBRANCH   1   3
BRANCH   1  11
ATOM     11  C   UNL     1      -3.032 -13.875  28.904  1.00  0.00     0.087 C 
BRANCH  11  12
ATOM     12  C   UNL     1      -2.128 -12.585  28.938  1.00  0.00     0.066 C 
BRANCH  12  13
ATOM     13  C   UNL     1      -2.720 -11.275  29.527  1.00  0.00     0.140 C 
ATOM     14  O   UNL     1      -3.119 -10.437  28.730  1.00  0.00    -0.299 OA
BRANCH  13  15
ATOM     15  C   UNL     1      -2.746 -10.890  31.013  1.00  0.00     0.106 CG0
ATOM     16  G   UNL     1      -4.116 -11.124  31.717  1.00  0.00     0.000 G0
ENDBRANCH  13  15
ENDBRANCH  12  13
BRANCH  12  17
ATOM     17  C   UNL     1      -0.713 -12.903  29.517  1.00  0.00    -0.006 C 
ATOM     18  C   UNL     1      -0.769 -13.254  31.014  1.00  0.00     0.008 C 
ATOM     19  C   UNL     1       0.051 -13.990  28.745  1.00  0.00     0.008 C 
ENDBRANCH  12  17
ENDBRANCH  11  12
ENDBRANCH   1  11
TORSDOF 1
ENDMDL
MODEL 4
REMARK VINA RESULT:    -4.941      1.643      3.985
REMARK INTER + INTRA:          -7.929
REMARK INTER:                  -7.812
REMARK INTRA:                  -0.117
REMARK UNBOUND:                -0.389
REMARK SMILES CC1=CCC[C@H](C)C(=O)C[C@H](C(C)C)C(=O)C1
REMARK SMILES IDX 8 1 9 2 6 3 7 4 5 5 4 6 3 7 2 8 1 9 10 11 11 12 15 13 16 14
REMARK SMILES IDX 17 15 12 17 13 18 14 19
REMARK H PARENT
REMARK Flexibility Score: 70.00
ROOT
ATOM      1  C   UNL     1      -3.688 -10.792  29.436  1.00  0.00     0.136 C 
ATOM      2  O   UNL     1      -4.341 -10.038  30.141  1.00  0.00    -0.299 OA
ENDROOT
BRANCH   1   3
ATOM      3  C   UNL     1      -4.360 -11.428  28.212  1.00  0.00     0.053 C 
ATOM      4  C   UNL     1      -3.319 -12.028  27.260  1.00  0.00     0.016 C 
BRANCH   3   5
ATOM      5  C   UNL     1      -5.302 -12.466  28.787  1.00  0.00     0.015 C 
BRANCH   5   6
ATOM      6  C   UNL     1      -5.086 -13.943  28.923  1.00  0.00     0.028 C 
BRANCH   6   7
ATOM      7  C   UNL     1      -5.662 -14.390  30.272  1.00  0.00    -0.028 C 
ATOM      8  C   UNL     1      -5.090 -14.389  31.534  1.00  0.00    -0.070 CG0
ATOM      9  C   UNL     1      -6.000 -14.826  32.660  1.00  0.00     0.039 C 
ATOM     10  G   UNL     1      -3.633 -14.008  31.930  1.00  0.00     0.000 G0
ENDBRANCH   6   7
ENDBRANCH   5   6
ENDBRANCH   3   5
ENDBRANCH   1   3
BRANCH   1  11
ATOM     11  C   UNL     1      -2.225 -11.085  29.816  1.00  0.00     0.087 C 
BRANCH  11  12
ATOM     12  C   UNL     1      -2.023 -11.950  31.117  1.00  0.00     0.066 C 
BRANCH  12  13
ATOM     13  C   UNL     1      -3.276 -12.529  31.830  1.00  0.00     0.140 C 
ATOM     14  O   UNL     1      -3.992 -11.738  32.428  1.00  0.00    -0.299 OA
BRANCH  13  15
ATOM     15  C   UNL     1      -3.635 -14.018  31.946  1.00  0.00     0.106 CG0
ATOM     16  G   UNL     1      -5.090 -14.366  31.513  1.00  0.00     0.000 G0
ENDBRANCH  13  15
ENDBRANCH  12  13
BRANCH  12  17
ATOM     17  C   UNL     1      -0.913 -13.029  30.911  1.00  0.00    -0.006 C 
ATOM     18  C   UNL     1      -0.841 -13.508  29.451  1.00  0.00     0.008 C 
ATOM     19  C   UNL     1       0.480 -12.597  31.396  1.00  0.00     0.008 C 
ENDBRANCH  12  17
ENDBRANCH  11  12
ENDBRANCH   1  11
TORSDOF 1
ENDMDL
MODEL 5
REMARK VINA RESULT:    -4.899      1.812      3.583
REMARK INTER + INTRA:          -7.866
REMARK INTER:                  -7.979
REMARK INTRA:                   0.113
REMARK UNBOUND:                -0.389
REMARK SMILES CC1=CCC[C@H](C)C(=O)C[C@H](C(C)C)C(=O)C1
REMARK SMILES IDX 8 1 9 2 6 3 7 4 5 5 4 6 3 7 2 8 1 9 10 11 11 12 15 13 16 14
REMARK SMILES IDX 17 15 12 17 13 18 14 19
REMARK H PARENT
REMARK Flexibility Score: 70.00
ROOT
ATOM      1  C   UNL     1      -4.501 -12.605  31.944  1.00  0.00     0.136 C 
ATOM      2  O   UNL     1      -4.876 -12.972  33.047  1.00  0.00    -0.299 OA
ENDROOT
BRANCH   1   3
ATOM      3  C   UNL     1      -4.196 -11.117  31.723  1.00  0.00     0.053 C 
ATOM      4  C   UNL     1      -4.888 -10.249  32.780  1.00  0.00     0.016 C 
BRANCH   3   5
ATOM      5  C   UNL     1      -2.686 -11.023  31.777  1.00  0.00     0.015 C 
BRANCH   5   6
ATOM      6  C   UNL     1      -1.731 -10.745  30.655  1.00  0.00     0.028 C 
BRANCH   6   7
ATOM      7  C   UNL     1      -1.177 -12.084  30.152  1.00  0.00    -0.028 C 
ATOM      8  C   UNL     1      -1.501 -12.818  29.023  1.00  0.00    -0.070 CG0
ATOM      9  C   UNL     1      -0.675 -14.066  28.802  1.00  0.00     0.039 C 
ATOM     10  G   UNL     1      -2.608 -12.525  27.968  1.00  0.00     0.000 G0
ENDBRANCH   6   7
ENDBRANCH   5   6
ENDBRANCH   3   5
ENDBRANCH   1   3
BRANCH   1  11
ATOM     11  C   UNL     1      -4.368 -13.647  30.819  1.00  0.00     0.087 C 
BRANCH  11  12
ATOM     12  C   UNL     1      -4.879 -13.184  29.402  1.00  0.00     0.066 C 
BRANCH  12  13
ATOM     13  C   UNL     1      -3.999 -12.205  28.575  1.00  0.00     0.140 C 
ATOM     14  O   UNL     1      -4.481 -11.114  28.307  1.00  0.00    -0.299 OA
BRANCH  13  15
ATOM     15  C   UNL     1      -2.625 -12.527  27.970  1.00  0.00     0.106 CG0
ATOM     16  G   UNL     1      -1.507 -12.806  29.017  1.00  0.00     0.000 G0
ENDBRANCH  13  15
ENDBRANCH  12  13
BRANCH  12  17
ATOM     17  C   UNL     1      -5.363 -14.400  28.551  1.00  0.00    -0.006 C 
ATOM     18  C   UNL     1      -6.840 -14.737  28.817  1.00  0.00     0.008 C 
ATOM     19  C   UNL     1      -5.118 -14.246  27.041  1.00  0.00     0.008 C 
ENDBRANCH  12  17
ENDBRANCH  11  12
ENDBRANCH   1  11
TORSDOF 1
ENDMDL
MODEL 6
REMARK VINA RESULT:    -4.790      2.011      3.166
REMARK INTER + INTRA:          -7.699
REMARK INTER:                  -7.385
REMARK INTRA:                  -0.314
REMARK UNBOUND:                -0.389
REMARK SMILES CC1=CCC[C@H](C)C(=O)C[C@H](C(C)C)C(=O)C1
REMARK SMILES IDX 8 1 9 2 6 3 7 4 5 5 4 6 3 7 2 8 1 9 10 11 11 12 15 13 16 14
REMARK SMILES IDX 17 15 12 17 13 18 14 19
REMARK H PARENT
REMARK Flexibility Score: 70.00
ROOT
ATOM      1  C   UNL     1      -1.876 -13.300  29.299  1.00  0.00     0.136 C 
ATOM      2  O   UNL     1      -0.911 -13.607  28.617  1.00  0.00    -0.299 OA
ENDROOT
BRANCH   1   3
ATOM      3  C   UNL     1      -1.639 -12.584  30.636  1.00  0.00     0.053 C 
ATOM      4  C   UNL     1      -0.501 -13.244  31.422  1.00  0.00     0.016 C 
BRANCH   3   5
ATOM      5  C   UNL     1      -1.340 -11.149  30.255  1.00  0.00     0.015 C 
BRANCH   5   6
ATOM      6  C   UNL     1      -1.847  -9.892  30.896  1.00  0.00     0.028 C 
BRANCH   6   7
ATOM      7  C   UNL     1      -2.913 -10.276  31.930  1.00  0.00    -0.028 C 
ATOM      8  C   UNL     1      -4.261 -10.548  31.766  1.00  0.00    -0.070 CG0
ATOM      9  C   UNL     1      -4.992 -10.983  33.016  1.00  0.00     0.039 C 
ATOM     10  G   UNL     1      -5.112 -10.449  30.465  1.00  0.00     0.000 G0
ENDBRANCH   6   7
ENDBRANCH   5   6
ENDBRANCH   3   5
ENDBRANCH   1   3
BRANCH   1  11
ATOM     11  C   UNL     1      -3.286 -13.659  28.798  1.00  0.00     0.087 C 
BRANCH  11  12
ATOM     12  C   UNL     1      -4.475 -12.972  29.570  1.00  0.00     0.066 C 
BRANCH  12  13
ATOM     13  C   UNL     1      -4.718 -11.451  29.365  1.00  0.00     0.140 C 
ATOM     14  O   UNL     1      -4.496 -10.997  28.251  1.00  0.00    -0.299 OA
BRANCH  13  15
ATOM     15  C   UNL     1      -5.102 -10.448  30.462  1.00  0.00     0.106 CG0
ATOM     16  G   UNL     1      -4.257 -10.560  31.765  1.00  0.00     0.000 G0
ENDBRANCH  13  15
ENDBRANCH  12  13
BRANCH  12  17
ATOM     17  C   UNL     1      -5.792 -13.800  29.431  1.00  0.00    -0.006 C 
ATOM     18  C   UNL     1      -5.854 -14.563  28.097  1.00  0.00     0.008 C 
ATOM     19  C   UNL     1      -6.056 -14.760  30.603  1.00  0.00     0.008 C 
ENDBRANCH  12  17
ENDBRANCH  11  12
ENDBRANCH   1  11
TORSDOF 1
ENDMDL
MODEL 7
REMARK VINA RESULT:    -4.736      1.997      3.603
REMARK INTER + INTRA:          -7.616
REMARK INTER:                  -7.031
REMARK INTRA:                  -0.585
REMARK UNBOUND:                -0.389
REMARK SMILES CC1=CCC[C@H](C)C(=O)C[C@H](C(C)C)C(=O)C1
REMARK SMILES IDX 8 1 9 2 6 3 7 4 5 5 4 6 3 7 2 8 1 9 10 11 11 12 15 13 16 14
REMARK SMILES IDX 17 15 12 17 13 18 14 19
REMARK H PARENT
REMARK Flexibility Score: 70.00
ROOT
ATOM      1  C   UNL     1      -5.536 -14.113  30.415  1.00  0.00     0.136 C 
ATOM      2  O   UNL     1      -5.618 -14.834  31.398  1.00  0.00    -0.299 OA
ENDROOT
BRANCH   1   3
ATOM      3  C   UNL     1      -5.688 -14.741  29.023  1.00  0.00     0.053 C 
ATOM      4  C   UNL     1      -7.124 -15.225  28.789  1.00  0.00     0.016 C 
BRANCH   3   5
ATOM      5  C   UNL     1      -5.270 -13.648  28.061  1.00  0.00     0.015 C 
BRANCH   5   6
ATOM      6  C   UNL     1      -4.174 -13.679  27.038  1.00  0.00     0.028 C 
BRANCH   6   7
ATOM      7  C   UNL     1      -2.880 -14.118  27.734  1.00  0.00    -0.028 C 
ATOM      8  C   UNL     1      -2.135 -13.488  28.717  1.00  0.00    -0.070 CG0
ATOM      9  C   UNL     1      -0.947 -14.270  29.233  1.00  0.00     0.039 C 
ATOM     10  G   UNL     1      -2.360 -12.079  29.342  1.00  0.00     0.000 G0
ENDBRANCH   6   7
ENDBRANCH   5   6
ENDBRANCH   3   5
ENDBRANCH   1   3
BRANCH   1  11
ATOM     11  C   UNL     1      -5.266 -12.611  30.614  1.00  0.00     0.087 C 
BRANCH  11  12
ATOM     12  C   UNL     1      -4.031 -12.260  31.527  1.00  0.00     0.066 C 
BRANCH  12  13
ATOM     13  C   UNL     1      -2.638 -12.083  30.863  1.00  0.00     0.140 C 
ATOM     14  O   UNL     1      -1.694 -11.843  31.603  1.00  0.00    -0.299 OA
BRANCH  13  15
ATOM     15  C   UNL     1      -2.359 -12.070  29.353  1.00  0.00     0.106 CG0
ATOM     16  G   UNL     1      -2.140 -13.479  28.725  1.00  0.00     0.000 G0
ENDBRANCH  13  15
ENDBRANCH  12  13
BRANCH  12  17
ATOM     17  C   UNL     1      -4.367 -11.092  32.507  1.00  0.00    -0.006 C 
ATOM     18  C   UNL     1      -4.975  -9.883  31.774  1.00  0.00     0.008 C 
ATOM     19  C   UNL     1      -5.263 -11.500  33.688  1.00  0.00     0.008 C 
ENDBRANCH  12  17
ENDBRANCH  11  12
ENDBRANCH   1  11
TORSDOF 1
ENDMDL
MODEL 8
REMARK VINA RESULT:    -4.717      1.561      4.000
REMARK INTER + INTRA:          -7.588
REMARK INTER:                  -7.656
REMARK INTRA:                   0.069
REMARK UNBOUND:                -0.389
REMARK SMILES CC1=CCC[C@H](C)C(=O)C[C@H](C(C)C)C(=O)C1
REMARK SMILES IDX 8 1 9 2 6 3 7 4 5 5 4 6 3 7 2 8 1 9 10 11 11 12 15 13 16 14
REMARK SMILES IDX 17 15 12 17 13 18 14 19
REMARK H PARENT
REMARK Flexibility Score: 70.00
ROOT
ATOM      1  C   UNL     1      -5.042 -14.211  28.099  1.00  0.00     0.136 C 
ATOM      2  O   UNL     1      -5.528 -14.635  27.062  1.00  0.00    -0.299 OA
ENDROOT
BRANCH   1   3
ATOM      3  C   UNL     1      -5.955 -14.006  29.315  1.00  0.00     0.053 C 
ATOM      4  C   UNL     1      -7.276 -14.764  29.147  1.00  0.00     0.016 C 
BRANCH   3   5
ATOM      5  C   UNL     1      -5.139 -14.493  30.494  1.00  0.00     0.015 C 
BRANCH   5   6
ATOM      6  C   UNL     1      -5.359 -14.221  31.952  1.00  0.00     0.028 C 
BRANCH   6   7
ATOM      7  C   UNL     1      -4.893 -12.791  32.250  1.00  0.00    -0.028 C 
ATOM      8  C   UNL     1      -3.675 -12.178  32.007  1.00  0.00    -0.070 CG0
ATOM      9  C   UNL     1      -3.606 -10.709  32.361  1.00  0.00     0.039 C 
ATOM     10  G   UNL     1      -2.375 -12.813  31.429  1.00  0.00     0.000 G0
ENDBRANCH   6   7
ENDBRANCH   5   6
ENDBRANCH   3   5
ENDBRANCH   1   3
BRANCH   1  11
ATOM     11  C   UNL     1      -3.538 -13.884  28.136  1.00  0.00     0.087 C 
BRANCH  11  12
ATOM     12  C   UNL     1      -3.158 -12.520  28.827  1.00  0.00     0.066 C 
BRANCH  12  13
ATOM     13  C   UNL     1      -2.098 -12.530  29.963  1.00  0.00     0.140 C 
ATOM     14  O   UNL     1      -0.929 -12.383  29.635  1.00  0.00    -0.299 OA
BRANCH  13  15
ATOM     15  C   UNL     1      -2.374 -12.819  31.446  1.00  0.00     0.106 CG0
ATOM     16  G   UNL     1      -3.675 -12.166  31.999  1.00  0.00     0.000 G0
ENDBRANCH  13  15
ENDBRANCH  12  13
BRANCH  12  17
ATOM     17  C   UNL     1      -2.872 -11.410  27.767  1.00  0.00    -0.006 C 
ATOM     18  C   UNL     1      -3.390 -11.799  26.372  1.00  0.00     0.008 C 
ATOM     19  C   UNL     1      -3.396 -10.019  28.158  1.00  0.00     0.008 C 
ENDBRANCH  12  17
ENDBRANCH  11  12
ENDBRANCH   1  11
TORSDOF 1
ENDMDL
