MODEL 1
REMARK VINA RESULT:    -7.516      0.000      0.000
REMARK INTER + INTRA:         -12.026
REMARK INTER:                 -10.371
REMARK INTRA:                  -1.654
REMARK UNBOUND:                -1.654
REMARK SMILES CC[C@H](CC[C@H](C)[C@H]1CC[C@@H]2[C@@H]3CC=C4C[C@@H](O)CC[C@]4(C)[C@@H]3CC[C@@]21C)C(C)C
REMARK SMILES IDX 5 1 4 2 3 3 2 4 1 5 28 6 29 7 30 8 6 9 7 10 8 11 9 12 26 13
REMARK SMILES IDX 10 14 11 15 25 16 27 17 12 18 24 19 23 20 13 21 21 22 14 23
REMARK SMILES IDX 15 24 20 25 22 26 16 27 19 28 17 29 18 30
REMARK H PARENT 18 31
REMARK Flexibility Score: inf
ROOT
ATOM      1  C   UNL     1     181.227 171.951 178.836  1.00  0.00     0.004 C 
ENDROOT
BRANCH   1   2
ATOM      2  C   UNL     1     181.030 171.505 177.368  1.00  0.00     0.004 C 
BRANCH   2   3
ATOM      3  C   UNL     1     180.373 172.538 176.402  1.00  0.00    -0.009 C 
BRANCH   3   4
ATOM      4  C   UNL     1     178.959 172.053 175.976  1.00  0.00     0.000 C 
ATOM      5  C   UNL     1     178.965 171.232 174.685  1.00  0.00     0.004 C 
ENDBRANCH   3   4
BRANCH   3   6
ATOM      6  C   UNL     1     180.351 173.994 176.982  1.00  0.00    -0.014 C 
ATOM      7  C   UNL     1     181.490 174.863 176.422  1.00  0.00     0.007 C 
ATOM      8  C   UNL     1     179.000 174.706 176.801  1.00  0.00     0.007 C 
ENDBRANCH   3   6
ENDBRANCH   2   3
ENDBRANCH   1   2
BRANCH   1   9
ATOM      9  C   UNL     1     182.680 172.382 179.200  1.00  0.00    -0.011 C 
ATOM     10  C   UNL     1     183.628 171.172 179.251  1.00  0.00     0.008 C 
BRANCH   9  11
ATOM     11  C   UNL     1     182.848 173.313 180.455  1.00  0.00    -0.002 C 
ATOM     12  C   UNL     1     183.971 172.886 181.397  1.00  0.00     0.005 C 
ATOM     13  C   UNL     1     182.978 174.871 180.338  1.00  0.00    -0.026 C 
ATOM     14  C   UNL     1     184.015 173.981 182.442  1.00  0.00     0.005 C 
ATOM     15  C   UNL     1     183.693 175.276 181.675  1.00  0.00    -0.001 C 
ATOM     16  C   UNL     1     181.582 175.544 180.199  1.00  0.00     0.007 C 
ATOM     17  C   UNL     1     183.859 175.314 179.144  1.00  0.00     0.012 C 
ATOM     18  C   UNL     1     182.990 176.379 182.523  1.00  0.00     0.000 C 
ATOM     19  C   UNL     1     181.571 177.056 180.494  1.00  0.00     0.005 C 
ATOM     20  C   UNL     1     182.554 177.545 181.605  1.00  0.00     0.003 C 
ATOM     21  C   UNL     1     181.829 175.899 183.435  1.00  0.00     0.031 C 
ATOM     22  C   UNL     1     181.981 178.741 182.457  1.00  0.00    -0.008 C 
ATOM     23  C   UNL     1     180.826 176.970 183.810  1.00  0.00    -0.027 C 
ATOM     24  C   UNL     1     180.831 178.234 183.326  1.00  0.00    -0.065 C 
ATOM     25  C   UNL     1     181.517 179.903 181.512  1.00  0.00     0.014 C 
ATOM     26  C   UNL     1     183.080 179.309 183.398  1.00  0.00     0.016 C 
ATOM     27  C   UNL     1     179.820 179.222 183.872  1.00  0.00     0.063 C 
ATOM     28  C   UNL     1     180.599 180.927 182.193  1.00  0.00     0.033 C 
ATOM     29  C   UNL     1     179.380 180.229 182.807  1.00  0.00     0.118 C 
BRANCH  29  30
ATOM     30  O   UNL     1     178.532 181.180 183.397  1.00  0.00    -0.393 OA
ATOM     31  H   UNL     1     178.718 182.045 182.947  1.00  0.00     0.210 HD
ENDBRANCH  29  30
ENDBRANCH   9  11
ENDBRANCH   1   9
TORSDOF 7
ENDMDL
MODEL 2
REMARK VINA RESULT:    -7.451      0.856      1.391
REMARK INTER + INTRA:         -11.937
REMARK INTER:                  -9.580
REMARK INTRA:                  -2.357
REMARK UNBOUND:                -1.654
REMARK SMILES CC[C@H](CC[C@H](C)[C@H]1CC[C@@H]2[C@@H]3CC=C4C[C@@H](O)CC[C@]4(C)[C@@H]3CC[C@@]21C)C(C)C
REMARK SMILES IDX 5 1 4 2 3 3 2 4 1 5 28 6 29 7 30 8 6 9 7 10 8 11 9 12 26 13
REMARK SMILES IDX 10 14 11 15 25 16 27 17 12 18 24 19 23 20 13 21 21 22 14 23
REMARK SMILES IDX 15 24 20 25 22 26 16 27 19 28 17 29 18 30
REMARK H PARENT 18 31
REMARK Flexibility Score: inf
ROOT
ATOM      1  C   UNL     1     181.238 171.820 178.829  1.00  0.00     0.004 C 
ENDROOT
BRANCH   1   2
ATOM      2  C   UNL     1     180.667 172.381 177.505  1.00  0.00     0.004 C 
BRANCH   2   3
ATOM      3  C   UNL     1     181.511 173.476 176.784  1.00  0.00    -0.009 C 
BRANCH   3   4
ATOM      4  C   UNL     1     182.349 172.842 175.638  1.00  0.00     0.000 C 
ATOM      5  C   UNL     1     183.852 173.097 175.775  1.00  0.00     0.004 C 
ENDBRANCH   3   4
BRANCH   3   6
ATOM      6  C   UNL     1     180.650 174.689 176.288  1.00  0.00    -0.014 C 
ATOM      7  C   UNL     1     179.243 174.697 176.906  1.00  0.00     0.007 C 
ATOM      8  C   UNL     1     181.332 176.051 176.497  1.00  0.00     0.007 C 
ENDBRANCH   3   6
ENDBRANCH   2   3
ENDBRANCH   1   2
BRANCH   1   9
ATOM      9  C   UNL     1     182.689 172.279 179.161  1.00  0.00    -0.011 C 
ATOM     10  C   UNL     1     183.664 171.090 179.185  1.00  0.00     0.008 C 
BRANCH   9  11
ATOM     11  C   UNL     1     182.866 173.208 180.416  1.00  0.00    -0.002 C 
ATOM     12  C   UNL     1     183.998 172.782 181.348  1.00  0.00     0.005 C 
ATOM     13  C   UNL     1     182.993 174.768 180.300  1.00  0.00    -0.026 C 
ATOM     14  C   UNL     1     184.049 173.876 182.394  1.00  0.00     0.005 C 
ATOM     15  C   UNL     1     183.718 175.171 181.632  1.00  0.00    -0.001 C 
ATOM     16  C   UNL     1     181.595 175.438 180.174  1.00  0.00     0.007 C 
ATOM     17  C   UNL     1     183.864 175.213 179.100  1.00  0.00     0.012 C 
ATOM     18  C   UNL     1     183.020 176.272 182.488  1.00  0.00     0.000 C 
ATOM     19  C   UNL     1     181.583 176.949 180.471  1.00  0.00     0.005 C 
ATOM     20  C   UNL     1     182.575 177.439 181.575  1.00  0.00     0.003 C 
ATOM     21  C   UNL     1     181.867 175.788 183.409  1.00  0.00     0.031 C 
ATOM     22  C   UNL     1     182.007 178.632 182.433  1.00  0.00    -0.008 C 
ATOM     23  C   UNL     1     180.866 176.858 183.793  1.00  0.00    -0.027 C 
ATOM     24  C   UNL     1     180.865 178.122 183.311  1.00  0.00    -0.065 C 
ATOM     25  C   UNL     1     181.533 179.795 181.494  1.00  0.00     0.014 C 
ATOM     26  C   UNL     1     183.112 179.200 183.366  1.00  0.00     0.016 C 
ATOM     27  C   UNL     1     179.857 179.107 183.866  1.00  0.00     0.063 C 
ATOM     28  C   UNL     1     180.619 180.816 182.184  1.00  0.00     0.033 C 
ATOM     29  C   UNL     1     179.406 180.115 182.807  1.00  0.00     0.118 C 
BRANCH  29  30
ATOM     30  O   UNL     1     178.562 181.064 183.405  1.00  0.00    -0.393 OA
ATOM     31  H   UNL     1     179.113 181.559 184.066  1.00  0.00     0.210 HD
ENDBRANCH  29  30
ENDBRANCH   9  11
ENDBRANCH   1   9
TORSDOF 7
ENDMDL
MODEL 3
REMARK VINA RESULT:    -7.138      3.149      8.542
REMARK INTER + INTRA:         -11.504
REMARK INTER:                  -9.367
REMARK INTRA:                  -2.138
REMARK UNBOUND:                -1.654
REMARK SMILES CC[C@H](CC[C@H](C)[C@H]1CC[C@@H]2[C@@H]3CC=C4C[C@@H](O)CC[C@]4(C)[C@@H]3CC[C@@]21C)C(C)C
REMARK SMILES IDX 5 1 4 2 3 3 2 4 1 5 28 6 29 7 30 8 6 9 7 10 8 11 9 12 26 13
REMARK SMILES IDX 10 14 11 15 25 16 27 17 12 18 24 19 23 20 13 21 21 22 14 23
REMARK SMILES IDX 15 24 20 25 22 26 16 27 19 28 17 29 18 30
REMARK H PARENT 18 31
REMARK Flexibility Score: inf
ROOT
ATOM      1  C   UNL     1     179.062 182.491 183.739  1.00  0.00     0.004 C 
ENDROOT
BRANCH   1   2
ATOM      2  C   UNL     1     179.345 182.407 182.221  1.00  0.00     0.004 C 
BRANCH   2   3
ATOM      3  C   UNL     1     180.042 183.639 181.567  1.00  0.00    -0.009 C 
BRANCH   3   4
ATOM      4  C   UNL     1     180.328 184.729 182.638  1.00  0.00     0.000 C 
ATOM      5  C   UNL     1     181.809 184.843 183.004  1.00  0.00     0.004 C 
ENDBRANCH   3   4
BRANCH   3   6
ATOM      6  C   UNL     1     181.326 183.258 180.751  1.00  0.00    -0.014 C 
ATOM      7  C   UNL     1     181.391 181.755 180.433  1.00  0.00     0.007 C 
ATOM      8  C   UNL     1     181.503 184.083 179.465  1.00  0.00     0.007 C 
ENDBRANCH   3   6
ENDBRANCH   2   3
ENDBRANCH   1   2
BRANCH   1   9
ATOM      9  C   UNL     1     179.864 181.480 184.611  1.00  0.00    -0.011 C 
ATOM     10  C   UNL     1     180.315 182.115 185.937  1.00  0.00     0.008 C 
BRANCH   9  11
ATOM     11  C   UNL     1     181.036 180.709 183.902  1.00  0.00    -0.002 C 
ATOM     12  C   UNL     1     182.388 181.411 184.000  1.00  0.00     0.005 C 
ATOM     13  C   UNL     1     181.336 179.194 184.175  1.00  0.00    -0.026 C 
ATOM     14  C   UNL     1     183.358 180.438 183.362  1.00  0.00     0.005 C 
ATOM     15  C   UNL     1     182.842 179.044 183.759  1.00  0.00    -0.001 C 
ATOM     16  C   UNL     1     180.406 178.275 183.333  1.00  0.00     0.007 C 
ATOM     17  C   UNL     1     181.187 178.811 185.668  1.00  0.00     0.012 C 
ATOM     18  C   UNL     1     183.162 177.913 182.735  1.00  0.00     0.000 C 
ATOM     19  C   UNL     1     180.890 176.817 183.213  1.00  0.00     0.005 C 
ATOM     20  C   UNL     1     182.437 176.611 183.151  1.00  0.00     0.003 C 
ATOM     21  C   UNL     1     182.913 178.258 181.242  1.00  0.00     0.031 C 
ATOM     22  C   UNL     1     182.866 175.413 182.222  1.00  0.00    -0.008 C 
ATOM     23  C   UNL     1     182.689 177.063 180.339  1.00  0.00    -0.027 C 
ATOM     24  C   UNL     1     182.591 175.782 180.764  1.00  0.00    -0.065 C 
ATOM     25  C   UNL     1     182.103 174.108 182.636  1.00  0.00     0.014 C 
ATOM     26  C   UNL     1     184.388 175.135 182.366  1.00  0.00     0.016 C 
ATOM     27  C   UNL     1     182.464 174.683 179.729  1.00  0.00     0.063 C 
ATOM     28  C   UNL     1     182.143 173.002 181.573  1.00  0.00     0.033 C 
ATOM     29  C   UNL     1     181.604 173.524 180.236  1.00  0.00     0.118 C 
BRANCH  29  30
ATOM     30  O   UNL     1     181.615 172.494 179.283  1.00  0.00    -0.393 OA
ATOM     31  H   UNL     1     180.668 172.318 179.041  1.00  0.00     0.210 HD
ENDBRANCH  29  30
ENDBRANCH   9  11
ENDBRANCH   1   9
TORSDOF 7
ENDMDL
MODEL 4
REMARK VINA RESULT:    -7.037      1.476      2.445
REMARK INTER + INTRA:         -11.365
REMARK INTER:                  -9.939
REMARK INTRA:                  -1.426
REMARK UNBOUND:                -1.654
REMARK SMILES CC[C@H](CC[C@H](C)[C@H]1CC[C@@H]2[C@@H]3CC=C4C[C@@H](O)CC[C@]4(C)[C@@H]3CC[C@@]21C)C(C)C
REMARK SMILES IDX 5 1 4 2 3 3 2 4 1 5 28 6 29 7 30 8 6 9 7 10 8 11 9 12 26 13
REMARK SMILES IDX 10 14 11 15 25 16 27 17 12 18 24 19 23 20 13 21 21 22 14 23
REMARK SMILES IDX 15 24 20 25 22 26 16 27 19 28 17 29 18 30
REMARK H PARENT 18 31
REMARK Flexibility Score: inf
ROOT
ATOM      1  C   UNL     1     180.960 174.667 177.985  1.00  0.00     0.004 C 
ENDROOT
BRANCH   1   2
ATOM      2  C   UNL     1     181.079 173.335 177.208  1.00  0.00     0.004 C 
BRANCH   2   3
ATOM      3  C   UNL     1     180.415 172.082 177.855  1.00  0.00    -0.009 C 
BRANCH   3   4
ATOM      4  C   UNL     1     179.209 171.606 176.997  1.00  0.00     0.000 C 
ATOM      5  C   UNL     1     179.288 172.061 175.539  1.00  0.00     0.004 C 
ENDBRANCH   3   4
BRANCH   3   6
ATOM      6  C   UNL     1     181.434 170.924 178.140  1.00  0.00    -0.014 C 
ATOM      7  C   UNL     1     182.573 170.883 177.107  1.00  0.00     0.007 C 
ATOM      8  C   UNL     1     182.008 170.949 179.566  1.00  0.00     0.007 C 
ENDBRANCH   3   6
ENDBRANCH   2   3
ENDBRANCH   1   2
BRANCH   1   9
ATOM      9  C   UNL     1     182.295 175.192 178.591  1.00  0.00    -0.011 C 
ATOM     10  C   UNL     1     183.490 174.329 178.151  1.00  0.00     0.008 C 
BRANCH   9  11
ATOM     11  C   UNL     1     182.310 175.470 180.138  1.00  0.00    -0.002 C 
ATOM     12  C   UNL     1     183.046 174.407 180.950  1.00  0.00     0.005 C 
ATOM     13  C   UNL     1     182.765 176.843 180.744  1.00  0.00    -0.026 C 
ATOM     14  C   UNL     1     183.029 174.946 182.366  1.00  0.00     0.005 C 
ATOM     15  C   UNL     1     183.173 176.470 182.214  1.00  0.00    -0.001 C 
ATOM     16  C   UNL     1     181.610 177.884 180.709  1.00  0.00     0.007 C 
ATOM     17  C   UNL     1     183.994 177.444 180.019  1.00  0.00     0.012 C 
ATOM     18  C   UNL     1     182.502 177.306 183.345  1.00  0.00     0.000 C 
ATOM     19  C   UNL     1     181.816 179.096 181.637  1.00  0.00     0.005 C 
ATOM     20  C   UNL     1     182.553 178.809 182.985  1.00  0.00     0.003 C 
ATOM     21  C   UNL     1     181.074 176.862 183.763  1.00  0.00     0.031 C 
ATOM     22  C   UNL     1     182.022 179.688 184.181  1.00  0.00    -0.008 C 
ATOM     23  C   UNL     1     180.235 177.940 184.417  1.00  0.00    -0.027 C 
ATOM     24  C   UNL     1     180.609 179.234 184.550  1.00  0.00    -0.065 C 
ATOM     25  C   UNL     1     182.052 181.206 183.790  1.00  0.00     0.014 C 
ATOM     26  C   UNL     1     182.927 179.504 185.430  1.00  0.00     0.016 C 
ATOM     27  C   UNL     1     179.703 180.175 185.317  1.00  0.00     0.063 C 
ATOM     28  C   UNL     1     181.205 182.099 184.707  1.00  0.00     0.033 C 
ATOM     29  C   UNL     1     179.757 181.597 184.756  1.00  0.00     0.118 C 
BRANCH  29  30
ATOM     30  O   UNL     1     178.987 182.442 185.570  1.00  0.00    -0.393 OA
ATOM     31  H   UNL     1     179.167 182.175 186.509  1.00  0.00     0.210 HD
ENDBRANCH  29  30
ENDBRANCH   9  11
ENDBRANCH   1   9
TORSDOF 7
ENDMDL
MODEL 5
REMARK VINA RESULT:    -7.005      2.017      3.888
REMARK INTER + INTRA:         -11.321
REMARK INTER:                 -10.239
REMARK INTRA:                  -1.082
REMARK UNBOUND:                -1.654
REMARK SMILES CC[C@H](CC[C@H](C)[C@H]1CC[C@@H]2[C@@H]3CC=C4C[C@@H](O)CC[C@]4(C)[C@@H]3CC[C@@]21C)C(C)C
REMARK SMILES IDX 5 1 4 2 3 3 2 4 1 5 28 6 29 7 30 8 6 9 7 10 8 11 9 12 26 13
REMARK SMILES IDX 10 14 11 15 25 16 27 17 12 18 24 19 23 20 13 21 21 22 14 23
REMARK SMILES IDX 15 24 20 25 22 26 16 27 19 28 17 29 18 30
REMARK H PARENT 18 31
REMARK Flexibility Score: inf
ROOT
ATOM      1  C   UNL     1     181.281 175.351 179.882  1.00  0.00     0.004 C 
ENDROOT
BRANCH   1   2
ATOM      2  C   UNL     1     181.989 174.381 178.907  1.00  0.00     0.004 C 
BRANCH   2   3
ATOM      3  C   UNL     1     181.203 173.982 177.620  1.00  0.00    -0.009 C 
BRANCH   3   4
ATOM      4  C   UNL     1     180.628 172.545 177.763  1.00  0.00     0.000 C 
ATOM      5  C   UNL     1     181.515 171.619 178.597  1.00  0.00     0.004 C 
ENDBRANCH   3   4
BRANCH   3   6
ATOM      6  C   UNL     1     180.102 175.025 177.224  1.00  0.00    -0.014 C 
ATOM      7  C   UNL     1     180.629 176.088 176.245  1.00  0.00     0.007 C 
ATOM      8  C   UNL     1     178.819 174.383 176.671  1.00  0.00     0.007 C 
ENDBRANCH   3   6
ENDBRANCH   2   3
ENDBRANCH   1   2
BRANCH   1   9
ATOM      9  C   UNL     1     181.850 175.350 181.332  1.00  0.00    -0.011 C 
ATOM     10  C   UNL     1     181.697 173.971 181.996  1.00  0.00     0.008 C 
BRANCH   9  11
ATOM     11  C   UNL     1     181.376 176.512 182.278  1.00  0.00    -0.002 C 
ATOM     12  C   UNL     1     181.124 176.075 183.719  1.00  0.00     0.005 C 
ATOM     13  C   UNL     1     182.145 177.876 182.390  1.00  0.00    -0.026 C 
ATOM     14  C   UNL     1     180.802 177.363 184.447  1.00  0.00     0.005 C 
ATOM     15  C   UNL     1     181.701 178.426 183.791  1.00  0.00    -0.001 C 
ATOM     16  C   UNL     1     181.750 178.841 181.236  1.00  0.00     0.007 C 
ATOM     17  C   UNL     1     183.683 177.702 182.383  1.00  0.00     0.012 C 
ATOM     18  C   UNL     1     181.122 179.873 183.809  1.00  0.00     0.000 C 
ATOM     19  C   UNL     1     182.117 180.316 181.484  1.00  0.00     0.005 C 
ATOM     20  C   UNL     1     182.021 180.806 182.965  1.00  0.00     0.003 C 
ATOM     21  C   UNL     1     179.624 180.010 183.421  1.00  0.00     0.031 C 
ATOM     22  C   UNL     1     181.546 182.303 183.092  1.00  0.00    -0.008 C 
ATOM     23  C   UNL     1     179.220 181.377 182.911  1.00  0.00    -0.027 C 
ATOM     24  C   UNL     1     180.075 182.401 182.685  1.00  0.00    -0.065 C 
ATOM     25  C   UNL     1     182.448 183.233 182.208  1.00  0.00     0.014 C 
ATOM     26  C   UNL     1     181.669 182.786 184.563  1.00  0.00     0.016 C 
ATOM     27  C   UNL     1     179.507 183.742 182.268  1.00  0.00     0.063 C 
ATOM     28  C   UNL     1     181.843 184.620 181.950  1.00  0.00     0.033 C 
ATOM     29  C   UNL     1     180.450 184.489 181.323  1.00  0.00     0.118 C 
BRANCH  29  30
ATOM     30  O   UNL     1     179.923 185.763 181.061  1.00  0.00    -0.393 OA
ATOM     31  H   UNL     1     179.016 185.625 180.684  1.00  0.00     0.210 HD
ENDBRANCH  29  30
ENDBRANCH   9  11
ENDBRANCH   1   9
TORSDOF 7
ENDMDL
MODEL 6
REMARK VINA RESULT:    -7.004      2.960      4.852
REMARK INTER + INTRA:         -11.320
REMARK INTER:                  -9.035
REMARK INTRA:                  -2.285
REMARK UNBOUND:                -1.654
REMARK SMILES CC[C@H](CC[C@H](C)[C@H]1CC[C@@H]2[C@@H]3CC=C4C[C@@H](O)CC[C@]4(C)[C@@H]3CC[C@@]21C)C(C)C
REMARK SMILES IDX 5 1 4 2 3 3 2 4 1 5 28 6 29 7 30 8 6 9 7 10 8 11 9 12 26 13
REMARK SMILES IDX 10 14 11 15 25 16 27 17 12 18 24 19 23 20 13 21 21 22 14 23
REMARK SMILES IDX 15 24 20 25 22 26 16 27 19 28 17 29 18 30
REMARK H PARENT 18 31
REMARK Flexibility Score: inf
ROOT
ATOM      1  C   UNL     1     181.291 175.253 180.041  1.00  0.00     0.004 C 
ENDROOT
BRANCH   1   2
ATOM      2  C   UNL     1     182.090 175.865 178.866  1.00  0.00     0.004 C 
BRANCH   2   3
ATOM      3  C   UNL     1     183.535 176.359 179.181  1.00  0.00    -0.009 C 
BRANCH   3   4
ATOM      4  C   UNL     1     184.569 175.246 178.851  1.00  0.00     0.000 C 
ATOM      5  C   UNL     1     185.378 174.792 180.067  1.00  0.00     0.004 C 
ENDBRANCH   3   4
BRANCH   3   6
ATOM      6  C   UNL     1     183.885 177.719 178.484  1.00  0.00    -0.014 C 
ATOM      7  C   UNL     1     185.083 178.422 179.143  1.00  0.00     0.007 C 
ATOM      8  C   UNL     1     184.110 177.592 176.968  1.00  0.00     0.007 C 
ENDBRANCH   3   6
ENDBRANCH   2   3
ENDBRANCH   1   2
BRANCH   1   9
ATOM      9  C   UNL     1     181.960 175.413 181.439  1.00  0.00    -0.011 C 
ATOM     10  C   UNL     1     182.006 174.075 182.196  1.00  0.00     0.008 C 
BRANCH   9  11
ATOM     11  C   UNL     1     181.430 176.582 182.346  1.00  0.00    -0.002 C 
ATOM     12  C   UNL     1     181.112 176.160 183.779  1.00  0.00     0.005 C 
ATOM     13  C   UNL     1     182.180 177.954 182.478  1.00  0.00    -0.026 C 
ATOM     14  C   UNL     1     180.744 177.454 184.474  1.00  0.00     0.005 C 
ATOM     15  C   UNL     1     181.665 178.517 183.849  1.00  0.00    -0.001 C 
ATOM     16  C   UNL     1     181.833 178.901 181.294  1.00  0.00     0.007 C 
ATOM     17  C   UNL     1     183.719 177.794 182.547  1.00  0.00     0.012 C 
ATOM     18  C   UNL     1     181.073 179.959 183.820  1.00  0.00     0.000 C 
ATOM     19  C   UNL     1     182.175 180.382 181.541  1.00  0.00     0.005 C 
ATOM     20  C   UNL     1     182.003 180.890 183.008  1.00  0.00     0.003 C 
ATOM     21  C   UNL     1     179.595 180.077 183.359  1.00  0.00     0.031 C 
ATOM     22  C   UNL     1     181.510 182.384 183.093  1.00  0.00    -0.008 C 
ATOM     23  C   UNL     1     179.203 181.434 182.813  1.00  0.00    -0.027 C 
ATOM     24  C   UNL     1     180.060 182.463 182.615  1.00  0.00    -0.065 C 
ATOM     25  C   UNL     1     182.445 183.311 182.243  1.00  0.00     0.014 C 
ATOM     26  C   UNL     1     181.558 182.886 184.563  1.00  0.00     0.016 C 
ATOM     27  C   UNL     1     179.500 183.793 182.154  1.00  0.00     0.063 C 
ATOM     28  C   UNL     1     181.842 184.689 181.938  1.00  0.00     0.033 C 
ATOM     29  C   UNL     1     180.482 184.537 181.246  1.00  0.00     0.118 C 
BRANCH  29  30
ATOM     30  O   UNL     1     179.957 185.803 180.943  1.00  0.00    -0.393 OA
ATOM     31  H   UNL     1     180.594 186.234 180.316  1.00  0.00     0.210 HD
ENDBRANCH  29  30
ENDBRANCH   9  11
ENDBRANCH   1   9
TORSDOF 7
ENDMDL
MODEL 7
REMARK VINA RESULT:    -6.987      2.689      8.167
REMARK INTER + INTRA:         -11.296
REMARK INTER:                  -9.517
REMARK INTRA:                  -1.779
REMARK UNBOUND:                -1.654
REMARK SMILES CC[C@H](CC[C@H](C)[C@H]1CC[C@@H]2[C@@H]3CC=C4C[C@@H](O)CC[C@]4(C)[C@@H]3CC[C@@]21C)C(C)C
REMARK SMILES IDX 5 1 4 2 3 3 2 4 1 5 28 6 29 7 30 8 6 9 7 10 8 11 9 12 26 13
REMARK SMILES IDX 10 14 11 15 25 16 27 17 12 18 24 19 23 20 13 21 21 22 14 23
REMARK SMILES IDX 15 24 20 25 22 26 16 27 19 28 17 29 18 30
REMARK H PARENT 18 31
REMARK Flexibility Score: inf
ROOT
ATOM      1  C   UNL     1     180.560 178.024 184.303  1.00  0.00     0.004 C 
ENDROOT
BRANCH   1   2
ATOM      2  C   UNL     1     179.766 179.009 183.413  1.00  0.00     0.004 C 
BRANCH   2   3
ATOM      3  C   UNL     1     179.289 180.334 184.083  1.00  0.00    -0.009 C 
BRANCH   3   4
ATOM      4  C   UNL     1     179.688 180.352 185.586  1.00  0.00     0.000 C 
ATOM      5  C   UNL     1     180.596 181.525 185.956  1.00  0.00     0.004 C 
ENDBRANCH   3   4
BRANCH   3   6
ATOM      6  C   UNL     1     179.777 181.616 183.325  1.00  0.00    -0.014 C 
ATOM      7  C   UNL     1     180.864 181.301 182.284  1.00  0.00     0.007 C 
ATOM      8  C   UNL     1     178.636 182.417 182.676  1.00  0.00     0.007 C 
ENDBRANCH   3   6
ENDBRANCH   2   3
ENDBRANCH   1   2
BRANCH   1   9
ATOM      9  C   UNL     1     182.018 177.745 183.829  1.00  0.00    -0.011 C 
ATOM     10  C   UNL     1     182.993 178.813 184.351  1.00  0.00     0.008 C 
BRANCH   9  11
ATOM     11  C   UNL     1     182.221 177.465 182.296  1.00  0.00    -0.002 C 
ATOM     12  C   UNL     1     183.173 178.441 181.609  1.00  0.00     0.005 C 
ATOM     13  C   UNL     1     182.609 176.050 181.741  1.00  0.00    -0.026 C 
ATOM     14  C   UNL     1     183.299 177.904 180.198  1.00  0.00     0.005 C 
ATOM     15  C   UNL     1     183.258 176.374 180.349  1.00  0.00    -0.001 C 
ATOM     16  C   UNL     1     181.358 175.137 181.601  1.00  0.00     0.007 C 
ATOM     17  C   UNL     1     183.654 175.323 182.624  1.00  0.00     0.012 C 
ATOM     18  C   UNL     1     182.669 175.611 179.123  1.00  0.00     0.000 C 
ATOM     19  C   UNL     1     181.563 173.909 180.694  1.00  0.00     0.005 C 
ATOM     20  C   UNL     1     182.509 174.112 179.467  1.00  0.00     0.003 C 
ATOM     21  C   UNL     1     181.369 176.204 178.515  1.00  0.00     0.031 C 
ATOM     22  C   UNL     1     182.063 173.293 178.198  1.00  0.00    -0.008 C 
ATOM     23  C   UNL     1     180.522 175.220 177.736  1.00  0.00    -0.027 C 
ATOM     24  C   UNL     1     180.772 173.893 177.639  1.00  0.00    -0.065 C 
ATOM     25  C   UNL     1     181.877 171.781 178.569  1.00  0.00     0.014 C 
ATOM     26  C   UNL     1     183.149 173.377 177.091  1.00  0.00     0.016 C 
ATOM     27  C   UNL     1     179.889 173.053 176.741  1.00  0.00     0.063 C 
ATOM     28  C   UNL     1     181.078 170.981 177.530  1.00  0.00     0.033 C 
ATOM     29  C   UNL     1     179.713 171.634 177.285  1.00  0.00     0.118 C 
BRANCH  29  30
ATOM     30  O   UNL     1     178.980 170.875 176.360  1.00  0.00    -0.393 OA
ATOM     31  H   UNL     1     178.307 171.485 175.959  1.00  0.00     0.210 HD
ENDBRANCH  29  30
ENDBRANCH   9  11
ENDBRANCH   1   9
TORSDOF 7
ENDMDL
MODEL 8
REMARK VINA RESULT:    -6.934      6.027      9.695
REMARK INTER + INTRA:         -11.224
REMARK INTER:                  -9.260
REMARK INTRA:                  -1.964
REMARK UNBOUND:                -1.654
REMARK SMILES CC[C@H](CC[C@H](C)[C@H]1CC[C@@H]2[C@@H]3CC=C4C[C@@H](O)CC[C@]4(C)[C@@H]3CC[C@@]21C)C(C)C
REMARK SMILES IDX 5 1 4 2 3 3 2 4 1 5 28 6 29 7 30 8 6 9 7 10 8 11 9 12 26 13
REMARK SMILES IDX 10 14 11 15 25 16 27 17 12 18 24 19 23 20 13 21 21 22 14 23
REMARK SMILES IDX 15 24 20 25 22 26 16 27 19 28 17 29 18 30
REMARK H PARENT 18 31
REMARK Flexibility Score: inf
ROOT
ATOM      1  C   UNL     1     180.212 179.952 185.873  1.00  0.00     0.004 C 
ENDROOT
BRANCH   1   2
ATOM      2  C   UNL     1     181.632 180.003 186.485  1.00  0.00     0.004 C 
BRANCH   2   3
ATOM      3  C   UNL     1     182.091 181.369 187.081  1.00  0.00    -0.009 C 
BRANCH   3   4
ATOM      4  C   UNL     1     182.589 181.180 188.541  1.00  0.00     0.000 C 
ATOM      5  C   UNL     1     183.150 179.783 188.813  1.00  0.00     0.004 C 
ENDBRANCH   3   4
BRANCH   3   6
ATOM      6  C   UNL     1     183.146 182.107 186.185  1.00  0.00    -0.014 C 
ATOM      7  C   UNL     1     184.217 182.828 187.019  1.00  0.00     0.007 C 
ATOM      8  C   UNL     1     183.809 181.194 185.141  1.00  0.00     0.007 C 
ENDBRANCH   3   6
ENDBRANCH   2   3
ENDBRANCH   1   2
BRANCH   1   9
ATOM      9  C   UNL     1     180.139 179.340 184.442  1.00  0.00    -0.011 C 
ATOM     10  C   UNL     1     180.533 177.854 184.445  1.00  0.00     0.008 C 
BRANCH   9  11
ATOM     11  C   UNL     1     180.861 180.136 183.296  1.00  0.00    -0.002 C 
ATOM     12  C   UNL     1     181.199 179.289 182.071  1.00  0.00     0.005 C 
ATOM     13  C   UNL     1     180.301 181.484 182.722  1.00  0.00    -0.026 C 
ATOM     14  C   UNL     1     181.766 180.282 181.078  1.00  0.00     0.005 C 
ATOM     15  C   UNL     1     180.957 181.572 181.299  1.00  0.00    -0.001 C 
ATOM     16  C   UNL     1     180.701 182.688 183.621  1.00  0.00     0.007 C 
ATOM     17  C   UNL     1     178.760 181.478 182.565  1.00  0.00     0.012 C 
ATOM     18  C   UNL     1     181.726 182.889 180.977  1.00  0.00     0.000 C 
ATOM     19  C   UNL     1     180.565 184.064 182.942  1.00  0.00     0.005 C 
ATOM     20  C   UNL     1     180.879 184.108 181.412  1.00  0.00     0.003 C 
ATOM     21  C   UNL     1     183.180 182.976 181.516  1.00  0.00     0.031 C 
ATOM     22  C   UNL     1     181.563 185.453 180.958  1.00  0.00    -0.008 C 
ATOM     23  C   UNL     1     183.711 184.383 181.694  1.00  0.00    -0.027 C 
ATOM     24  C   UNL     1     182.984 185.511 181.521  1.00  0.00    -0.065 C 
ATOM     25  C   UNL     1     180.709 186.680 181.432  1.00  0.00     0.014 C 
ATOM     26  C   UNL     1     181.659 185.514 179.409  1.00  0.00     0.016 C 
ATOM     27  C   UNL     1     183.683 186.849 181.641  1.00  0.00     0.063 C 
ATOM     28  C   UNL     1     181.467 188.015 181.393  1.00  0.00     0.033 C 
ATOM     29  C   UNL     1     182.757 187.923 182.216  1.00  0.00     0.118 C 
BRANCH  29  30
ATOM     30  O   UNL     1     183.422 189.159 182.199  1.00  0.00    -0.393 OA
ATOM     31  H   UNL     1     182.931 189.738 181.560  1.00  0.00     0.210 HD
ENDBRANCH  29  30
ENDBRANCH   9  11
ENDBRANCH   1   9
TORSDOF 7
ENDMDL
MODEL 9
REMARK VINA RESULT:    -6.804      1.761      3.368
REMARK INTER + INTRA:         -11.044
REMARK INTER:                  -9.875
REMARK INTRA:                  -1.169
REMARK UNBOUND:                -1.654
REMARK SMILES CC[C@H](CC[C@H](C)[C@H]1CC[C@@H]2[C@@H]3CC=C4C[C@@H](O)CC[C@]4(C)[C@@H]3CC[C@@]21C)C(C)C
REMARK SMILES IDX 5 1 4 2 3 3 2 4 1 5 28 6 29 7 30 8 6 9 7 10 8 11 9 12 26 13
REMARK SMILES IDX 10 14 11 15 25 16 27 17 12 18 24 19 23 20 13 21 21 22 14 23
REMARK SMILES IDX 15 24 20 25 22 26 16 27 19 28 17 29 18 30
REMARK H PARENT 18 31
REMARK Flexibility Score: inf
ROOT
ATOM      1  C   UNL     1     183.055 174.337 178.616  1.00  0.00     0.004 C 
ENDROOT
BRANCH   1   2
ATOM      2  C   UNL     1     183.004 173.120 177.663  1.00  0.00     0.004 C 
BRANCH   2   3
ATOM      3  C   UNL     1     183.272 171.720 178.296  1.00  0.00    -0.009 C 
BRANCH   3   4
ATOM      4  C   UNL     1     184.185 171.860 179.546  1.00  0.00     0.000 C 
ATOM      5  C   UNL     1     185.672 171.684 179.233  1.00  0.00     0.004 C 
ENDBRANCH   3   4
BRANCH   3   6
ATOM      6  C   UNL     1     181.958 170.924 178.607  1.00  0.00    -0.014 C 
ATOM      7  C   UNL     1     181.647 170.876 180.112  1.00  0.00     0.007 C 
ATOM      8  C   UNL     1     180.734 171.431 177.826  1.00  0.00     0.007 C 
ENDBRANCH   3   6
ENDBRANCH   2   3
ENDBRANCH   1   2
BRANCH   1   9
ATOM      9  C   UNL     1     181.670 174.808 179.150  1.00  0.00    -0.011 C 
ATOM     10  C   UNL     1     181.018 175.828 178.201  1.00  0.00     0.008 C 
BRANCH   9  11
ATOM     11  C   UNL     1     181.613 175.281 180.648  1.00  0.00    -0.002 C 
ATOM     12  C   UNL     1     181.891 174.171 181.659  1.00  0.00     0.005 C 
ATOM     13  C   UNL     1     182.414 176.524 181.171  1.00  0.00    -0.026 C 
ATOM     14  C   UNL     1     181.900 174.881 182.996  1.00  0.00     0.005 C 
ATOM     15  C   UNL     1     182.532 176.255 182.713  1.00  0.00    -0.001 C 
ATOM     16  C   UNL     1     181.657 177.849 180.869  1.00  0.00     0.007 C 
ATOM     17  C   UNL     1     183.837 176.621 180.568  1.00  0.00     0.012 C 
ATOM     18  C   UNL     1     182.048 177.403 183.649  1.00  0.00     0.000 C 
ATOM     19  C   UNL     1     182.138 179.060 181.690  1.00  0.00     0.005 C 
ATOM     20  C   UNL     1     182.606 178.756 183.150  1.00  0.00     0.003 C 
ATOM     21  C   UNL     1     180.518 177.471 183.905  1.00  0.00     0.031 C 
ATOM     22  C   UNL     1     182.261 179.911 184.164  1.00  0.00    -0.008 C 
ATOM     23  C   UNL     1     180.001 178.832 184.324  1.00  0.00    -0.027 C 
ATOM     24  C   UNL     1     180.748 179.959 184.377  1.00  0.00    -0.065 C 
ATOM     25  C   UNL     1     182.808 181.280 183.631  1.00  0.00     0.014 C 
ATOM     26  C   UNL     1     182.930 179.640 185.540  1.00  0.00     0.016 C 
ATOM     27  C   UNL     1     180.111 181.226 184.910  1.00  0.00     0.063 C 
ATOM     28  C   UNL     1     182.197 182.505 184.325  1.00  0.00     0.033 C 
ATOM     29  C   UNL     1     180.668 182.473 184.221  1.00  0.00     0.118 C 
BRANCH  29  30
ATOM     30  O   UNL     1     180.124 183.615 184.831  1.00  0.00    -0.393 OA
ATOM     31  H   UNL     1     179.914 184.254 184.102  1.00  0.00     0.210 HD
ENDBRANCH  29  30
ENDBRANCH   9  11
ENDBRANCH   1   9
TORSDOF 7
ENDMDL
