MODEL 1
REMARK VINA RESULT:    -4.930      0.000      0.000
REMARK INTER + INTRA:          -5.409
REMARK INTER:                  -5.362
REMARK INTRA:                  -0.047
REMARK UNBOUND:                -0.047
REMARK SMILES CCc1cccc(O)c1
REMARK SMILES IDX 3 1 9 2 7 3 6 4 5 5 4 6 2 7 1 8 8 9
REMARK H PARENT 8 10
REMARK Flexibility Score: inf
ROOT
ATOM      1  C   UNL     1       6.773   6.340  -1.435  1.00  0.00    -0.045 A 
ATOM      2  C   UNL     1       6.752   5.988  -0.075  1.00  0.00     0.049 A 
ATOM      3  C   UNL     1       6.700   4.643   0.308  1.00  0.00     0.115 A 
ATOM      4  C   UNL     1       6.677   3.641  -0.672  1.00  0.00     0.046 A 
ATOM      5  C   UNL     1       6.711   3.985  -2.026  1.00  0.00     0.004 A 
ATOM      6  C   UNL     1       6.764   5.327  -2.408  1.00  0.00     0.004 A 
ENDROOT
BRANCH   1   7
ATOM      7  C   UNL     1       6.864   7.786  -1.844  1.00  0.00     0.032 C 
ATOM      8  C   UNL     1       5.807   8.617  -1.125  1.00  0.00     0.009 C 
ENDBRANCH   1   7
BRANCH   3   9
ATOM      9  O   UNL     1       6.674   4.314   1.661  1.00  0.00    -0.508 OA
ATOM     10  H   UNL     1       5.930   4.635   2.269  1.00  0.00     0.293 HD
ENDBRANCH   3   9
TORSDOF 2
ENDMDL
MODEL 2
REMARK VINA RESULT:    -4.906      2.419      4.113
REMARK INTER + INTRA:          -5.384
REMARK INTER:                  -5.311
REMARK INTRA:                  -0.073
REMARK UNBOUND:                -0.047
REMARK SMILES CCc1cccc(O)c1
REMARK SMILES IDX 3 1 9 2 7 3 6 4 5 5 4 6 2 7 1 8 8 9
REMARK H PARENT 8 10
REMARK Flexibility Score: inf
ROOT
ATOM      1  C   UNL     1       6.643   5.344  -1.327  1.00  0.00    -0.045 A 
ATOM      2  C   UNL     1       7.039   5.309  -2.675  1.00  0.00     0.049 A 
ATOM      3  C   UNL     1       7.296   6.496  -3.370  1.00  0.00     0.115 A 
ATOM      4  C   UNL     1       7.165   7.728  -2.714  1.00  0.00     0.046 A 
ATOM      5  C   UNL     1       6.786   7.769  -1.370  1.00  0.00     0.004 A 
ATOM      6  C   UNL     1       6.530   6.584  -0.676  1.00  0.00     0.004 A 
ENDROOT
BRANCH   1   7
ATOM      7  C   UNL     1       6.401   4.065  -0.573  1.00  0.00     0.032 C 
ATOM      8  C   UNL     1       6.778   4.224   0.895  1.00  0.00     0.009 C 
ENDBRANCH   1   7
BRANCH   3   9
ATOM      9  O   UNL     1       7.681   6.442  -4.707  1.00  0.00    -0.508 OA
ATOM     10  H   UNL     1       8.651   6.324  -4.974  1.00  0.00     0.293 HD
ENDBRANCH   3   9
TORSDOF 2
ENDMDL
MODEL 3
REMARK VINA RESULT:    -4.825      2.144      3.473
REMARK INTER + INTRA:          -5.295
REMARK INTER:                  -5.247
REMARK INTRA:                  -0.048
REMARK UNBOUND:                -0.047
REMARK SMILES CCc1cccc(O)c1
REMARK SMILES IDX 3 1 9 2 7 3 6 4 5 5 4 6 2 7 1 8 8 9
REMARK H PARENT 8 10
REMARK Flexibility Score: inf
ROOT
ATOM      1  C   UNL     1       6.424   4.623  -1.238  1.00  0.00    -0.045 A 
ATOM      2  C   UNL     1       6.769   5.976  -1.077  1.00  0.00     0.049 A 
ATOM      3  C   UNL     1       7.186   6.736  -2.175  1.00  0.00     0.115 A 
ATOM      4  C   UNL     1       7.252   6.146  -3.445  1.00  0.00     0.046 A 
ATOM      5  C   UNL     1       6.898   4.805  -3.614  1.00  0.00     0.004 A 
ATOM      6  C   UNL     1       6.480   4.047  -2.518  1.00  0.00     0.004 A 
ENDROOT
BRANCH   1   7
ATOM      7  C   UNL     1       5.943   3.817  -0.062  1.00  0.00     0.032 C 
ATOM      8  C   UNL     1       6.769   4.128   1.181  1.00  0.00     0.009 C 
ENDBRANCH   1   7
BRANCH   3   9
ATOM      9  O   UNL     1       7.530   8.074  -1.995  1.00  0.00    -0.508 OA
ATOM     10  H   UNL     1       8.223   8.354  -1.311  1.00  0.00     0.293 HD
ENDBRANCH   3   9
TORSDOF 2
ENDMDL
MODEL 4
REMARK VINA RESULT:    -4.772      6.753      7.778
REMARK INTER + INTRA:          -5.237
REMARK INTER:                  -5.175
REMARK INTRA:                  -0.063
REMARK UNBOUND:                -0.047
REMARK SMILES CCc1cccc(O)c1
REMARK SMILES IDX 3 1 9 2 7 3 6 4 5 5 4 6 2 7 1 8 8 9
REMARK H PARENT 8 10
REMARK Flexibility Score: inf
ROOT
ATOM      1  C   UNL     1       9.146   5.889  -7.177  1.00  0.00    -0.045 A 
ATOM      2  C   UNL     1       8.802   4.528  -7.121  1.00  0.00     0.049 A 
ATOM      3  C   UNL     1       8.718   3.770  -8.295  1.00  0.00     0.115 A 
ATOM      4  C   UNL     1       8.986   4.371  -9.532  1.00  0.00     0.046 A 
ATOM      5  C   UNL     1       9.341   5.721  -9.593  1.00  0.00     0.004 A 
ATOM      6  C   UNL     1       9.426   6.477  -8.421  1.00  0.00     0.004 A 
ENDROOT
BRANCH   1   7
ATOM      7  C   UNL     1       9.269   6.693  -5.911  1.00  0.00     0.032 C 
ATOM      8  C   UNL     1      10.709   7.149  -5.699  1.00  0.00     0.009 C 
ENDBRANCH   1   7
BRANCH   3   9
ATOM      9  O   UNL     1       8.369   2.423  -8.220  1.00  0.00    -0.508 OA
ATOM     10  H   UNL     1       7.745   2.077  -7.501  1.00  0.00     0.293 HD
ENDBRANCH   3   9
TORSDOF 2
ENDMDL
MODEL 5
REMARK VINA RESULT:    -4.604      1.788      2.405
REMARK INTER + INTRA:          -5.055
REMARK INTER:                  -4.990
REMARK INTRA:                  -0.065
REMARK UNBOUND:                -0.047
REMARK SMILES CCc1cccc(O)c1
REMARK SMILES IDX 3 1 9 2 7 3 6 4 5 5 4 6 2 7 1 8 8 9
REMARK H PARENT 8 10
REMARK Flexibility Score: inf
ROOT
ATOM      1  C   UNL     1       6.796   6.503  -1.501  1.00  0.00    -0.045 A 
ATOM      2  C   UNL     1       6.726   5.643  -2.611  1.00  0.00     0.049 A 
ATOM      3  C   UNL     1       6.606   4.261  -2.430  1.00  0.00     0.115 A 
ATOM      4  C   UNL     1       6.547   3.732  -1.133  1.00  0.00     0.046 A 
ATOM      5  C   UNL     1       6.602   4.582  -0.026  1.00  0.00     0.004 A 
ATOM      6  C   UNL     1       6.721   5.962  -0.207  1.00  0.00     0.004 A 
ENDROOT
BRANCH   1   7
ATOM      7  C   UNL     1       6.890   7.992  -1.699  1.00  0.00     0.032 C 
ATOM      8  C   UNL     1       5.691   8.696  -1.074  1.00  0.00     0.009 C 
ENDBRANCH   1   7
BRANCH   3   9
ATOM      9  O   UNL     1       6.545   3.424  -3.541  1.00  0.00    -0.508 OA
ATOM     10  H   UNL     1       6.561   2.416  -3.446  1.00  0.00     0.293 HD
ENDBRANCH   3   9
TORSDOF 2
ENDMDL
MODEL 6
REMARK VINA RESULT:    -4.336      1.953      3.117
REMARK INTER + INTRA:          -4.763
REMARK INTER:                  -4.705
REMARK INTRA:                  -0.058
REMARK UNBOUND:                -0.047
REMARK SMILES CCc1cccc(O)c1
REMARK SMILES IDX 3 1 9 2 7 3 6 4 5 5 4 6 2 7 1 8 8 9
REMARK H PARENT 8 10
REMARK Flexibility Score: inf
ROOT
ATOM      1  C   UNL     1       7.437   6.405  -3.291  1.00  0.00    -0.045 A 
ATOM      2  C   UNL     1       7.109   5.197  -2.653  1.00  0.00     0.049 A 
ATOM      3  C   UNL     1       6.594   5.200  -1.352  1.00  0.00     0.115 A 
ATOM      4  C   UNL     1       6.397   6.417  -0.685  1.00  0.00     0.046 A 
ATOM      5  C   UNL     1       6.708   7.622  -1.319  1.00  0.00     0.004 A 
ATOM      6  C   UNL     1       7.222   7.619  -2.618  1.00  0.00     0.004 A 
ENDROOT
BRANCH   1   7
ATOM      7  C   UNL     1       7.959   6.401  -4.703  1.00  0.00     0.032 C 
ATOM      8  C   UNL     1       9.384   6.942  -4.754  1.00  0.00     0.009 C 
ENDBRANCH   1   7
BRANCH   3   9
ATOM      9  O   UNL     1       6.280   3.992  -0.733  1.00  0.00    -0.508 OA
ATOM     10  H   UNL     1       6.999   3.401  -0.334  1.00  0.00     0.293 HD
ENDBRANCH   3   9
TORSDOF 2
ENDMDL
MODEL 7
REMARK VINA RESULT:    -4.101      6.948      8.435
REMARK INTER + INTRA:          -4.508
REMARK INTER:                  -4.438
REMARK INTRA:                  -0.070
REMARK UNBOUND:                -0.047
REMARK SMILES CCc1cccc(O)c1
REMARK SMILES IDX 3 1 9 2 7 3 6 4 5 5 4 6 2 7 1 8 8 9
REMARK H PARENT 8 10
REMARK Flexibility Score: inf
ROOT
ATOM      1  C   UNL     1       8.891   4.060  -8.512  1.00  0.00    -0.045 A 
ATOM      2  C   UNL     1       8.786   4.523  -7.189  1.00  0.00     0.049 A 
ATOM      3  C   UNL     1       9.009   5.872  -6.892  1.00  0.00     0.115 A 
ATOM      4  C   UNL     1       9.331   6.768  -7.921  1.00  0.00     0.046 A 
ATOM      5  C   UNL     1       9.424   6.316  -9.240  1.00  0.00     0.004 A 
ATOM      6  C   UNL     1       9.200   4.969  -9.537  1.00  0.00     0.004 A 
ENDROOT
BRANCH   1   7
ATOM      7  C   UNL     1       8.617   2.615  -8.834  1.00  0.00     0.032 C 
ATOM      8  C   UNL     1       9.532   2.129  -9.952  1.00  0.00     0.009 C 
ENDBRANCH   1   7
BRANCH   3   9
ATOM      9  O   UNL     1       8.907   6.312  -5.574  1.00  0.00    -0.508 OA
ATOM     10  H   UNL     1       9.248   7.223  -5.293  1.00  0.00     0.293 HD
ENDBRANCH   3   9
TORSDOF 2
ENDMDL
MODEL 8
REMARK VINA RESULT:    -3.928      4.955      6.327
REMARK INTER + INTRA:          -4.319
REMARK INTER:                  -4.273
REMARK INTRA:                  -0.047
REMARK UNBOUND:                -0.047
REMARK SMILES CCc1cccc(O)c1
REMARK SMILES IDX 3 1 9 2 7 3 6 4 5 5 4 6 2 7 1 8 8 9
REMARK H PARENT 8 10
REMARK Flexibility Score: inf
ROOT
ATOM      1  C   UNL     1       9.260   6.094  -6.649  1.00  0.00    -0.045 A 
ATOM      2  C   UNL     1       8.408   5.979  -5.537  1.00  0.00     0.049 A 
ATOM      3  C   UNL     1       8.653   6.722  -4.378  1.00  0.00     0.115 A 
ATOM      4  C   UNL     1       9.750   7.593  -4.328  1.00  0.00     0.046 A 
ATOM      5  C   UNL     1      10.593   7.722  -5.435  1.00  0.00     0.004 A 
ATOM      6  C   UNL     1      10.348   6.980  -6.593  1.00  0.00     0.004 A 
ENDROOT
BRANCH   1   7
ATOM      7  C   UNL     1       8.975   5.319  -7.908  1.00  0.00     0.032 C 
ATOM      8  C   UNL     1       8.799   3.836  -7.601  1.00  0.00     0.009 C 
ENDBRANCH   1   7
BRANCH   3   9
ATOM      9  O   UNL     1       7.801   6.591  -3.283  1.00  0.00    -0.508 OA
ATOM     10  H   UNL     1       7.087   5.872  -3.253  1.00  0.00     0.293 HD
ENDBRANCH   3   9
TORSDOF 2
ENDMDL
MODEL 9
REMARK VINA RESULT:    -3.913      8.103      9.030
REMARK INTER + INTRA:          -4.303
REMARK INTER:                  -4.252
REMARK INTRA:                  -0.051
REMARK UNBOUND:                -0.047
REMARK SMILES CCc1cccc(O)c1
REMARK SMILES IDX 3 1 9 2 7 3 6 4 5 5 4 6 2 7 1 8 8 9
REMARK H PARENT 8 10
REMARK Flexibility Score: inf
ROOT
ATOM      1  C   UNL     1       9.063   5.279 -10.172  1.00  0.00    -0.045 A 
ATOM      2  C   UNL     1       9.024   4.946  -8.807  1.00  0.00     0.049 A 
ATOM      3  C   UNL     1       8.590   3.680  -8.399  1.00  0.00     0.115 A 
ATOM      4  C   UNL     1       8.199   2.736  -9.358  1.00  0.00     0.046 A 
ATOM      5  C   UNL     1       8.248   3.056 -10.717  1.00  0.00     0.004 A 
ATOM      6  C   UNL     1       8.683   4.319 -11.125  1.00  0.00     0.004 A 
ENDROOT
BRANCH   1   7
ATOM      7  C   UNL     1       9.563   6.629 -10.610  1.00  0.00     0.032 C 
ATOM      8  C   UNL     1       9.639   7.587  -9.427  1.00  0.00     0.009 C 
ENDBRANCH   1   7
BRANCH   3   9
ATOM      9  O   UNL     1       8.552   3.371  -7.041  1.00  0.00    -0.508 OA
ATOM     10  H   UNL     1       8.991   2.533  -6.677  1.00  0.00     0.293 HD
ENDBRANCH   3   9
TORSDOF 2
ENDMDL
