MODEL 1
REMARK VINA RESULT:    -3.867      0.000      0.000
REMARK INTER + INTRA:         -11.886
REMARK INTER:                  -8.388
REMARK INTRA:                  -3.498
REMARK UNBOUND:                -3.498
REMARK SMILES CCCCCCCCCCCCCCCCCCCCCC(=O)[O-]
REMARK SMILES IDX 12 1 11 2 10 3 9 4 8 5 7 6 6 7 5 8 4 9 3 10 2 11 1 12 13 13
REMARK SMILES IDX 14 14 15 15 16 16 17 17 18 18 19 19 20 20 21 21 22 22 23 23
REMARK SMILES IDX 24 24
REMARK H PARENT
REMARK Flexibility Score: inf
ROOT
ATOM      1  C   UNL     1      -1.229   4.542   4.933  1.00  0.00     0.000 C 
ENDROOT
BRANCH   1   2
ATOM      2  C   UNL     1      -0.988   3.021   5.034  1.00  0.00     0.000 C 
BRANCH   2   3
ATOM      3  C   UNL     1      -2.184   2.237   5.602  1.00  0.00     0.000 C 
BRANCH   3   4
ATOM      4  C   UNL     1      -3.044   3.066   6.568  1.00  0.00    -0.000 C 
BRANCH   4   5
ATOM      5  C   UNL     1      -4.438   3.325   5.978  1.00  0.00    -0.000 C 
BRANCH   5   6
ATOM      6  C   UNL     1      -5.017   4.692   6.386  1.00  0.00    -0.000 C 
BRANCH   6   7
ATOM      7  C   UNL     1      -4.806   5.825   5.361  1.00  0.00    -0.000 C 
BRANCH   7   8
ATOM      8  C   UNL     1      -4.133   7.093   5.916  1.00  0.00    -0.000 C 
BRANCH   8   9
ATOM      9  C   UNL     1      -5.144   8.150   6.389  1.00  0.00    -0.000 C 
BRANCH   9  10
ATOM     10  C   UNL     1      -6.262   8.340   5.352  1.00  0.00    -0.000 C 
BRANCH  10  11
ATOM     11  C   UNL     1      -5.834   9.235   4.179  1.00  0.00    -0.003 C 
ATOM     12  C   UNL     1      -5.651   8.457   2.876  1.00  0.00     0.004 C 
ENDBRANCH  10  11
ENDBRANCH   9  10
ENDBRANCH   8   9
ENDBRANCH   7   8
ENDBRANCH   6   7
ENDBRANCH   5   6
ENDBRANCH   4   5
ENDBRANCH   3   4
ENDBRANCH   2   3
ENDBRANCH   1   2
BRANCH   1  13
ATOM     13  C   UNL     1       0.024   5.359   5.300  1.00  0.00     0.000 C 
BRANCH  13  14
ATOM     14  C   UNL     1      -0.274   6.476   6.314  1.00  0.00     0.000 C 
BRANCH  14  15
ATOM     15  C   UNL     1      -1.047   5.971   7.546  1.00  0.00     0.000 C 
BRANCH  15  16
ATOM     16  C   UNL     1      -0.131   5.324   8.597  1.00  0.00     0.000 C 
BRANCH  16  17
ATOM     17  C   UNL     1      -0.594   3.913   9.000  1.00  0.00     0.000 C 
BRANCH  17  18
ATOM     18  C   UNL     1       0.412   2.828   8.580  1.00  0.00     0.000 C 
BRANCH  18  19
ATOM     19  C   UNL     1       1.686   3.419   7.958  1.00  0.00     0.000 C 
BRANCH  19  20
ATOM     20  C   UNL     1       2.229   2.509   6.850  1.00  0.00     0.006 C 
BRANCH  20  21
ATOM     21  C   UNL     1       1.617   1.106   6.941  1.00  0.00     0.053 C 
BRANCH  21  22
ATOM     22  C   UNL     1       2.627   0.067   6.564  1.00  0.00     0.041 C 
ATOM     23  O   UNL     1       2.348  -0.799   5.692  1.00  0.00    -0.550 OA
ATOM     24  O   UNL     1       3.891   0.083   7.141  1.00  0.00    -0.550 OA
ENDBRANCH  21  22
ENDBRANCH  20  21
ENDBRANCH  19  20
ENDBRANCH  18  19
ENDBRANCH  17  18
ENDBRANCH  16  17
ENDBRANCH  15  16
ENDBRANCH  14  15
ENDBRANCH  13  14
ENDBRANCH   1  13
TORSDOF 20
ENDMDL
MODEL 2
REMARK VINA RESULT:    -3.818      1.547      3.044
REMARK INTER + INTRA:         -11.781
REMARK INTER:                  -7.818
REMARK INTRA:                  -3.963
REMARK UNBOUND:                -3.498
REMARK SMILES CCCCCCCCCCCCCCCCCCCCCC(=O)[O-]
REMARK SMILES IDX 12 1 11 2 10 3 9 4 8 5 7 6 6 7 5 8 4 9 3 10 2 11 1 12 13 13
REMARK SMILES IDX 14 14 15 15 16 16 17 17 18 18 19 19 20 20 21 21 22 22 23 23
REMARK SMILES IDX 24 24
REMARK H PARENT
REMARK Flexibility Score: inf
ROOT
ATOM      1  C   UNL     1      -2.978   2.823   5.994  1.00  0.00     0.000 C 
ENDROOT
BRANCH   1   2
ATOM      2  C   UNL     1      -3.084   2.622   7.520  1.00  0.00     0.000 C 
BRANCH   2   3
ATOM      3  C   UNL     1      -2.486   3.777   8.343  1.00  0.00     0.000 C 
BRANCH   3   4
ATOM      4  C   UNL     1      -3.523   4.489   9.224  1.00  0.00    -0.000 C 
BRANCH   4   5
ATOM      5  C   UNL     1      -3.420   6.014   9.068  1.00  0.00    -0.000 C 
BRANCH   5   6
ATOM      6  C   UNL     1      -2.341   6.441   8.057  1.00  0.00    -0.000 C 
BRANCH   6   7
ATOM      7  C   UNL     1      -2.872   7.119   6.779  1.00  0.00    -0.000 C 
BRANCH   7   8
ATOM      8  C   UNL     1      -4.400   7.068   6.598  1.00  0.00    -0.000 C 
BRANCH   8   9
ATOM      9  C   UNL     1      -4.850   5.980   5.609  1.00  0.00    -0.000 C 
BRANCH   9  10
ATOM     10  C   UNL     1      -5.786   4.972   6.293  1.00  0.00    -0.000 C 
BRANCH  10  11
ATOM     11  C   UNL     1      -6.941   5.652   7.044  1.00  0.00    -0.003 C 
ATOM     12  C   UNL     1      -7.102   5.137   8.474  1.00  0.00     0.004 C 
ENDBRANCH  10  11
ENDBRANCH   9  10
ENDBRANCH   8   9
ENDBRANCH   7   8
ENDBRANCH   6   7
ENDBRANCH   5   6
ENDBRANCH   4   5
ENDBRANCH   3   4
ENDBRANCH   2   3
ENDBRANCH   1   2
BRANCH   1  13
ATOM     13  C   UNL     1      -1.536   2.654   5.480  1.00  0.00     0.000 C 
BRANCH  13  14
ATOM     14  C   UNL     1      -1.106   3.792   4.539  1.00  0.00     0.000 C 
BRANCH  14  15
ATOM     15  C   UNL     1      -0.469   4.976   5.290  1.00  0.00     0.000 C 
BRANCH  15  16
ATOM     16  C   UNL     1       0.924   4.643   5.849  1.00  0.00     0.000 C 
BRANCH  16  17
ATOM     17  C   UNL     1       1.016   4.849   7.371  1.00  0.00     0.000 C 
BRANCH  17  18
ATOM     18  C   UNL     1       1.755   3.695   8.070  1.00  0.00     0.000 C 
BRANCH  18  19
ATOM     19  C   UNL     1       0.822   2.525   8.416  1.00  0.00     0.000 C 
BRANCH  19  20
ATOM     20  C   UNL     1       1.137   1.300   7.550  1.00  0.00     0.006 C 
BRANCH  20  21
ATOM     21  C   UNL     1       2.585   1.335   7.049  1.00  0.00     0.053 C 
BRANCH  21  22
ATOM     22  C   UNL     1       3.044  -0.039   6.670  1.00  0.00     0.041 C 
ATOM     23  O   UNL     1       4.027  -0.563   7.259  1.00  0.00    -0.550 OA
ATOM     24  O   UNL     1       2.358  -0.759   5.699  1.00  0.00    -0.550 OA
ENDBRANCH  21  22
ENDBRANCH  20  21
ENDBRANCH  19  20
ENDBRANCH  18  19
ENDBRANCH  17  18
ENDBRANCH  16  17
ENDBRANCH  15  16
ENDBRANCH  14  15
ENDBRANCH  13  14
ENDBRANCH   1  13
TORSDOF 20
ENDMDL
MODEL 3
REMARK VINA RESULT:    -3.814      1.885      3.790
REMARK INTER + INTRA:         -11.771
REMARK INTER:                  -8.598
REMARK INTRA:                  -3.173
REMARK UNBOUND:                -3.498
REMARK SMILES CCCCCCCCCCCCCCCCCCCCCC(=O)[O-]
REMARK SMILES IDX 12 1 11 2 10 3 9 4 8 5 7 6 6 7 5 8 4 9 3 10 2 11 1 12 13 13
REMARK SMILES IDX 14 14 15 15 16 16 17 17 18 18 19 19 20 20 21 21 22 22 23 23
REMARK SMILES IDX 24 24
REMARK H PARENT
REMARK Flexibility Score: inf
ROOT
ATOM      1  C   UNL     1       0.434   4.813   6.899  1.00  0.00     0.000 C 
ENDROOT
BRANCH   1   2
ATOM      2  C   UNL     1       0.213   4.924   5.376  1.00  0.00     0.000 C 
BRANCH   2   3
ATOM      3  C   UNL     1      -1.119   4.321   4.895  1.00  0.00     0.000 C 
BRANCH   3   4
ATOM      4  C   UNL     1      -1.212   2.805   5.123  1.00  0.00    -0.000 C 
BRANCH   4   5
ATOM      5  C   UNL     1      -2.585   2.419   5.695  1.00  0.00    -0.000 C 
BRANCH   5   6
ATOM      6  C   UNL     1      -2.784   2.896   7.145  1.00  0.00    -0.000 C 
BRANCH   6   7
ATOM      7  C   UNL     1      -3.937   3.898   7.353  1.00  0.00    -0.000 C 
BRANCH   7   8
ATOM      8  C   UNL     1      -4.774   4.202   6.097  1.00  0.00    -0.000 C 
BRANCH   8   9
ATOM      9  C   UNL     1      -5.513   5.547   6.180  1.00  0.00    -0.000 C 
BRANCH   9  10
ATOM     10  C   UNL     1      -4.790   6.511   7.133  1.00  0.00    -0.000 C 
BRANCH  10  11
ATOM     11  C   UNL     1      -3.841   7.469   6.397  1.00  0.00    -0.003 C 
ATOM     12  C   UNL     1      -2.378   7.278   6.799  1.00  0.00     0.004 C 
ENDBRANCH  10  11
ENDBRANCH   9  10
ENDBRANCH   8   9
ENDBRANCH   7   8
ENDBRANCH   6   7
ENDBRANCH   5   6
ENDBRANCH   4   5
ENDBRANCH   3   4
ENDBRANCH   2   3
ENDBRANCH   1   2
BRANCH   1  13
ATOM     13  C   UNL     1       1.400   3.672   7.269  1.00  0.00     0.000 C 
BRANCH  13  14
ATOM     14  C   UNL     1       0.812   2.715   8.319  1.00  0.00     0.000 C 
BRANCH  14  15
ATOM     15  C   UNL     1       1.136   1.238   8.026  1.00  0.00     0.000 C 
BRANCH  15  16
ATOM     16  C   UNL     1       1.444   0.982   6.542  1.00  0.00     0.000 C 
BRANCH  16  17
ATOM     17  C   UNL     1       2.139  -0.371   6.306  1.00  0.00     0.000 C 
BRANCH  17  18
ATOM     18  C   UNL     1       2.509  -1.073   7.623  1.00  0.00     0.000 C 
BRANCH  18  19
ATOM     19  C   UNL     1       4.028  -1.160   7.834  1.00  0.00     0.000 C 
BRANCH  19  20
ATOM     20  C   UNL     1       4.577   0.148   8.416  1.00  0.00     0.006 C 
BRANCH  20  21
ATOM     21  C   UNL     1       5.476   0.867   7.404  1.00  0.00     0.053 C 
BRANCH  21  22
ATOM     22  C   UNL     1       4.951   2.239   7.116  1.00  0.00     0.041 C 
ATOM     23  O   UNL     1       4.958   3.121   8.015  1.00  0.00    -0.550 OA
ATOM     24  O   UNL     1       4.497   2.557   5.841  1.00  0.00    -0.550 OA
ENDBRANCH  21  22
ENDBRANCH  20  21
ENDBRANCH  19  20
ENDBRANCH  18  19
ENDBRANCH  17  18
ENDBRANCH  16  17
ENDBRANCH  15  16
ENDBRANCH  14  15
ENDBRANCH  13  14
ENDBRANCH   1  13
TORSDOF 20
ENDMDL
MODEL 4
REMARK VINA RESULT:    -3.795      3.598      8.366
REMARK INTER + INTRA:         -11.731
REMARK INTER:                  -8.374
REMARK INTRA:                  -3.356
REMARK UNBOUND:                -3.498
REMARK SMILES CCCCCCCCCCCCCCCCCCCCCC(=O)[O-]
REMARK SMILES IDX 12 1 11 2 10 3 9 4 8 5 7 6 6 7 5 8 4 9 3 10 2 11 1 12 13 13
REMARK SMILES IDX 14 14 15 15 16 16 17 17 18 18 19 19 20 20 21 21 22 22 23 23
REMARK SMILES IDX 24 24
REMARK H PARENT
REMARK Flexibility Score: inf
ROOT
ATOM      1  C   UNL     1       0.019   5.350   7.749  1.00  0.00     0.000 C 
ENDROOT
BRANCH   1   2
ATOM      2  C   UNL     1       1.023   4.185   7.872  1.00  0.00     0.000 C 
BRANCH   2   3
ATOM      3  C   UNL     1       0.415   2.898   8.455  1.00  0.00     0.000 C 
BRANCH   3   4
ATOM      4  C   UNL     1       1.289   1.657   8.217  1.00  0.00    -0.000 C 
BRANCH   4   5
ATOM      5  C   UNL     1       1.171   1.173   6.764  1.00  0.00    -0.000 C 
BRANCH   5   6
ATOM      6  C   UNL     1       2.220   0.106   6.401  1.00  0.00    -0.000 C 
BRANCH   6   7
ATOM      7  C   UNL     1       2.680  -0.784   7.573  1.00  0.00    -0.000 C 
BRANCH   7   8
ATOM      8  C   UNL     1       4.205  -0.929   7.725  1.00  0.00    -0.000 C 
BRANCH   8   9
ATOM      9  C   UNL     1       4.867   0.319   8.331  1.00  0.00    -0.000 C 
BRANCH   9  10
ATOM     10  C   UNL     1       5.319   1.289   7.229  1.00  0.00    -0.000 C 
BRANCH  10  11
ATOM     11  C   UNL     1       4.744   2.701   7.411  1.00  0.00    -0.003 C 
ATOM     12  C   UNL     1       4.319   3.343   6.091  1.00  0.00     0.004 C 
ENDBRANCH  10  11
ENDBRANCH   9  10
ENDBRANCH   8   9
ENDBRANCH   7   8
ENDBRANCH   6   7
ENDBRANCH   5   6
ENDBRANCH   4   5
ENDBRANCH   3   4
ENDBRANCH   2   3
ENDBRANCH   1   2
BRANCH   1  13
ATOM     13  C   UNL     1      -0.119   5.854   6.300  1.00  0.00     0.000 C 
BRANCH  13  14
ATOM     14  C   UNL     1       0.136   4.749   5.262  1.00  0.00     0.000 C 
BRANCH  14  15
ATOM     15  C   UNL     1      -1.166   4.160   4.688  1.00  0.00     0.000 C 
BRANCH  15  16
ATOM     16  C   UNL     1      -1.483   2.764   5.248  1.00  0.00     0.000 C 
BRANCH  16  17
ATOM     17  C   UNL     1      -2.931   2.643   5.754  1.00  0.00     0.000 C 
BRANCH  17  18
ATOM     18  C   UNL     1      -3.115   3.268   7.147  1.00  0.00     0.000 C 
BRANCH  18  19
ATOM     19  C   UNL     1      -4.378   4.138   7.237  1.00  0.00     0.000 C 
BRANCH  19  20
ATOM     20  C   UNL     1      -4.580   4.945   5.950  1.00  0.00     0.006 C 
BRANCH  20  21
ATOM     21  C   UNL     1      -3.942   6.334   6.064  1.00  0.00     0.053 C 
BRANCH  21  22
ATOM     22  C   UNL     1      -4.802   7.364   5.398  1.00  0.00     0.041 C 
ATOM     23  O   UNL     1      -5.105   8.424   6.008  1.00  0.00    -0.550 OA
ATOM     24  O   UNL     1      -5.228   7.174   4.089  1.00  0.00    -0.550 OA
ENDBRANCH  21  22
ENDBRANCH  20  21
ENDBRANCH  19  20
ENDBRANCH  18  19
ENDBRANCH  17  18
ENDBRANCH  16  17
ENDBRANCH  15  16
ENDBRANCH  14  15
ENDBRANCH  13  14
ENDBRANCH   1  13
TORSDOF 20
ENDMDL
MODEL 5
REMARK VINA RESULT:    -3.764      4.006     10.038
REMARK INTER + INTRA:         -11.663
REMARK INTER:                  -8.524
REMARK INTRA:                  -3.139
REMARK UNBOUND:                -3.498
REMARK SMILES CCCCCCCCCCCCCCCCCCCCCC(=O)[O-]
REMARK SMILES IDX 12 1 11 2 10 3 9 4 8 5 7 6 6 7 5 8 4 9 3 10 2 11 1 12 13 13
REMARK SMILES IDX 14 14 15 15 16 16 17 17 18 18 19 19 20 20 21 21 22 22 23 23
REMARK SMILES IDX 24 24
REMARK H PARENT
REMARK Flexibility Score: inf
ROOT
ATOM      1  C   UNL     1       4.219   2.571   6.410  1.00  0.00     0.000 C 
ENDROOT
BRANCH   1   2
ATOM      2  C   UNL     1       5.246   3.464   7.136  1.00  0.00     0.000 C 
BRANCH   2   3
ATOM      3  C   UNL     1       5.944   2.772   8.320  1.00  0.00     0.000 C 
BRANCH   3   4
ATOM      4  C   UNL     1       7.461   3.013   8.350  1.00  0.00    -0.000 C 
BRANCH   4   5
ATOM      5  C   UNL     1       8.217   1.717   8.679  1.00  0.00    -0.000 C 
BRANCH   5   6
ATOM      6  C   UNL     1       7.286   0.497   8.806  1.00  0.00    -0.000 C 
BRANCH   6   7
ATOM      7  C   UNL     1       7.339  -0.493   7.625  1.00  0.00    -0.000 C 
BRANCH   7   8
ATOM      8  C   UNL     1       7.854  -1.901   7.974  1.00  0.00    -0.000 C 
BRANCH   8   9
ATOM      9  C   UNL     1       6.827  -3.005   7.679  1.00  0.00    -0.000 C 
BRANCH   9  10
ATOM     10  C   UNL     1       5.394  -2.465   7.799  1.00  0.00    -0.000 C 
BRANCH  10  11
ATOM     11  C   UNL     1       4.778  -2.727   9.182  1.00  0.00    -0.003 C 
ATOM     12  C   UNL     1       4.286  -1.449   9.863  1.00  0.00     0.004 C 
ENDBRANCH  10  11
ENDBRANCH   9  10
ENDBRANCH   8   9
ENDBRANCH   7   8
ENDBRANCH   6   7
ENDBRANCH   5   6
ENDBRANCH   4   5
ENDBRANCH   3   4
ENDBRANCH   2   3
ENDBRANCH   1   2
BRANCH   1  13
ATOM     13  C   UNL     1       4.095   1.178   7.054  1.00  0.00     0.000 C 
BRANCH  13  14
ATOM     14  C   UNL     1       3.035   0.300   6.369  1.00  0.00     0.000 C 
BRANCH  14  15
ATOM     15  C   UNL     1       1.866  -0.061   7.304  1.00  0.00     0.000 C 
BRANCH  15  16
ATOM     16  C   UNL     1       1.743   0.900   8.497  1.00  0.00     0.000 C 
BRANCH  16  17
ATOM     17  C   UNL     1       0.556   1.869   8.358  1.00  0.00     0.000 C 
BRANCH  17  18
ATOM     18  C   UNL     1       1.003   3.278   7.930  1.00  0.00     0.000 C 
BRANCH  18  19
ATOM     19  C   UNL     1       0.409   3.695   6.576  1.00  0.00     0.000 C 
BRANCH  19  20
ATOM     20  C   UNL     1      -0.273   2.507   5.887  1.00  0.00     0.006 C 
BRANCH  20  21
ATOM     21  C   UNL     1      -1.585   2.934   5.220  1.00  0.00     0.053 C 
BRANCH  21  22
ATOM     22  C   UNL     1      -2.758   2.516   6.051  1.00  0.00     0.041 C 
ATOM     23  O   UNL     1      -2.847   2.888   7.252  1.00  0.00    -0.550 OA
ATOM     24  O   UNL     1      -3.776   1.756   5.487  1.00  0.00    -0.550 OA
ENDBRANCH  21  22
ENDBRANCH  20  21
ENDBRANCH  19  20
ENDBRANCH  18  19
ENDBRANCH  17  18
ENDBRANCH  16  17
ENDBRANCH  15  16
ENDBRANCH  14  15
ENDBRANCH  13  14
ENDBRANCH   1  13
TORSDOF 20
ENDMDL
MODEL 6
REMARK VINA RESULT:    -3.751      3.437      8.303
REMARK INTER + INTRA:         -11.635
REMARK INTER:                  -7.814
REMARK INTRA:                  -3.821
REMARK UNBOUND:                -3.498
REMARK SMILES CCCCCCCCCCCCCCCCCCCCCC(=O)[O-]
REMARK SMILES IDX 12 1 11 2 10 3 9 4 8 5 7 6 6 7 5 8 4 9 3 10 2 11 1 12 13 13
REMARK SMILES IDX 14 14 15 15 16 16 17 17 18 18 19 19 20 20 21 21 22 22 23 23
REMARK SMILES IDX 24 24
REMARK H PARENT
REMARK Flexibility Score: inf
ROOT
ATOM      1  C   UNL     1      -0.376   2.429   8.764  1.00  0.00     0.000 C 
ENDROOT
BRANCH   1   2
ATOM      2  C   UNL     1       1.111   2.047   8.605  1.00  0.00     0.000 C 
BRANCH   2   3
ATOM      3  C   UNL     1       2.078   2.987   9.345  1.00  0.00     0.000 C 
BRANCH   3   4
ATOM      4  C   UNL     1       3.121   3.631   8.419  1.00  0.00    -0.000 C 
BRANCH   4   5
ATOM      5  C   UNL     1       2.932   3.159   6.969  1.00  0.00    -0.000 C 
BRANCH   5   6
ATOM      6  C   UNL     1       4.223   2.592   6.351  1.00  0.00    -0.000 C 
BRANCH   6   7
ATOM      7  C   UNL     1       5.323   2.217   7.364  1.00  0.00    -0.000 C 
BRANCH   7   8
ATOM      8  C   UNL     1       5.548   0.706   7.556  1.00  0.00    -0.000 C 
BRANCH   8   9
ATOM      9  C   UNL     1       4.551   0.072   8.539  1.00  0.00    -0.000 C 
BRANCH   9  10
ATOM     10  C   UNL     1       3.905  -1.182   7.931  1.00  0.00    -0.000 C 
BRANCH  10  11
ATOM     11  C   UNL     1       2.408  -0.995   7.641  1.00  0.00    -0.003 C 
ATOM     12  C   UNL     1       2.129  -0.628   6.183  1.00  0.00     0.004 C 
ENDBRANCH  10  11
ENDBRANCH   9  10
ENDBRANCH   8   9
ENDBRANCH   7   8
ENDBRANCH   6   7
ENDBRANCH   5   6
ENDBRANCH   4   5
ENDBRANCH   3   4
ENDBRANCH   2   3
ENDBRANCH   1   2
BRANCH   1  13
ATOM     13  C   UNL     1      -0.558   3.863   9.296  1.00  0.00     0.000 C 
BRANCH  13  14
ATOM     14  C   UNL     1      -1.110   4.824   8.230  1.00  0.00     0.000 C 
BRANCH  14  15
ATOM     15  C   UNL     1      -0.000   5.502   7.407  1.00  0.00     0.000 C 
BRANCH  15  16
ATOM     16  C   UNL     1      -0.164   5.280   5.895  1.00  0.00     0.000 C 
BRANCH  16  17
ATOM     17  C   UNL     1      -0.231   3.790   5.517  1.00  0.00     0.000 C 
BRANCH  17  18
ATOM     18  C   UNL     1      -1.589   3.406   4.905  1.00  0.00     0.000 C 
BRANCH  18  19
ATOM     19  C   UNL     1      -2.296   2.295   5.695  1.00  0.00     0.000 C 
BRANCH  19  20
ATOM     20  C   UNL     1      -3.806   2.550   5.767  1.00  0.00     0.006 C 
BRANCH  20  21
ATOM     21  C   UNL     1      -4.150   3.504   6.917  1.00  0.00     0.053 C 
BRANCH  21  22
ATOM     22  C   UNL     1      -4.731   4.777   6.387  1.00  0.00     0.041 C 
ATOM     23  O   UNL     1      -5.979   4.954   6.395  1.00  0.00    -0.550 OA
ATOM     24  O   UNL     1      -3.894   5.787   5.928  1.00  0.00    -0.550 OA
ENDBRANCH  21  22
ENDBRANCH  20  21
ENDBRANCH  19  20
ENDBRANCH  18  19
ENDBRANCH  17  18
ENDBRANCH  16  17
ENDBRANCH  15  16
ENDBRANCH  14  15
ENDBRANCH  13  14
ENDBRANCH   1  13
TORSDOF 20
ENDMDL
MODEL 7
REMARK VINA RESULT:    -3.748      3.718      9.701
REMARK INTER + INTRA:         -11.628
REMARK INTER:                  -8.416
REMARK INTRA:                  -3.212
REMARK UNBOUND:                -3.498
REMARK SMILES CCCCCCCCCCCCCCCCCCCCCC(=O)[O-]
REMARK SMILES IDX 12 1 11 2 10 3 9 4 8 5 7 6 6 7 5 8 4 9 3 10 2 11 1 12 13 13
REMARK SMILES IDX 14 14 15 15 16 16 17 17 18 18 19 19 20 20 21 21 22 22 23 23
REMARK SMILES IDX 24 24
REMARK H PARENT
REMARK Flexibility Score: inf
ROOT
ATOM      1  C   UNL     1       2.186  -1.050   7.409  1.00  0.00     0.000 C 
ENDROOT
BRANCH   1   2
ATOM      2  C   UNL     1       2.770  -0.062   6.378  1.00  0.00     0.000 C 
BRANCH   2   3
ATOM      3  C   UNL     1       3.968   0.749   6.902  1.00  0.00     0.000 C 
BRANCH   3   4
ATOM      4  C   UNL     1       3.874   2.246   6.571  1.00  0.00    -0.000 C 
BRANCH   4   5
ATOM      5  C   UNL     1       4.814   3.066   7.467  1.00  0.00    -0.000 C 
BRANCH   5   6
ATOM      6  C   UNL     1       5.519   2.212   8.536  1.00  0.00    -0.000 C 
BRANCH   6   7
ATOM      7  C   UNL     1       7.047   2.091   8.375  1.00  0.00    -0.000 C 
BRANCH   7   8
ATOM      8  C   UNL     1       7.650   0.751   8.834  1.00  0.00    -0.000 C 
BRANCH   8   9
ATOM      9  C   UNL     1       7.270  -0.422   7.916  1.00  0.00    -0.000 C 
BRANCH   9  10
ATOM     10  C   UNL     1       6.469  -1.482   8.686  1.00  0.00    -0.000 C 
BRANCH  10  11
ATOM     11  C   UNL     1       6.068  -2.676   7.806  1.00  0.00    -0.003 C 
ATOM     12  C   UNL     1       7.248  -3.590   7.475  1.00  0.00     0.004 C 
ENDBRANCH  10  11
ENDBRANCH   9  10
ENDBRANCH   8   9
ENDBRANCH   7   8
ENDBRANCH   6   7
ENDBRANCH   5   6
ENDBRANCH   4   5
ENDBRANCH   3   4
ENDBRANCH   2   3
ENDBRANCH   1   2
BRANCH   1  13
ATOM     13  C   UNL     1       2.651  -0.740   8.844  1.00  0.00     0.000 C 
BRANCH  13  14
ATOM     14  C   UNL     1       1.613   0.066   9.643  1.00  0.00     0.000 C 
BRANCH  14  15
ATOM     15  C   UNL     1       2.080   1.501   9.946  1.00  0.00     0.000 C 
BRANCH  15  16
ATOM     16  C   UNL     1       1.151   2.567   9.344  1.00  0.00     0.000 C 
BRANCH  16  17
ATOM     17  C   UNL     1       0.304   2.026   8.178  1.00  0.00     0.000 C 
BRANCH  17  18
ATOM     18  C   UNL     1       0.326   2.963   6.959  1.00  0.00     0.000 C 
BRANCH  18  19
ATOM     19  C   UNL     1      -0.472   2.402   5.773  1.00  0.00     0.000 C 
BRANCH  19  20
ATOM     20  C   UNL     1      -1.402   3.469   5.184  1.00  0.00     0.006 C 
BRANCH  20  21
ATOM     21  C   UNL     1      -2.457   3.906   6.206  1.00  0.00     0.053 C 
BRANCH  21  22
ATOM     22  C   UNL     1      -3.737   3.159   5.994  1.00  0.00     0.041 C 
ATOM     23  O   UNL     1      -4.843   3.732   6.185  1.00  0.00    -0.550 OA
ATOM     24  O   UNL     1      -3.709   1.846   5.540  1.00  0.00    -0.550 OA
ENDBRANCH  21  22
ENDBRANCH  20  21
ENDBRANCH  19  20
ENDBRANCH  18  19
ENDBRANCH  17  18
ENDBRANCH  16  17
ENDBRANCH  15  16
ENDBRANCH  14  15
ENDBRANCH  13  14
ENDBRANCH   1  13
TORSDOF 20
ENDMDL
MODEL 8
REMARK VINA RESULT:    -3.731      2.986      5.814
REMARK INTER + INTRA:         -11.590
REMARK INTER:                  -8.321
REMARK INTRA:                  -3.269
REMARK UNBOUND:                -3.498
REMARK SMILES CCCCCCCCCCCCCCCCCCCCCC(=O)[O-]
REMARK SMILES IDX 12 1 11 2 10 3 9 4 8 5 7 6 6 7 5 8 4 9 3 10 2 11 1 12 13 13
REMARK SMILES IDX 14 14 15 15 16 16 17 17 18 18 19 19 20 20 21 21 22 22 23 23
REMARK SMILES IDX 24 24
REMARK H PARENT
REMARK Flexibility Score: inf
ROOT
ATOM      1  C   UNL     1       1.127   0.831   8.695  1.00  0.00     0.000 C 
ENDROOT
BRANCH   1   2
ATOM      2  C   UNL     1       0.991   2.189   9.414  1.00  0.00     0.000 C 
BRANCH   2   3
ATOM      3  C   UNL     1       0.058   3.182   8.699  1.00  0.00     0.000 C 
BRANCH   3   4
ATOM      4  C   UNL     1       0.680   4.575   8.522  1.00  0.00    -0.000 C 
BRANCH   4   5
ATOM      5  C   UNL     1       1.880   4.522   7.563  1.00  0.00    -0.000 C 
BRANCH   5   6
ATOM      6  C   UNL     1       1.462   4.487   6.082  1.00  0.00    -0.000 C 
BRANCH   6   7
ATOM      7  C   UNL     1       0.340   5.471   5.695  1.00  0.00    -0.000 C 
BRANCH   7   8
ATOM      8  C   UNL     1      -0.906   4.826   5.060  1.00  0.00    -0.000 C 
BRANCH   8   9
ATOM      9  C   UNL     1      -0.780   3.301   4.910  1.00  0.00    -0.000 C 
BRANCH   9  10
ATOM     10  C   UNL     1      -1.900   2.582   5.679  1.00  0.00    -0.000 C 
BRANCH  10  11
ATOM     11  C   UNL     1      -2.870   3.558   6.362  1.00  0.00    -0.003 C 
ATOM     12  C   UNL     1      -4.335   3.245   6.059  1.00  0.00     0.004 C 
ENDBRANCH  10  11
ENDBRANCH   9  10
ENDBRANCH   8   9
ENDBRANCH   7   8
ENDBRANCH   6   7
ENDBRANCH   5   6
ENDBRANCH   4   5
ENDBRANCH   3   4
ENDBRANCH   2   3
ENDBRANCH   1   2
BRANCH   1  13
ATOM     13  C   UNL     1       1.175   0.982   7.163  1.00  0.00     0.000 C 
BRANCH  13  14
ATOM     14  C   UNL     1       2.457   0.394   6.550  1.00  0.00     0.000 C 
BRANCH  14  15
ATOM     15  C   UNL     1       3.727   0.807   7.317  1.00  0.00     0.000 C 
BRANCH  15  16
ATOM     16  C   UNL     1       4.493   1.946   6.626  1.00  0.00     0.000 C 
BRANCH  16  17
ATOM     17  C   UNL     1       5.230   2.856   7.624  1.00  0.00     0.000 C 
BRANCH  17  18
ATOM     18  C   UNL     1       6.011   2.052   8.677  1.00  0.00     0.000 C 
BRANCH  18  19
ATOM     19  C   UNL     1       7.515   1.992   8.372  1.00  0.00     0.000 C 
BRANCH  19  20
ATOM     20  C   UNL     1       8.058   0.572   8.573  1.00  0.00     0.006 C 
BRANCH  20  21
ATOM     21  C   UNL     1       6.919  -0.451   8.633  1.00  0.00     0.053 C 
BRANCH  21  22
ATOM     22  C   UNL     1       7.165  -1.570   7.669  1.00  0.00     0.041 C 
ATOM     23  O   UNL     1       8.139  -1.515   6.872  1.00  0.00    -0.550 OA
ATOM     24  O   UNL     1       6.346  -2.693   7.682  1.00  0.00    -0.550 OA
ENDBRANCH  21  22
ENDBRANCH  20  21
ENDBRANCH  19  20
ENDBRANCH  18  19
ENDBRANCH  17  18
ENDBRANCH  16  17
ENDBRANCH  15  16
ENDBRANCH  14  15
ENDBRANCH  13  14
ENDBRANCH   1  13
TORSDOF 20
ENDMDL
MODEL 9
REMARK VINA RESULT:    -3.711     13.699     15.303
REMARK INTER + INTRA:         -11.548
REMARK INTER:                  -7.982
REMARK INTRA:                  -3.566
REMARK UNBOUND:                -3.498
REMARK SMILES CCCCCCCCCCCCCCCCCCCCCC(=O)[O-]
REMARK SMILES IDX 12 1 11 2 10 3 9 4 8 5 7 6 6 7 5 8 4 9 3 10 2 11 1 12 13 13
REMARK SMILES IDX 14 14 15 15 16 16 17 17 18 18 19 19 20 20 21 21 22 22 23 23
REMARK SMILES IDX 24 24
REMARK H PARENT
REMARK Flexibility Score: inf
ROOT
ATOM      1  C   UNL     1      -1.892  -2.762  -6.682  1.00  0.00     0.000 C 
ENDROOT
BRANCH   1   2
ATOM      2  C   UNL     1      -2.438  -1.536  -7.443  1.00  0.00     0.000 C 
BRANCH   2   3
ATOM      3  C   UNL     1      -2.980  -0.425  -6.526  1.00  0.00     0.000 C 
BRANCH   3   4
ATOM      4  C   UNL     1      -4.438  -0.050  -6.832  1.00  0.00    -0.000 C 
BRANCH   4   5
ATOM      5  C   UNL     1      -5.133  -1.158  -7.637  1.00  0.00    -0.000 C 
BRANCH   5   6
ATOM      6  C   UNL     1      -6.128  -1.977  -6.794  1.00  0.00    -0.000 C 
BRANCH   6   7
ATOM      7  C   UNL     1      -5.589  -3.322  -6.268  1.00  0.00    -0.000 C 
BRANCH   7   8
ATOM      8  C   UNL     1      -4.968  -3.273  -4.859  1.00  0.00    -0.000 C 
BRANCH   8   9
ATOM      9  C   UNL     1      -4.769  -4.667  -4.244  1.00  0.00    -0.000 C 
BRANCH   9  10
ATOM     10  C   UNL     1      -3.991  -5.582  -5.203  1.00  0.00    -0.000 C 
BRANCH  10  11
ATOM     11  C   UNL     1      -3.099  -6.591  -4.465  1.00  0.00    -0.003 C 
ATOM     12  C   UNL     1      -3.902  -7.661  -3.724  1.00  0.00     0.004 C 
ENDBRANCH  10  11
ENDBRANCH   9  10
ENDBRANCH   8   9
ENDBRANCH   7   8
ENDBRANCH   6   7
ENDBRANCH   5   6
ENDBRANCH   4   5
ENDBRANCH   3   4
ENDBRANCH   2   3
ENDBRANCH   1   2
BRANCH   1  13
ATOM     13  C   UNL     1      -1.474  -2.417  -5.240  1.00  0.00     0.000 C 
BRANCH  13  14
ATOM     14  C   UNL     1      -0.793  -3.595  -4.523  1.00  0.00     0.000 C 
BRANCH  14  15
ATOM     15  C   UNL     1      -0.201  -4.625  -5.502  1.00  0.00     0.000 C 
BRANCH  15  16
ATOM     16  C   UNL     1       1.290  -4.386  -5.786  1.00  0.00     0.000 C 
BRANCH  16  17
ATOM     17  C   UNL     1       1.618  -4.401  -7.289  1.00  0.00     0.000 C 
BRANCH  17  18
ATOM     18  C   UNL     1       1.971  -3.002  -7.822  1.00  0.00     0.000 C 
BRANCH  18  19
ATOM     19  C   UNL     1       1.867  -1.918  -6.738  1.00  0.00     0.000 C 
BRANCH  19  20
ATOM     20  C   UNL     1       1.190  -0.657  -7.288  1.00  0.00     0.006 C 
BRANCH  20  21
ATOM     21  C   UNL     1       1.744   0.604  -6.616  1.00  0.00     0.053 C 
BRANCH  21  22
ATOM     22  C   UNL     1       3.202   0.763  -6.917  1.00  0.00     0.041 C 
ATOM     23  O   UNL     1       3.590   0.919  -8.106  1.00  0.00    -0.550 OA
ATOM     24  O   UNL     1       4.129   0.784  -5.881  1.00  0.00    -0.550 OA
ENDBRANCH  21  22
ENDBRANCH  20  21
ENDBRANCH  19  20
ENDBRANCH  18  19
ENDBRANCH  17  18
ENDBRANCH  16  17
ENDBRANCH  15  16
ENDBRANCH  14  15
ENDBRANCH  13  14
ENDBRANCH   1  13
TORSDOF 20
ENDMDL
