MODEL 1
REMARK VINA RESULT:    24.225      0.000      0.000
REMARK INTER + INTRA:          33.471
REMARK INTER:                  34.139
REMARK INTRA:                  -0.668
REMARK UNBOUND:                -0.668
REMARK SMILES O=C(C=Cc1ccc(O)cc1)CC(=O)C=Cc1ccc(O)cc1
REMARK SMILES IDX 12 1 2 2 1 3 3 4 4 5 5 6 6 7 7 8 8 9 11 10 10 11 9 12 13 14
REMARK SMILES IDX 14 15 15 16 16 17 17 18 18 19 23 20 19 21 22 22 20 23 21 24
REMARK H PARENT 9 13 21 25
REMARK Flexibility Score: inf
ROOT
ATOM      1  C   UNL     1      17.962   3.484   9.398  1.00  0.00     0.160 C 
ENDROOT
BRANCH   1   2
ATOM      2  C   UNL     1      18.447   4.527   8.427  1.00  0.00     0.163 C 
ATOM      3  O   UNL     1      19.418   5.256   8.764  1.00  0.00    -0.294 OA
BRANCH   2   4
ATOM      4  C   UNL     1      17.880   4.704   7.072  1.00  0.00     0.048 C 
ATOM      5  C   UNL     1      18.616   5.006   5.992  1.00  0.00     0.012 C 
BRANCH   5   6
ATOM      6  C   UNL     1      18.050   5.228   4.638  1.00  0.00    -0.025 A 
ATOM      7  C   UNL     1      17.319   6.405   4.403  1.00  0.00     0.012 A 
ATOM      8  C   UNL     1      16.745   6.648   3.151  1.00  0.00     0.047 A 
ATOM      9  C   UNL     1      16.882   5.714   2.121  1.00  0.00     0.115 A 
ATOM     10  C   UNL     1      18.176   4.286   3.596  1.00  0.00     0.012 A 
ATOM     11  C   UNL     1      17.599   4.532   2.346  1.00  0.00     0.047 A 
BRANCH   9  12
ATOM     12  O   UNL     1      16.298   5.967   0.883  1.00  0.00    -0.508 OA
ATOM     13  H   UNL     1      15.543   5.393   0.526  1.00  0.00     0.293 HD
ENDBRANCH   9  12
ENDBRANCH   5   6
ENDBRANCH   2   4
ENDBRANCH   1   2
BRANCH   1  14
ATOM     14  C   UNL     1      16.634   3.883   9.977  1.00  0.00     0.163 C 
ATOM     15  O   UNL     1      16.553   4.127  11.213  1.00  0.00    -0.294 OA
BRANCH  14  16
ATOM     16  C   UNL     1      15.437   3.960   9.117  1.00  0.00     0.048 C 
ATOM     17  C   UNL     1      14.633   2.907   8.913  1.00  0.00     0.012 C 
BRANCH  17  18
ATOM     18  C   UNL     1      13.453   2.938   8.014  1.00  0.00    -0.025 A 
ATOM     19  C   UNL     1      12.876   4.180   7.702  1.00  0.00     0.012 A 
ATOM     20  C   UNL     1      12.861   1.764   7.501  1.00  0.00     0.012 A 
ATOM     21  C   UNL     1      11.749   4.253   6.877  1.00  0.00     0.047 A 
ATOM     22  C   UNL     1      11.735   1.842   6.676  1.00  0.00     0.047 A 
ATOM     23  C   UNL     1      11.177   3.088   6.362  1.00  0.00     0.115 A 
BRANCH  23  24
ATOM     24  O   UNL     1      10.053   3.175   5.544  1.00  0.00    -0.508 OA
ATOM     25  H   UNL     1      10.045   2.782   4.611  1.00  0.00     0.293 HD
ENDBRANCH  23  24
ENDBRANCH  17  18
ENDBRANCH  14  16
ENDBRANCH   1  14
TORSDOF 8
ENDMDL
MODEL 2
REMARK VINA RESULT:    24.395      0.157      6.026
REMARK INTER + INTRA:          33.710
REMARK INTER:                  34.427
REMARK INTRA:                  -0.717
REMARK UNBOUND:                -0.668
REMARK SMILES O=C(C=Cc1ccc(O)cc1)CC(=O)C=Cc1ccc(O)cc1
REMARK SMILES IDX 12 1 2 2 1 3 3 4 4 5 5 6 6 7 7 8 8 9 11 10 10 11 9 12 13 14
REMARK SMILES IDX 14 15 15 16 16 17 17 18 18 19 23 20 19 21 22 22 20 23 21 24
REMARK H PARENT 9 13 21 25
REMARK Flexibility Score: inf
ROOT
ATOM      1  C   UNL     1      18.110   3.526   9.253  1.00  0.00     0.160 C 
ENDROOT
BRANCH   1   2
ATOM      2  C   UNL     1      16.776   3.858   9.866  1.00  0.00     0.163 C 
ATOM      3  O   UNL     1      16.732   4.137  11.094  1.00  0.00    -0.294 OA
BRANCH   2   4
ATOM      4  C   UNL     1      15.518   3.930   9.090  1.00  0.00     0.048 C 
ATOM      5  C   UNL     1      14.763   2.861   8.798  1.00  0.00     0.012 C 
BRANCH   5   6
ATOM      6  C   UNL     1      13.523   2.918   7.984  1.00  0.00    -0.025 A 
ATOM      7  C   UNL     1      13.016   4.178   7.624  1.00  0.00     0.012 A 
ATOM      8  C   UNL     1      11.838   4.285   6.879  1.00  0.00     0.047 A 
ATOM      9  C   UNL     1      11.142   3.135   6.495  1.00  0.00     0.115 A 
ATOM     10  C   UNL     1      12.810   1.763   7.601  1.00  0.00     0.012 A 
ATOM     11  C   UNL     1      11.631   1.874   6.857  1.00  0.00     0.047 A 
BRANCH   9  12
ATOM     12  O   UNL     1       9.966   3.259   5.760  1.00  0.00    -0.508 OA
ATOM     13  H   UNL     1       9.864   2.829   4.848  1.00  0.00     0.293 HD
ENDBRANCH   9  12
ENDBRANCH   5   6
ENDBRANCH   2   4
ENDBRANCH   1   2
BRANCH   1  14
ATOM     14  C   UNL     1      18.585   4.656   8.384  1.00  0.00     0.163 C 
ATOM     15  O   UNL     1      19.502   5.411   8.808  1.00  0.00    -0.294 OA
BRANCH  14  16
ATOM     16  C   UNL     1      17.967   4.894   7.064  1.00  0.00     0.048 C 
ATOM     17  C   UNL     1      18.666   4.818   5.923  1.00  0.00     0.012 C 
BRANCH  17  18
ATOM     18  C   UNL     1      18.087   5.105   4.587  1.00  0.00    -0.025 A 
ATOM     19  C   UNL     1      17.377   6.302   4.403  1.00  0.00     0.012 A 
ATOM     20  C   UNL     1      18.182   4.197   3.511  1.00  0.00     0.012 A 
ATOM     21  C   UNL     1      16.795   6.601   3.167  1.00  0.00     0.047 A 
ATOM     22  C   UNL     1      17.601   4.500   2.276  1.00  0.00     0.047 A 
ATOM     23  C   UNL     1      16.906   5.704   2.101  1.00  0.00     0.115 A 
BRANCH  23  24
ATOM     24  O   UNL     1      16.319   6.013   0.877  1.00  0.00    -0.508 OA
ATOM     25  H   UNL     1      16.831   5.925   0.007  1.00  0.00     0.293 HD
ENDBRANCH  23  24
ENDBRANCH  17  18
ENDBRANCH  14  16
ENDBRANCH   1  14
TORSDOF 8
ENDMDL
MODEL 3
REMARK VINA RESULT:    25.352      7.846     12.442
REMARK INTER + INTRA:          35.059
REMARK INTER:                  34.965
REMARK INTRA:                   0.094
REMARK UNBOUND:                -0.668
REMARK SMILES O=C(C=Cc1ccc(O)cc1)CC(=O)C=Cc1ccc(O)cc1
REMARK SMILES IDX 12 1 2 2 1 3 3 4 4 5 5 6 6 7 7 8 8 9 11 10 10 11 9 12 13 14
REMARK SMILES IDX 14 15 15 16 16 17 17 18 18 19 23 20 19 21 22 22 20 23 21 24
REMARK H PARENT 9 13 21 25
REMARK Flexibility Score: inf
ROOT
ATOM      1  C   UNL     1       8.230   0.677  11.856  1.00  0.00     0.160 C 
ENDROOT
BRANCH   1   2
ATOM      2  C   UNL     1       7.043   1.079  12.691  1.00  0.00     0.163 C 
ATOM      3  O   UNL     1       5.897   0.698  12.330  1.00  0.00    -0.294 OA
BRANCH   2   4
ATOM      4  C   UNL     1       7.156   1.853  13.947  1.00  0.00     0.048 C 
ATOM      5  C   UNL     1       6.102   2.211  14.697  1.00  0.00     0.012 C 
BRANCH   5   6
ATOM      6  C   UNL     1       6.203   3.023  15.935  1.00  0.00    -0.025 A 
ATOM      7  C   UNL     1       5.938   4.401  15.855  1.00  0.00     0.012 A 
ATOM      8  C   UNL     1       6.043   5.213  16.988  1.00  0.00     0.047 A 
ATOM      9  C   UNL     1       6.428   4.664  18.214  1.00  0.00     0.115 A 
ATOM     10  C   UNL     1       6.600   2.478  17.173  1.00  0.00     0.012 A 
ATOM     11  C   UNL     1       6.706   3.294  18.304  1.00  0.00     0.047 A 
BRANCH   9  12
ATOM     12  O   UNL     1       6.536   5.487  19.331  1.00  0.00    -0.508 OA
ATOM     13  H   UNL     1       7.079   5.212  20.141  1.00  0.00     0.293 HD
ENDBRANCH   9  12
ENDBRANCH   5   6
ENDBRANCH   2   4
ENDBRANCH   1   2
BRANCH   1  14
ATOM     14  C   UNL     1       8.021   1.071  10.422  1.00  0.00     0.163 C 
ATOM     15  O   UNL     1       6.859   1.374  10.033  1.00  0.00    -0.294 OA
BRANCH  14  16
ATOM     16  C   UNL     1       9.154   1.077   9.476  1.00  0.00     0.048 C 
ATOM     17  C   UNL     1       9.638   2.209   8.946  1.00  0.00     0.012 C 
BRANCH  17  18
ATOM     18  C   UNL     1      10.740   2.244   7.952  1.00  0.00    -0.025 A 
ATOM     19  C   UNL     1      11.380   1.041   7.614  1.00  0.00     0.012 A 
ATOM     20  C   UNL     1      11.200   3.446   7.374  1.00  0.00     0.012 A 
ATOM     21  C   UNL     1      12.438   1.032   6.700  1.00  0.00     0.047 A 
ATOM     22  C   UNL     1      12.257   3.433   6.460  1.00  0.00     0.047 A 
ATOM     23  C   UNL     1      12.879   2.224   6.120  1.00  0.00     0.115 A 
BRANCH  23  24
ATOM     24  O   UNL     1      13.936   2.201   5.214  1.00  0.00    -0.508 OA
ATOM     25  H   UNL     1      13.785   2.023   4.229  1.00  0.00     0.293 HD
ENDBRANCH  23  24
ENDBRANCH  17  18
ENDBRANCH  14  16
ENDBRANCH   1  14
TORSDOF 8
ENDMDL
MODEL 4
REMARK VINA RESULT:    25.421      5.253      9.943
REMARK INTER + INTRA:          35.156
REMARK INTER:                  35.896
REMARK INTRA:                  -0.740
REMARK UNBOUND:                -0.668
REMARK SMILES O=C(C=Cc1ccc(O)cc1)CC(=O)C=Cc1ccc(O)cc1
REMARK SMILES IDX 12 1 2 2 1 3 3 4 4 5 5 6 6 7 7 8 8 9 11 10 10 11 9 12 13 14
REMARK SMILES IDX 14 15 15 16 16 17 17 18 18 19 23 20 19 21 22 22 20 23 21 24
REMARK H PARENT 9 13 21 25
REMARK Flexibility Score: inf
ROOT
ATOM      1  C   UNL     1       6.076   1.896   9.443  1.00  0.00     0.160 C 
ENDROOT
BRANCH   1   2
ATOM      2  C   UNL     1       5.435   0.976   8.439  1.00  0.00     0.163 C 
ATOM      3  O   UNL     1       4.329   0.446   8.729  1.00  0.00    -0.294 OA
BRANCH   2   4
ATOM      4  C   UNL     1       6.008   0.705   7.101  1.00  0.00     0.048 C 
ATOM      5  C   UNL     1       5.327   0.861   5.956  1.00  0.00     0.012 C 
BRANCH   5   6
ATOM      6  C   UNL     1       5.879   0.551   4.614  1.00  0.00    -0.025 A 
ATOM      7  C   UNL     1       6.568  -0.661   4.437  1.00  0.00     0.012 A 
ATOM      8  C   UNL     1       7.127  -0.988   3.198  1.00  0.00     0.047 A 
ATOM      9  C   UNL     1       7.020  -0.103   2.122  1.00  0.00     0.115 A 
ATOM     10  C   UNL     1       5.782   1.443   3.526  1.00  0.00     0.012 A 
ATOM     11  C   UNL     1       6.345   1.113   2.289  1.00  0.00     0.047 A 
BRANCH   9  12
ATOM     12  O   UNL     1       7.589  -0.439   0.898  1.00  0.00    -0.508 OA
ATOM     13  H   UNL     1       7.025  -0.550   0.063  1.00  0.00     0.293 HD
ENDBRANCH   9  12
ENDBRANCH   5   6
ENDBRANCH   2   4
ENDBRANCH   1   2
BRANCH   1  14
ATOM     14  C   UNL     1       7.315   1.268  10.015  1.00  0.00     0.163 C 
ATOM     15  O   UNL     1       7.297   0.848  11.204  1.00  0.00    -0.294 OA
BRANCH  14  16
ATOM     16  C   UNL     1       8.545   1.169   9.203  1.00  0.00     0.048 C 
ATOM     17  C   UNL     1       9.307   2.236   8.926  1.00  0.00     0.012 C 
BRANCH  17  18
ATOM     18  C   UNL     1      10.518   2.179   8.070  1.00  0.00    -0.025 A 
ATOM     19  C   UNL     1      11.032   3.378   7.550  1.00  0.00     0.012 A 
ATOM     20  C   UNL     1      11.141   0.963   7.720  1.00  0.00     0.012 A 
ATOM     21  C   UNL     1      12.158   3.368   6.720  1.00  0.00     0.047 A 
ATOM     22  C   UNL     1      12.267   0.957   6.891  1.00  0.00     0.047 A 
ATOM     23  C   UNL     1      12.778   2.160   6.389  1.00  0.00     0.115 A 
BRANCH  23  24
ATOM     24  O   UNL     1      13.896   2.165   5.559  1.00  0.00    -0.508 OA
ATOM     25  H   UNL     1      14.205   1.327   5.083  1.00  0.00     0.293 HD
ENDBRANCH  23  24
ENDBRANCH  17  18
ENDBRANCH  14  16
ENDBRANCH   1  14
TORSDOF 8
ENDMDL
MODEL 5
REMARK VINA RESULT:    25.506      7.816     10.395
REMARK INTER + INTRA:          35.276
REMARK INTER:                  35.101
REMARK INTRA:                   0.175
REMARK UNBOUND:                -0.668
REMARK SMILES O=C(C=Cc1ccc(O)cc1)CC(=O)C=Cc1ccc(O)cc1
REMARK SMILES IDX 12 1 2 2 1 3 3 4 4 5 5 6 6 7 7 8 8 9 11 10 10 11 9 12 13 14
REMARK SMILES IDX 14 15 15 16 16 17 17 18 18 19 23 20 19 21 22 22 20 23 21 24
REMARK H PARENT 9 13 21 25
REMARK Flexibility Score: inf
ROOT
ATOM      1  C   UNL     1       8.248   0.669  11.872  1.00  0.00     0.160 C 
ENDROOT
BRANCH   1   2
ATOM      2  C   UNL     1       8.022   1.017  10.425  1.00  0.00     0.163 C 
ATOM      3  O   UNL     1       6.860   1.335  10.058  1.00  0.00    -0.294 OA
BRANCH   2   4
ATOM      4  C   UNL     1       9.107   1.059   9.419  1.00  0.00     0.048 C 
ATOM      5  C   UNL     1       9.653   2.196   8.963  1.00  0.00     0.012 C 
BRANCH   5   6
ATOM      6  C   UNL     1      10.711   2.250   7.923  1.00  0.00    -0.025 A 
ATOM      7  C   UNL     1      11.373   1.059   7.580  1.00  0.00     0.012 A 
ATOM      8  C   UNL     1      12.394   1.061   6.624  1.00  0.00     0.047 A 
ATOM      9  C   UNL     1      12.777   2.255   6.008  1.00  0.00     0.115 A 
ATOM     10  C   UNL     1      11.109   3.452   7.303  1.00  0.00     0.012 A 
ATOM     11  C   UNL     1      12.131   3.451   6.349  1.00  0.00     0.047 A 
BRANCH   9  12
ATOM     12  O   UNL     1      13.800   2.243   5.064  1.00  0.00    -0.508 OA
ATOM     13  H   UNL     1      14.447   3.017   4.974  1.00  0.00     0.293 HD
ENDBRANCH   9  12
ENDBRANCH   5   6
ENDBRANCH   2   4
ENDBRANCH   1   2
BRANCH   1  14
ATOM     14  C   UNL     1       7.044   1.030  12.694  1.00  0.00     0.163 C 
ATOM     15  O   UNL     1       5.901   0.669  12.297  1.00  0.00    -0.294 OA
BRANCH  14  16
ATOM     16  C   UNL     1       7.193   1.819  13.933  1.00  0.00     0.048 C 
ATOM     17  C   UNL     1       6.138   2.277  14.621  1.00  0.00     0.012 C 
BRANCH  17  18
ATOM     18  C   UNL     1       6.255   3.117  15.838  1.00  0.00    -0.025 A 
ATOM     19  C   UNL     1       6.618   2.503  17.048  1.00  0.00     0.012 A 
ATOM     20  C   UNL     1       5.967   4.498  15.836  1.00  0.00     0.012 A 
ATOM     21  C   UNL     1       6.717   3.253  18.224  1.00  0.00     0.047 A 
ATOM     22  C   UNL     1       6.068   5.245  17.014  1.00  0.00     0.047 A 
ATOM     23  C   UNL     1       6.444   4.623  18.211  1.00  0.00     0.115 A 
BRANCH  23  24
ATOM     24  O   UNL     1       6.544   5.357  19.390  1.00  0.00    -0.508 OA
ATOM     25  H   UNL     1       7.371   5.314  19.972  1.00  0.00     0.293 HD
ENDBRANCH  23  24
ENDBRANCH  17  18
ENDBRANCH  14  16
ENDBRANCH   1  14
TORSDOF 8
ENDMDL
MODEL 6
REMARK VINA RESULT:    25.559      5.186      9.296
REMARK INTER + INTRA:          35.351
REMARK INTER:                  36.110
REMARK INTRA:                  -0.759
REMARK UNBOUND:                -0.668
REMARK SMILES O=C(C=Cc1ccc(O)cc1)CC(=O)C=Cc1ccc(O)cc1
REMARK SMILES IDX 12 1 2 2 1 3 3 4 4 5 5 6 6 7 7 8 8 9 11 10 10 11 9 12 13 14
REMARK SMILES IDX 14 15 15 16 16 17 17 18 18 19 23 20 19 21 22 22 20 23 21 24
REMARK H PARENT 9 13 21 25
REMARK Flexibility Score: inf
ROOT
ATOM      1  C   UNL     1       6.037   1.926   9.328  1.00  0.00     0.160 C 
ENDROOT
BRANCH   1   2
ATOM      2  C   UNL     1       7.297   1.314   9.880  1.00  0.00     0.163 C 
ATOM      3  O   UNL     1       7.265   0.812  11.035  1.00  0.00    -0.294 OA
BRANCH   2   4
ATOM      4  C   UNL     1       8.560   1.221   9.114  1.00  0.00     0.048 C 
ATOM      5  C   UNL     1       9.306   2.285   8.779  1.00  0.00     0.012 C 
BRANCH   5   6
ATOM      6  C   UNL     1      10.550   2.206   7.976  1.00  0.00    -0.025 A 
ATOM      7  C   UNL     1      11.146   3.403   7.543  1.00  0.00     0.012 A 
ATOM      8  C   UNL     1      12.306   3.379   6.763  1.00  0.00     0.047 A 
ATOM      9  C   UNL     1      12.880   2.161   6.392  1.00  0.00     0.115 A 
ATOM     10  C   UNL     1      11.130   0.979   7.589  1.00  0.00     0.012 A 
ATOM     11  C   UNL     1      12.290   0.961   6.807  1.00  0.00     0.047 A 
BRANCH   9  12
ATOM     12  O   UNL     1      14.030   2.154   5.608  1.00  0.00    -0.508 OA
ATOM     13  H   UNL     1      14.926   2.446   5.980  1.00  0.00     0.293 HD
ENDBRANCH   9  12
ENDBRANCH   5   6
ENDBRANCH   2   4
ENDBRANCH   1   2
BRANCH   1  14
ATOM     14  C   UNL     1       5.356   0.969   8.391  1.00  0.00     0.163 C 
ATOM     15  O   UNL     1       4.275   0.425   8.749  1.00  0.00    -0.294 OA
BRANCH  14  16
ATOM     16  C   UNL     1       5.958   0.650   7.081  1.00  0.00     0.048 C 
ATOM     17  C   UNL     1       5.344   0.932   5.923  1.00  0.00     0.012 C 
BRANCH  17  18
ATOM     18  C   UNL     1       5.897   0.576   4.593  1.00  0.00    -0.025 A 
ATOM     19  C   UNL     1       6.557  -0.656   4.446  1.00  0.00     0.012 A 
ATOM     20  C   UNL     1       5.829   1.449   3.487  1.00  0.00     0.012 A 
ATOM     21  C   UNL     1       7.114  -1.021   3.216  1.00  0.00     0.047 A 
ATOM     22  C   UNL     1       6.386   1.080   2.259  1.00  0.00     0.047 A 
ATOM     23  C   UNL     1       7.030  -0.157   2.121  1.00  0.00     0.115 A 
BRANCH  23  24
ATOM     24  O   UNL     1       7.592  -0.532   0.903  1.00  0.00    -0.508 OA
ATOM     25  H   UNL     1       7.846  -1.493   0.711  1.00  0.00     0.293 HD
ENDBRANCH  23  24
ENDBRANCH  17  18
ENDBRANCH  14  16
ENDBRANCH   1  14
TORSDOF 8
ENDMDL
MODEL 7
REMARK VINA RESULT:    26.054      7.350     12.018
REMARK INTER + INTRA:          36.049
REMARK INTER:                  36.285
REMARK INTRA:                  -0.237
REMARK UNBOUND:                -0.668
REMARK SMILES O=C(C=Cc1ccc(O)cc1)CC(=O)C=Cc1ccc(O)cc1
REMARK SMILES IDX 12 1 2 2 1 3 3 4 4 5 5 6 6 7 7 8 8 9 11 10 10 11 9 12 13 14
REMARK SMILES IDX 14 15 15 16 16 17 17 18 18 19 23 20 19 21 22 22 20 23 21 24
REMARK H PARENT 9 13 21 25
REMARK Flexibility Score: inf
ROOT
ATOM      1  C   UNL     1       8.877  -0.101  10.926  1.00  0.00     0.160 C 
ENDROOT
BRANCH   1   2
ATOM      2  C   UNL     1       8.645   0.318  12.354  1.00  0.00     0.163 C 
ATOM      3  O   UNL     1       9.610   0.258  13.162  1.00  0.00    -0.294 OA
BRANCH   2   4
ATOM      4  C   UNL     1       7.355   0.850  12.847  1.00  0.00     0.048 C 
ATOM      5  C   UNL     1       7.233   1.592  13.958  1.00  0.00     0.012 C 
BRANCH   5   6
ATOM      6  C   UNL     1       5.939   2.093  14.483  1.00  0.00    -0.025 A 
ATOM      7  C   UNL     1       4.796   1.292  14.324  1.00  0.00     0.012 A 
ATOM      8  C   UNL     1       3.549   1.731  14.779  1.00  0.00     0.047 A 
ATOM      9  C   UNL     1       3.423   2.983  15.387  1.00  0.00     0.115 A 
ATOM     10  C   UNL     1       5.802   3.360  15.089  1.00  0.00     0.012 A 
ATOM     11  C   UNL     1       4.553   3.796  15.542  1.00  0.00     0.047 A 
BRANCH   9  12
ATOM     12  O   UNL     1       2.174   3.409  15.828  1.00  0.00    -0.508 OA
ATOM     13  H   UNL     1       1.826   4.337  15.617  1.00  0.00     0.293 HD
ENDBRANCH   9  12
ENDBRANCH   5   6
ENDBRANCH   2   4
ENDBRANCH   1   2
BRANCH   1  14
ATOM     14  C   UNL     1       8.498   1.008   9.986  1.00  0.00     0.163 C 
ATOM     15  O   UNL     1       7.291   1.374   9.925  1.00  0.00    -0.294 OA
BRANCH  14  16
ATOM     16  C   UNL     1       9.518   1.640   9.126  1.00  0.00     0.048 C 
ATOM     17  C   UNL     1      10.206   0.949   8.207  1.00  0.00     0.012 C 
BRANCH  17  18
ATOM     18  C   UNL     1      11.274   1.543   7.364  1.00  0.00    -0.025 A 
ATOM     19  C   UNL     1      12.329   0.720   6.936  1.00  0.00     0.012 A 
ATOM     20  C   UNL     1      11.295   2.911   7.021  1.00  0.00     0.012 A 
ATOM     21  C   UNL     1      13.369   1.244   6.160  1.00  0.00     0.047 A 
ATOM     22  C   UNL     1      12.335   3.431   6.245  1.00  0.00     0.047 A 
ATOM     23  C   UNL     1      13.375   2.597   5.812  1.00  0.00     0.115 A 
BRANCH  23  24
ATOM     24  O   UNL     1      14.418   3.106   5.042  1.00  0.00    -0.508 OA
ATOM     25  H   UNL     1      15.274   2.585   4.901  1.00  0.00     0.293 HD
ENDBRANCH  23  24
ENDBRANCH  17  18
ENDBRANCH  14  16
ENDBRANCH   1  14
TORSDOF 8
ENDMDL
MODEL 8
REMARK VINA RESULT:    26.536      7.073     10.117
REMARK INTER + INTRA:          36.728
REMARK INTER:                  35.391
REMARK INTRA:                   1.337
REMARK UNBOUND:                -0.668
REMARK SMILES O=C(C=Cc1ccc(O)cc1)CC(=O)C=Cc1ccc(O)cc1
REMARK SMILES IDX 12 1 2 2 1 3 3 4 4 5 5 6 6 7 7 8 8 9 11 10 10 11 9 12 13 14
REMARK SMILES IDX 14 15 15 16 16 17 17 18 18 19 23 20 19 21 22 22 20 23 21 24
REMARK H PARENT 9 13 21 25
REMARK Flexibility Score: inf
ROOT
ATOM      1  C   UNL     1       6.072   0.494   8.728  1.00  0.00     0.160 C 
ENDROOT
BRANCH   1   2
ATOM      2  C   UNL     1       7.401   0.875   9.324  1.00  0.00     0.163 C 
ATOM      3  O   UNL     1       7.459   1.112  10.561  1.00  0.00    -0.294 OA
BRANCH   2   4
ATOM      4  C   UNL     1       8.657   0.933   8.544  1.00  0.00     0.048 C 
ATOM      5  C   UNL     1       9.554   1.925   8.652  1.00  0.00     0.012 C 
BRANCH   5   6
ATOM      6  C   UNL     1      10.795   2.012   7.844  1.00  0.00    -0.025 A 
ATOM      7  C   UNL     1      11.187   3.269   7.352  1.00  0.00     0.012 A 
ATOM      8  C   UNL     1      12.335   3.400   6.565  1.00  0.00     0.047 A 
ATOM      9  C   UNL     1      13.101   2.275   6.245  1.00  0.00     0.115 A 
ATOM     10  C   UNL     1      11.568   0.881   7.510  1.00  0.00     0.012 A 
ATOM     11  C   UNL     1      12.715   1.016   6.721  1.00  0.00     0.047 A 
BRANCH   9  12
ATOM     12  O   UNL     1      14.236   2.421   5.454  1.00  0.00    -0.508 OA
ATOM     13  H   UNL     1      14.848   3.224   5.547  1.00  0.00     0.293 HD
ENDBRANCH   9  12
ENDBRANCH   5   6
ENDBRANCH   2   4
ENDBRANCH   1   2
BRANCH   1  14
ATOM     14  C   UNL     1       4.947   1.019   9.573  1.00  0.00     0.163 C 
ATOM     15  O   UNL     1       3.761   0.891   9.162  1.00  0.00    -0.294 OA
BRANCH  14  16
ATOM     16  C   UNL     1       5.228   1.698  10.854  1.00  0.00     0.048 C 
ATOM     17  C   UNL     1       5.109   1.075  12.035  1.00  0.00     0.012 C 
BRANCH  17  18
ATOM     18  C   UNL     1       5.332   1.744  13.341  1.00  0.00    -0.025 A 
ATOM     19  C   UNL     1       4.217   2.205  14.061  1.00  0.00     0.012 A 
ATOM     20  C   UNL     1       6.622   1.978  13.861  1.00  0.00     0.012 A 
ATOM     21  C   UNL     1       4.383   2.861  15.284  1.00  0.00     0.047 A 
ATOM     22  C   UNL     1       6.784   2.634  15.085  1.00  0.00     0.047 A 
ATOM     23  C   UNL     1       5.664   3.077  15.800  1.00  0.00     0.115 A 
BRANCH  23  24
ATOM     24  O   UNL     1       5.814   3.735  17.018  1.00  0.00    -0.508 OA
ATOM     25  H   UNL     1       6.277   3.295  17.804  1.00  0.00     0.293 HD
ENDBRANCH  23  24
ENDBRANCH  17  18
ENDBRANCH  14  16
ENDBRANCH   1  14
TORSDOF 8
ENDMDL
MODEL 9
REMARK VINA RESULT:    26.759      7.040     12.177
REMARK INTER + INTRA:          37.042
REMARK INTER:                  35.966
REMARK INTRA:                   1.076
REMARK UNBOUND:                -0.668
REMARK SMILES O=C(C=Cc1ccc(O)cc1)CC(=O)C=Cc1ccc(O)cc1
REMARK SMILES IDX 12 1 2 2 1 3 3 4 4 5 5 6 6 7 7 8 8 9 11 10 10 11 9 12 13 14
REMARK SMILES IDX 14 15 15 16 16 17 17 18 18 19 23 20 19 21 22 22 20 23 21 24
REMARK H PARENT 9 13 21 25
REMARK Flexibility Score: inf
ROOT
ATOM      1  C   UNL     1       6.259   0.405   8.789  1.00  0.00     0.160 C 
ENDROOT
BRANCH   1   2
ATOM      2  C   UNL     1       5.113   0.975   9.581  1.00  0.00     0.163 C 
ATOM      3  O   UNL     1       3.940   0.795   9.157  1.00  0.00    -0.294 OA
BRANCH   2   4
ATOM      4  C   UNL     1       5.287   1.690  10.865  1.00  0.00     0.048 C 
ATOM      5  C   UNL     1       5.223   1.091  12.064  1.00  0.00     0.012 C 
BRANCH   5   6
ATOM      6  C   UNL     1       5.354   1.807  13.357  1.00  0.00    -0.025 A 
ATOM      7  C   UNL     1       6.644   2.057  13.857  1.00  0.00     0.012 A 
ATOM      8  C   UNL     1       6.819   2.706  15.082  1.00  0.00     0.047 A 
ATOM      9  C   UNL     1       5.709   3.102  15.834  1.00  0.00     0.115 A 
ATOM     10  C   UNL     1       4.239   2.201  14.125  1.00  0.00     0.012 A 
ATOM     11  C   UNL     1       4.419   2.849  15.352  1.00  0.00     0.047 A 
BRANCH   9  12
ATOM     12  O   UNL     1       5.901   3.740  17.056  1.00  0.00    -0.508 OA
ATOM     13  H   UNL     1       5.131   3.905  17.694  1.00  0.00     0.293 HD
ENDBRANCH   9  12
ENDBRANCH   5   6
ENDBRANCH   2   4
ENDBRANCH   1   2
BRANCH   1  14
ATOM     14  C   UNL     1       7.571   0.846   9.371  1.00  0.00     0.163 C 
ATOM     15  O   UNL     1       7.629   1.141  10.597  1.00  0.00    -0.294 OA
BRANCH  14  16
ATOM     16  C   UNL     1       8.769   0.959   8.515  1.00  0.00     0.048 C 
ATOM     17  C   UNL     1       9.680   1.927   8.684  1.00  0.00     0.012 C 
BRANCH  17  18
ATOM     18  C   UNL     1      10.866   2.100   7.807  1.00  0.00    -0.025 A 
ATOM     19  C   UNL     1      11.623   0.966   7.468  1.00  0.00     0.012 A 
ATOM     20  C   UNL     1      11.287   3.364   7.345  1.00  0.00     0.012 A 
ATOM     21  C   UNL     1      12.761   1.087   6.664  1.00  0.00     0.047 A 
ATOM     22  C   UNL     1      12.425   3.480   6.540  1.00  0.00     0.047 A 
ATOM     23  C   UNL     1      13.164   2.340   6.198  1.00  0.00     0.115 A 
BRANCH  23  24
ATOM     24  O   UNL     1      14.301   2.446   5.401  1.00  0.00    -0.508 OA
ATOM     25  H   UNL     1      14.798   1.625   5.076  1.00  0.00     0.293 HD
ENDBRANCH  23  24
ENDBRANCH  17  18
ENDBRANCH  14  16
ENDBRANCH   1  14
TORSDOF 8
ENDMDL
