MODEL 1
REMARK VINA RESULT:    -3.824      0.000      0.000
REMARK INTER + INTRA:          -5.187
REMARK INTER:                  -4.942
REMARK INTRA:                  -0.245
REMARK UNBOUND:                -0.245
REMARK SMILES CCCCCCC(=O)[O-]
REMARK SMILES IDX 5 1 6 2 7 3 8 4 9 5 4 6 3 7 2 8 1 9
REMARK H PARENT
REMARK Flexibility Score: inf
ROOT
ATOM      1  C   UNL     1     -13.187   3.276   6.759  1.00  0.00     0.006 C 
ENDROOT
BRANCH   1   2
ATOM      2  C   UNL     1     -13.048   4.528   5.888  1.00  0.00     0.053 C 
BRANCH   2   3
ATOM      3  C   UNL     1     -12.890   4.150   4.449  1.00  0.00     0.041 C 
ATOM      4  O   UNL     1     -13.777   4.462   3.611  1.00  0.00    -0.550 OA
ATOM      5  O   UNL     1     -11.788   3.410   4.042  1.00  0.00    -0.550 OA
ENDBRANCH   2   3
ENDBRANCH   1   2
BRANCH   1   6
ATOM      6  C   UNL     1     -11.877   2.979   7.506  1.00  0.00     0.000 C 
BRANCH   6   7
ATOM      7  C   UNL     1     -12.102   2.586   8.977  1.00  0.00    -0.000 C 
BRANCH   7   8
ATOM      8  C   UNL     1     -12.003   3.751   9.979  1.00  0.00    -0.003 C 
ATOM      9  C   UNL     1     -11.159   4.915   9.461  1.00  0.00     0.004 C 
ENDBRANCH   7   8
ENDBRANCH   6   7
ENDBRANCH   1   6
TORSDOF 5
ENDMDL
MODEL 2
REMARK VINA RESULT:    -3.821      1.872      2.482
REMARK INTER + INTRA:          -5.183
REMARK INTER:                  -4.829
REMARK INTRA:                  -0.354
REMARK UNBOUND:                -0.245
REMARK SMILES CCCCCCC(=O)[O-]
REMARK SMILES IDX 5 1 6 2 7 3 8 4 9 5 4 6 3 7 2 8 1 9
REMARK H PARENT
REMARK Flexibility Score: inf
ROOT
ATOM      1  C   UNL     1     -12.222   2.996   6.763  1.00  0.00     0.006 C 
ENDROOT
BRANCH   1   2
ATOM      2  C   UNL     1     -13.156   3.992   6.069  1.00  0.00     0.053 C 
BRANCH   2   3
ATOM      3  C   UNL     1     -12.923   3.986   4.592  1.00  0.00     0.041 C 
ATOM      4  O   UNL     1     -13.770   4.500   3.814  1.00  0.00    -0.550 OA
ATOM      5  O   UNL     1     -11.793   3.370   4.069  1.00  0.00    -0.550 OA
ENDBRANCH   2   3
ENDBRANCH   1   2
BRANCH   1   6
ATOM      6  C   UNL     1     -11.269   3.717   7.729  1.00  0.00     0.000 C 
BRANCH   6   7
ATOM      7  C   UNL     1     -10.928   5.149   7.278  1.00  0.00    -0.000 C 
BRANCH   7   8
ATOM      8  C   UNL     1      -9.730   5.256   6.316  1.00  0.00    -0.003 C 
ATOM      9  C   UNL     1      -9.924   6.322   5.237  1.00  0.00     0.004 C 
ENDBRANCH   7   8
ENDBRANCH   6   7
ENDBRANCH   1   6
TORSDOF 5
ENDMDL
MODEL 3
REMARK VINA RESULT:    -3.757      0.736      1.482
REMARK INTER + INTRA:          -5.100
REMARK INTER:                  -4.832
REMARK INTRA:                  -0.268
REMARK UNBOUND:                -0.245
REMARK SMILES CCCCCCC(=O)[O-]
REMARK SMILES IDX 5 1 6 2 7 3 8 4 9 5 4 6 3 7 2 8 1 9
REMARK H PARENT
REMARK Flexibility Score: inf
ROOT
ATOM      1  C   UNL     1     -12.046   5.024   6.736  1.00  0.00     0.006 C 
ENDROOT
BRANCH   1   2
ATOM      2  C   UNL     1     -13.109   4.126   6.095  1.00  0.00     0.053 C 
BRANCH   2   3
ATOM      3  C   UNL     1     -12.871   4.004   4.623  1.00  0.00     0.041 C 
ATOM      4  O   UNL     1     -13.719   4.450   3.805  1.00  0.00    -0.550 OA
ATOM      5  O   UNL     1     -11.737   3.354   4.153  1.00  0.00    -0.550 OA
ENDBRANCH   2   3
ENDBRANCH   1   2
BRANCH   1   6
ATOM      6  C   UNL     1     -11.150   4.219   7.690  1.00  0.00     0.000 C 
BRANCH   6   7
ATOM      7  C   UNL     1     -11.272   4.675   9.155  1.00  0.00    -0.000 C 
BRANCH   7   8
ATOM      8  C   UNL     1     -11.924   3.649  10.100  1.00  0.00    -0.003 C 
ATOM      9  C   UNL     1     -12.208   2.309   9.422  1.00  0.00     0.004 C 
ENDBRANCH   7   8
ENDBRANCH   6   7
ENDBRANCH   1   6
TORSDOF 5
ENDMDL
MODEL 4
REMARK VINA RESULT:    -3.740      2.668      3.826
REMARK INTER + INTRA:          -5.078
REMARK INTER:                  -4.680
REMARK INTRA:                  -0.397
REMARK UNBOUND:                -0.245
REMARK SMILES CCCCCCC(=O)[O-]
REMARK SMILES IDX 5 1 6 2 7 3 8 4 9 5 4 6 3 7 2 8 1 9
REMARK H PARENT
REMARK Flexibility Score: inf
ROOT
ATOM      1  C   UNL     1     -10.887   4.837   7.317  1.00  0.00     0.006 C 
ENDROOT
BRANCH   1   2
ATOM      2  C   UNL     1      -9.774   5.220   6.338  1.00  0.00     0.053 C 
BRANCH   2   3
ATOM      3  C   UNL     1     -10.183   6.402   5.517  1.00  0.00     0.041 C 
ATOM      4  O   UNL     1      -9.403   6.870   4.646  1.00  0.00    -0.550 OA
ATOM      5  O   UNL     1     -11.406   7.019   5.748  1.00  0.00    -0.550 OA
ENDBRANCH   2   3
ENDBRANCH   1   2
BRANCH   1   6
ATOM      6  C   UNL     1     -11.152   3.324   7.284  1.00  0.00     0.000 C 
BRANCH   6   7
ATOM      7  C   UNL     1     -12.165   2.916   6.199  1.00  0.00    -0.000 C 
BRANCH   7   8
ATOM      8  C   UNL     1     -13.266   3.954   5.920  1.00  0.00    -0.003 C 
ATOM      9  C   UNL     1     -13.325   4.384   4.455  1.00  0.00     0.004 C 
ENDBRANCH   7   8
ENDBRANCH   6   7
ENDBRANCH   1   6
TORSDOF 5
ENDMDL
MODEL 5
REMARK VINA RESULT:    -3.644     16.901     17.917
REMARK INTER + INTRA:          -4.954
REMARK INTER:                  -4.787
REMARK INTRA:                  -0.167
REMARK UNBOUND:                -0.245
REMARK SMILES CCCCCCC(=O)[O-]
REMARK SMILES IDX 5 1 6 2 7 3 8 4 9 5 4 6 3 7 2 8 1 9
REMARK H PARENT
REMARK Flexibility Score: inf
ROOT
ATOM      1  C   UNL     1      -9.386  -2.598  -9.118  1.00  0.00     0.006 C 
ENDROOT
BRANCH   1   2
ATOM      2  C   UNL     1      -8.485  -3.817  -9.337  1.00  0.00     0.053 C 
BRANCH   2   3
ATOM      3  C   UNL     1      -8.892  -4.938  -8.435  1.00  0.00     0.041 C 
ATOM      4  O   UNL     1      -9.452  -4.694  -7.333  1.00  0.00    -0.550 OA
ATOM      5  O   UNL     1      -8.611  -6.252  -8.788  1.00  0.00    -0.550 OA
ENDBRANCH   2   3
ENDBRANCH   1   2
BRANCH   1   6
ATOM      6  C   UNL     1     -10.547  -2.586 -10.125  1.00  0.00     0.000 C 
BRANCH   6   7
ATOM      7  C   UNL     1     -11.358  -1.278 -10.089  1.00  0.00    -0.000 C 
BRANCH   7   8
ATOM      8  C   UNL     1     -10.519  -0.002  -9.892  1.00  0.00    -0.003 C 
ATOM      9  C   UNL     1     -11.371   1.234  -9.603  1.00  0.00     0.004 C 
ENDBRANCH   7   8
ENDBRANCH   6   7
ENDBRANCH   1   6
TORSDOF 5
ENDMDL
MODEL 6
REMARK VINA RESULT:    -3.635      2.495      2.811
REMARK INTER + INTRA:          -4.942
REMARK INTER:                  -4.528
REMARK INTRA:                  -0.414
REMARK UNBOUND:                -0.245
REMARK SMILES CCCCCCC(=O)[O-]
REMARK SMILES IDX 5 1 6 2 7 3 8 4 9 5 4 6 3 7 2 8 1 9
REMARK H PARENT
REMARK Flexibility Score: inf
ROOT
ATOM      1  C   UNL     1     -11.922   4.249   4.901  1.00  0.00     0.006 C 
ENDROOT
BRANCH   1   2
ATOM      2  C   UNL     1     -10.478   4.759   4.943  1.00  0.00     0.053 C 
BRANCH   2   3
ATOM      3  C   UNL     1     -10.447   6.213   5.294  1.00  0.00     0.041 C 
ATOM      4  O   UNL     1     -11.415   6.739   5.904  1.00  0.00    -0.550 OA
ATOM      5  O   UNL     1      -9.370   6.999   4.904  1.00  0.00    -0.550 OA
ENDBRANCH   2   3
ENDBRANCH   1   2
BRANCH   1   6
ATOM      6  C   UNL     1     -12.076   2.968   5.737  1.00  0.00     0.000 C 
BRANCH   6   7
ATOM      7  C   UNL     1     -11.275   3.009   7.051  1.00  0.00    -0.000 C 
BRANCH   7   8
ATOM      8  C   UNL     1     -12.000   3.684   8.229  1.00  0.00    -0.003 C 
ATOM      9  C   UNL     1     -11.171   4.783   8.891  1.00  0.00     0.004 C 
ENDBRANCH   7   8
ENDBRANCH   6   7
ENDBRANCH   1   6
TORSDOF 5
ENDMDL
MODEL 7
REMARK VINA RESULT:    -3.595      4.745      5.508
REMARK INTER + INTRA:          -4.891
REMARK INTER:                  -4.816
REMARK INTRA:                  -0.075
REMARK UNBOUND:                -0.245
REMARK SMILES CCCCCCC(=O)[O-]
REMARK SMILES IDX 5 1 6 2 7 3 8 4 9 5 4 6 3 7 2 8 1 9
REMARK H PARENT
REMARK Flexibility Score: inf
ROOT
ATOM      1  C   UNL     1     -10.192   6.607   5.572  1.00  0.00     0.006 C 
ENDROOT
BRANCH   1   2
ATOM      2  C   UNL     1     -10.054   5.230   4.915  1.00  0.00     0.053 C 
BRANCH   2   3
ATOM      3  C   UNL     1     -11.374   4.527   4.892  1.00  0.00     0.041 C 
ATOM      4  O   UNL     1     -12.339   4.965   5.574  1.00  0.00    -0.550 OA
ATOM      5  O   UNL     1     -11.527   3.359   4.155  1.00  0.00    -0.550 OA
ENDBRANCH   2   3
ENDBRANCH   1   2
BRANCH   1   6
ATOM      6  C   UNL     1      -9.331   7.651   4.845  1.00  0.00     0.000 C 
BRANCH   6   7
ATOM      7  C   UNL     1      -8.605   8.606   5.809  1.00  0.00    -0.000 C 
BRANCH   7   8
ATOM      8  C   UNL     1      -7.894   9.792   5.132  1.00  0.00    -0.003 C 
ATOM      9  C   UNL     1      -6.678  10.285   5.915  1.00  0.00     0.004 C 
ENDBRANCH   7   8
ENDBRANCH   6   7
ENDBRANCH   1   6
TORSDOF 5
ENDMDL
MODEL 8
REMARK VINA RESULT:    -3.468      3.189      4.460
REMARK INTER + INTRA:          -4.727
REMARK INTER:                  -4.452
REMARK INTRA:                  -0.275
REMARK UNBOUND:                -0.245
REMARK SMILES CCCCCCC(=O)[O-]
REMARK SMILES IDX 5 1 6 2 7 3 8 4 9 5 4 6 3 7 2 8 1 9
REMARK H PARENT
REMARK Flexibility Score: inf
ROOT
ATOM      1  C   UNL     1     -12.768   3.300   6.716  1.00  0.00     0.006 C 
ENDROOT
BRANCH   1   2
ATOM      2  C   UNL     1     -11.665   2.738   7.618  1.00  0.00     0.053 C 
BRANCH   2   3
ATOM      3  C   UNL     1     -12.060   2.845   9.056  1.00  0.00     0.041 C 
ATOM      4  O   UNL     1     -12.443   1.823   9.686  1.00  0.00    -0.550 OA
ATOM      5  O   UNL     1     -12.051   4.081   9.690  1.00  0.00    -0.550 OA
ENDBRANCH   2   3
ENDBRANCH   1   2
BRANCH   1   6
ATOM      6  C   UNL     1     -12.362   4.665   6.137  1.00  0.00     0.000 C 
BRANCH   6   7
ATOM      7  C   UNL     1     -11.499   4.545   4.868  1.00  0.00    -0.000 C 
BRANCH   7   8
ATOM      8  C   UNL     1     -10.125   5.235   4.954  1.00  0.00    -0.003 C 
ATOM      9  C   UNL     1      -9.743   5.630   6.380  1.00  0.00     0.004 C 
ENDBRANCH   7   8
ENDBRANCH   6   7
ENDBRANCH   1   6
TORSDOF 5
ENDMDL
