MODEL 1
REMARK VINA RESULT:    -3.800      0.000      0.000
REMARK INTER + INTRA:          -9.192
REMARK INTER:                  -6.911
REMARK INTRA:                  -2.281
REMARK UNBOUND:                -2.281
REMARK SMILES CCCCCCCCCCCCCCCC(=O)[O-]
REMARK SMILES IDX 9 1 10 2 11 3 12 4 13 5 14 6 15 7 16 8 17 9 18 10 8 11 7 12
REMARK SMILES IDX 6 13 5 14 4 15 3 16 2 17 1 18
REMARK H PARENT
REMARK Flexibility Score: inf
ROOT
ATOM      1  C   UNL     1      -0.628   5.078  -9.830  1.00  0.00     0.000 C 
ENDROOT
BRANCH   1   2
ATOM      2  C   UNL     1      -1.697   5.837 -10.630  1.00  0.00     0.000 C 
BRANCH   2   3
ATOM      3  C   UNL     1      -2.728   6.542  -9.731  1.00  0.00     0.000 C 
BRANCH   3   4
ATOM      4  C   UNL     1      -4.201   6.251 -10.079  1.00  0.00     0.000 C 
BRANCH   4   5
ATOM      5  C   UNL     1      -4.553   4.759 -10.252  1.00  0.00     0.000 C 
BRANCH   5   6
ATOM      6  C   UNL     1      -4.839   4.005  -8.942  1.00  0.00     0.006 C 
BRANCH   6   7
ATOM      7  C   UNL     1      -4.988   2.492  -9.145  1.00  0.00     0.053 C 
BRANCH   7   8
ATOM      8  C   UNL     1      -6.296   2.179  -9.798  1.00  0.00     0.041 C 
ATOM      9  O   UNL     1      -6.372   1.263 -10.660  1.00  0.00    -0.550 OA
ATOM     10  O   UNL     1      -7.424   2.930  -9.493  1.00  0.00    -0.550 OA
ENDBRANCH   7   8
ENDBRANCH   6   7
ENDBRANCH   5   6
ENDBRANCH   4   5
ENDBRANCH   3   4
ENDBRANCH   2   3
ENDBRANCH   1   2
BRANCH   1  11
ATOM     11  C   UNL     1      -1.126   4.754  -8.416  1.00  0.00     0.000 C 
BRANCH  11  12
ATOM     12  C   UNL     1      -1.441   3.260  -8.272  1.00  0.00    -0.000 C 
BRANCH  12  13
ATOM     13  C   UNL     1      -0.191   2.471  -7.865  1.00  0.00    -0.000 C 
BRANCH  13  14
ATOM     14  C   UNL     1       0.142   1.393  -8.907  1.00  0.00    -0.000 C 
BRANCH  14  15
ATOM     15  C   UNL     1       0.969   1.938 -10.083  1.00  0.00    -0.000 C 
BRANCH  15  16
ATOM     16  C   UNL     1       0.354   1.589 -11.449  1.00  0.00    -0.000 C 
BRANCH  16  17
ATOM     17  C   UNL     1      -1.125   1.185 -11.342  1.00  0.00    -0.003 C 
ATOM     18  C   UNL     1      -2.078   2.294 -11.786  1.00  0.00     0.004 C 
ENDBRANCH  16  17
ENDBRANCH  15  16
ENDBRANCH  14  15
ENDBRANCH  13  14
ENDBRANCH  12  13
ENDBRANCH  11  12
ENDBRANCH   1  11
TORSDOF 14
ENDMDL
MODEL 2
REMARK VINA RESULT:    -3.734      1.062      2.132
REMARK INTER + INTRA:          -9.070
REMARK INTER:                  -6.709
REMARK INTRA:                  -2.361
REMARK UNBOUND:                -2.281
REMARK SMILES CCCCCCCCCCCCCCCC(=O)[O-]
REMARK SMILES IDX 9 1 10 2 11 3 12 4 13 5 14 6 15 7 16 8 17 9 18 10 8 11 7 12
REMARK SMILES IDX 6 13 5 14 4 15 3 16 2 17 1 18
REMARK H PARENT
REMARK Flexibility Score: inf
ROOT
ATOM      1  C   UNL     1      -1.264   3.239  -8.308  1.00  0.00     0.000 C 
ENDROOT
BRANCH   1   2
ATOM      2  C   UNL     1      -0.821   4.709  -8.300  1.00  0.00     0.000 C 
BRANCH   2   3
ATOM      3  C   UNL     1      -1.927   5.669  -8.770  1.00  0.00     0.000 C 
BRANCH   3   4
ATOM      4  C   UNL     1      -3.345   5.064  -8.799  1.00  0.00     0.000 C 
BRANCH   4   5
ATOM      5  C   UNL     1      -4.325   5.735  -9.783  1.00  0.00     0.000 C 
BRANCH   5   6
ATOM      6  C   UNL     1      -5.509   4.855 -10.218  1.00  0.00     0.006 C 
BRANCH   6   7
ATOM      7  C   UNL     1      -5.885   3.799  -9.170  1.00  0.00     0.053 C 
BRANCH   7   8
ATOM      8  C   UNL     1      -6.763   2.751  -9.775  1.00  0.00     0.041 C 
ATOM      9  O   UNL     1      -6.386   1.550  -9.809  1.00  0.00    -0.550 OA
ATOM     10  O   UNL     1      -7.978   3.107 -10.346  1.00  0.00    -0.550 OA
ENDBRANCH   7   8
ENDBRANCH   6   7
ENDBRANCH   5   6
ENDBRANCH   4   5
ENDBRANCH   3   4
ENDBRANCH   2   3
ENDBRANCH   1   2
BRANCH   1  11
ATOM     11  C   UNL     1      -0.087   2.308  -7.991  1.00  0.00     0.000 C 
BRANCH  11  12
ATOM     12  C   UNL     1       0.257   1.424  -9.196  1.00  0.00    -0.000 C 
BRANCH  12  13
ATOM     13  C   UNL     1       1.032   2.216 -10.256  1.00  0.00    -0.000 C 
BRANCH  13  14
ATOM     14  C   UNL     1       0.284   2.216 -11.597  1.00  0.00    -0.000 C 
BRANCH  14  15
ATOM     15  C   UNL     1      -0.175   3.622 -12.022  1.00  0.00    -0.000 C 
BRANCH  15  16
ATOM     16  C   UNL     1      -1.700   3.795 -11.939  1.00  0.00    -0.000 C 
BRANCH  16  17
ATOM     17  C   UNL     1      -2.459   2.505 -12.288  1.00  0.00    -0.003 C 
ATOM     18  C   UNL     1      -3.277   1.961 -11.118  1.00  0.00     0.004 C 
ENDBRANCH  16  17
ENDBRANCH  15  16
ENDBRANCH  14  15
ENDBRANCH  13  14
ENDBRANCH  12  13
ENDBRANCH  11  12
ENDBRANCH   1  11
TORSDOF 14
ENDMDL
MODEL 3
REMARK VINA RESULT:    -3.712      1.375      2.138
REMARK INTER + INTRA:          -9.031
REMARK INTER:                  -6.578
REMARK INTRA:                  -2.453
REMARK UNBOUND:                -2.281
REMARK SMILES CCCCCCCCCCCCCCCC(=O)[O-]
REMARK SMILES IDX 9 1 10 2 11 3 12 4 13 5 14 6 15 7 16 8 17 9 18 10 8 11 7 12
REMARK SMILES IDX 6 13 5 14 4 15 3 16 2 17 1 18
REMARK H PARENT
REMARK Flexibility Score: inf
ROOT
ATOM      1  C   UNL     1      -3.385   4.980  -8.830  1.00  0.00     0.000 C 
ENDROOT
BRANCH   1   2
ATOM      2  C   UNL     1      -4.048   5.542 -10.096  1.00  0.00     0.000 C 
BRANCH   2   3
ATOM      3  C   UNL     1      -3.218   5.290 -11.367  1.00  0.00     0.000 C 
BRANCH   3   4
ATOM      4  C   UNL     1      -3.589   4.011 -12.144  1.00  0.00     0.000 C 
BRANCH   4   5
ATOM      5  C   UNL     1      -2.950   2.712 -11.612  1.00  0.00     0.000 C 
BRANCH   5   6
ATOM      6  C   UNL     1      -3.895   1.812 -10.798  1.00  0.00     0.006 C 
BRANCH   6   7
ATOM      7  C   UNL     1      -5.376   2.135 -11.033  1.00  0.00     0.053 C 
BRANCH   7   8
ATOM      8  C   UNL     1      -6.090   2.291  -9.729  1.00  0.00     0.041 C 
ATOM      9  O   UNL     1      -5.679   1.684  -8.704  1.00  0.00    -0.550 OA
ATOM     10  O   UNL     1      -7.239   3.068  -9.653  1.00  0.00    -0.550 OA
ENDBRANCH   7   8
ENDBRANCH   6   7
ENDBRANCH   5   6
ENDBRANCH   4   5
ENDBRANCH   3   4
ENDBRANCH   2   3
ENDBRANCH   1   2
BRANCH   1  11
ATOM     11  C   UNL     1      -2.063   5.700  -8.537  1.00  0.00     0.000 C 
BRANCH  11  12
ATOM     12  C   UNL     1      -0.897   4.706  -8.470  1.00  0.00    -0.000 C 
BRANCH  12  13
ATOM     13  C   UNL     1      -1.407   3.271  -8.292  1.00  0.00    -0.000 C 
BRANCH  13  14
ATOM     14  C   UNL     1      -0.236   2.280  -8.203  1.00  0.00    -0.000 C 
BRANCH  14  15
ATOM     15  C   UNL     1       0.007   1.528  -9.522  1.00  0.00    -0.000 C 
BRANCH  15  16
ATOM     16  C   UNL     1       1.173   2.119 -10.332  1.00  0.00    -0.000 C 
BRANCH  16  17
ATOM     17  C   UNL     1       0.735   2.614 -11.719  1.00  0.00    -0.003 C 
ATOM     18  C   UNL     1       0.536   4.128 -11.775  1.00  0.00     0.004 C 
ENDBRANCH  16  17
ENDBRANCH  15  16
ENDBRANCH  14  15
ENDBRANCH  13  14
ENDBRANCH  12  13
ENDBRANCH  11  12
ENDBRANCH   1  11
TORSDOF 14
ENDMDL
MODEL 4
REMARK VINA RESULT:    -3.697      1.119      1.750
REMARK INTER + INTRA:          -9.003
REMARK INTER:                  -6.585
REMARK INTRA:                  -2.418
REMARK UNBOUND:                -2.281
REMARK SMILES CCCCCCCCCCCCCCCC(=O)[O-]
REMARK SMILES IDX 9 1 10 2 11 3 12 4 13 5 14 6 15 7 16 8 17 9 18 10 8 11 7 12
REMARK SMILES IDX 6 13 5 14 4 15 3 16 2 17 1 18
REMARK H PARENT
REMARK Flexibility Score: inf
ROOT
ATOM      1  C   UNL     1      -0.492   4.675  -8.832  1.00  0.00     0.000 C 
ENDROOT
BRANCH   1   2
ATOM      2  C   UNL     1      -1.291   5.928  -8.443  1.00  0.00     0.000 C 
BRANCH   2   3
ATOM      3  C   UNL     1      -1.786   6.724  -9.664  1.00  0.00     0.000 C 
BRANCH   3   4
ATOM      4  C   UNL     1      -3.212   6.376 -10.134  1.00  0.00     0.000 C 
BRANCH   4   5
ATOM      5  C   UNL     1      -4.013   5.466  -9.180  1.00  0.00     0.000 C 
BRANCH   5   6
ATOM      6  C   UNL     1      -4.849   4.377  -9.874  1.00  0.00     0.006 C 
BRANCH   6   7
ATOM      7  C   UNL     1      -4.460   2.958  -9.436  1.00  0.00     0.053 C 
BRANCH   7   8
ATOM      8  C   UNL     1      -5.680   2.163  -9.098  1.00  0.00     0.041 C 
ATOM      9  O   UNL     1      -6.245   1.462  -9.979  1.00  0.00    -0.550 OA
ATOM     10  O   UNL     1      -6.225   2.234  -7.822  1.00  0.00    -0.550 OA
ENDBRANCH   7   8
ENDBRANCH   6   7
ENDBRANCH   5   6
ENDBRANCH   4   5
ENDBRANCH   3   4
ENDBRANCH   2   3
ENDBRANCH   1   2
BRANCH   1  11
ATOM     11  C   UNL     1      -1.098   3.418  -8.197  1.00  0.00     0.000 C 
BRANCH  11  12
ATOM     12  C   UNL     1      -0.147   2.222  -8.328  1.00  0.00    -0.000 C 
BRANCH  12  13
ATOM     13  C   UNL     1       0.613   2.266  -9.659  1.00  0.00    -0.000 C 
BRANCH  13  14
ATOM     14  C   UNL     1       0.081   1.202 -10.631  1.00  0.00    -0.000 C 
BRANCH  14  15
ATOM     15  C   UNL     1      -0.398   1.801 -11.964  1.00  0.00    -0.000 C 
BRANCH  15  16
ATOM     16  C   UNL     1      -1.882   2.205 -11.930  1.00  0.00    -0.000 C 
BRANCH  16  17
ATOM     17  C   UNL     1      -2.105   3.662 -12.365  1.00  0.00    -0.003 C 
ATOM     18  C   UNL     1      -0.804   4.457 -12.467  1.00  0.00     0.004 C 
ENDBRANCH  16  17
ENDBRANCH  15  16
ENDBRANCH  14  15
ENDBRANCH  13  14
ENDBRANCH  12  13
ENDBRANCH  11  12
ENDBRANCH   1  11
TORSDOF 14
ENDMDL
MODEL 5
REMARK VINA RESULT:    -3.644      1.281      2.403
REMARK INTER + INTRA:          -8.907
REMARK INTER:                  -6.621
REMARK INTRA:                  -2.286
REMARK UNBOUND:                -2.281
REMARK SMILES CCCCCCCCCCCCCCCC(=O)[O-]
REMARK SMILES IDX 9 1 10 2 11 3 12 4 13 5 14 6 15 7 16 8 17 9 18 10 8 11 7 12
REMARK SMILES IDX 6 13 5 14 4 15 3 16 2 17 1 18
REMARK H PARENT
REMARK Flexibility Score: inf
ROOT
ATOM      1  C   UNL     1      -0.213   5.613  -8.963  1.00  0.00     0.000 C 
ENDROOT
BRANCH   1   2
ATOM      2  C   UNL     1      -1.503   6.103  -8.289  1.00  0.00     0.000 C 
BRANCH   2   3
ATOM      3  C   UNL     1      -2.631   6.390  -9.295  1.00  0.00     0.000 C 
BRANCH   3   4
ATOM      4  C   UNL     1      -3.800   5.385  -9.266  1.00  0.00     0.000 C 
BRANCH   4   5
ATOM      5  C   UNL     1      -4.064   4.646 -10.593  1.00  0.00     0.000 C 
BRANCH   5   6
ATOM      6  C   UNL     1      -3.854   3.123 -10.539  1.00  0.00     0.006 C 
BRANCH   6   7
ATOM      7  C   UNL     1      -4.225   2.518  -9.179  1.00  0.00     0.053 C 
BRANCH   7   8
ATOM      8  C   UNL     1      -5.693   2.243  -9.113  1.00  0.00     0.041 C 
ATOM      9  O   UNL     1      -6.232   1.470  -9.948  1.00  0.00    -0.550 OA
ATOM     10  O   UNL     1      -6.478   2.878  -8.158  1.00  0.00    -0.550 OA
ENDBRANCH   7   8
ENDBRANCH   6   7
ENDBRANCH   5   6
ENDBRANCH   4   5
ENDBRANCH   3   4
ENDBRANCH   2   3
ENDBRANCH   1   2
BRANCH   1  11
ATOM     11  C   UNL     1       0.052   6.380 -10.264  1.00  0.00     0.000 C 
BRANCH  11  12
ATOM     12  C   UNL     1       0.588   5.444 -11.355  1.00  0.00    -0.000 C 
BRANCH  12  13
ATOM     13  C   UNL     1      -0.553   4.669 -12.025  1.00  0.00    -0.000 C 
BRANCH  13  14
ATOM     14  C   UNL     1      -0.424   3.162 -11.758  1.00  0.00    -0.000 C 
BRANCH  14  15
ATOM     15  C   UNL     1       1.034   2.718 -11.547  1.00  0.00    -0.000 C 
BRANCH  15  16
ATOM     16  C   UNL     1       1.247   2.014 -10.196  1.00  0.00    -0.000 C 
BRANCH  16  17
ATOM     17  C   UNL     1      -0.077   1.598  -9.535  1.00  0.00    -0.003 C 
ATOM     18  C   UNL     1      -0.272   2.222  -8.153  1.00  0.00     0.004 C 
ENDBRANCH  16  17
ENDBRANCH  15  16
ENDBRANCH  14  15
ENDBRANCH  13  14
ENDBRANCH  12  13
ENDBRANCH  11  12
ENDBRANCH   1  11
TORSDOF 14
ENDMDL
MODEL 6
REMARK VINA RESULT:    -3.638      1.146      3.363
REMARK INTER + INTRA:          -8.897
REMARK INTER:                  -6.414
REMARK INTRA:                  -2.483
REMARK UNBOUND:                -2.281
REMARK SMILES CCCCCCCCCCCCCCCC(=O)[O-]
REMARK SMILES IDX 9 1 10 2 11 3 12 4 13 5 14 6 15 7 16 8 17 9 18 10 8 11 7 12
REMARK SMILES IDX 6 13 5 14 4 15 3 16 2 17 1 18
REMARK H PARENT
REMARK Flexibility Score: inf
ROOT
ATOM      1  C   UNL     1       0.010   1.759 -11.643  1.00  0.00     0.000 C 
ENDROOT
BRANCH   1   2
ATOM      2  C   UNL     1       0.034   3.272 -11.904  1.00  0.00     0.000 C 
BRANCH   2   3
ATOM      3  C   UNL     1      -1.371   3.900 -11.905  1.00  0.00     0.000 C 
BRANCH   3   4
ATOM      4  C   UNL     1      -2.436   3.110 -12.692  1.00  0.00     0.000 C 
BRANCH   4   5
ATOM      5  C   UNL     1      -3.811   2.995 -12.001  1.00  0.00     0.000 C 
BRANCH   5   6
ATOM      6  C   UNL     1      -3.948   1.814 -11.024  1.00  0.00     0.006 C 
BRANCH   6   7
ATOM      7  C   UNL     1      -4.664   2.198  -9.722  1.00  0.00     0.053 C 
BRANCH   7   8
ATOM      8  C   UNL     1      -6.146   2.171  -9.913  1.00  0.00     0.041 C 
ATOM      9  O   UNL     1      -6.685   1.234 -10.560  1.00  0.00    -0.550 OA
ATOM     10  O   UNL     1      -6.931   3.206  -9.421  1.00  0.00    -0.550 OA
ENDBRANCH   7   8
ENDBRANCH   6   7
ENDBRANCH   5   6
ENDBRANCH   4   5
ENDBRANCH   3   4
ENDBRANCH   2   3
ENDBRANCH   1   2
BRANCH   1  11
ATOM     11  C   UNL     1      -0.467   1.455 -10.218  1.00  0.00     0.000 C 
BRANCH  11  12
ATOM     12  C   UNL     1       0.395   2.185  -9.180  1.00  0.00    -0.000 C 
BRANCH  12  13
ATOM     13  C   UNL     1      -0.429   2.551  -7.940  1.00  0.00    -0.000 C 
BRANCH  13  14
ATOM     14  C   UNL     1      -1.520   3.574  -8.288  1.00  0.00    -0.000 C 
BRANCH  14  15
ATOM     15  C   UNL     1      -0.976   5.008  -8.405  1.00  0.00    -0.000 C 
BRANCH  15  16
ATOM     16  C   UNL     1      -2.044   6.009  -8.876  1.00  0.00    -0.000 C 
BRANCH  16  17
ATOM     17  C   UNL     1      -3.440   5.375  -8.977  1.00  0.00    -0.003 C 
ATOM     18  C   UNL     1      -4.326   6.051 -10.023  1.00  0.00     0.004 C 
ENDBRANCH  16  17
ENDBRANCH  15  16
ENDBRANCH  14  15
ENDBRANCH  13  14
ENDBRANCH  12  13
ENDBRANCH  11  12
ENDBRANCH   1  11
TORSDOF 14
ENDMDL
MODEL 7
REMARK VINA RESULT:    -3.607      1.249      1.942
REMARK INTER + INTRA:          -8.840
REMARK INTER:                  -6.807
REMARK INTRA:                  -2.033
REMARK UNBOUND:                -2.281
REMARK SMILES CCCCCCCCCCCCCCCC(=O)[O-]
REMARK SMILES IDX 9 1 10 2 11 3 12 4 13 5 14 6 15 7 16 8 17 9 18 10 8 11 7 12
REMARK SMILES IDX 6 13 5 14 4 15 3 16 2 17 1 18
REMARK H PARENT
REMARK Flexibility Score: inf
ROOT
ATOM      1  C   UNL     1      -2.071   5.773  -8.489  1.00  0.00     0.000 C 
ENDROOT
BRANCH   1   2
ATOM      2  C   UNL     1      -2.369   6.934  -9.449  1.00  0.00     0.000 C 
BRANCH   2   3
ATOM      3  C   UNL     1      -3.212   6.505 -10.663  1.00  0.00     0.000 C 
BRANCH   3   4
ATOM      4  C   UNL     1      -4.060   5.235 -10.450  1.00  0.00     0.000 C 
BRANCH   4   5
ATOM      5  C   UNL     1      -3.731   4.060 -11.392  1.00  0.00     0.000 C 
BRANCH   5   6
ATOM      6  C   UNL     1      -3.803   2.668 -10.742  1.00  0.00     0.006 C 
BRANCH   6   7
ATOM      7  C   UNL     1      -4.209   2.721  -9.263  1.00  0.00     0.053 C 
BRANCH   7   8
ATOM      8  C   UNL     1      -5.563   2.119  -9.071  1.00  0.00     0.041 C 
ATOM      9  O   UNL     1      -6.140   2.195  -7.954  1.00  0.00    -0.550 OA
ATOM     10  O   UNL     1      -6.171   1.428 -10.112  1.00  0.00    -0.550 OA
ENDBRANCH   7   8
ENDBRANCH   6   7
ENDBRANCH   5   6
ENDBRANCH   4   5
ENDBRANCH   3   4
ENDBRANCH   2   3
ENDBRANCH   1   2
BRANCH   1  11
ATOM     11  C   UNL     1      -0.624   5.288  -8.647  1.00  0.00     0.000 C 
BRANCH  11  12
ATOM     12  C   UNL     1      -0.572   3.937  -9.371  1.00  0.00    -0.000 C 
BRANCH  12  13
ATOM     13  C   UNL     1      -0.388   2.786  -8.375  1.00  0.00    -0.000 C 
BRANCH  13  14
ATOM     14  C   UNL     1       0.129   1.524  -9.083  1.00  0.00    -0.000 C 
BRANCH  14  15
ATOM     15  C   UNL     1      -0.467   1.346 -10.490  1.00  0.00    -0.000 C 
BRANCH  15  16
ATOM     16  C   UNL     1       0.595   0.974 -11.538  1.00  0.00    -0.000 C 
BRANCH  16  17
ATOM     17  C   UNL     1       1.180   2.206 -12.247  1.00  0.00    -0.003 C 
ATOM     18  C   UNL     1       2.577   2.572 -11.746  1.00  0.00     0.004 C 
ENDBRANCH  16  17
ENDBRANCH  15  16
ENDBRANCH  14  15
ENDBRANCH  13  14
ENDBRANCH  12  13
ENDBRANCH  11  12
ENDBRANCH   1  11
TORSDOF 14
ENDMDL
MODEL 8
REMARK VINA RESULT:    -3.553      2.876      5.527
REMARK INTER + INTRA:          -8.742
REMARK INTER:                  -6.375
REMARK INTRA:                  -2.367
REMARK UNBOUND:                -2.281
REMARK SMILES CCCCCCCCCCCCCCCC(=O)[O-]
REMARK SMILES IDX 9 1 10 2 11 3 12 4 13 5 14 6 15 7 16 8 17 9 18 10 8 11 7 12
REMARK SMILES IDX 6 13 5 14 4 15 3 16 2 17 1 18
REMARK H PARENT
REMARK Flexibility Score: inf
ROOT
ATOM      1  C   UNL     1      -3.062   1.931 -11.304  1.00  0.00     0.000 C 
ENDROOT
BRANCH   1   2
ATOM      2  C   UNL     1      -2.199   2.608 -12.379  1.00  0.00     0.000 C 
BRANCH   2   3
ATOM      3  C   UNL     1      -1.671   3.986 -11.940  1.00  0.00     0.000 C 
BRANCH   3   4
ATOM      4  C   UNL     1      -0.546   3.946 -10.887  1.00  0.00     0.000 C 
BRANCH   4   5
ATOM      5  C   UNL     1      -0.684   4.969  -9.741  1.00  0.00     0.000 C 
BRANCH   5   6
ATOM      6  C   UNL     1      -0.727   4.359  -8.330  1.00  0.00     0.006 C 
BRANCH   6   7
ATOM      7  C   UNL     1      -1.200   2.900  -8.325  1.00  0.00     0.053 C 
BRANCH   7   8
ATOM      8  C   UNL     1      -0.095   1.994  -7.888  1.00  0.00     0.041 C 
ATOM      9  O   UNL     1       0.129   1.811  -6.662  1.00  0.00    -0.550 OA
ATOM     10  O   UNL     1       0.724   1.387  -8.833  1.00  0.00    -0.550 OA
ENDBRANCH   7   8
ENDBRANCH   6   7
ENDBRANCH   5   6
ENDBRANCH   4   5
ENDBRANCH   3   4
ENDBRANCH   2   3
ENDBRANCH   1   2
BRANCH   1  11
ATOM     11  C   UNL     1      -4.543   1.940 -11.702  1.00  0.00     0.000 C 
BRANCH  11  12
ATOM     12  C   UNL     1      -5.444   1.724 -10.480  1.00  0.00    -0.000 C 
BRANCH  12  13
ATOM     13  C   UNL     1      -4.828   2.352  -9.224  1.00  0.00    -0.000 C 
BRANCH  13  14
ATOM     14  C   UNL     1      -5.353   3.780  -9.012  1.00  0.00    -0.000 C 
BRANCH  14  15
ATOM     15  C   UNL     1      -4.237   4.838  -9.065  1.00  0.00    -0.000 C 
BRANCH  15  16
ATOM     16  C   UNL     1      -4.371   5.776 -10.276  1.00  0.00    -0.000 C 
BRANCH  16  17
ATOM     17  C   UNL     1      -5.620   5.474 -11.119  1.00  0.00    -0.003 C 
ATOM     18  C   UNL     1      -6.482   6.711 -11.368  1.00  0.00     0.004 C 
ENDBRANCH  16  17
ENDBRANCH  15  16
ENDBRANCH  14  15
ENDBRANCH  13  14
ENDBRANCH  12  13
ENDBRANCH  11  12
ENDBRANCH   1  11
TORSDOF 14
ENDMDL
MODEL 9
REMARK VINA RESULT:    -3.531      1.410      3.785
REMARK INTER + INTRA:          -8.701
REMARK INTER:                  -6.644
REMARK INTRA:                  -2.057
REMARK UNBOUND:                -2.281
REMARK SMILES CCCCCCCCCCCCCCCC(=O)[O-]
REMARK SMILES IDX 9 1 10 2 11 3 12 4 13 5 14 6 15 7 16 8 17 9 18 10 8 11 7 12
REMARK SMILES IDX 6 13 5 14 4 15 3 16 2 17 1 18
REMARK H PARENT
REMARK Flexibility Score: inf
ROOT
ATOM      1  C   UNL     1       0.259   1.340  -8.836  1.00  0.00     0.000 C 
ENDROOT
BRANCH   1   2
ATOM      2  C   UNL     1      -0.128   2.309  -7.708  1.00  0.00     0.000 C 
BRANCH   2   3
ATOM      3  C   UNL     1      -0.932   3.520  -8.211  1.00  0.00     0.000 C 
BRANCH   3   4
ATOM      4  C   UNL     1      -2.377   3.206  -8.648  1.00  0.00     0.000 C 
BRANCH   4   5
ATOM      5  C   UNL     1      -3.266   4.439  -8.910  1.00  0.00     0.000 C 
BRANCH   5   6
ATOM      6  C   UNL     1      -4.545   4.155  -9.715  1.00  0.00     0.006 C 
BRANCH   6   7
ATOM      7  C   UNL     1      -4.593   2.728 -10.277  1.00  0.00     0.053 C 
BRANCH   7   8
ATOM      8  C   UNL     1      -5.716   1.961  -9.658  1.00  0.00     0.041 C 
ATOM      9  O   UNL     1      -6.681   1.567 -10.365  1.00  0.00    -0.550 OA
ATOM     10  O   UNL     1      -5.724   1.720  -8.289  1.00  0.00    -0.550 OA
ENDBRANCH   7   8
ENDBRANCH   6   7
ENDBRANCH   5   6
ENDBRANCH   4   5
ENDBRANCH   3   4
ENDBRANCH   2   3
ENDBRANCH   1   2
BRANCH   1  11
ATOM     11  C   UNL     1       0.827   2.098 -10.041  1.00  0.00     0.000 C 
BRANCH  11  12
ATOM     12  C   UNL     1       0.117   1.685 -11.337  1.00  0.00    -0.000 C 
BRANCH  12  13
ATOM     13  C   UNL     1       0.120   2.831 -12.355  1.00  0.00    -0.000 C 
BRANCH  13  14
ATOM     14  C   UNL     1      -0.762   3.994 -11.876  1.00  0.00    -0.000 C 
BRANCH  14  15
ATOM     15  C   UNL     1       0.011   5.320 -11.769  1.00  0.00    -0.000 C 
BRANCH  15  16
ATOM     16  C   UNL     1      -0.560   6.250 -10.686  1.00  0.00    -0.000 C 
BRANCH  16  17
ATOM     17  C   UNL     1       0.489   6.638  -9.631  1.00  0.00    -0.003 C 
ATOM     18  C   UNL     1      -0.135   7.093  -8.312  1.00  0.00     0.004 C 
ENDBRANCH  16  17
ENDBRANCH  15  16
ENDBRANCH  14  15
ENDBRANCH  13  14
ENDBRANCH  12  13
ENDBRANCH  11  12
ENDBRANCH   1  11
TORSDOF 14
ENDMDL
