MODEL 1
REMARK VINA RESULT:    -6.228      0.000      0.000
REMARK INTER + INTRA:          -6.993
REMARK INTER:                  -6.774
REMARK INTRA:                  -0.219
REMARK UNBOUND:                -0.219
REMARK SMILES CC(C)(C)[C@H]1C=C[C@@H](O)CC1
REMARK SMILES IDX 5 1 11 2 10 3 8 4 7 5 6 6 2 7 1 8 3 9 4 10 9 11
REMARK H PARENT 9 12
REMARK Flexibility Score: inf
ROOT
ATOM      1  C   UNL     1     135.934 123.046 140.367  1.00  0.00     0.017 C 
ATOM      2  C   UNL     1     134.612 123.791 140.696  1.00  0.00     0.011 C 
ATOM      3  C   UNL     1     134.223 123.600 142.163  1.00  0.00     0.037 C 
ATOM      4  C   UNL     1     135.301 124.176 143.086  1.00  0.00     0.137 C 
ATOM      5  C   UNL     1     136.674 123.688 142.698  1.00  0.00     0.000 C 
ATOM      6  C   UNL     1     136.977 123.255 141.462  1.00  0.00    -0.025 C 
ENDROOT
BRANCH   1   7
ATOM      7  C   UNL     1     136.496 123.369 138.927  1.00  0.00    -0.032 C 
ATOM      8  C   UNL     1     136.124 124.811 138.506  1.00  0.00     0.011 C 
ATOM      9  C   UNL     1     138.034 123.220 138.865  1.00  0.00     0.011 C 
ATOM     10  C   UNL     1     135.867 122.413 137.885  1.00  0.00     0.011 C 
ENDBRANCH   1   7
BRANCH   4  11
ATOM     11  O   UNL     1     135.267 125.579 143.030  1.00  0.00    -0.389 OA
ATOM     12  H   UNL     1     135.876 125.852 142.294  1.00  0.00     0.211 HD
ENDBRANCH   4  11
TORSDOF 2
ENDMDL
MODEL 2
REMARK VINA RESULT:    -6.189      0.120      1.326
REMARK INTER + INTRA:          -6.950
REMARK INTER:                  -6.727
REMARK INTRA:                  -0.223
REMARK UNBOUND:                -0.219
REMARK SMILES CC(C)(C)[C@H]1C=C[C@@H](O)CC1
REMARK SMILES IDX 5 1 11 2 10 3 8 4 7 5 6 6 2 7 1 8 3 9 4 10 9 11
REMARK H PARENT 9 12
REMARK Flexibility Score: inf
ROOT
ATOM      1  C   UNL     1     135.957 123.042 140.349  1.00  0.00     0.017 C 
ATOM      2  C   UNL     1     134.630 123.800 140.626  1.00  0.00     0.011 C 
ATOM      3  C   UNL     1     134.168 123.591 142.070  1.00  0.00     0.037 C 
ATOM      4  C   UNL     1     135.208 124.139 143.052  1.00  0.00     0.137 C 
ATOM      5  C   UNL     1     136.592 123.638 142.723  1.00  0.00     0.000 C 
ATOM      6  C   UNL     1     136.949 123.219 141.496  1.00  0.00    -0.025 C 
ENDROOT
BRANCH   1   7
ATOM      7  C   UNL     1     136.592 123.379 138.943  1.00  0.00    -0.032 C 
ATOM      8  C   UNL     1     138.128 123.190 138.977  1.00  0.00     0.011 C 
ATOM      9  C   UNL     1     136.011 122.486 137.823  1.00  0.00     0.011 C 
ATOM     10  C   UNL     1     136.323 124.860 138.580  1.00  0.00     0.011 C 
ENDBRANCH   1   7
BRANCH   4  11
ATOM     11  O   UNL     1     135.195 125.542 143.017  1.00  0.00    -0.389 OA
ATOM     12  H   UNL     1     135.472 125.809 142.101  1.00  0.00     0.211 HD
ENDBRANCH   4  11
TORSDOF 2
ENDMDL
MODEL 3
REMARK VINA RESULT:    -5.671      2.060      4.255
REMARK INTER + INTRA:          -6.387
REMARK INTER:                  -6.164
REMARK INTRA:                  -0.224
REMARK UNBOUND:                -0.219
REMARK SMILES CC(C)(C)[C@H]1C=C[C@@H](O)CC1
REMARK SMILES IDX 5 1 11 2 10 3 8 4 7 5 6 6 2 7 1 8 3 9 4 10 9 11
REMARK H PARENT 9 12
REMARK Flexibility Score: inf
ROOT
ATOM      1  C   UNL     1     134.950 123.700 140.248  1.00  0.00     0.017 C 
ATOM      2  C   UNL     1     135.557 122.335 139.824  1.00  0.00     0.011 C 
ATOM      3  C   UNL     1     135.761 122.270 138.308  1.00  0.00     0.037 C 
ATOM      4  C   UNL     1     136.739 123.355 137.850  1.00  0.00     0.137 C 
ATOM      5  C   UNL     1     136.363 124.706 138.408  1.00  0.00     0.000 C 
ATOM      6  C   UNL     1     135.628 124.860 139.522  1.00  0.00    -0.025 C 
ENDROOT
BRANCH   1   7
ATOM      7  C   UNL     1     134.904 123.909 141.812  1.00  0.00    -0.032 C 
ATOM      8  C   UNL     1     134.705 125.404 142.159  1.00  0.00     0.011 C 
ATOM      9  C   UNL     1     133.761 123.097 142.465  1.00  0.00     0.011 C 
ATOM     10  C   UNL     1     136.245 123.468 142.447  1.00  0.00     0.011 C 
ENDBRANCH   1   7
BRANCH   4  11
ATOM     11  O   UNL     1     138.039 123.021 138.261  1.00  0.00    -0.389 OA
ATOM     12  H   UNL     1     138.659 123.619 137.767  1.00  0.00     0.211 HD
ENDBRANCH   4  11
TORSDOF 2
ENDMDL
MODEL 4
REMARK VINA RESULT:    -5.336      2.070      4.283
REMARK INTER + INTRA:          -6.023
REMARK INTER:                  -5.810
REMARK INTRA:                  -0.212
REMARK UNBOUND:                -0.219
REMARK SMILES CC(C)(C)[C@H]1C=C[C@@H](O)CC1
REMARK SMILES IDX 5 1 11 2 10 3 8 4 7 5 6 6 2 7 1 8 3 9 4 10 9 11
REMARK H PARENT 9 12
REMARK Flexibility Score: inf
ROOT
ATOM      1  C   UNL     1     135.922 123.601 140.833  1.00  0.00     0.017 C 
ATOM      2  C   UNL     1     136.027 124.742 139.784  1.00  0.00     0.011 C 
ATOM      3  C   UNL     1     136.592 124.222 138.460  1.00  0.00     0.037 C 
ATOM      4  C   UNL     1     135.672 123.152 137.866  1.00  0.00     0.137 C 
ATOM      5  C   UNL     1     135.317 122.102 138.889  1.00  0.00     0.000 C 
ATOM      6  C   UNL     1     135.355 122.326 140.214  1.00  0.00    -0.025 C 
ENDROOT
BRANCH   1   7
ATOM      7  C   UNL     1     135.160 124.025 142.149  1.00  0.00    -0.032 C 
ATOM      8  C   UNL     1     134.603 125.464 142.019  1.00  0.00     0.011 C 
ATOM      9  C   UNL     1     133.986 123.070 142.466  1.00  0.00     0.011 C 
ATOM     10  C   UNL     1     136.135 124.022 143.352  1.00  0.00     0.011 C 
ENDBRANCH   1   7
BRANCH   4  11
ATOM     11  O   UNL     1     134.500 123.755 137.383  1.00  0.00    -0.389 OA
ATOM     12  H   UNL     1     134.145 124.323 138.117  1.00  0.00     0.211 HD
ENDBRANCH   4  11
TORSDOF 2
ENDMDL
MODEL 5
REMARK VINA RESULT:    -5.328      2.083      4.261
REMARK INTER + INTRA:          -6.014
REMARK INTER:                  -5.799
REMARK INTRA:                  -0.214
REMARK UNBOUND:                -0.219
REMARK SMILES CC(C)(C)[C@H]1C=C[C@@H](O)CC1
REMARK SMILES IDX 5 1 11 2 10 3 8 4 7 5 6 6 2 7 1 8 3 9 4 10 9 11
REMARK H PARENT 9 12
REMARK Flexibility Score: inf
ROOT
ATOM      1  C   UNL     1     135.942 123.663 140.806  1.00  0.00     0.017 C 
ATOM      2  C   UNL     1     135.972 124.803 139.752  1.00  0.00     0.011 C 
ATOM      3  C   UNL     1     136.518 124.301 138.413  1.00  0.00     0.037 C 
ATOM      4  C   UNL     1     135.624 123.194 137.848  1.00  0.00     0.137 C 
ATOM      5  C   UNL     1     135.339 122.135 138.883  1.00  0.00     0.000 C 
ATOM      6  C   UNL     1     135.406 122.365 140.206  1.00  0.00    -0.025 C 
ENDROOT
BRANCH   1   7
ATOM      7  C   UNL     1     135.202 124.062 142.142  1.00  0.00    -0.032 C 
ATOM      8  C   UNL     1     134.022 123.100 142.423  1.00  0.00     0.011 C 
ATOM      9  C   UNL     1     136.159 124.034 143.357  1.00  0.00     0.011 C 
ATOM     10  C   UNL     1     134.609 125.487 142.016  1.00  0.00     0.011 C 
ENDBRANCH   1   7
BRANCH   4  11
ATOM     11  O   UNL     1     134.416 123.749 137.398  1.00  0.00    -0.389 OA
ATOM     12  H   UNL     1     133.743 123.019 137.407  1.00  0.00     0.211 HD
ENDBRANCH   4  11
TORSDOF 2
ENDMDL
MODEL 6
REMARK VINA RESULT:    -5.283      2.124      4.246
REMARK INTER + INTRA:          -5.965
REMARK INTER:                  -5.754
REMARK INTRA:                  -0.211
REMARK UNBOUND:                -0.219
REMARK SMILES CC(C)(C)[C@H]1C=C[C@@H](O)CC1
REMARK SMILES IDX 5 1 11 2 10 3 8 4 7 5 6 6 2 7 1 8 3 9 4 10 9 11
REMARK H PARENT 9 12
REMARK Flexibility Score: inf
ROOT
ATOM      1  C   UNL     1     135.871 123.639 140.981  1.00  0.00     0.017 C 
ATOM      2  C   UNL     1     135.742 124.543 139.725  1.00  0.00     0.011 C 
ATOM      3  C   UNL     1     136.321 123.853 138.488  1.00  0.00     0.037 C 
ATOM      4  C   UNL     1     135.558 122.559 138.188  1.00  0.00     0.137 C 
ATOM      5  C   UNL     1     135.424 121.700 139.421  1.00  0.00     0.000 C 
ATOM      6  C   UNL     1     135.488 122.195 140.670  1.00  0.00    -0.025 C 
ENDROOT
BRANCH   1   7
ATOM      7  C   UNL     1     135.114 124.207 142.245  1.00  0.00    -0.032 C 
ATOM      8  C   UNL     1     136.054 124.249 143.474  1.00  0.00     0.011 C 
ATOM      9  C   UNL     1     134.569 125.633 141.994  1.00  0.00     0.011 C 
ATOM     10  C   UNL     1     133.925 123.285 142.611  1.00  0.00     0.011 C 
ENDBRANCH   1   7
BRANCH   4  11
ATOM     11  O   UNL     1     134.283 122.869 137.690  1.00  0.00    -0.389 OA
ATOM     12  H   UNL     1     134.418 123.333 136.822  1.00  0.00     0.211 HD
ENDBRANCH   4  11
TORSDOF 2
ENDMDL
MODEL 7
REMARK VINA RESULT:    -5.267      1.418      1.472
REMARK INTER + INTRA:          -5.948
REMARK INTER:                  -5.734
REMARK INTRA:                  -0.214
REMARK UNBOUND:                -0.219
REMARK SMILES CC(C)(C)[C@H]1C=C[C@@H](O)CC1
REMARK SMILES IDX 5 1 11 2 10 3 8 4 7 5 6 6 2 7 1 8 3 9 4 10 9 11
REMARK H PARENT 9 12
REMARK Flexibility Score: inf
ROOT
ATOM      1  C   UNL     1     135.708 123.267 140.181  1.00  0.00     0.017 C 
ATOM      2  C   UNL     1     134.364 122.541 140.463  1.00  0.00     0.011 C 
ATOM      3  C   UNL     1     134.036 122.551 141.958  1.00  0.00     0.037 C 
ATOM      4  C   UNL     1     133.884 123.988 142.466  1.00  0.00     0.137 C 
ATOM      5  C   UNL     1     135.047 124.848 142.040  1.00  0.00     0.000 C 
ATOM      6  C   UNL     1     135.816 124.567 140.973  1.00  0.00    -0.025 C 
ENDROOT
BRANCH   1   7
ATOM      7  C   UNL     1     136.002 123.469 138.643  1.00  0.00    -0.032 C 
ATOM      8  C   UNL     1     135.467 124.838 138.159  1.00  0.00     0.011 C 
ATOM      9  C   UNL     1     137.516 123.396 138.335  1.00  0.00     0.011 C 
ATOM     10  C   UNL     1     135.279 122.378 137.816  1.00  0.00     0.011 C 
ENDBRANCH   1   7
BRANCH   4  11
ATOM     11  O   UNL     1     132.688 124.536 141.975  1.00  0.00    -0.389 OA
ATOM     12  H   UNL     1     131.963 124.237 142.585  1.00  0.00     0.211 HD
ENDBRANCH   4  11
TORSDOF 2
ENDMDL
MODEL 8
REMARK VINA RESULT:    -4.812      2.014      3.317
REMARK INTER + INTRA:          -5.453
REMARK INTER:                  -5.239
REMARK INTRA:                  -0.214
REMARK UNBOUND:                -0.219
REMARK SMILES CC(C)(C)[C@H]1C=C[C@@H](O)CC1
REMARK SMILES IDX 5 1 11 2 10 3 8 4 7 5 6 6 2 7 1 8 3 9 4 10 9 11
REMARK H PARENT 9 12
REMARK Flexibility Score: inf
ROOT
ATOM      1  C   UNL     1     136.508 122.872 139.457  1.00  0.00     0.017 C 
ATOM      2  C   UNL     1     136.774 123.127 140.966  1.00  0.00     0.011 C 
ATOM      3  C   UNL     1     138.061 122.437 141.423  1.00  0.00     0.037 C 
ATOM      4  C   UNL     1     139.268 122.987 140.657  1.00  0.00     0.137 C 
ATOM      5  C   UNL     1     139.017 122.998 139.170  1.00  0.00     0.000 C 
ATOM      6  C   UNL     1     137.785 123.024 138.634  1.00  0.00    -0.025 C 
ENDROOT
BRANCH   1   7
ATOM      7  C   UNL     1     135.310 123.720 138.878  1.00  0.00    -0.032 C 
ATOM      8  C   UNL     1     135.797 125.119 138.428  1.00  0.00     0.011 C 
ATOM      9  C   UNL     1     134.642 123.020 137.672  1.00  0.00     0.011 C 
ATOM     10  C   UNL     1     134.237 123.942 139.973  1.00  0.00     0.011 C 
ENDBRANCH   1   7
BRANCH   4  11
ATOM     11  O   UNL     1     139.550 124.290 141.097  1.00  0.00    -0.389 OA
ATOM     12  H   UNL     1     140.486 124.285 141.427  1.00  0.00     0.211 HD
ENDBRANCH   4  11
TORSDOF 2
ENDMDL
MODEL 9
REMARK VINA RESULT:    -4.096      1.456      2.419
REMARK INTER + INTRA:          -4.674
REMARK INTER:                  -4.459
REMARK INTRA:                  -0.215
REMARK UNBOUND:                -0.219
REMARK SMILES CC(C)(C)[C@H]1C=C[C@@H](O)CC1
REMARK SMILES IDX 5 1 11 2 10 3 8 4 7 5 6 6 2 7 1 8 3 9 4 10 9 11
REMARK H PARENT 9 12
REMARK Flexibility Score: inf
ROOT
ATOM      1  C   UNL     1     136.091 124.120 140.755  1.00  0.00     0.017 C 
ATOM      2  C   UNL     1     136.232 123.264 142.043  1.00  0.00     0.011 C 
ATOM      3  C   UNL     1     135.270 123.746 143.131  1.00  0.00     0.037 C 
ATOM      4  C   UNL     1     133.818 123.614 142.663  1.00  0.00     0.137 C 
ATOM      5  C   UNL     1     133.623 124.219 141.295  1.00  0.00     0.000 C 
ATOM      6  C   UNL     1     134.626 124.375 140.413  1.00  0.00    -0.025 C 
ENDROOT
BRANCH   1   7
ATOM      7  C   UNL     1     136.908 123.549 139.530  1.00  0.00    -0.032 C 
ATOM      8  C   UNL     1     136.117 122.422 138.822  1.00  0.00     0.011 C 
ATOM      9  C   UNL     1     137.229 124.650 138.492  1.00  0.00     0.011 C 
ATOM     10  C   UNL     1     138.241 122.932 140.020  1.00  0.00     0.011 C 
ENDBRANCH   1   7
BRANCH   4  11
ATOM     11  O   UNL     1     133.455 122.258 142.633  1.00  0.00    -0.389 OA
ATOM     12  H   UNL     1     133.188 122.012 143.558  1.00  0.00     0.211 HD
ENDBRANCH   4  11
TORSDOF 2
ENDMDL
