MODEL 1
REMARK VINA RESULT:    -6.223      0.000      0.000
REMARK INTER + INTRA:          -6.856
REMARK INTER:                  -6.587
REMARK INTRA:                  -0.269
REMARK UNBOUND:                -0.269
REMARK SMILES CC1=C[C@@H]2C(=C(C)CC[C@H]2C(C)C)CC1
REMARK SMILES IDX 1 1 2 2 3 3 4 4 10 5 9 6 8 7 6 8 5 9 14 10 15 11 7 12 11 13
REMARK SMILES IDX 12 14 13 15
REMARK H PARENT
REMARK Flexibility Score: inf
ROOT
ATOM      1  C   UNL     1     141.614 147.286 158.924  1.00  0.00     0.039 C 
ATOM      2  C   UNL     1     142.161 147.888 160.188  1.00  0.00    -0.076 C 
ATOM      3  C   UNL     1     141.788 147.401 161.385  1.00  0.00    -0.020 C 
ATOM      4  C   UNL     1     142.379 147.983 162.656  1.00  0.00     0.041 C 
ATOM      5  C   UNL     1     142.012 147.133 163.903  1.00  0.00     0.003 C 
ATOM      6  C   UNL     1     142.905 147.555 165.084  1.00  0.00     0.009 C 
ATOM      7  C   UNL     1     144.369 147.288 164.753  1.00  0.00     0.031 C 
ATOM      8  C   UNL     1     144.791 147.897 163.435  1.00  0.00    -0.073 C 
ATOM      9  C   UNL     1     143.888 148.163 162.448  1.00  0.00    -0.064 C 
ATOM     10  C   UNL     1     144.350 148.704 161.094  1.00  0.00     0.036 C 
ATOM     11  C   UNL     1     143.178 149.005 160.144  1.00  0.00     0.035 C 
ATOM     12  C   UNL     1     146.274 148.086 163.208  1.00  0.00     0.039 C 
ENDROOT
BRANCH   5  13
ATOM     13  C   UNL     1     140.484 147.197 164.252  1.00  0.00    -0.013 C 
ATOM     14  C   UNL     1     139.992 145.871 164.854  1.00  0.00     0.007 C 
ATOM     15  C   UNL     1     140.098 148.366 165.175  1.00  0.00     0.007 C 
ENDBRANCH   5  13
TORSDOF 1
ENDMDL
MODEL 2
REMARK VINA RESULT:    -6.218      4.929      5.722
REMARK INTER + INTRA:          -6.850
REMARK INTER:                  -6.581
REMARK INTRA:                  -0.269
REMARK UNBOUND:                -0.269
REMARK SMILES CC1=C[C@@H]2C(=C(C)CC[C@H]2C(C)C)CC1
REMARK SMILES IDX 1 1 2 2 3 3 4 4 10 5 9 6 8 7 6 8 5 9 14 10 15 11 7 12 11 13
REMARK SMILES IDX 12 14 13 15
REMARK H PARENT
REMARK Flexibility Score: inf
ROOT
ATOM      1  C   UNL     1     143.511 141.604 158.911  1.00  0.00     0.039 C 
ATOM      2  C   UNL     1     142.901 142.149 160.172  1.00  0.00    -0.076 C 
ATOM      3  C   UNL     1     143.398 141.796 161.372  1.00  0.00    -0.020 C 
ATOM      4  C   UNL     1     142.807 142.387 162.638  1.00  0.00     0.041 C 
ATOM      5  C   UNL     1     143.668 142.048 163.887  1.00  0.00     0.003 C 
ATOM      6  C   UNL     1     143.231 142.942 165.061  1.00  0.00     0.009 C 
ATOM      7  C   UNL     1     143.468 144.408 164.717  1.00  0.00     0.031 C 
ATOM      8  C   UNL     1     142.847 144.806 163.396  1.00  0.00    -0.073 C 
ATOM      9  C   UNL     1     142.597 143.890 162.418  1.00  0.00    -0.064 C 
ATOM     10  C   UNL     1     142.044 144.330 161.061  1.00  0.00     0.036 C 
ATOM     11  C   UNL     1     141.764 143.143 160.123  1.00  0.00     0.035 C 
ATOM     12  C   UNL     1     142.628 146.283 163.157  1.00  0.00     0.039 C 
ENDROOT
BRANCH   5  13
ATOM     13  C   UNL     1     143.635 140.522 164.249  1.00  0.00    -0.013 C 
ATOM     14  C   UNL     1     144.963 140.066 164.873  1.00  0.00     0.007 C 
ATOM     15  C   UNL     1     142.463 140.115 165.159  1.00  0.00     0.007 C 
ENDBRANCH   5  13
TORSDOF 1
ENDMDL
MODEL 3
REMARK VINA RESULT:    -6.206      4.943      5.732
REMARK INTER + INTRA:          -6.838
REMARK INTER:                  -6.569
REMARK INTRA:                  -0.269
REMARK UNBOUND:                -0.269
REMARK SMILES CC1=C[C@@H]2C(=C(C)CC[C@H]2C(C)C)CC1
REMARK SMILES IDX 1 1 2 2 3 3 4 4 10 5 9 6 8 7 6 8 5 9 14 10 15 11 7 12 11 13
REMARK SMILES IDX 12 14 13 15
REMARK H PARENT
REMARK Flexibility Score: inf
ROOT
ATOM      1  C   UNL     1     147.247 149.167 158.948  1.00  0.00     0.039 C 
ATOM      2  C   UNL     1     147.871 148.625 160.203  1.00  0.00    -0.076 C 
ATOM      3  C   UNL     1     147.396 148.991 161.407  1.00  0.00    -0.020 C 
ATOM      4  C   UNL     1     148.001 148.404 162.669  1.00  0.00     0.041 C 
ATOM      5  C   UNL     1     147.163 148.760 163.928  1.00  0.00     0.003 C 
ATOM      6  C   UNL     1     147.609 147.870 165.102  1.00  0.00     0.009 C 
ATOM      7  C   UNL     1     147.353 146.403 164.772  1.00  0.00     0.031 C 
ATOM      8  C   UNL     1     147.951 145.990 163.445  1.00  0.00    -0.073 C 
ATOM      9  C   UNL     1     148.194 146.897 162.456  1.00  0.00    -0.064 C 
ATOM     10  C   UNL     1     148.722 146.443 161.095  1.00  0.00     0.036 C 
ATOM     11  C   UNL     1     148.999 147.620 160.144  1.00  0.00     0.035 C 
ATOM     12  C   UNL     1     148.152 144.509 163.213  1.00  0.00     0.039 C 
ENDROOT
BRANCH   5  13
ATOM     13  C   UNL     1     147.215 150.288 164.278  1.00  0.00    -0.013 C 
ATOM     14  C   UNL     1     145.880 150.774 164.863  1.00  0.00     0.007 C 
ATOM     15  C   UNL     1     148.370 150.679 165.217  1.00  0.00     0.007 C 
ENDBRANCH   5  13
TORSDOF 1
ENDMDL
MODEL 4
REMARK VINA RESULT:    -6.199      5.982      8.093
REMARK INTER + INTRA:          -6.831
REMARK INTER:                  -6.563
REMARK INTRA:                  -0.268
REMARK UNBOUND:                -0.269
REMARK SMILES CC1=C[C@@H]2C(=C(C)CC[C@H]2C(C)C)CC1
REMARK SMILES IDX 1 1 2 2 3 3 4 4 10 5 9 6 8 7 6 8 5 9 14 10 15 11 7 12 11 13
REMARK SMILES IDX 12 14 13 15
REMARK H PARENT
REMARK Flexibility Score: inf
ROOT
ATOM      1  C   UNL     1     149.138 143.503 158.889  1.00  0.00     0.039 C 
ATOM      2  C   UNL     1     148.595 142.877 160.143  1.00  0.00    -0.076 C 
ATOM      3  C   UNL     1     148.956 143.354 161.348  1.00  0.00    -0.020 C 
ATOM      4  C   UNL     1     148.367 142.746 162.608  1.00  0.00     0.041 C 
ATOM      5  C   UNL     1     148.716 143.586 163.869  1.00  0.00     0.003 C 
ATOM      6  C   UNL     1     147.824 143.137 165.040  1.00  0.00     0.009 C 
ATOM      7  C   UNL     1     146.358 143.387 164.706  1.00  0.00     0.031 C 
ATOM      8  C   UNL     1     145.951 142.788 163.377  1.00  0.00    -0.073 C 
ATOM      9  C   UNL     1     146.862 142.549 162.391  1.00  0.00    -0.064 C 
ATOM     10  C   UNL     1     146.413 142.018 161.028  1.00  0.00     0.036 C 
ATOM     11  C   UNL     1     147.594 141.745 160.081  1.00  0.00     0.035 C 
ATOM     12  C   UNL     1     144.472 142.582 163.142  1.00  0.00     0.039 C 
ENDROOT
BRANCH   5  13
ATOM     13  C   UNL     1     150.244 143.540 164.223  1.00  0.00    -0.013 C 
ATOM     14  C   UNL     1     150.741 144.900 164.737  1.00  0.00     0.007 C 
ATOM     15  C   UNL     1     150.624 142.433 165.222  1.00  0.00     0.007 C 
ENDBRANCH   5  13
TORSDOF 1
ENDMDL
MODEL 5
REMARK VINA RESULT:    -6.174      4.111      5.278
REMARK INTER + INTRA:          -6.804
REMARK INTER:                  -6.511
REMARK INTRA:                  -0.293
REMARK UNBOUND:                -0.269
REMARK SMILES CC1=C[C@@H]2C(=C(C)CC[C@H]2C(C)C)CC1
REMARK SMILES IDX 1 1 2 2 3 3 4 4 10 5 9 6 8 7 6 8 5 9 14 10 15 11 7 12 11 13
REMARK SMILES IDX 12 14 13 15
REMARK H PARENT
REMARK Flexibility Score: inf
ROOT
ATOM      1  C   UNL     1     140.531 145.363 162.402  1.00  0.00     0.039 C 
ATOM      2  C   UNL     1     141.562 144.997 163.433  1.00  0.00    -0.076 C 
ATOM      3  C   UNL     1     142.378 143.946 163.230  1.00  0.00    -0.020 C 
ATOM      4  C   UNL     1     143.447 143.611 164.253  1.00  0.00     0.041 C 
ATOM      5  C   UNL     1     144.429 142.529 163.725  1.00  0.00     0.003 C 
ATOM      6  C   UNL     1     145.669 142.482 164.636  1.00  0.00     0.009 C 
ATOM      7  C   UNL     1     146.393 143.823 164.602  1.00  0.00     0.031 C 
ATOM      8  C   UNL     1     145.476 144.990 164.897  1.00  0.00    -0.073 C 
ATOM      9  C   UNL     1     144.131 144.915 164.681  1.00  0.00    -0.064 C 
ATOM     10  C   UNL     1     143.237 146.135 164.910  1.00  0.00     0.036 C 
ATOM     11  C   UNL     1     141.747 145.828 164.682  1.00  0.00     0.035 C 
ATOM     12  C   UNL     1     146.128 146.286 165.323  1.00  0.00     0.039 C 
ENDROOT
BRANCH   5  13
ATOM     13  C   UNL     1     143.751 141.124 163.559  1.00  0.00    -0.013 C 
ATOM     14  C   UNL     1     144.742 140.084 163.015  1.00  0.00     0.007 C 
ATOM     15  C   UNL     1     143.086 140.592 164.841  1.00  0.00     0.007 C 
ENDBRANCH   5  13
TORSDOF 1
ENDMDL
MODEL 6
REMARK VINA RESULT:    -6.168      4.025      6.346
REMARK INTER + INTRA:          -6.798
REMARK INTER:                  -6.624
REMARK INTRA:                  -0.174
REMARK UNBOUND:                -0.269
REMARK SMILES CC1=C[C@@H]2C(=C(C)CC[C@H]2C(C)C)CC1
REMARK SMILES IDX 1 1 2 2 3 3 4 4 10 5 9 6 8 7 6 8 5 9 14 10 15 11 7 12 11 13
REMARK SMILES IDX 12 14 13 15
REMARK H PARENT
REMARK Flexibility Score: inf
ROOT
ATOM      1  C   UNL     1     143.758 140.913 164.874  1.00  0.00     0.039 C 
ATOM      2  C   UNL     1     143.525 142.252 164.232  1.00  0.00    -0.076 C 
ATOM      3  C   UNL     1     143.131 142.326 162.947  1.00  0.00    -0.020 C 
ATOM      4  C   UNL     1     142.854 143.679 162.319  1.00  0.00     0.041 C 
ATOM      5  C   UNL     1     142.183 143.539 160.924  1.00  0.00     0.003 C 
ATOM      6  C   UNL     1     141.615 144.903 160.496  1.00  0.00     0.009 C 
ATOM      7  C   UNL     1     140.545 145.357 161.483  1.00  0.00     0.031 C 
ATOM      8  C   UNL     1     141.025 145.331 162.918  1.00  0.00    -0.073 C 
ATOM      9  C   UNL     1     142.045 144.518 163.316  1.00  0.00    -0.064 C 
ATOM     10  C   UNL     1     142.457 144.450 164.787  1.00  0.00     0.036 C 
ATOM     11  C   UNL     1     143.671 143.533 165.021  1.00  0.00     0.035 C 
ATOM     12  C   UNL     1     140.244 146.152 163.919  1.00  0.00     0.039 C 
ENDROOT
BRANCH   5  13
ATOM     13  C   UNL     1     143.144 142.923 159.849  1.00  0.00    -0.013 C 
ATOM     14  C   UNL     1     142.816 141.445 159.585  1.00  0.00     0.007 C 
ATOM     15  C   UNL     1     143.177 143.696 158.518  1.00  0.00     0.007 C 
ENDBRANCH   5  13
TORSDOF 1
ENDMDL
MODEL 7
REMARK VINA RESULT:    -6.159      3.584      6.231
REMARK INTER + INTRA:          -6.788
REMARK INTER:                  -6.496
REMARK INTRA:                  -0.293
REMARK UNBOUND:                -0.269
REMARK SMILES CC1=C[C@@H]2C(=C(C)CC[C@H]2C(C)C)CC1
REMARK SMILES IDX 1 1 2 2 3 3 4 4 10 5 9 6 8 7 6 8 5 9 14 10 15 11 7 12 11 13
REMARK SMILES IDX 12 14 13 15
REMARK H PARENT
REMARK Flexibility Score: inf
ROOT
ATOM      1  C   UNL     1     150.219 145.391 162.395  1.00  0.00     0.039 C 
ATOM      2  C   UNL     1     149.184 145.749 163.425  1.00  0.00    -0.076 C 
ATOM      3  C   UNL     1     148.365 146.797 163.224  1.00  0.00    -0.020 C 
ATOM      4  C   UNL     1     147.292 147.124 164.247  1.00  0.00     0.041 C 
ATOM      5  C   UNL     1     146.306 148.204 163.720  1.00  0.00     0.003 C 
ATOM      6  C   UNL     1     145.065 148.243 164.630  1.00  0.00     0.009 C 
ATOM      7  C   UNL     1     144.347 146.899 164.591  1.00  0.00     0.031 C 
ATOM      8  C   UNL     1     145.269 145.735 164.883  1.00  0.00    -0.073 C 
ATOM      9  C   UNL     1     146.613 145.816 164.670  1.00  0.00    -0.064 C 
ATOM     10  C   UNL     1     147.512 144.600 164.896  1.00  0.00     0.036 C 
ATOM     11  C   UNL     1     149.002 144.914 164.672  1.00  0.00     0.035 C 
ATOM     12  C   UNL     1     144.622 144.435 165.305  1.00  0.00     0.039 C 
ENDROOT
BRANCH   5  13
ATOM     13  C   UNL     1     146.979 149.612 163.560  1.00  0.00    -0.013 C 
ATOM     14  C   UNL     1     145.978 150.655 163.039  1.00  0.00     0.007 C 
ATOM     15  C   UNL     1     147.659 150.134 164.838  1.00  0.00     0.007 C 
ENDBRANCH   5  13
TORSDOF 1
ENDMDL
MODEL 8
REMARK VINA RESULT:    -6.138      4.785      7.405
REMARK INTER + INTRA:          -6.766
REMARK INTER:                  -6.473
REMARK INTRA:                  -0.293
REMARK UNBOUND:                -0.269
REMARK SMILES CC1=C[C@@H]2C(=C(C)CC[C@H]2C(C)C)CC1
REMARK SMILES IDX 1 1 2 2 3 3 4 4 10 5 9 6 8 7 6 8 5 9 14 10 15 11 7 12 11 13
REMARK SMILES IDX 12 14 13 15
REMARK H PARENT
REMARK Flexibility Score: inf
ROOT
ATOM      1  C   UNL     1     145.378 140.526 162.408  1.00  0.00     0.039 C 
ATOM      2  C   UNL     1     145.728 141.571 163.430  1.00  0.00    -0.076 C 
ATOM      3  C   UNL     1     146.777 142.389 163.228  1.00  0.00    -0.020 C 
ATOM      4  C   UNL     1     147.096 143.472 164.242  1.00  0.00     0.041 C 
ATOM      5  C   UNL     1     148.179 144.453 163.713  1.00  0.00     0.003 C 
ATOM      6  C   UNL     1     148.211 145.704 164.610  1.00  0.00     0.009 C 
ATOM      7  C   UNL     1     146.866 146.421 164.554  1.00  0.00     0.031 C 
ATOM      8  C   UNL     1     145.701 145.501 164.848  1.00  0.00    -0.073 C 
ATOM      9  C   UNL     1     145.785 144.155 164.649  1.00  0.00    -0.064 C 
ATOM     10  C   UNL     1     144.567 143.257 164.876  1.00  0.00     0.036 C 
ATOM     11  C   UNL     1     144.884 141.766 164.669  1.00  0.00     0.035 C 
ATOM     12  C   UNL     1     144.398 146.152 165.253  1.00  0.00     0.039 C 
ENDROOT
BRANCH   5  13
ATOM     13  C   UNL     1     149.589 143.780 163.570  1.00  0.00    -0.013 C 
ATOM     14  C   UNL     1     150.630 144.771 163.026  1.00  0.00     0.007 C 
ATOM     15  C   UNL     1     150.111 143.131 164.864  1.00  0.00     0.007 C 
ENDBRANCH   5  13
TORSDOF 1
ENDMDL
MODEL 9
REMARK VINA RESULT:    -6.137      2.156      3.385
REMARK INTER + INTRA:          -6.765
REMARK INTER:                  -6.472
REMARK INTRA:                  -0.292
REMARK UNBOUND:                -0.269
REMARK SMILES CC1=C[C@@H]2C(=C(C)CC[C@H]2C(C)C)CC1
REMARK SMILES IDX 1 1 2 2 3 3 4 4 10 5 9 6 8 7 6 8 5 9 14 10 15 11 7 12 11 13
REMARK SMILES IDX 12 14 13 15
REMARK H PARENT
REMARK Flexibility Score: inf
ROOT
ATOM      1  C   UNL     1     145.373 150.229 162.416  1.00  0.00     0.039 C 
ATOM      2  C   UNL     1     145.022 149.184 163.437  1.00  0.00    -0.076 C 
ATOM      3  C   UNL     1     143.970 148.368 163.236  1.00  0.00    -0.020 C 
ATOM      4  C   UNL     1     143.649 147.285 164.250  1.00  0.00     0.041 C 
ATOM      5  C   UNL     1     142.563 146.307 163.722  1.00  0.00     0.003 C 
ATOM      6  C   UNL     1     142.529 145.056 164.618  1.00  0.00     0.009 C 
ATOM      7  C   UNL     1     143.872 144.336 164.560  1.00  0.00     0.031 C 
ATOM      8  C   UNL     1     145.040 145.252 164.853  1.00  0.00    -0.073 C 
ATOM      9  C   UNL     1     144.960 146.599 164.655  1.00  0.00    -0.064 C 
ATOM     10  C   UNL     1     146.180 147.494 164.881  1.00  0.00     0.036 C 
ATOM     11  C   UNL     1     145.866 148.986 164.675  1.00  0.00     0.035 C 
ATOM     12  C   UNL     1     146.342 144.598 165.257  1.00  0.00     0.039 C 
ENDROOT
BRANCH   5  13
ATOM     13  C   UNL     1     141.155 146.984 163.580  1.00  0.00    -0.013 C 
ATOM     14  C   UNL     1     140.112 145.997 163.034  1.00  0.00     0.007 C 
ATOM     15  C   UNL     1     140.635 147.630 164.876  1.00  0.00     0.007 C 
ENDBRANCH   5  13
TORSDOF 1
ENDMDL
