MODEL 1
REMARK VINA RESULT:    -7.540      0.000      0.000
REMARK INTER + INTRA:         -11.793
REMARK INTER:                 -10.845
REMARK INTRA:                  -0.947
REMARK UNBOUND:                -0.947
REMARK SMILES O=c1cc(-c2ccc(O)c(O)c2)oc2cc(O[C@H]3O[C@H](CO)[C@H](O)[C@@H](O)[C@H]3O)cc(O)c12
REMARK SMILES IDX 17 1 16 2 4 3 3 4 13 5 2 6 14 7 1 8 32 9 15 10 30 11 29 12
REMARK SMILES IDX 5 13 6 14 7 15 8 16 12 17 10 18 9 19 11 21 31 23 18 25 27 26
REMARK SMILES IDX 19 27 25 28 20 29 23 30 28 31 26 33 21 35 22 36 24 38
REMARK H PARENT 9 20 11 22 31 24 28 32 26 34 22 37 24 39
REMARK Flexibility Score: inf
ROOT
ATOM      1  O   UNL     1      23.789   2.675 102.791  1.00  0.00    -0.462 OA
ENDROOT
BRANCH   1   2
ATOM      2  C   UNL     1      25.003   1.990 102.957  1.00  0.00     0.130 A 
ATOM      3  C   UNL     1      29.727   2.396 103.433  1.00  0.00     0.138 A 
ATOM      4  C   UNL     1      29.916   1.007 103.458  1.00  0.00     0.100 A 
ATOM      5  O   UNL     1      28.496   2.883 103.316  1.00  0.00    -0.456 OA
ATOM      6  C   UNL     1      28.812   0.159 103.359  1.00  0.00     0.197 A 
ATOM      7  C   UNL     1      27.411   2.120 103.225  1.00  0.00     0.146 A 
ATOM      8  O   UNL     1      29.020  -1.082 103.328  1.00  0.00    -0.289 OA
ATOM      9  C   UNL     1      27.510   0.705 103.271  1.00  0.00     0.107 A 
ATOM     10  C   UNL     1      26.171   2.742 103.073  1.00  0.00     0.094 A 
ATOM     11  C   UNL     1      26.309  -0.061 103.199  1.00  0.00     0.134 A 
ATOM     12  C   UNL     1      25.083   0.590 103.013  1.00  0.00     0.093 A 
BRANCH   3  13
ATOM     13  C   UNL     1      30.864   3.346 103.537  1.00  0.00     0.021 A 
ATOM     14  C   UNL     1      30.891   4.362 104.509  1.00  0.00     0.016 A 
ATOM     15  C   UNL     1      31.979   5.233 104.589  1.00  0.00     0.051 A 
ATOM     16  C   UNL     1      33.063   5.107 103.715  1.00  0.00     0.157 A 
ATOM     17  C   UNL     1      31.960   3.211 102.667  1.00  0.00     0.062 A 
ATOM     18  C   UNL     1      33.055   4.081 102.742  1.00  0.00     0.158 A 
BRANCH  16  19
ATOM     19  O   UNL     1      34.118   6.013 103.848  1.00  0.00    -0.504 OA
ATOM     20  H   UNL     1      34.890   5.890 104.487  1.00  0.00     0.293 HD
ENDBRANCH  16  19
BRANCH  18  21
ATOM     21  O   UNL     1      34.102   3.889 101.838  1.00  0.00    -0.504 OA
ATOM     22  H   UNL     1      34.711   3.084 101.842  1.00  0.00     0.293 HD
ENDBRANCH  18  21
ENDBRANCH   3  13
BRANCH  11  23
ATOM     23  O   UNL     1      26.260  -1.452 103.327  1.00  0.00    -0.507 OA
ATOM     24  H   UNL     1      25.844  -2.082 102.659  1.00  0.00     0.293 HD
ENDBRANCH  11  23
ENDBRANCH   1   2
BRANCH   1  25
ATOM     25  C   UNL     1      23.473   3.946 103.367  1.00  0.00     0.339 C 
ATOM     26  C   UNL     1      22.328   3.814 104.421  1.00  0.00     0.214 C 
ATOM     27  O   UNL     1      23.190   4.899 102.348  1.00  0.00    -0.332 OA
ATOM     28  C   UNL     1      21.297   4.955 104.264  1.00  0.00     0.180 C 
ATOM     29  C   UNL     1      21.908   4.681 101.788  1.00  0.00     0.179 C 
ATOM     30  C   UNL     1      20.797   5.097 102.799  1.00  0.00     0.177 C 
BRANCH  26  31
ATOM     31  O   UNL     1      21.716   2.546 104.377  1.00  0.00    -0.384 OA
ATOM     32  H   UNL     1      22.426   1.862 104.275  1.00  0.00     0.211 HD
ENDBRANCH  26  31
BRANCH  28  33
ATOM     33  O   UNL     1      20.225   4.812 105.164  1.00  0.00    -0.387 OA
ATOM     34  H   UNL     1      20.455   5.307 105.993  1.00  0.00     0.211 HD
ENDBRANCH  28  33
BRANCH  29  35
ATOM     35  C   UNL     1      21.807   5.387 100.424  1.00  0.00     0.191 C 
BRANCH  35  36
ATOM     36  O   UNL     1      20.522   5.264  99.872  1.00  0.00    -0.394 OA
ATOM     37  H   UNL     1      19.893   5.142 100.630  1.00  0.00     0.210 HD
ENDBRANCH  35  36
ENDBRANCH  29  35
BRANCH  30  38
ATOM     38  O   UNL     1      20.320   6.401 102.572  1.00  0.00    -0.387 OA
ATOM     39  H   UNL     1      19.329   6.358 102.525  1.00  0.00     0.211 HD
ENDBRANCH  30  38
ENDBRANCH   1  25
TORSDOF 11
ENDMDL
MODEL 2
REMARK VINA RESULT:    -7.360      1.453      8.968
REMARK INTER + INTRA:         -11.534
REMARK INTER:                 -10.993
REMARK INTRA:                  -0.541
REMARK UNBOUND:                -0.947
REMARK SMILES O=c1cc(-c2ccc(O)c(O)c2)oc2cc(O[C@H]3O[C@H](CO)[C@H](O)[C@@H](O)[C@H]3O)cc(O)c12
REMARK SMILES IDX 17 1 16 2 4 3 3 4 13 5 2 6 14 7 1 8 32 9 15 10 30 11 29 12
REMARK SMILES IDX 5 13 6 14 7 15 8 16 12 17 10 18 9 19 11 21 31 23 18 25 27 26
REMARK SMILES IDX 19 27 25 28 20 29 23 30 28 31 26 33 21 35 22 36 24 38
REMARK H PARENT 9 20 11 22 31 24 28 32 26 34 22 37 24 39
REMARK Flexibility Score: inf
ROOT
ATOM      1  O   UNL     1      30.019   2.909 103.327  1.00  0.00    -0.462 OA
ENDROOT
BRANCH   1   2
ATOM      2  C   UNL     1      28.778   2.268 103.183  1.00  0.00     0.130 A 
ATOM      3  C   UNL     1      24.049   2.823 103.003  1.00  0.00     0.138 A 
ATOM      4  C   UNL     1      23.819   1.445 102.891  1.00  0.00     0.100 A 
ATOM      5  O   UNL     1      25.298   3.271 103.084  1.00  0.00    -0.456 OA
ATOM      6  C   UNL     1      24.901   0.565 102.868  1.00  0.00     0.197 A 
ATOM      7  C   UNL     1      26.363   2.476 103.060  1.00  0.00     0.146 A 
ATOM      8  O   UNL     1      24.660  -0.669 102.824  1.00  0.00    -0.289 OA
ATOM      9  C   UNL     1      26.222   1.071 102.921  1.00  0.00     0.107 A 
ATOM     10  C   UNL     1      27.628   3.055 103.185  1.00  0.00     0.094 A 
ATOM     11  C   UNL     1      27.402   0.272 102.871  1.00  0.00     0.134 A 
ATOM     12  C   UNL     1      28.655   0.877 103.034  1.00  0.00     0.093 A 
BRANCH   3  13
ATOM     13  C   UNL     1      22.935   3.806 103.029  1.00  0.00     0.021 A 
ATOM     14  C   UNL     1      22.667   4.648 101.935  1.00  0.00     0.016 A 
ATOM     15  C   UNL     1      21.607   5.554 101.985  1.00  0.00     0.051 A 
ATOM     16  C   UNL     1      20.788   5.637 103.116  1.00  0.00     0.157 A 
ATOM     17  C   UNL     1      22.105   3.880 104.160  1.00  0.00     0.062 A 
ATOM     18  C   UNL     1      21.039   4.787 104.218  1.00  0.00     0.158 A 
BRANCH  16  19
ATOM     19  O   UNL     1      19.747   6.567 103.102  1.00  0.00    -0.504 OA
ATOM     20  H   UNL     1      19.174   6.762 102.293  1.00  0.00     0.293 HD
ENDBRANCH  16  19
BRANCH  18  21
ATOM     21  O   UNL     1      20.264   4.808 105.379  1.00  0.00    -0.504 OA
ATOM     22  H   UNL     1      20.449   4.238 106.191  1.00  0.00     0.293 HD
ENDBRANCH  18  21
ENDBRANCH   3  13
BRANCH  11  23
ATOM     23  O   UNL     1      27.404  -1.107 102.644  1.00  0.00    -0.507 OA
ATOM     24  H   UNL     1      26.595  -1.707 102.708  1.00  0.00     0.293 HD
ENDBRANCH  11  23
ENDBRANCH   1   2
BRANCH   1  25
ATOM     25  C   UNL     1      30.838   2.864 104.498  1.00  0.00     0.339 C 
ATOM     26  C   UNL     1      30.458   4.008 105.492  1.00  0.00     0.214 C 
ATOM     27  O   UNL     1      32.217   2.866 104.142  1.00  0.00    -0.332 OA
ATOM     28  C   UNL     1      31.723   4.681 106.071  1.00  0.00     0.180 C 
ATOM     29  C   UNL     1      32.635   4.155 103.732  1.00  0.00     0.179 C 
ATOM     30  C   UNL     1      32.719   5.114 104.959  1.00  0.00     0.177 C 
BRANCH  26  31
ATOM     31  O   UNL     1      29.586   4.946 104.906  1.00  0.00    -0.384 OA
ATOM     32  H   UNL     1      30.064   5.388 104.158  1.00  0.00     0.211 HD
ENDBRANCH  26  31
BRANCH  28  33
ATOM     33  O   UNL     1      31.396   5.756 106.918  1.00  0.00    -0.387 OA
ATOM     34  H   UNL     1      32.199   6.330 107.007  1.00  0.00     0.211 HD
ENDBRANCH  28  33
BRANCH  29  35
ATOM     35  C   UNL     1      33.947   4.049 102.933  1.00  0.00     0.191 C 
BRANCH  35  36
ATOM     36  O   UNL     1      33.775   4.456 101.601  1.00  0.00    -0.394 OA
ATOM     37  H   UNL     1      33.529   5.417 101.623  1.00  0.00     0.210 HD
ENDBRANCH  35  36
ENDBRANCH  29  35
BRANCH  30  38
ATOM     38  O   UNL     1      34.022   5.210 105.482  1.00  0.00    -0.387 OA
ATOM     39  H   UNL     1      34.168   4.431 106.079  1.00  0.00     0.211 HD
ENDBRANCH  30  38
ENDBRANCH   1  25
TORSDOF 11
ENDMDL
MODEL 3
REMARK VINA RESULT:    -7.339      1.726      9.066
REMARK INTER + INTRA:         -11.504
REMARK INTER:                 -10.523
REMARK INTRA:                  -0.981
REMARK UNBOUND:                -0.947
REMARK SMILES O=c1cc(-c2ccc(O)c(O)c2)oc2cc(O[C@H]3O[C@H](CO)[C@H](O)[C@@H](O)[C@H]3O)cc(O)c12
REMARK SMILES IDX 17 1 16 2 4 3 3 4 13 5 2 6 14 7 1 8 32 9 15 10 30 11 29 12
REMARK SMILES IDX 5 13 6 14 7 15 8 16 12 17 10 18 9 19 11 21 31 23 18 25 27 26
REMARK SMILES IDX 19 27 25 28 20 29 23 30 28 31 26 33 21 35 22 36 24 38
REMARK H PARENT 9 20 11 22 31 24 28 32 26 34 22 37 24 39
REMARK Flexibility Score: inf
ROOT
ATOM      1  O   UNL     1      30.026   2.657 103.460  1.00  0.00    -0.462 OA
ENDROOT
BRANCH   1   2
ATOM      2  C   UNL     1      28.775   2.043 103.290  1.00  0.00     0.130 A 
ATOM      3  C   UNL     1      24.063   2.697 103.028  1.00  0.00     0.138 A 
ATOM      4  C   UNL     1      23.807   1.324 102.905  1.00  0.00     0.100 A 
ATOM      5  O   UNL     1      25.319   3.118 103.134  1.00  0.00    -0.456 OA
ATOM      6  C   UNL     1      24.871   0.422 102.897  1.00  0.00     0.197 A 
ATOM      7  C   UNL     1      26.368   2.302 103.125  1.00  0.00     0.146 A 
ATOM      8  O   UNL     1      24.605  -0.807 102.842  1.00  0.00    -0.289 OA
ATOM      9  C   UNL     1      26.200   0.900 102.976  1.00  0.00     0.107 A 
ATOM     10  C   UNL     1      27.642   2.853 103.276  1.00  0.00     0.094 A 
ATOM     11  C   UNL     1      27.365   0.078 102.943  1.00  0.00     0.134 A 
ATOM     12  C   UNL     1      28.627   0.656 103.131  1.00  0.00     0.093 A 
BRANCH   3  13
ATOM     13  C   UNL     1      22.970   3.702 103.039  1.00  0.00     0.021 A 
ATOM     14  C   UNL     1      22.748   4.565 101.951  1.00  0.00     0.016 A 
ATOM     15  C   UNL     1      21.706   5.493 101.987  1.00  0.00     0.051 A 
ATOM     16  C   UNL     1      20.859   5.576 103.097  1.00  0.00     0.157 A 
ATOM     17  C   UNL     1      22.110   3.777 104.149  1.00  0.00     0.062 A 
ATOM     18  C   UNL     1      21.062   4.705 104.192  1.00  0.00     0.158 A 
BRANCH  16  19
ATOM     19  O   UNL     1      19.837   6.528 103.069  1.00  0.00    -0.504 OA
ATOM     20  H   UNL     1      19.079   6.562 103.734  1.00  0.00     0.293 HD
ENDBRANCH  16  19
BRANCH  18  21
ATOM     21  O   UNL     1      20.256   4.725 105.332  1.00  0.00    -0.504 OA
ATOM     22  H   UNL     1      19.705   5.521 105.620  1.00  0.00     0.293 HD
ENDBRANCH  18  21
ENDBRANCH   3  13
BRANCH  11  23
ATOM     23  O   UNL     1      27.342  -1.301 102.709  1.00  0.00    -0.507 OA
ATOM     24  H   UNL     1      27.905  -1.981 103.195  1.00  0.00     0.293 HD
ENDBRANCH  11  23
ENDBRANCH   1   2
BRANCH   1  25
ATOM     25  C   UNL     1      30.248   3.908 104.118  1.00  0.00     0.339 C 
ATOM     26  C   UNL     1      31.477   4.653 103.504  1.00  0.00     0.214 C 
ATOM     27  O   UNL     1      30.352   3.720 105.525  1.00  0.00    -0.332 OA
ATOM     28  C   UNL     1      32.366   5.259 104.613  1.00  0.00     0.180 C 
ATOM     29  C   UNL     1      31.605   3.159 105.873  1.00  0.00     0.179 C 
ATOM     30  C   UNL     1      32.738   4.216 105.703  1.00  0.00     0.177 C 
BRANCH  26  31
ATOM     31  O   UNL     1      32.214   3.825 102.635  1.00  0.00    -0.384 OA
ATOM     32  H   UNL     1      32.523   4.375 101.871  1.00  0.00     0.211 HD
ENDBRANCH  26  31
BRANCH  28  33
ATOM     33  O   UNL     1      33.511   5.877 104.077  1.00  0.00    -0.387 OA
ATOM     34  H   UNL     1      34.304   5.356 104.367  1.00  0.00     0.211 HD
ENDBRANCH  28  33
BRANCH  29  35
ATOM     35  C   UNL     1      31.529   2.546 107.284  1.00  0.00     0.191 C 
BRANCH  35  36
ATOM     36  O   UNL     1      30.830   3.378 108.171  1.00  0.00    -0.394 OA
ATOM     37  H   UNL     1      30.150   3.864 107.636  1.00  0.00     0.210 HD
ENDBRANCH  35  36
ENDBRANCH  29  35
BRANCH  30  38
ATOM     38  O   UNL     1      33.057   4.866 106.910  1.00  0.00    -0.387 OA
ATOM     39  H   UNL     1      32.311   5.481 107.130  1.00  0.00     0.211 HD
ENDBRANCH  30  38
ENDBRANCH   1  25
TORSDOF 11
ENDMDL
MODEL 4
REMARK VINA RESULT:    -7.319      4.078      8.718
REMARK INTER + INTRA:         -11.475
REMARK INTER:                 -10.499
REMARK INTRA:                  -0.977
REMARK UNBOUND:                -0.947
REMARK SMILES O=c1cc(-c2ccc(O)c(O)c2)oc2cc(O[C@H]3O[C@H](CO)[C@H](O)[C@@H](O)[C@H]3O)cc(O)c12
REMARK SMILES IDX 17 1 16 2 4 3 3 4 13 5 2 6 14 7 1 8 32 9 15 10 30 11 29 12
REMARK SMILES IDX 5 13 6 14 7 15 8 16 12 17 10 18 9 19 11 21 31 23 18 25 27 26
REMARK SMILES IDX 19 27 25 28 20 29 23 30 28 31 26 33 21 35 22 36 24 38
REMARK H PARENT 9 20 11 22 31 24 28 32 26 34 22 37 24 39
REMARK Flexibility Score: inf
ROOT
ATOM      1  O   UNL     1      24.064  -3.400 102.515  1.00  0.00    -0.462 OA
ENDROOT
BRANCH   1   2
ATOM      2  C   UNL     1      24.647  -2.130 102.659  1.00  0.00     0.130 A 
ATOM      3  C   UNL     1      23.858   2.558 102.982  1.00  0.00     0.138 A 
ATOM      4  C   UNL     1      25.226   2.857 103.033  1.00  0.00     0.100 A 
ATOM      5  O   UNL     1      23.472   1.289 102.892  1.00  0.00    -0.456 OA
ATOM      6  C   UNL     1      26.161   1.822 102.987  1.00  0.00     0.197 A 
ATOM      7  C   UNL     1      24.321   0.266 102.851  1.00  0.00     0.146 A 
ATOM      8  O   UNL     1      27.382   2.128 102.978  1.00  0.00    -0.289 OA
ATOM      9  C   UNL     1      25.722   0.479 102.926  1.00  0.00     0.107 A 
ATOM     10  C   UNL     1      23.802  -1.023 102.723  1.00  0.00     0.094 A 
ATOM     11  C   UNL     1      26.582  -0.659 102.908  1.00  0.00     0.134 A 
ATOM     12  C   UNL     1      26.034  -1.938 102.744  1.00  0.00     0.093 A 
BRANCH   3  13
ATOM     13  C   UNL     1      22.819   3.618 103.031  1.00  0.00     0.021 A 
ATOM     14  C   UNL     1      22.606   4.494 101.952  1.00  0.00     0.016 A 
ATOM     15  C   UNL     1      21.614   5.474 102.023  1.00  0.00     0.051 A 
ATOM     16  C   UNL     1      20.810   5.598 103.161  1.00  0.00     0.157 A 
ATOM     17  C   UNL     1      22.002   3.734 104.169  1.00  0.00     0.062 A 
ATOM     18  C   UNL     1      21.005   4.715 104.248  1.00  0.00     0.158 A 
BRANCH  16  19
ATOM     19  O   UNL     1      19.839   6.601 103.168  1.00  0.00    -0.504 OA
ATOM     20  H   UNL     1      19.014   6.585 103.751  1.00  0.00     0.293 HD
ENDBRANCH  16  19
BRANCH  18  21
ATOM     21  O   UNL     1      20.240   4.773 105.414  1.00  0.00    -0.504 OA
ATOM     22  H   UNL     1      19.234   4.847 105.426  1.00  0.00     0.293 HD
ENDBRANCH  18  21
ENDBRANCH   3  13
BRANCH  11  23
ATOM     23  O   UNL     1      27.969  -0.593 103.069  1.00  0.00    -0.507 OA
ATOM     24  H   UNL     1      28.611  -1.348 102.883  1.00  0.00     0.293 HD
ENDBRANCH  11  23
ENDBRANCH   1   2
BRANCH   1  25
ATOM     25  C   UNL     1      22.720  -3.647 102.094  1.00  0.00     0.339 C 
ATOM     26  C   UNL     1      22.165  -4.960 102.735  1.00  0.00     0.214 C 
ATOM     27  O   UNL     1      22.633  -3.637 100.673  1.00  0.00    -0.332 OA
ATOM     28  C   UNL     1      21.393  -5.801 101.692  1.00  0.00     0.180 C 
ATOM     29  C   UNL     1      23.170  -4.825 100.121  1.00  0.00     0.179 C 
ATOM     30  C   UNL     1      22.218  -6.029 100.395  1.00  0.00     0.177 C 
BRANCH  26  31
ATOM     31  O   UNL     1      23.179  -5.708 103.364  1.00  0.00    -0.384 OA
ATOM     32  H   UNL     1      22.756  -6.297 104.040  1.00  0.00     0.211 HD
ENDBRANCH  26  31
BRANCH  28  33
ATOM     33  O   UNL     1      20.943  -7.017 102.239  1.00  0.00    -0.387 OA
ATOM     34  H   UNL     1      20.350  -7.450 101.573  1.00  0.00     0.211 HD
ENDBRANCH  28  33
BRANCH  29  35
ATOM     35  C   UNL     1      23.490  -4.610  98.630  1.00  0.00     0.191 C 
BRANCH  35  36
ATOM     36  O   UNL     1      22.514  -3.823  98.000  1.00  0.00    -0.394 OA
ATOM     37  H   UNL     1      22.825  -2.882  98.051  1.00  0.00     0.210 HD
ENDBRANCH  35  36
ENDBRANCH  29  35
BRANCH  30  38
ATOM     38  O   UNL     1      21.359  -6.297  99.313  1.00  0.00    -0.387 OA
ATOM     39  H   UNL     1      21.584  -5.664  98.583  1.00  0.00     0.211 HD
ENDBRANCH  30  38
ENDBRANCH   1  25
TORSDOF 11
ENDMDL
MODEL 5
REMARK VINA RESULT:    -7.314      4.158      8.663
REMARK INTER + INTRA:         -11.468
REMARK INTER:                 -10.490
REMARK INTRA:                  -0.978
REMARK UNBOUND:                -0.947
REMARK SMILES O=c1cc(-c2ccc(O)c(O)c2)oc2cc(O[C@H]3O[C@H](CO)[C@H](O)[C@@H](O)[C@H]3O)cc(O)c12
REMARK SMILES IDX 17 1 16 2 4 3 3 4 13 5 2 6 14 7 1 8 32 9 15 10 30 11 29 12
REMARK SMILES IDX 5 13 6 14 7 15 8 16 12 17 10 18 9 19 11 21 31 23 18 25 27 26
REMARK SMILES IDX 19 27 25 28 20 29 23 30 28 31 26 33 21 35 22 36 24 38
REMARK H PARENT 9 20 11 22 31 24 28 32 26 34 22 37 24 39
REMARK Flexibility Score: inf
ROOT
ATOM      1  O   UNL     1      24.109  -3.390 102.213  1.00  0.00    -0.462 OA
ENDROOT
BRANCH   1   2
ATOM      2  C   UNL     1      24.678  -2.119 102.397  1.00  0.00     0.130 A 
ATOM      3  C   UNL     1      23.841   2.546 102.880  1.00  0.00     0.138 A 
ATOM      4  C   UNL     1      25.206   2.859 102.935  1.00  0.00     0.100 A 
ATOM      5  O   UNL     1      23.468   1.277 102.749  1.00  0.00    -0.456 OA
ATOM      6  C   UNL     1      26.151   1.836 102.850  1.00  0.00     0.197 A 
ATOM      7  C   UNL     1      24.327   0.266 102.670  1.00  0.00     0.146 A 
ATOM      8  O   UNL     1      27.369   2.155 102.845  1.00  0.00    -0.289 OA
ATOM      9  C   UNL     1      25.726   0.491 102.746  1.00  0.00     0.107 A 
ATOM     10  C   UNL     1      23.822  -1.025 102.502  1.00  0.00     0.094 A 
ATOM     11  C   UNL     1      26.598  -0.636 102.686  1.00  0.00     0.134 A 
ATOM     12  C   UNL     1      26.064  -1.915 102.482  1.00  0.00     0.093 A 
BRANCH   3  13
ATOM     13  C   UNL     1      22.791   3.593 102.968  1.00  0.00     0.021 A 
ATOM     14  C   UNL     1      21.984   3.736 104.111  1.00  0.00     0.016 A 
ATOM     15  C   UNL     1      21.013   4.736 104.169  1.00  0.00     0.051 A 
ATOM     16  C   UNL     1      20.828   5.619 103.099  1.00  0.00     0.157 A 
ATOM     17  C   UNL     1      22.615   4.488 101.899  1.00  0.00     0.062 A 
ATOM     18  C   UNL     1      21.642   5.494 101.949  1.00  0.00     0.158 A 
BRANCH  16  19
ATOM     19  O   UNL     1      19.837   6.595 103.221  1.00  0.00    -0.504 OA
ATOM     20  H   UNL     1      19.874   7.497 102.768  1.00  0.00     0.293 HD
ENDBRANCH  16  19
BRANCH  18  21
ATOM     21  O   UNL     1      21.521   6.339 100.845  1.00  0.00    -0.504 OA
ATOM     22  H   UNL     1      22.250   6.961 100.527  1.00  0.00     0.293 HD
ENDBRANCH  18  21
ENDBRANCH   3  13
BRANCH  11  23
ATOM     23  O   UNL     1      27.986  -0.561 102.843  1.00  0.00    -0.507 OA
ATOM     24  H   UNL     1      28.654  -1.166 102.393  1.00  0.00     0.293 HD
ENDBRANCH  11  23
ENDBRANCH   1   2
BRANCH   1  25
ATOM     25  C   UNL     1      22.758  -3.638 101.814  1.00  0.00     0.339 C 
ATOM     26  C   UNL     1      22.179  -4.892 102.544  1.00  0.00     0.214 C 
ATOM     27  O   UNL     1      22.664  -3.722 100.396  1.00  0.00    -0.332 OA
ATOM     28  C   UNL     1      21.386  -5.786 101.564  1.00  0.00     0.180 C 
ATOM     29  C   UNL     1      23.175  -4.957  99.924  1.00  0.00     0.179 C 
ATOM     30  C   UNL     1      22.200  -6.119 100.283  1.00  0.00     0.177 C 
BRANCH  26  31
ATOM     31  O   UNL     1      23.181  -5.616 103.220  1.00  0.00    -0.384 OA
ATOM     32  H   UNL     1      22.985  -5.583 104.192  1.00  0.00     0.211 HD
ENDBRANCH  26  31
BRANCH  28  33
ATOM     33  O   UNL     1      20.914  -6.953 102.194  1.00  0.00    -0.387 OA
ATOM     34  H   UNL     1      21.696  -7.530 102.392  1.00  0.00     0.211 HD
ENDBRANCH  28  33
BRANCH  29  35
ATOM     35  C   UNL     1      23.493  -4.850  98.421  1.00  0.00     0.191 C 
BRANCH  35  36
ATOM     36  O   UNL     1      22.494  -4.146  97.730  1.00  0.00    -0.394 OA
ATOM     37  H   UNL     1      22.957  -3.545  97.090  1.00  0.00     0.210 HD
ENDBRANCH  35  36
ENDBRANCH  29  35
BRANCH  30  38
ATOM     38  O   UNL     1      21.331  -6.442  99.224  1.00  0.00    -0.387 OA
ATOM     39  H   UNL     1      21.522  -7.377  98.950  1.00  0.00     0.211 HD
ENDBRANCH  30  38
ENDBRANCH   1  25
TORSDOF 11
ENDMDL
MODEL 6
REMARK VINA RESULT:    -7.196      1.357      9.103
REMARK INTER + INTRA:         -11.298
REMARK INTER:                 -10.529
REMARK INTRA:                  -0.770
REMARK UNBOUND:                -0.947
REMARK SMILES O=c1cc(-c2ccc(O)c(O)c2)oc2cc(O[C@H]3O[C@H](CO)[C@H](O)[C@@H](O)[C@H]3O)cc(O)c12
REMARK SMILES IDX 17 1 16 2 4 3 3 4 13 5 2 6 14 7 1 8 32 9 15 10 30 11 29 12
REMARK SMILES IDX 5 13 6 14 7 15 8 16 12 17 10 18 9 19 11 21 31 23 18 25 27 26
REMARK SMILES IDX 19 27 25 28 20 29 23 30 28 31 26 33 21 35 22 36 24 38
REMARK H PARENT 9 20 11 22 31 24 28 32 26 34 22 37 24 39
REMARK Flexibility Score: inf
ROOT
ATOM      1  O   UNL     1      30.048   2.742 103.779  1.00  0.00    -0.462 OA
ENDROOT
BRANCH   1   2
ATOM      2  C   UNL     1      28.817   2.125 103.507  1.00  0.00     0.130 A 
ATOM      3  C   UNL     1      24.116   2.739 103.031  1.00  0.00     0.138 A 
ATOM      4  C   UNL     1      23.887   1.373 102.816  1.00  0.00     0.100 A 
ATOM      5  O   UNL     1      25.359   3.168 103.228  1.00  0.00    -0.456 OA
ATOM      6  C   UNL     1      24.963   0.485 102.813  1.00  0.00     0.197 A 
ATOM      7  C   UNL     1      26.419   2.365 103.228  1.00  0.00     0.146 A 
ATOM      8  O   UNL     1      24.718  -0.741 102.674  1.00  0.00    -0.289 OA
ATOM      9  C   UNL     1      26.279   0.973 102.991  1.00  0.00     0.107 A 
ATOM     10  C   UNL     1      27.674   2.922 103.478  1.00  0.00     0.094 A 
ATOM     11  C   UNL     1      27.455   0.167 102.973  1.00  0.00     0.134 A 
ATOM     12  C   UNL     1      28.697   0.748 103.261  1.00  0.00     0.093 A 
BRANCH   3  13
ATOM     13  C   UNL     1      23.009   3.730 103.041  1.00  0.00     0.021 A 
ATOM     14  C   UNL     1      22.761   4.572 101.942  1.00  0.00     0.016 A 
ATOM     15  C   UNL     1      21.707   5.486 101.977  1.00  0.00     0.051 A 
ATOM     16  C   UNL     1      20.874   5.576 103.097  1.00  0.00     0.157 A 
ATOM     17  C   UNL     1      22.165   3.811 104.161  1.00  0.00     0.062 A 
ATOM     18  C   UNL     1      21.104   4.726 104.203  1.00  0.00     0.158 A 
BRANCH  16  19
ATOM     19  O   UNL     1      19.839   6.513 103.068  1.00  0.00    -0.504 OA
ATOM     20  H   UNL     1      18.859   6.272 103.030  1.00  0.00     0.293 HD
ENDBRANCH  16  19
BRANCH  18  21
ATOM     21  O   UNL     1      20.314   4.753 105.354  1.00  0.00    -0.504 OA
ATOM     22  H   UNL     1      19.312   4.875 105.348  1.00  0.00     0.293 HD
ENDBRANCH  18  21
ENDBRANCH   3  13
BRANCH  11  23
ATOM     23  O   UNL     1      27.465  -1.196 102.660  1.00  0.00    -0.507 OA
ATOM     24  H   UNL     1      28.288  -1.778 102.628  1.00  0.00     0.293 HD
ENDBRANCH  11  23
ENDBRANCH   1   2
BRANCH   1  25
ATOM     25  C   UNL     1      30.602   3.837 103.043  1.00  0.00     0.339 C 
ATOM     26  C   UNL     1      31.825   3.375 102.187  1.00  0.00     0.214 C 
ATOM     27  O   UNL     1      30.905   4.921 103.915  1.00  0.00    -0.332 OA
ATOM     28  C   UNL     1      32.984   4.393 102.285  1.00  0.00     0.180 C 
ATOM     29  C   UNL     1      32.075   4.657 104.668  1.00  0.00     0.179 C 
ATOM     30  C   UNL     1      33.337   4.742 103.757  1.00  0.00     0.177 C 
BRANCH  26  31
ATOM     31  O   UNL     1      32.242   2.073 102.525  1.00  0.00    -0.384 OA
ATOM     32  H   UNL     1      32.991   2.144 103.169  1.00  0.00     0.211 HD
ENDBRANCH  26  31
BRANCH  28  33
ATOM     33  O   UNL     1      34.116   3.958 101.571  1.00  0.00    -0.387 OA
ATOM     34  H   UNL     1      34.604   4.761 101.254  1.00  0.00     0.211 HD
ENDBRANCH  28  33
BRANCH  29  35
ATOM     35  C   UNL     1      32.127   5.586 105.895  1.00  0.00     0.191 C 
BRANCH  35  36
ATOM     36  O   UNL     1      30.843   5.867 106.386  1.00  0.00    -0.394 OA
ATOM     37  H   UNL     1      30.263   5.105 106.127  1.00  0.00     0.210 HD
ENDBRANCH  35  36
ENDBRANCH  29  35
BRANCH  30  38
ATOM     38  O   UNL     1      33.968   5.998 103.823  1.00  0.00    -0.387 OA
ATOM     39  H   UNL     1      33.936   6.305 104.766  1.00  0.00     0.211 HD
ENDBRANCH  30  38
ENDBRANCH   1  25
TORSDOF 11
ENDMDL
MODEL 7
REMARK VINA RESULT:    -7.127      4.134      8.888
REMARK INTER + INTRA:         -11.198
REMARK INTER:                 -10.983
REMARK INTRA:                  -0.215
REMARK UNBOUND:                -0.947
REMARK SMILES O=c1cc(-c2ccc(O)c(O)c2)oc2cc(O[C@H]3O[C@H](CO)[C@H](O)[C@@H](O)[C@H]3O)cc(O)c12
REMARK SMILES IDX 17 1 16 2 4 3 3 4 13 5 2 6 14 7 1 8 32 9 15 10 30 11 29 12
REMARK SMILES IDX 5 13 6 14 7 15 8 16 12 17 10 18 9 19 11 21 31 23 18 25 27 26
REMARK SMILES IDX 19 27 25 28 20 29 23 30 28 31 26 33 21 35 22 36 24 38
REMARK H PARENT 9 20 11 22 31 24 28 32 26 34 22 37 24 39
REMARK Flexibility Score: inf
ROOT
ATOM      1  O   UNL     1      23.962  -3.410 102.640  1.00  0.00    -0.462 OA
ENDROOT
BRANCH   1   2
ATOM      2  C   UNL     1      24.550  -2.138 102.717  1.00  0.00     0.130 A 
ATOM      3  C   UNL     1      23.776   2.558 102.943  1.00  0.00     0.138 A 
ATOM      4  C   UNL     1      25.145   2.858 102.915  1.00  0.00     0.100 A 
ATOM      5  O   UNL     1      23.387   1.288 102.909  1.00  0.00    -0.456 OA
ATOM      6  C   UNL     1      26.077   1.821 102.850  1.00  0.00     0.197 A 
ATOM      7  C   UNL     1      24.233   0.264 102.855  1.00  0.00     0.146 A 
ATOM      8  O   UNL     1      27.296   2.125 102.770  1.00  0.00    -0.289 OA
ATOM      9  C   UNL     1      25.636   0.477 102.851  1.00  0.00     0.107 A 
ATOM     10  C   UNL     1      23.709  -1.029 102.792  1.00  0.00     0.094 A 
ATOM     11  C   UNL     1      26.494  -0.662 102.823  1.00  0.00     0.134 A 
ATOM     12  C   UNL     1      25.940  -1.944 102.725  1.00  0.00     0.093 A 
BRANCH   3  13
ATOM     13  C   UNL     1      22.741   3.621 103.014  1.00  0.00     0.021 A 
ATOM     14  C   UNL     1      21.936   3.793 104.154  1.00  0.00     0.016 A 
ATOM     15  C   UNL     1      20.978   4.808 104.195  1.00  0.00     0.051 A 
ATOM     16  C   UNL     1      20.806   5.675 103.111  1.00  0.00     0.157 A 
ATOM     17  C   UNL     1      22.577   4.500 101.930  1.00  0.00     0.062 A 
ATOM     18  C   UNL     1      21.618   5.520 101.963  1.00  0.00     0.158 A 
BRANCH  16  19
ATOM     19  O   UNL     1      19.829   6.666 103.216  1.00  0.00    -0.504 OA
ATOM     20  H   UNL     1      19.775   7.328 103.977  1.00  0.00     0.293 HD
ENDBRANCH  16  19
BRANCH  18  21
ATOM     21  O   UNL     1      21.509   6.349 100.845  1.00  0.00    -0.504 OA
ATOM     22  H   UNL     1      20.766   6.282 100.164  1.00  0.00     0.293 HD
ENDBRANCH  18  21
ENDBRANCH   3  13
BRANCH  11  23
ATOM     23  O   UNL     1      27.888  -0.592 102.910  1.00  0.00    -0.507 OA
ATOM     24  H   UNL     1      28.438  -0.920 103.689  1.00  0.00     0.293 HD
ENDBRANCH  11  23
ENDBRANCH   1   2
BRANCH   1  25
ATOM     25  C   UNL     1      23.990  -4.264 101.493  1.00  0.00     0.339 C 
ATOM     26  C   UNL     1      23.007  -3.754 100.391  1.00  0.00     0.214 C 
ATOM     27  O   UNL     1      23.755  -5.616 101.872  1.00  0.00    -0.332 OA
ATOM     28  C   UNL     1      22.210  -4.926  99.775  1.00  0.00     0.180 C 
ATOM     29  C   UNL     1      22.386  -5.832 102.168  1.00  0.00     0.179 C 
ATOM     30  C   UNL     1      21.539  -5.814 100.860  1.00  0.00     0.177 C 
BRANCH  26  31
ATOM     31  O   UNL     1      22.158  -2.738 100.872  1.00  0.00    -0.384 OA
ATOM     32  H   UNL     1      21.640  -2.378 100.107  1.00  0.00     0.211 HD
ENDBRANCH  26  31
BRANCH  28  33
ATOM     33  O   UNL     1      21.274  -4.474  98.826  1.00  0.00    -0.387 OA
ATOM     34  H   UNL     1      21.437  -4.963  97.979  1.00  0.00     0.211 HD
ENDBRANCH  28  33
BRANCH  29  35
ATOM     35  C   UNL     1      22.228  -7.120 102.997  1.00  0.00     0.191 C 
BRANCH  35  36
ATOM     36  O   UNL     1      21.397  -6.919 104.110  1.00  0.00    -0.394 OA
ATOM     37  H   UNL     1      20.898  -7.765 104.253  1.00  0.00     0.210 HD
ENDBRANCH  35  36
ENDBRANCH  29  35
BRANCH  30  38
ATOM     38  O   UNL     1      21.300  -7.105 100.353  1.00  0.00    -0.387 OA
ATOM     39  H   UNL     1      22.142  -7.430  99.941  1.00  0.00     0.211 HD
ENDBRANCH  30  38
ENDBRANCH   1  25
TORSDOF 11
ENDMDL
MODEL 8
REMARK VINA RESULT:    -6.769      3.895      8.236
REMARK INTER + INTRA:         -10.684
REMARK INTER:                  -9.709
REMARK INTRA:                  -0.975
REMARK UNBOUND:                -0.947
REMARK SMILES O=c1cc(-c2ccc(O)c(O)c2)oc2cc(O[C@H]3O[C@H](CO)[C@H](O)[C@@H](O)[C@H]3O)cc(O)c12
REMARK SMILES IDX 17 1 16 2 4 3 3 4 13 5 2 6 14 7 1 8 32 9 15 10 30 11 29 12
REMARK SMILES IDX 5 13 6 14 7 15 8 16 12 17 10 18 9 19 11 21 31 23 18 25 27 26
REMARK SMILES IDX 19 27 25 28 20 29 23 30 28 31 26 33 21 35 22 36 24 38
REMARK H PARENT 9 20 11 22 31 24 28 32 26 34 22 37 24 39
REMARK Flexibility Score: inf
ROOT
ATOM      1  O   UNL     1      23.948   2.834 103.043  1.00  0.00    -0.462 OA
ENDROOT
BRANCH   1   2
ATOM      2  C   UNL     1      24.579   1.583 102.965  1.00  0.00     0.130 A 
ATOM      3  C   UNL     1      24.013  -3.075 102.134  1.00  0.00     0.138 A 
ATOM      4  C   UNL     1      25.356  -3.361 102.411  1.00  0.00     0.100 A 
ATOM      5  O   UNL     1      23.585  -1.819 102.210  1.00  0.00    -0.456 OA
ATOM      6  C   UNL     1      26.223  -2.326 102.764  1.00  0.00     0.197 A 
ATOM      7  C   UNL     1      24.371  -0.796 102.534  1.00  0.00     0.146 A 
ATOM      8  O   UNL     1      27.410  -2.623 103.061  1.00  0.00    -0.289 OA
ATOM      9  C   UNL     1      25.750  -0.993 102.803  1.00  0.00     0.107 A 
ATOM     10  C   UNL     1      23.805   0.478 102.614  1.00  0.00     0.094 A 
ATOM     11  C   UNL     1      26.550   0.145 103.115  1.00  0.00     0.134 A 
ATOM     12  C   UNL     1      25.948   1.406 103.222  1.00  0.00     0.093 A 
BRANCH   3  13
ATOM     13  C   UNL     1      23.046  -4.136 101.751  1.00  0.00     0.021 A 
ATOM     14  C   UNL     1      22.946  -5.339 102.471  1.00  0.00     0.016 A 
ATOM     15  C   UNL     1      22.020  -6.313 102.093  1.00  0.00     0.051 A 
ATOM     16  C   UNL     1      21.171  -6.109 101.001  1.00  0.00     0.157 A 
ATOM     17  C   UNL     1      22.183  -3.924 100.662  1.00  0.00     0.062 A 
ATOM     18  C   UNL     1      21.251  -4.897 100.277  1.00  0.00     0.158 A 
BRANCH  16  19
ATOM     19  O   UNL     1      20.269  -7.124 100.676  1.00  0.00    -0.504 OA
ATOM     20  H   UNL     1      19.794  -7.194  99.788  1.00  0.00     0.293 HD
ENDBRANCH  16  19
BRANCH  18  21
ATOM     21  O   UNL     1      20.435  -4.618  99.180  1.00  0.00    -0.504 OA
ATOM     22  H   UNL     1      19.594  -5.130  98.957  1.00  0.00     0.293 HD
ENDBRANCH  18  21
ENDBRANCH   3  13
BRANCH  11  23
ATOM     23  O   UNL     1      27.934   0.100 103.307  1.00  0.00    -0.507 OA
ATOM     24  H   UNL     1      28.604  -0.222 102.626  1.00  0.00     0.293 HD
ENDBRANCH  11  23
ENDBRANCH   1   2
BRANCH   1  25
ATOM     25  C   UNL     1      22.604   3.108 102.635  1.00  0.00     0.339 C 
ATOM     26  C   UNL     1      22.547   4.357 101.698  1.00  0.00     0.214 C 
ATOM     27  O   UNL     1      21.752   3.218 103.770  1.00  0.00    -0.332 OA
ATOM     28  C   UNL     1      21.365   5.278 102.077  1.00  0.00     0.180 C 
ATOM     29  C   UNL     1      21.946   4.454 104.435  1.00  0.00     0.179 C 
ATOM     30  C   UNL     1      21.352   5.622 103.592  1.00  0.00     0.177 C 
BRANCH  26  31
ATOM     31  O   UNL     1      23.770   5.055 101.676  1.00  0.00    -0.384 OA
ATOM     32  H   UNL     1      24.214   4.931 102.553  1.00  0.00     0.211 HD
ENDBRANCH  26  31
BRANCH  28  33
ATOM     33  O   UNL     1      21.340   6.440 101.283  1.00  0.00    -0.387 OA
ATOM     34  H   UNL     1      21.135   6.168 100.351  1.00  0.00     0.211 HD
ENDBRANCH  28  33
BRANCH  29  35
ATOM     35  C   UNL     1      21.387   4.369 105.867  1.00  0.00     0.191 C 
BRANCH  35  36
ATOM     36  O   UNL     1      21.417   5.617 106.508  1.00  0.00    -0.394 OA
ATOM     37  H   UNL     1      21.579   5.442 107.472  1.00  0.00     0.210 HD
ENDBRANCH  35  36
ENDBRANCH  29  35
BRANCH  30  38
ATOM     38  O   UNL     1      20.052   5.976 104.000  1.00  0.00    -0.387 OA
ATOM     39  H   UNL     1      19.531   6.206 103.187  1.00  0.00     0.211 HD
ENDBRANCH  30  38
ENDBRANCH   1  25
TORSDOF 11
ENDMDL
MODEL 9
REMARK VINA RESULT:    -6.685      1.625      8.868
REMARK INTER + INTRA:         -10.564
REMARK INTER:                  -9.610
REMARK INTRA:                  -0.954
REMARK UNBOUND:                -0.947
REMARK SMILES O=c1cc(-c2ccc(O)c(O)c2)oc2cc(O[C@H]3O[C@H](CO)[C@H](O)[C@@H](O)[C@H]3O)cc(O)c12
REMARK SMILES IDX 17 1 16 2 4 3 3 4 13 5 2 6 14 7 1 8 32 9 15 10 30 11 29 12
REMARK SMILES IDX 5 13 6 14 7 15 8 16 12 17 10 18 9 19 11 21 31 23 18 25 27 26
REMARK SMILES IDX 19 27 25 28 20 29 23 30 28 31 26 33 21 35 22 36 24 38
REMARK H PARENT 9 20 11 22 31 24 28 32 26 34 22 37 24 39
REMARK Flexibility Score: inf
ROOT
ATOM      1  O   UNL     1      29.192   1.102 103.237  1.00  0.00    -0.462 OA
ENDROOT
BRANCH   1   2
ATOM      2  C   UNL     1      27.852   0.715 103.075  1.00  0.00     0.130 A 
ATOM      3  C   UNL     1      23.314   2.163 102.964  1.00  0.00     0.138 A 
ATOM      4  C   UNL     1      22.828   0.860 102.791  1.00  0.00     0.100 A 
ATOM      5  O   UNL     1      24.625   2.362 103.055  1.00  0.00    -0.456 OA
ATOM      6  C   UNL     1      23.724  -0.207 102.718  1.00  0.00     0.197 A 
ATOM      7  C   UNL     1      25.521   1.382 102.984  1.00  0.00     0.146 A 
ATOM      8  O   UNL     1      23.252  -1.369 102.619  1.00  0.00    -0.289 OA
ATOM      9  C   UNL     1      25.116   0.037 102.782  1.00  0.00     0.107 A 
ATOM     10  C   UNL     1      26.872   1.705 103.124  1.00  0.00     0.094 A 
ATOM     11  C   UNL     1      26.124  -0.967 102.684  1.00  0.00     0.134 A 
ATOM     12  C   UNL     1      27.468  -0.618 102.863  1.00  0.00     0.093 A 
BRANCH   3  13
ATOM     13  C   UNL     1      22.407   3.337 103.046  1.00  0.00     0.021 A 
ATOM     14  C   UNL     1      21.762   3.690 104.244  1.00  0.00     0.016 A 
ATOM     15  C   UNL     1      20.924   4.805 104.292  1.00  0.00     0.051 A 
ATOM     16  C   UNL     1      20.716   5.595 103.156  1.00  0.00     0.157 A 
ATOM     17  C   UNL     1      22.210   4.138 101.908  1.00  0.00     0.062 A 
ATOM     18  C   UNL     1      21.370   5.258 101.949  1.00  0.00     0.158 A 
BRANCH  16  19
ATOM     19  O   UNL     1      19.864   6.695 103.272  1.00  0.00    -0.504 OA
ATOM     20  H   UNL     1      19.761   7.243 104.114  1.00  0.00     0.293 HD
ENDBRANCH  16  19
BRANCH  18  21
ATOM     21  O   UNL     1      21.217   6.000 100.776  1.00  0.00    -0.504 OA
ATOM     22  H   UNL     1      20.423   5.920 100.157  1.00  0.00     0.293 HD
ENDBRANCH  18  21
ENDBRANCH   3  13
BRANCH  11  23
ATOM     23  O   UNL     1      25.864  -2.310 102.394  1.00  0.00    -0.507 OA
ATOM     24  H   UNL     1      24.953  -2.695 102.194  1.00  0.00     0.293 HD
ENDBRANCH  11  23
ENDBRANCH   1   2
BRANCH   1  25
ATOM     25  C   UNL     1      29.726   2.387 102.906  1.00  0.00     0.339 C 
ATOM     26  C   UNL     1      31.065   2.250 102.112  1.00  0.00     0.214 C 
ATOM     27  O   UNL     1      29.846   3.193 104.073  1.00  0.00    -0.332 OA
ATOM     28  C   UNL     1      32.118   3.256 102.628  1.00  0.00     0.180 C 
ATOM     29  C   UNL     1      30.949   2.787 104.862  1.00  0.00     0.179 C 
ATOM     30  C   UNL     1      32.287   3.191 104.171  1.00  0.00     0.177 C 
BRANCH  26  31
ATOM     31  O   UNL     1      31.552   0.928 102.127  1.00  0.00    -0.384 OA
ATOM     32  H   UNL     1      31.216   0.482 102.946  1.00  0.00     0.211 HD
ENDBRANCH  26  31
BRANCH  28  33
ATOM     33  O   UNL     1      33.351   3.100 101.966  1.00  0.00    -0.387 OA
ATOM     34  H   UNL     1      33.165   2.766 101.050  1.00  0.00     0.211 HD
ENDBRANCH  28  33
BRANCH  29  35
ATOM     35  C   UNL     1      30.797   3.332 106.294  1.00  0.00     0.191 C 
BRANCH  35  36
ATOM     36  O   UNL     1      30.391   4.676 106.295  1.00  0.00    -0.394 OA
ATOM     37  H   UNL     1      30.518   5.014 107.219  1.00  0.00     0.210 HD
ENDBRANCH  35  36
ENDBRANCH  29  35
BRANCH  30  38
ATOM     38  O   UNL     1      32.800   4.408 104.657  1.00  0.00    -0.387 OA
ATOM     39  H   UNL     1      33.125   4.933 103.879  1.00  0.00     0.211 HD
ENDBRANCH  30  38
ENDBRANCH   1  25
TORSDOF 11
ENDMDL
