MODEL 1
REMARK VINA RESULT:    -6.635      0.000      0.000
REMARK INTER + INTRA:         -10.065
REMARK INTER:                  -9.351
REMARK INTRA:                  -0.715
REMARK UNBOUND:                -0.715
REMARK SMILES C=CC(=C)CCC=C(C)CCC=C(C)C
REMARK SMILES IDX 8 1 7 2 9 3 10 4 11 5 12 6 14 7 13 8 15 9 6 10 5 11 3 12
REMARK SMILES IDX 4 13 2 14 1 15
REMARK H PARENT
REMARK Flexibility Score: inf
ROOT
ATOM      1  C   UNL     1      15.480  31.417  22.316  1.00  0.00    -0.077 C 
ATOM      2  C   UNL     1      16.484  31.571  23.211  1.00  0.00    -0.028 C 
ATOM      3  C   UNL     1      14.539  30.237  22.367  1.00  0.00     0.039 C 
ENDROOT
BRANCH   1   4
ATOM      4  C   UNL     1      15.260  32.480  21.263  1.00  0.00     0.034 C 
BRANCH   4   5
ATOM      5  C   UNL     1      14.208  33.492  21.730  1.00  0.00     0.032 C 
BRANCH   5   6
ATOM      6  C   UNL     1      12.948  33.396  20.905  1.00  0.00    -0.028 C 
ATOM      7  C   UNL     1      10.516  33.066  20.557  1.00  0.00     0.039 C 
ATOM      8  C   UNL     1      11.727  33.190  21.444  1.00  0.00    -0.080 C 
ATOM      9  C   UNL     1      11.535  33.042  22.930  1.00  0.00     0.039 C 
ENDBRANCH   5   6
ENDBRANCH   4   5
ENDBRANCH   1   4
BRANCH   2  10
ATOM     10  C   UNL     1      16.755  30.625  24.354  1.00  0.00     0.032 C 
BRANCH  10  11
ATOM     11  C   UNL     1      18.260  30.504  24.604  1.00  0.00     0.039 C 
BRANCH  11  12
ATOM     12  C   UNL     1      18.548  29.925  25.973  1.00  0.00    -0.055 C 
ATOM     13  C   UNL     1      18.982  30.726  26.949  1.00  0.00     0.012 C 
BRANCH  12  14
ATOM     14  C   UNL     1      18.449  28.470  26.241  1.00  0.00    -0.005 C 
ATOM     15  C   UNL     1      19.450  27.629  26.015  1.00  0.00     0.009 C 
ENDBRANCH  12  14
ENDBRANCH  11  12
ENDBRANCH  10  11
ENDBRANCH   2  10
TORSDOF 7
ENDMDL
MODEL 2
REMARK VINA RESULT:    -6.635      1.070      7.577
REMARK INTER + INTRA:         -10.065
REMARK INTER:                  -9.391
REMARK INTRA:                  -0.673
REMARK UNBOUND:                -0.715
REMARK SMILES C=CC(=C)CCC=C(C)CCC=C(C)C
REMARK SMILES IDX 8 1 7 2 9 3 10 4 11 5 12 6 14 7 13 8 15 9 6 10 5 11 3 12
REMARK SMILES IDX 4 13 2 14 1 15
REMARK H PARENT
REMARK Flexibility Score: inf
ROOT
ATOM      1  C   UNL     1      16.133  31.119  23.245  1.00  0.00    -0.077 C 
ATOM      2  C   UNL     1      15.802  32.063  22.334  1.00  0.00    -0.028 C 
ATOM      3  C   UNL     1      15.267  29.905  23.490  1.00  0.00     0.039 C 
ENDROOT
BRANCH   1   4
ATOM      4  C   UNL     1      17.431  31.253  24.011  1.00  0.00     0.034 C 
BRANCH   4   5
ATOM      5  C   UNL     1      17.793  29.930  24.694  1.00  0.00     0.032 C 
BRANCH   5   6
ATOM      6  C   UNL     1      18.485  30.164  26.014  1.00  0.00    -0.028 C 
ATOM      7  C   UNL     1      19.758  29.483  28.030  1.00  0.00     0.039 C 
ATOM      8  C   UNL     1      19.121  29.187  26.698  1.00  0.00    -0.080 C 
ATOM      9  C   UNL     1      19.185  27.776  26.180  1.00  0.00     0.039 C 
ENDBRANCH   5   6
ENDBRANCH   4   5
ENDBRANCH   1   4
BRANCH   2  10
ATOM     10  C   UNL     1      14.579  32.000  21.453  1.00  0.00     0.032 C 
BRANCH  10  11
ATOM     11  C   UNL     1      13.576  33.085  21.852  1.00  0.00     0.039 C 
BRANCH  11  12
ATOM     12  C   UNL     1      12.198  32.503  22.088  1.00  0.00    -0.055 C 
ATOM     13  C   UNL     1      11.922  31.269  21.659  1.00  0.00     0.012 C 
BRANCH  12  14
ATOM     14  C   UNL     1      11.110  33.300  22.704  1.00  0.00    -0.005 C 
ATOM     15  C   UNL     1      10.723  33.134  23.962  1.00  0.00     0.009 C 
ENDBRANCH  12  14
ENDBRANCH  11  12
ENDBRANCH  10  11
ENDBRANCH   2  10
TORSDOF 7
ENDMDL
MODEL 3
REMARK VINA RESULT:    -6.607      0.829      7.301
REMARK INTER + INTRA:         -10.026
REMARK INTER:                  -9.040
REMARK INTRA:                  -0.986
REMARK UNBOUND:                -0.715
REMARK SMILES C=CC(=C)CCC=C(C)CCC=C(C)C
REMARK SMILES IDX 8 1 7 2 9 3 10 4 11 5 12 6 14 7 13 8 15 9 6 10 5 11 3 12
REMARK SMILES IDX 4 13 2 14 1 15
REMARK H PARENT
REMARK Flexibility Score: inf
ROOT
ATOM      1  C   UNL     1      15.059  30.327  22.652  1.00  0.00    -0.077 C 
ATOM      2  C   UNL     1      15.553  31.579  22.513  1.00  0.00    -0.028 C 
ATOM      3  C   UNL     1      14.108  29.726  21.644  1.00  0.00     0.039 C 
ENDROOT
BRANCH   1   4
ATOM      4  C   UNL     1      15.506  29.483  23.825  1.00  0.00     0.034 C 
BRANCH   4   5
ATOM      5  C   UNL     1      16.807  30.034  24.420  1.00  0.00     0.032 C 
BRANCH   5   6
ATOM      6  C   UNL     1      17.659  28.929  24.996  1.00  0.00    -0.028 C 
ATOM      7  C   UNL     1      19.437  27.996  26.449  1.00  0.00     0.039 C 
ATOM      8  C   UNL     1      18.594  29.139  25.947  1.00  0.00    -0.080 C 
ATOM      9  C   UNL     1      18.854  30.510  26.510  1.00  0.00     0.039 C 
ENDBRANCH   5   6
ENDBRANCH   4   5
ENDBRANCH   1   4
BRANCH   2  10
ATOM     10  C   UNL     1      15.248  32.487  21.347  1.00  0.00     0.032 C 
BRANCH  10  11
ATOM     11  C   UNL     1      14.198  33.529  21.741  1.00  0.00     0.039 C 
BRANCH  11  12
ATOM     12  C   UNL     1      12.861  33.237  21.094  1.00  0.00    -0.055 C 
ATOM     13  C   UNL     1      12.642  33.616  19.833  1.00  0.00     0.012 C 
BRANCH  12  14
ATOM     14  C   UNL     1      11.746  32.619  21.852  1.00  0.00    -0.005 C 
ATOM     15  C   UNL     1      11.409  33.004  23.075  1.00  0.00     0.009 C 
ENDBRANCH  12  14
ENDBRANCH  11  12
ENDBRANCH  10  11
ENDBRANCH   2  10
TORSDOF 7
ENDMDL
MODEL 4
REMARK VINA RESULT:    -6.581      1.091      1.659
REMARK INTER + INTRA:          -9.989
REMARK INTER:                  -9.342
REMARK INTRA:                  -0.647
REMARK UNBOUND:                -0.715
REMARK SMILES C=CC(=C)CCC=C(C)CCC=C(C)C
REMARK SMILES IDX 8 1 7 2 9 3 10 4 11 5 12 6 14 7 13 8 15 9 6 10 5 11 3 12
REMARK SMILES IDX 4 13 2 14 1 15
REMARK H PARENT
REMARK Flexibility Score: inf
ROOT
ATOM      1  C   UNL     1      14.497  30.251  22.167  1.00  0.00    -0.077 C 
ATOM      2  C   UNL     1      15.253  30.765  23.165  1.00  0.00    -0.028 C 
ATOM      3  C   UNL     1      14.426  28.765  21.901  1.00  0.00     0.039 C 
ENDROOT
BRANCH   1   4
ATOM      4  C   UNL     1      13.660  31.183  21.319  1.00  0.00     0.034 C 
BRANCH   4   5
ATOM      5  C   UNL     1      13.589  32.574  21.958  1.00  0.00     0.032 C 
BRANCH   5   6
ATOM      6  C   UNL     1      12.304  33.279  21.599  1.00  0.00    -0.028 C 
ATOM      7  C   UNL     1       9.943  33.950  21.945  1.00  0.00     0.039 C 
ATOM      8  C   UNL     1      11.205  33.256  22.384  1.00  0.00    -0.080 C 
ATOM      9  C   UNL     1      11.187  32.515  23.694  1.00  0.00     0.039 C 
ENDBRANCH   5   6
ENDBRANCH   4   5
ENDBRANCH   1   4
BRANCH   2  10
ATOM     10  C   UNL     1      16.066  29.934  24.128  1.00  0.00     0.032 C 
BRANCH  10  11
ATOM     11  C   UNL     1      17.420  30.596  24.393  1.00  0.00     0.039 C 
BRANCH  11  12
ATOM     12  C   UNL     1      18.188  29.868  25.476  1.00  0.00    -0.055 C 
ATOM     13  C   UNL     1      18.147  28.534  25.528  1.00  0.00     0.012 C 
BRANCH  12  14
ATOM     14  C   UNL     1      18.916  30.598  26.542  1.00  0.00    -0.005 C 
ATOM     15  C   UNL     1      19.381  30.001  27.631  1.00  0.00     0.009 C 
ENDBRANCH  12  14
ENDBRANCH  11  12
ENDBRANCH  10  11
ENDBRANCH   2  10
TORSDOF 7
ENDMDL
MODEL 5
REMARK VINA RESULT:    -6.498      2.110      7.166
REMARK INTER + INTRA:          -9.872
REMARK INTER:                  -8.987
REMARK INTRA:                  -0.884
REMARK UNBOUND:                -0.715
REMARK SMILES C=CC(=C)CCC=C(C)CCC=C(C)C
REMARK SMILES IDX 8 1 7 2 9 3 10 4 11 5 12 6 14 7 13 8 15 9 6 10 5 11 3 12
REMARK SMILES IDX 4 13 2 14 1 15
REMARK H PARENT
REMARK Flexibility Score: inf
ROOT
ATOM      1  C   UNL     1      16.074  30.778  23.445  1.00  0.00    -0.077 C 
ATOM      2  C   UNL     1      15.464  31.485  22.465  1.00  0.00    -0.028 C 
ATOM      3  C   UNL     1      15.598  29.405  23.855  1.00  0.00     0.039 C 
ENDROOT
BRANCH   1   4
ATOM      4  C   UNL     1      17.298  31.357  24.120  1.00  0.00     0.034 C 
BRANCH   4   5
ATOM      5  C   UNL     1      18.258  30.239  24.544  1.00  0.00     0.032 C 
BRANCH   5   6
ATOM      6  C   UNL     1      18.675  30.390  25.986  1.00  0.00    -0.028 C 
ATOM      7  C   UNL     1      19.453  29.570  28.192  1.00  0.00     0.039 C 
ATOM      8  C   UNL     1      19.089  29.353  26.747  1.00  0.00    -0.080 C 
ATOM      9  C   UNL     1      19.166  27.954  26.199  1.00  0.00     0.039 C 
ENDBRANCH   5   6
ENDBRANCH   4   5
ENDBRANCH   1   4
BRANCH   2  10
ATOM     10  C   UNL     1      14.287  30.984  21.665  1.00  0.00     0.032 C 
BRANCH  10  11
ATOM     11  C   UNL     1      14.731  30.576  20.258  1.00  0.00     0.039 C 
BRANCH  11  12
ATOM     12  C   UNL     1      14.453  29.112  19.994  1.00  0.00    -0.055 C 
ATOM     13  C   UNL     1      14.832  28.568  18.835  1.00  0.00     0.012 C 
BRANCH  12  14
ATOM     14  C   UNL     1      13.685  28.279  20.950  1.00  0.00    -0.005 C 
ATOM     15  C   UNL     1      13.234  27.069  20.647  1.00  0.00     0.009 C 
ENDBRANCH  12  14
ENDBRANCH  11  12
ENDBRANCH  10  11
ENDBRANCH   2  10
TORSDOF 7
ENDMDL
MODEL 6
REMARK VINA RESULT:    -6.378      1.429      2.458
REMARK INTER + INTRA:          -9.703
REMARK INTER:                  -9.074
REMARK INTRA:                  -0.630
REMARK UNBOUND:                -0.715
REMARK SMILES C=CC(=C)CCC=C(C)CCC=C(C)C
REMARK SMILES IDX 8 1 7 2 9 3 10 4 11 5 12 6 14 7 13 8 15 9 6 10 5 11 3 12
REMARK SMILES IDX 4 13 2 14 1 15
REMARK H PARENT
REMARK Flexibility Score: inf
ROOT
ATOM      1  C   UNL     1      14.493  30.094  22.188  1.00  0.00    -0.077 C 
ATOM      2  C   UNL     1      15.227  30.656  23.177  1.00  0.00    -0.028 C 
ATOM      3  C   UNL     1      14.485  28.603  21.948  1.00  0.00     0.039 C 
ENDROOT
BRANCH   1   4
ATOM      4  C   UNL     1      13.617  30.975  21.326  1.00  0.00     0.034 C 
BRANCH   4   5
ATOM      5  C   UNL     1      13.728  32.440  21.766  1.00  0.00     0.032 C 
BRANCH   5   6
ATOM      6  C   UNL     1      13.310  33.379  20.660  1.00  0.00    -0.028 C 
ATOM      7  C   UNL     1      13.700  34.866  18.716  1.00  0.00     0.039 C 
ATOM      8  C   UNL     1      14.180  33.904  19.771  1.00  0.00    -0.080 C 
ATOM      9  C   UNL     1      15.650  33.583  19.821  1.00  0.00     0.039 C 
ENDBRANCH   5   6
ENDBRANCH   4   5
ENDBRANCH   1   4
BRANCH   2  10
ATOM     10  C   UNL     1      16.076  29.878  24.152  1.00  0.00     0.032 C 
BRANCH  10  11
ATOM     11  C   UNL     1      17.367  30.638  24.463  1.00  0.00     0.039 C 
BRANCH  11  12
ATOM     12  C   UNL     1      18.210  29.900  25.480  1.00  0.00    -0.055 C 
ATOM     13  C   UNL     1      18.226  28.565  25.478  1.00  0.00     0.012 C 
BRANCH  12  14
ATOM     14  C   UNL     1      18.954  30.616  26.545  1.00  0.00    -0.005 C 
ATOM     15  C   UNL     1      19.342  30.029  27.669  1.00  0.00     0.009 C 
ENDBRANCH  12  14
ENDBRANCH  11  12
ENDBRANCH  10  11
ENDBRANCH   2  10
TORSDOF 7
ENDMDL
MODEL 7
REMARK VINA RESULT:    -6.262      1.058      7.570
REMARK INTER + INTRA:          -9.539
REMARK INTER:                  -8.840
REMARK INTRA:                  -0.698
REMARK UNBOUND:                -0.715
REMARK SMILES C=CC(=C)CCC=C(C)CCC=C(C)C
REMARK SMILES IDX 8 1 7 2 9 3 10 4 11 5 12 6 14 7 13 8 15 9 6 10 5 11 3 12
REMARK SMILES IDX 4 13 2 14 1 15
REMARK H PARENT
REMARK Flexibility Score: inf
ROOT
ATOM      1  C   UNL     1      15.959  30.481  23.497  1.00  0.00    -0.077 C 
ATOM      2  C   UNL     1      14.879  29.926  22.897  1.00  0.00    -0.028 C 
ATOM      3  C   UNL     1      16.488  31.837  23.094  1.00  0.00     0.039 C 
ENDROOT
BRANCH   1   4
ATOM      4  C   UNL     1      16.629  29.746  24.637  1.00  0.00     0.034 C 
BRANCH   4   5
ATOM      5  C   UNL     1      18.131  30.054  24.666  1.00  0.00     0.032 C 
BRANCH   5   6
ATOM      6  C   UNL     1      18.627  30.234  26.079  1.00  0.00    -0.028 C 
ATOM      7  C   UNL     1      19.631  29.478  28.217  1.00  0.00     0.039 C 
ATOM      8  C   UNL     1      19.193  29.238  26.796  1.00  0.00    -0.080 C 
ATOM      9  C   UNL     1      19.371  27.858  26.223  1.00  0.00     0.039 C 
ENDBRANCH   5   6
ENDBRANCH   4   5
ENDBRANCH   1   4
BRANCH   2  10
ATOM     10  C   UNL     1      14.078  30.593  21.807  1.00  0.00     0.032 C 
BRANCH  10  11
ATOM     11  C   UNL     1      13.038  31.540  22.411  1.00  0.00     0.039 C 
BRANCH  11  12
ATOM     12  C   UNL     1      12.766  32.717  21.498  1.00  0.00    -0.055 C 
ATOM     13  C   UNL     1      11.665  33.450  21.678  1.00  0.00     0.012 C 
BRANCH  12  14
ATOM     14  C   UNL     1      13.645  33.029  20.345  1.00  0.00    -0.005 C 
ATOM     15  C   UNL     1      14.763  33.733  20.465  1.00  0.00     0.009 C 
ENDBRANCH  12  14
ENDBRANCH  11  12
ENDBRANCH  10  11
ENDBRANCH   2  10
TORSDOF 7
ENDMDL
MODEL 8
REMARK VINA RESULT:    -6.245      1.026      1.493
REMARK INTER + INTRA:          -9.515
REMARK INTER:                  -8.893
REMARK INTRA:                  -0.622
REMARK UNBOUND:                -0.715
REMARK SMILES C=CC(=C)CCC=C(C)CCC=C(C)C
REMARK SMILES IDX 8 1 7 2 9 3 10 4 11 5 12 6 14 7 13 8 15 9 6 10 5 11 3 12
REMARK SMILES IDX 4 13 2 14 1 15
REMARK H PARENT
REMARK Flexibility Score: inf
ROOT
ATOM      1  C   UNL     1      16.383  30.930  23.552  1.00  0.00    -0.077 C 
ATOM      2  C   UNL     1      17.662  31.273  23.833  1.00  0.00    -0.028 C 
ATOM      3  C   UNL     1      15.802  29.599  23.970  1.00  0.00     0.039 C 
ENDROOT
BRANCH   1   4
ATOM      4  C   UNL     1      15.490  31.923  22.841  1.00  0.00     0.034 C 
BRANCH   4   5
ATOM      5  C   UNL     1      14.534  31.200  21.885  1.00  0.00     0.032 C 
BRANCH   5   6
ATOM      6  C   UNL     1      13.713  32.180  21.084  1.00  0.00    -0.028 C 
ATOM      7  C   UNL     1      11.731  33.597  20.628  1.00  0.00     0.039 C 
ATOM      8  C   UNL     1      12.516  32.650  21.497  1.00  0.00    -0.080 C 
ATOM      9  C   UNL     1      11.911  32.224  22.807  1.00  0.00     0.039 C 
ENDBRANCH   5   6
ENDBRANCH   4   5
ENDBRANCH   1   4
BRANCH   2  10
ATOM     10  C   UNL     1      18.624  30.404  24.605  1.00  0.00     0.032 C 
BRANCH  10  11
ATOM     11  C   UNL     1      18.427  30.596  26.111  1.00  0.00     0.039 C 
BRANCH  11  12
ATOM     12  C   UNL     1      18.954  29.411  26.892  1.00  0.00    -0.055 C 
ATOM     13  C   UNL     1      19.664  29.618  28.003  1.00  0.00     0.012 C 
BRANCH  12  14
ATOM     14  C   UNL     1      18.782  28.020  26.409  1.00  0.00    -0.005 C 
ATOM     15  C   UNL     1      19.797  27.273  25.994  1.00  0.00     0.009 C 
ENDBRANCH  12  14
ENDBRANCH  11  12
ENDBRANCH  10  11
ENDBRANCH   2  10
TORSDOF 7
ENDMDL
MODEL 9
REMARK VINA RESULT:    -6.225      1.368      2.367
REMARK INTER + INTRA:          -9.487
REMARK INTER:                  -8.940
REMARK INTRA:                  -0.548
REMARK UNBOUND:                -0.715
REMARK SMILES C=CC(=C)CCC=C(C)CCC=C(C)C
REMARK SMILES IDX 8 1 7 2 9 3 10 4 11 5 12 6 14 7 13 8 15 9 6 10 5 11 3 12
REMARK SMILES IDX 4 13 2 14 1 15
REMARK H PARENT
REMARK Flexibility Score: inf
ROOT
ATOM      1  C   UNL     1      14.067  31.739  22.046  1.00  0.00    -0.077 C 
ATOM      2  C   UNL     1      14.546  30.763  22.852  1.00  0.00    -0.028 C 
ATOM      3  C   UNL     1      14.899  32.941  21.663  1.00  0.00     0.039 C 
ENDROOT
BRANCH   1   4
ATOM      4  C   UNL     1      12.675  31.604  21.470  1.00  0.00     0.034 C 
BRANCH   4   5
ATOM      5  C   UNL     1      11.879  32.898  21.675  1.00  0.00     0.032 C 
BRANCH   5   6
ATOM      6  C   UNL     1      11.477  33.073  23.118  1.00  0.00    -0.028 C 
ATOM      7  C   UNL     1       9.993  33.826  24.956  1.00  0.00     0.039 C 
ATOM      8  C   UNL     1      10.314  33.648  23.496  1.00  0.00    -0.080 C 
ATOM      9  C   UNL     1       9.323  34.160  22.485  1.00  0.00     0.039 C 
ENDBRANCH   5   6
ENDBRANCH   4   5
ENDBRANCH   1   4
BRANCH   2  10
ATOM     10  C   UNL     1      15.943  30.744  23.423  1.00  0.00     0.032 C 
BRANCH  10  11
ATOM     11  C   UNL     1      16.185  29.448  24.201  1.00  0.00     0.039 C 
BRANCH  11  12
ATOM     12  C   UNL     1      17.536  29.459  24.885  1.00  0.00    -0.055 C 
ATOM     13  C   UNL     1      18.319  30.535  24.778  1.00  0.00     0.012 C 
BRANCH  12  14
ATOM     14  C   UNL     1      18.058  28.270  25.600  1.00  0.00    -0.005 C 
ATOM     15  C   UNL     1      19.160  28.302  26.336  1.00  0.00     0.009 C 
ENDBRANCH  12  14
ENDBRANCH  11  12
ENDBRANCH  10  11
ENDBRANCH   2  10
TORSDOF 7
ENDMDL
