MODEL 1
REMARK VINA RESULT:    -5.739      0.000      0.000
REMARK INTER + INTRA:         -10.051
REMARK INTER:                  -8.758
REMARK INTRA:                  -1.293
REMARK UNBOUND:                -1.293
REMARK SMILES CC(=O)CCC=C(C)CCC=C(C)CCC=C(C)C
REMARK SMILES IDX 10 1 11 2 12 3 13 4 14 5 15 6 16 7 18 8 17 9 19 10 9 11 7 12
REMARK SMILES IDX 6 13 8 14 5 15 4 16 2 17 3 18 1 19
REMARK H PARENT
REMARK Flexibility Score: inf
ROOT
ATOM      1  C   UNL     1      26.056  -6.110   7.372  1.00  0.00     0.032 C 
ENDROOT
BRANCH   1   2
ATOM      2  C   UNL     1      25.101  -7.166   7.870  1.00  0.00    -0.028 C 
ATOM      3  C   UNL     1      25.457  -8.433   8.179  1.00  0.00    -0.077 C 
ATOM      4  C   UNL     1      26.874  -8.929   8.009  1.00  0.00     0.039 C 
BRANCH   3   5
ATOM      5  C   UNL     1      24.398  -9.393   8.678  1.00  0.00     0.034 C 
BRANCH   5   6
ATOM      6  C   UNL     1      23.057  -8.687   8.913  1.00  0.00     0.032 C 
BRANCH   6   7
ATOM      7  C   UNL     1      22.874  -8.339  10.373  1.00  0.00    -0.028 C 
ATOM      8  C   UNL     1      22.462  -6.915  12.332  1.00  0.00     0.039 C 
ATOM      9  C   UNL     1      22.689  -7.089  10.853  1.00  0.00    -0.080 C 
ATOM     10  C   UNL     1      22.702  -5.873   9.957  1.00  0.00     0.039 C 
ENDBRANCH   6   7
ENDBRANCH   5   6
ENDBRANCH   3   5
ENDBRANCH   1   2
BRANCH   1  11
ATOM     11  C   UNL     1      25.512  -5.434   6.109  1.00  0.00     0.034 C 
BRANCH  11  12
ATOM     12  C   UNL     1      25.128  -3.998   6.394  1.00  0.00    -0.077 C 
ATOM     13  C   UNL     1      23.862  -3.720   6.779  1.00  0.00    -0.028 C 
ATOM     14  C   UNL     1      26.175  -2.918   6.255  1.00  0.00     0.039 C 
BRANCH  13  15
ATOM     15  C   UNL     1      23.337  -2.331   7.042  1.00  0.00     0.035 C 
BRANCH  15  16
ATOM     16  C   UNL     1      22.262  -2.357   8.133  1.00  0.00     0.079 C 
BRANCH  16  17
ATOM     17  C   UNL     1      20.887  -2.237   7.531  1.00  0.00     0.130 C 
ATOM     18  O   UNL     1      19.957  -2.851   8.032  1.00  0.00    -0.300 OA
ATOM     19  C   UNL     1      20.630  -1.370   6.334  1.00  0.00     0.087 C 
ENDBRANCH  16  17
ENDBRANCH  15  16
ENDBRANCH  13  15
ENDBRANCH  11  12
ENDBRANCH   1  11
TORSDOF 9
ENDMDL
MODEL 2
REMARK VINA RESULT:    -5.444      2.028      6.302
REMARK INTER + INTRA:          -9.601
REMARK INTER:                  -8.297
REMARK INTRA:                  -1.304
REMARK UNBOUND:                -1.293
REMARK SMILES CC(=O)CCC=C(C)CCC=C(C)CCC=C(C)C
REMARK SMILES IDX 10 1 11 2 12 3 13 4 14 5 15 6 16 7 18 8 17 9 19 10 9 11 7 12
REMARK SMILES IDX 6 13 8 14 5 15 4 16 2 17 3 18 1 19
REMARK H PARENT
REMARK Flexibility Score: inf
ROOT
ATOM      1  C   UNL     1      25.871  -7.113   7.772  1.00  0.00     0.032 C 
ENDROOT
BRANCH   1   2
ATOM      2  C   UNL     1      25.574  -5.887   6.946  1.00  0.00    -0.028 C 
ATOM      3  C   UNL     1      24.922  -4.795   7.406  1.00  0.00    -0.077 C 
ATOM      4  C   UNL     1      24.381  -4.723   8.815  1.00  0.00     0.039 C 
BRANCH   3   5
ATOM      5  C   UNL     1      24.696  -3.626   6.471  1.00  0.00     0.034 C 
BRANCH   5   6
ATOM      6  C   UNL     1      24.174  -2.393   7.221  1.00  0.00     0.032 C 
BRANCH   6   7
ATOM      7  C   UNL     1      23.010  -1.764   6.488  1.00  0.00    -0.028 C 
ATOM      8  C   UNL     1      20.667  -1.206   6.004  1.00  0.00     0.039 C 
ATOM      9  C   UNL     1      21.708  -1.956   6.795  1.00  0.00    -0.080 C 
ATOM     10  C   UNL     1      21.271  -2.889   7.899  1.00  0.00     0.039 C 
ENDBRANCH   6   7
ENDBRANCH   5   6
ENDBRANCH   3   5
ENDBRANCH   1   2
BRANCH   1  11
ATOM     11  C   UNL     1      24.887  -8.242   7.448  1.00  0.00     0.034 C 
BRANCH  11  12
ATOM     12  C   UNL     1      24.192  -8.724   8.703  1.00  0.00    -0.077 C 
ATOM     13  C   UNL     1      23.279  -7.923   9.297  1.00  0.00    -0.028 C 
ATOM     14  C   UNL     1      24.527 -10.093   9.246  1.00  0.00     0.039 C 
BRANCH  13  15
ATOM     15  C   UNL     1      22.555  -8.259  10.577  1.00  0.00     0.035 C 
BRANCH  15  16
ATOM     16  C   UNL     1      22.722  -7.135  11.604  1.00  0.00     0.079 C 
BRANCH  16  17
ATOM     17  C   UNL     1      22.413  -7.631  12.992  1.00  0.00     0.130 C 
ATOM     18  O   UNL     1      22.285  -6.827  13.902  1.00  0.00    -0.300 OA
ATOM     19  C   UNL     1      22.244  -9.094  13.280  1.00  0.00     0.087 C 
ENDBRANCH  16  17
ENDBRANCH  15  16
ENDBRANCH  13  15
ENDBRANCH  11  12
ENDBRANCH   1  11
TORSDOF 9
ENDMDL
MODEL 3
REMARK VINA RESULT:    -5.403      2.152      6.229
REMARK INTER + INTRA:          -9.539
REMARK INTER:                  -8.450
REMARK INTRA:                  -1.089
REMARK UNBOUND:                -1.293
REMARK SMILES CC(=O)CCC=C(C)CCC=C(C)CCC=C(C)C
REMARK SMILES IDX 10 1 11 2 12 3 13 4 14 5 15 6 16 7 18 8 17 9 19 10 9 11 7 12
REMARK SMILES IDX 6 13 8 14 5 15 4 16 2 17 3 18 1 19
REMARK H PARENT
REMARK Flexibility Score: inf
ROOT
ATOM      1  C   UNL     1      25.863  -5.794   7.972  1.00  0.00     0.032 C 
ENDROOT
BRANCH   1   2
ATOM      2  C   UNL     1      25.260  -4.807   7.004  1.00  0.00    -0.028 C 
ATOM      3  C   UNL     1      24.196  -4.019   7.279  1.00  0.00    -0.077 C 
ATOM      4  C   UNL     1      23.471  -4.090   8.603  1.00  0.00     0.039 C 
BRANCH   3   5
ATOM      5  C   UNL     1      23.695  -3.062   6.218  1.00  0.00     0.034 C 
BRANCH   5   6
ATOM      6  C   UNL     1      22.162  -3.038   6.154  1.00  0.00     0.032 C 
BRANCH   6   7
ATOM      7  C   UNL     1      21.622  -1.691   6.581  1.00  0.00    -0.028 C 
ATOM      8  C   UNL     1      20.258  -0.093   7.854  1.00  0.00     0.039 C 
ATOM      9  C   UNL     1      20.642  -1.505   7.493  1.00  0.00    -0.080 C 
ATOM     10  C   UNL     1      19.929  -2.659   8.155  1.00  0.00     0.039 C 
ENDBRANCH   6   7
ENDBRANCH   5   6
ENDBRANCH   3   5
ENDBRANCH   1   2
BRANCH   1  11
ATOM     11  C   UNL     1      26.541  -6.946   7.224  1.00  0.00     0.034 C 
BRANCH  11  12
ATOM     12  C   UNL     1      26.062  -8.281   7.751  1.00  0.00    -0.077 C 
ATOM     13  C   UNL     1      24.929  -8.329   8.488  1.00  0.00    -0.028 C 
ATOM     14  C   UNL     1      26.854  -9.526   7.424  1.00  0.00     0.039 C 
BRANCH  13  15
ATOM     15  C   UNL     1      24.373  -9.582   9.114  1.00  0.00     0.035 C 
BRANCH  15  16
ATOM     16  C   UNL     1      22.852  -9.483   9.265  1.00  0.00     0.079 C 
BRANCH  16  17
ATOM     17  C   UNL     1      22.485  -8.896  10.603  1.00  0.00     0.130 C 
ATOM     18  O   UNL     1      22.179  -9.641  11.521  1.00  0.00    -0.300 OA
ATOM     19  C   UNL     1      22.501  -7.414  10.837  1.00  0.00     0.087 C 
ENDBRANCH  16  17
ENDBRANCH  15  16
ENDBRANCH  13  15
ENDBRANCH  11  12
ENDBRANCH   1  11
TORSDOF 9
ENDMDL
MODEL 4
REMARK VINA RESULT:    -5.241      2.714      7.008
REMARK INTER + INTRA:          -9.292
REMARK INTER:                  -7.762
REMARK INTRA:                  -1.529
REMARK UNBOUND:                -1.293
REMARK SMILES CC(=O)CCC=C(C)CCC=C(C)CCC=C(C)C
REMARK SMILES IDX 10 1 11 2 12 3 13 4 14 5 15 6 16 7 18 8 17 9 19 10 9 11 7 12
REMARK SMILES IDX 6 13 8 14 5 15 4 16 2 17 3 18 1 19
REMARK H PARENT
REMARK Flexibility Score: inf
ROOT
ATOM      1  C   UNL     1      22.269  -5.269   9.234  1.00  0.00     0.032 C 
ENDROOT
BRANCH   1   2
ATOM      2  C   UNL     1      23.204  -4.166   8.806  1.00  0.00    -0.028 C 
ATOM      3  C   UNL     1      23.654  -3.992   7.543  1.00  0.00    -0.077 C 
ATOM      4  C   UNL     1      23.281  -4.938   6.425  1.00  0.00     0.039 C 
BRANCH   3   5
ATOM      5  C   UNL     1      24.584  -2.835   7.246  1.00  0.00     0.034 C 
BRANCH   5   6
ATOM      6  C   UNL     1      23.909  -1.774   6.367  1.00  0.00     0.032 C 
BRANCH   6   7
ATOM      7  C   UNL     1      22.863  -1.009   7.147  1.00  0.00    -0.028 C 
ATOM      8  C   UNL     1      20.615  -0.349   7.885  1.00  0.00     0.039 C 
ATOM      9  C   UNL     1      21.528  -1.141   6.985  1.00  0.00    -0.080 C 
ATOM     10  C   UNL     1      20.930  -2.052   5.939  1.00  0.00     0.039 C 
ENDBRANCH   6   7
ENDBRANCH   5   6
ENDBRANCH   3   5
ENDBRANCH   1   2
BRANCH   1  11
ATOM     11  C   UNL     1      22.956  -6.213  10.227  1.00  0.00     0.034 C 
BRANCH  11  12
ATOM     12  C   UNL     1      23.285  -7.535   9.569  1.00  0.00    -0.077 C 
ATOM     13  C   UNL     1      24.290  -7.587   8.666  1.00  0.00    -0.028 C 
ATOM     14  C   UNL     1      22.493  -8.762   9.953  1.00  0.00     0.039 C 
BRANCH  13  15
ATOM     15  C   UNL     1      24.686  -8.825   7.902  1.00  0.00     0.035 C 
BRANCH  15  16
ATOM     16  C   UNL     1      25.916  -8.554   7.031  1.00  0.00     0.079 C 
BRANCH  16  17
ATOM     17  C   UNL     1      27.164  -9.080   7.691  1.00  0.00     0.130 C 
ATOM     18  O   UNL     1      27.091 -10.059   8.417  1.00  0.00    -0.300 OA
ATOM     19  C   UNL     1      28.499  -8.435   7.465  1.00  0.00     0.087 C 
ENDBRANCH  16  17
ENDBRANCH  15  16
ENDBRANCH  13  15
ENDBRANCH  11  12
ENDBRANCH   1  11
TORSDOF 9
ENDMDL
MODEL 5
REMARK VINA RESULT:    -5.057      1.613      3.954
REMARK INTER + INTRA:          -9.010
REMARK INTER:                  -7.764
REMARK INTRA:                  -1.246
REMARK UNBOUND:                -1.293
REMARK SMILES CC(=O)CCC=C(C)CCC=C(C)CCC=C(C)C
REMARK SMILES IDX 10 1 11 2 12 3 13 4 14 5 15 6 16 7 18 8 17 9 19 10 9 11 7 12
REMARK SMILES IDX 6 13 8 14 5 15 4 16 2 17 3 18 1 19
REMARK H PARENT
REMARK Flexibility Score: inf
ROOT
ATOM      1  C   UNL     1      25.078  -5.769   8.185  1.00  0.00     0.032 C 
ENDROOT
BRANCH   1   2
ATOM      2  C   UNL     1      25.631  -7.169   8.090  1.00  0.00    -0.028 C 
ATOM      3  C   UNL     1      24.987  -8.277   8.521  1.00  0.00    -0.077 C 
ATOM      4  C   UNL     1      23.636  -8.203   9.194  1.00  0.00     0.039 C 
BRANCH   3   5
ATOM      5  C   UNL     1      25.653  -9.626   8.358  1.00  0.00     0.034 C 
BRANCH   5   6
ATOM      6  C   UNL     1      26.697  -9.611   7.234  1.00  0.00     0.032 C 
BRANCH   6   7
ATOM      7  C   UNL     1      28.046 -10.069   7.740  1.00  0.00    -0.028 C 
ATOM      8  C   UNL     1      30.414  -9.888   8.368  1.00  0.00     0.039 C 
ATOM      9  C   UNL     1      29.159  -9.302   7.776  1.00  0.00    -0.080 C 
ATOM     10  C   UNL     1      29.179  -7.888   7.248  1.00  0.00     0.039 C 
ENDBRANCH   6   7
ENDBRANCH   5   6
ENDBRANCH   3   5
ENDBRANCH   1   2
BRANCH   1  11
ATOM     11  C   UNL     1      25.412  -4.964   6.925  1.00  0.00     0.034 C 
BRANCH  11  12
ATOM     12  C   UNL     1      24.282  -4.019   6.579  1.00  0.00    -0.077 C 
ATOM     13  C   UNL     1      24.436  -2.696   6.815  1.00  0.00    -0.028 C 
ATOM     14  C   UNL     1      23.021  -4.578   5.963  1.00  0.00     0.039 C 
BRANCH  13  15
ATOM     15  C   UNL     1      23.373  -1.657   6.565  1.00  0.00     0.035 C 
BRANCH  15  16
ATOM     16  C   UNL     1      22.649  -1.300   7.867  1.00  0.00     0.079 C 
BRANCH  16  17
ATOM     17  C   UNL     1      21.155  -1.365   7.682  1.00  0.00     0.130 C 
ATOM     18  O   UNL     1      20.538  -0.344   7.419  1.00  0.00    -0.300 OA
ATOM     19  C   UNL     1      20.409  -2.661   7.800  1.00  0.00     0.087 C 
ENDBRANCH  16  17
ENDBRANCH  15  16
ENDBRANCH  13  15
ENDBRANCH  11  12
ENDBRANCH   1  11
TORSDOF 9
ENDMDL
MODEL 6
REMARK VINA RESULT:    -5.037     12.807     16.757
REMARK INTER + INTRA:          -8.979
REMARK INTER:                  -7.807
REMARK INTRA:                  -1.172
REMARK UNBOUND:                -1.293
REMARK SMILES CC(=O)CCC=C(C)CCC=C(C)CCC=C(C)C
REMARK SMILES IDX 10 1 11 2 12 3 13 4 14 5 15 6 16 7 18 8 17 9 19 10 9 11 7 12
REMARK SMILES IDX 6 13 8 14 5 15 4 16 2 17 3 18 1 19
REMARK H PARENT
REMARK Flexibility Score: inf
ROOT
ATOM      1  C   UNL     1      13.974  -1.497  20.526  1.00  0.00     0.032 C 
ENDROOT
BRANCH   1   2
ATOM      2  C   UNL     1      14.268  -0.286  21.376  1.00  0.00    -0.028 C 
ATOM      3  C   UNL     1      13.393   0.268  22.245  1.00  0.00    -0.077 C 
ATOM      4  C   UNL     1      11.990  -0.265  22.415  1.00  0.00     0.039 C 
BRANCH   3   5
ATOM      5  C   UNL     1      13.820   1.481  23.046  1.00  0.00     0.034 C 
BRANCH   5   6
ATOM      6  C   UNL     1      14.710   2.420  22.222  1.00  0.00     0.032 C 
BRANCH   6   7
ATOM      7  C   UNL     1      15.939   2.827  23.004  1.00  0.00    -0.028 C 
ATOM      8  C   UNL     1      18.329   3.004  23.543  1.00  0.00     0.039 C 
ATOM      9  C   UNL     1      17.205   2.464  22.698  1.00  0.00    -0.080 C 
ATOM     10  C   UNL     1      17.522   1.544  21.543  1.00  0.00     0.039 C 
ENDBRANCH   6   7
ENDBRANCH   5   6
ENDBRANCH   3   5
ENDBRANCH   1   2
BRANCH   1  11
ATOM     11  C   UNL     1      15.269  -2.206  20.119  1.00  0.00     0.034 C 
BRANCH  11  12
ATOM     12  C   UNL     1      14.973  -3.570  19.535  1.00  0.00    -0.077 C 
ATOM     13  C   UNL     1      15.796  -4.602  19.827  1.00  0.00    -0.028 C 
ATOM     14  C   UNL     1      13.756  -3.743  18.657  1.00  0.00     0.039 C 
BRANCH  13  15
ATOM     15  C   UNL     1      15.645  -5.996  19.271  1.00  0.00     0.035 C 
BRANCH  15  16
ATOM     16  C   UNL     1      16.683  -6.258  18.176  1.00  0.00     0.079 C 
BRANCH  16  17
ATOM     17  C   UNL     1      16.110  -5.961  16.815  1.00  0.00     0.130 C 
ATOM     18  O   UNL     1      16.743  -5.263  16.037  1.00  0.00    -0.300 OA
ATOM     19  C   UNL     1      14.784  -6.515  16.387  1.00  0.00     0.087 C 
ENDBRANCH  16  17
ENDBRANCH  15  16
ENDBRANCH  13  15
ENDBRANCH  11  12
ENDBRANCH   1  11
TORSDOF 9
ENDMDL
MODEL 7
REMARK VINA RESULT:    -5.013     11.899     14.625
REMARK INTER + INTRA:          -8.943
REMARK INTER:                  -6.955
REMARK INTRA:                  -1.988
REMARK UNBOUND:                -1.293
REMARK SMILES CC(=O)CCC=C(C)CCC=C(C)CCC=C(C)C
REMARK SMILES IDX 10 1 11 2 12 3 13 4 14 5 15 6 16 7 18 8 17 9 19 10 9 11 7 12
REMARK SMILES IDX 6 13 8 14 5 15 4 16 2 17 3 18 1 19
REMARK H PARENT
REMARK Flexibility Score: inf
ROOT
ATOM      1  C   UNL     1      15.461  -6.232  16.210  1.00  0.00     0.032 C 
ENDROOT
BRANCH   1   2
ATOM      2  C   UNL     1      14.588  -7.407  16.570  1.00  0.00    -0.028 C 
ATOM      3  C   UNL     1      13.364  -7.304  17.137  1.00  0.00    -0.077 C 
ATOM      4  C   UNL     1      12.766  -5.967  17.508  1.00  0.00     0.039 C 
BRANCH   3   5
ATOM      5  C   UNL     1      12.586  -8.567  17.441  1.00  0.00     0.034 C 
BRANCH   5   6
ATOM      6  C   UNL     1      13.270  -9.408  18.526  1.00  0.00     0.032 C 
BRANCH   6   7
ATOM      7  C   UNL     1      12.398  -9.523  19.755  1.00  0.00    -0.028 C 
ATOM      8  C   UNL     1      11.572  -9.000  22.009  1.00  0.00     0.039 C 
ATOM      9  C   UNL     1      12.567  -8.813  20.893  1.00  0.00    -0.080 C 
ATOM     10  C   UNL     1      13.712  -7.846  21.075  1.00  0.00     0.039 C 
ENDBRANCH   6   7
ENDBRANCH   5   6
ENDBRANCH   3   5
ENDBRANCH   1   2
BRANCH   1  11
ATOM     11  C   UNL     1      16.771  -6.261  17.005  1.00  0.00     0.034 C 
BRANCH  11  12
ATOM     12  C   UNL     1      16.502  -6.106  18.486  1.00  0.00    -0.077 C 
ATOM     13  C   UNL     1      15.828  -5.017  18.921  1.00  0.00    -0.028 C 
ATOM     14  C   UNL     1      16.978  -7.181  19.434  1.00  0.00     0.039 C 
BRANCH  13  15
ATOM     15  C   UNL     1      15.540  -4.716  20.370  1.00  0.00     0.035 C 
BRANCH  15  16
ATOM     16  C   UNL     1      14.359  -3.748  20.497  1.00  0.00     0.079 C 
BRANCH  16  17
ATOM     17  C   UNL     1      14.614  -2.488  19.713  1.00  0.00     0.130 C 
ATOM     18  O   UNL     1      13.904  -2.224  18.755  1.00  0.00    -0.300 OA
ATOM     19  C   UNL     1      15.716  -1.542  20.089  1.00  0.00     0.087 C 
ENDBRANCH  16  17
ENDBRANCH  15  16
ENDBRANCH  13  15
ENDBRANCH  11  12
ENDBRANCH   1  11
TORSDOF 9
ENDMDL
MODEL 8
REMARK VINA RESULT:    -5.005      1.651      3.547
REMARK INTER + INTRA:          -8.930
REMARK INTER:                  -7.812
REMARK INTRA:                  -1.118
REMARK UNBOUND:                -1.293
REMARK SMILES CC(=O)CCC=C(C)CCC=C(C)CCC=C(C)C
REMARK SMILES IDX 10 1 11 2 12 3 13 4 14 5 15 6 16 7 18 8 17 9 19 10 9 11 7 12
REMARK SMILES IDX 6 13 8 14 5 15 4 16 2 17 3 18 1 19
REMARK H PARENT
REMARK Flexibility Score: inf
ROOT
ATOM      1  C   UNL     1      23.163  -5.854   9.250  1.00  0.00     0.032 C 
ENDROOT
BRANCH   1   2
ATOM      2  C   UNL     1      23.633  -7.286   9.277  1.00  0.00    -0.028 C 
ATOM      3  C   UNL     1      23.725  -8.081   8.187  1.00  0.00    -0.077 C 
ATOM      4  C   UNL     1      23.315  -7.604   6.814  1.00  0.00     0.039 C 
BRANCH   3   5
ATOM      5  C   UNL     1      24.222  -9.502   8.353  1.00  0.00     0.034 C 
BRANCH   5   6
ATOM      6  C   UNL     1      25.754  -9.568   8.380  1.00  0.00     0.032 C 
BRANCH   6   7
ATOM      7  C   UNL     1      26.360  -8.199   8.164  1.00  0.00    -0.028 C 
ATOM      8  C   UNL     1      27.635  -6.436   7.023  1.00  0.00     0.039 C 
ATOM      9  C   UNL     1      27.161  -7.863   7.128  1.00  0.00    -0.080 C 
ATOM     10  C   UNL     1      27.587  -8.865   6.082  1.00  0.00     0.039 C 
ENDBRANCH   6   7
ENDBRANCH   5   6
ENDBRANCH   3   5
ENDBRANCH   1   2
BRANCH   1  11
ATOM     11  C   UNL     1      24.324  -4.904   8.940  1.00  0.00     0.034 C 
BRANCH  11  12
ATOM     12  C   UNL     1      24.012  -4.054   7.728  1.00  0.00    -0.077 C 
ATOM     13  C   UNL     1      22.728  -3.709   7.480  1.00  0.00    -0.028 C 
ATOM     14  C   UNL     1      25.146  -3.601   6.838  1.00  0.00     0.039 C 
BRANCH  13  15
ATOM     15  C   UNL     1      22.276  -2.912   6.283  1.00  0.00     0.035 C 
BRANCH  15  16
ATOM     16  C   UNL     1      20.991  -2.140   6.600  1.00  0.00     0.079 C 
BRANCH  16  17
ATOM     17  C   UNL     1      21.299  -0.887   7.376  1.00  0.00     0.130 C 
ATOM     18  O   UNL     1      22.462  -0.545   7.527  1.00  0.00    -0.300 OA
ATOM     19  C   UNL     1      20.207  -0.040   7.958  1.00  0.00     0.087 C 
ENDBRANCH  16  17
ENDBRANCH  15  16
ENDBRANCH  13  15
ENDBRANCH  11  12
ENDBRANCH   1  11
TORSDOF 9
ENDMDL
