MODEL 1
REMARK VINA RESULT:    -2.968      0.000      0.000
REMARK INTER + INTRA:          -3.610
REMARK INTER:                  -3.575
REMARK INTRA:                  -0.035
REMARK UNBOUND:                -0.035
REMARK SMILES CCCCCO
REMARK SMILES IDX 4 1 3 2 2 3 1 4 5 5 6 6
REMARK H PARENT 6 7
REMARK Flexibility Score: inf
ROOT
ATOM      1  C   UNL     1     177.005 175.669 180.768  1.00  0.00     0.028 C 
ENDROOT
BRANCH   1   2
ATOM      2  C   UNL     1     177.016 177.022 181.496  1.00  0.00     0.002 C 
BRANCH   2   3
ATOM      3  C   UNL     1     176.692 176.889 182.991  1.00  0.00    -0.003 C 
ATOM      4  C   UNL     1     176.014 175.564 183.334  1.00  0.00     0.004 C 
ENDBRANCH   2   3
ENDBRANCH   1   2
BRANCH   1   5
ATOM      5  C   UNL     1     176.489 175.821 179.335  1.00  0.00     0.156 C 
BRANCH   5   6
ATOM      6  O   UNL     1     177.317 175.123 178.444  1.00  0.00    -0.396 OA
ATOM      7  H   UNL     1     176.901 174.232 178.309  1.00  0.00     0.210 HD
ENDBRANCH   5   6
ENDBRANCH   1   5
TORSDOF 4
ENDMDL
MODEL 2
REMARK VINA RESULT:    -2.770      1.963      2.627
REMARK INTER + INTRA:          -3.372
REMARK INTER:                  -3.332
REMARK INTRA:                  -0.040
REMARK UNBOUND:                -0.035
REMARK SMILES CCCCCO
REMARK SMILES IDX 4 1 3 2 2 3 1 4 5 5 6 6
REMARK H PARENT 6 7
REMARK Flexibility Score: inf
ROOT
ATOM      1  C   UNL     1     176.659 174.599 181.763  1.00  0.00     0.028 C 
ENDROOT
BRANCH   1   2
ATOM      2  C   UNL     1     176.327 175.260 183.110  1.00  0.00     0.002 C 
BRANCH   2   3
ATOM      3  C   UNL     1     176.423 176.792 183.053  1.00  0.00    -0.003 C 
ATOM      4  C   UNL     1     177.098 177.296 181.779  1.00  0.00     0.004 C 
ENDBRANCH   2   3
ENDBRANCH   1   2
BRANCH   1   5
ATOM      5  C   UNL     1     177.808 173.597 181.911  1.00  0.00     0.156 C 
BRANCH   5   6
ATOM      6  O   UNL     1     177.685 172.575 180.959  1.00  0.00    -0.396 OA
ATOM      7  H   UNL     1     178.551 172.532 180.476  1.00  0.00     0.210 HD
ENDBRANCH   5   6
ENDBRANCH   1   5
TORSDOF 4
ENDMDL
MODEL 3
REMARK VINA RESULT:    -2.733     13.002     13.717
REMARK INTER + INTRA:          -3.327
REMARK INTER:                  -3.288
REMARK INTRA:                  -0.039
REMARK UNBOUND:                -0.035
REMARK SMILES CCCCCO
REMARK SMILES IDX 4 1 3 2 2 3 1 4 5 5 6 6
REMARK H PARENT 6 7
REMARK Flexibility Score: inf
ROOT
ATOM      1  C   UNL     1     176.584 175.591 167.452  1.00  0.00     0.028 C 
ENDROOT
BRANCH   1   2
ATOM      2  C   UNL     1     177.828 176.408 167.837  1.00  0.00     0.002 C 
BRANCH   2   3
ATOM      3  C   UNL     1     177.489 177.612 168.727  1.00  0.00    -0.003 C 
ATOM      4  C   UNL     1     176.001 177.958 168.714  1.00  0.00     0.004 C 
ENDBRANCH   2   3
ENDBRANCH   1   2
BRANCH   1   5
ATOM      5  C   UNL     1     176.629 175.184 165.977  1.00  0.00     0.156 C 
BRANCH   5   6
ATOM      6  O   UNL     1     177.495 174.096 165.800  1.00  0.00    -0.396 OA
ATOM      7  H   UNL     1     176.933 173.279 165.826  1.00  0.00     0.210 HD
ENDBRANCH   5   6
ENDBRANCH   1   5
TORSDOF 4
ENDMDL
MODEL 4
REMARK VINA RESULT:    -2.605     16.175     16.604
REMARK INTER + INTRA:          -3.173
REMARK INTER:                  -3.163
REMARK INTRA:                  -0.009
REMARK UNBOUND:                -0.035
REMARK SMILES CCCCCO
REMARK SMILES IDX 4 1 3 2 2 3 1 4 5 5 6 6
REMARK H PARENT 6 7
REMARK Flexibility Score: inf
ROOT
ATOM      1  C   UNL     1     159.995 174.316 181.327  1.00  0.00     0.028 C 
ENDROOT
BRANCH   1   2
ATOM      2  C   UNL     1     160.804 175.620 181.254  1.00  0.00     0.002 C 
BRANCH   2   3
ATOM      3  C   UNL     1     161.127 176.191 182.643  1.00  0.00    -0.003 C 
ATOM      4  C   UNL     1     161.803 177.559 182.578  1.00  0.00     0.004 C 
ENDBRANCH   2   3
ENDBRANCH   1   2
BRANCH   1   5
ATOM      5  C   UNL     1     159.729 173.756 179.927  1.00  0.00     0.156 C 
BRANCH   5   6
ATOM      6  O   UNL     1     158.354 173.771 179.651  1.00  0.00    -0.396 OA
ATOM      7  H   UNL     1     157.936 174.365 180.328  1.00  0.00     0.210 HD
ENDBRANCH   5   6
ENDBRANCH   1   5
TORSDOF 4
ENDMDL
MODEL 5
REMARK VINA RESULT:    -2.600      3.051      3.520
REMARK INTER + INTRA:          -3.166
REMARK INTER:                  -3.122
REMARK INTRA:                  -0.044
REMARK UNBOUND:                -0.035
REMARK SMILES CCCCCO
REMARK SMILES IDX 4 1 3 2 2 3 1 4 5 5 6 6
REMARK H PARENT 6 7
REMARK Flexibility Score: inf
ROOT
ATOM      1  C   UNL     1     173.892 176.989 182.506  1.00  0.00     0.028 C 
ENDROOT
BRANCH   1   2
ATOM      2  C   UNL     1     175.308 176.562 182.924  1.00  0.00     0.002 C 
BRANCH   2   3
ATOM      3  C   UNL     1     176.380 177.023 181.926  1.00  0.00    -0.003 C 
ATOM      4  C   UNL     1     177.390 177.987 182.546  1.00  0.00     0.004 C 
ENDBRANCH   2   3
ENDBRANCH   1   2
BRANCH   1   5
ATOM      5  C   UNL     1     173.735 176.958 180.984  1.00  0.00     0.156 C 
BRANCH   5   6
ATOM      6  O   UNL     1     172.592 177.672 180.599  1.00  0.00    -0.396 OA
ATOM      7  H   UNL     1     172.800 178.634 180.731  1.00  0.00     0.210 HD
ENDBRANCH   5   6
ENDBRANCH   1   5
TORSDOF 4
ENDMDL
MODEL 6
REMARK VINA RESULT:    -2.521      2.516      3.459
REMARK INTER + INTRA:          -3.072
REMARK INTER:                  -3.037
REMARK INTRA:                  -0.035
REMARK UNBOUND:                -0.035
REMARK SMILES CCCCCO
REMARK SMILES IDX 4 1 3 2 2 3 1 4 5 5 6 6
REMARK H PARENT 6 7
REMARK Flexibility Score: inf
ROOT
ATOM      1  C   UNL     1     176.966 175.663 181.479  1.00  0.00     0.028 C 
ENDROOT
BRANCH   1   2
ATOM      2  C   UNL     1     177.076 177.195 181.512  1.00  0.00     0.002 C 
BRANCH   2   3
ATOM      3  C   UNL     1     176.937 177.826 180.119  1.00  0.00    -0.003 C 
ATOM      4  C   UNL     1     175.572 177.562 179.484  1.00  0.00     0.004 C 
ENDBRANCH   2   3
ENDBRANCH   1   2
BRANCH   1   5
ATOM      5  C   UNL     1     176.514 175.115 182.835  1.00  0.00     0.156 C 
BRANCH   5   6
ATOM      6  O   UNL     1     176.488 176.142 183.789  1.00  0.00    -0.396 OA
ATOM      7  H   UNL     1     175.542 176.246 184.069  1.00  0.00     0.210 HD
ENDBRANCH   5   6
ENDBRANCH   1   5
TORSDOF 4
ENDMDL
MODEL 7
REMARK VINA RESULT:    -2.492     21.021     21.428
REMARK INTER + INTRA:          -3.036
REMARK INTER:                  -2.961
REMARK INTRA:                  -0.075
REMARK UNBOUND:                -0.035
REMARK SMILES CCCCCO
REMARK SMILES IDX 4 1 3 2 2 3 1 4 5 5 6 6
REMARK H PARENT 6 7
REMARK Flexibility Score: inf
ROOT
ATOM      1  C   UNL     1     162.023 161.279 182.299  1.00  0.00     0.028 C 
ENDROOT
BRANCH   1   2
ATOM      2  C   UNL     1     160.985 161.848 183.279  1.00  0.00     0.002 C 
BRANCH   2   3
ATOM      3  C   UNL     1     160.130 162.960 182.652  1.00  0.00    -0.003 C 
ATOM      4  C   UNL     1     158.634 162.652 182.697  1.00  0.00     0.004 C 
ENDBRANCH   2   3
ENDBRANCH   1   2
BRANCH   1   5
ATOM      5  C   UNL     1     161.714 161.706 180.862  1.00  0.00     0.156 C 
BRANCH   5   6
ATOM      6  O   UNL     1     161.188 160.627 180.138  1.00  0.00    -0.396 OA
ATOM      7  H   UNL     1     161.218 160.886 179.180  1.00  0.00     0.210 HD
ENDBRANCH   5   6
ENDBRANCH   1   5
TORSDOF 4
ENDMDL
MODEL 8
REMARK VINA RESULT:    -2.466      2.044      2.128
REMARK INTER + INTRA:          -3.005
REMARK INTER:                  -2.945
REMARK INTRA:                  -0.060
REMARK UNBOUND:                -0.035
REMARK SMILES CCCCCO
REMARK SMILES IDX 4 1 3 2 2 3 1 4 5 5 6 6
REMARK H PARENT 6 7
REMARK Flexibility Score: inf
ROOT
ATOM      1  C   UNL     1     175.580 176.263 180.578  1.00  0.00     0.028 C 
ENDROOT
BRANCH   1   2
ATOM      2  C   UNL     1     176.879 177.075 180.697  1.00  0.00     0.002 C 
BRANCH   2   3
ATOM      3  C   UNL     1     177.128 177.582 182.126  1.00  0.00    -0.003 C 
ATOM      4  C   UNL     1     176.477 176.699 183.189  1.00  0.00     0.004 C 
ENDBRANCH   2   3
ENDBRANCH   1   2
BRANCH   1   5
ATOM      5  C   UNL     1     174.420 177.146 180.112  1.00  0.00     0.156 C 
BRANCH   5   6
ATOM      6  O   UNL     1     174.822 177.942 179.029  1.00  0.00    -0.396 OA
ATOM      7  H   UNL     1     175.702 178.331 179.274  1.00  0.00     0.210 HD
ENDBRANCH   5   6
ENDBRANCH   1   5
TORSDOF 4
ENDMDL
MODEL 9
REMARK VINA RESULT:    -2.461     13.297     13.775
REMARK INTER + INTRA:          -2.999
REMARK INTER:                  -2.966
REMARK INTRA:                  -0.033
REMARK UNBOUND:                -0.035
REMARK SMILES CCCCCO
REMARK SMILES IDX 4 1 3 2 2 3 1 4 5 5 6 6
REMARK H PARENT 6 7
REMARK Flexibility Score: inf
ROOT
ATOM      1  C   UNL     1     177.961 162.961 180.442  1.00  0.00     0.028 C 
ENDROOT
BRANCH   1   2
ATOM      2  C   UNL     1     177.655 161.674 181.224  1.00  0.00     0.002 C 
BRANCH   2   3
ATOM      3  C   UNL     1     177.401 161.938 182.716  1.00  0.00    -0.003 C 
ATOM      4  C   UNL     1     176.571 163.197 182.962  1.00  0.00     0.004 C 
ENDBRANCH   2   3
ENDBRANCH   1   2
BRANCH   1   5
ATOM      5  C   UNL     1     177.903 162.713 178.933  1.00  0.00     0.156 C 
BRANCH   5   6
ATOM      6  O   UNL     1     177.487 161.400 178.673  1.00  0.00    -0.396 OA
ATOM      7  H   UNL     1     178.198 160.802 179.023  1.00  0.00     0.210 HD
ENDBRANCH   5   6
ENDBRANCH   1   5
TORSDOF 4
ENDMDL
