MODEL 1
REMARK VINA RESULT:    -5.237      0.000      0.000
REMARK INTER + INTRA:          -6.873
REMARK INTER:                  -6.768
REMARK INTRA:                  -0.106
REMARK UNBOUND:                -0.106
REMARK SMILES CCCCCCC=O
REMARK SMILES IDX 4 1 3 2 2 3 1 4 5 5 6 6 7 7 8 8
REMARK H PARENT
REMARK Flexibility Score: inf
ROOT
ATOM      1  C   UNL     1      22.901  51.167  -4.986  1.00  0.00     0.000 C 
ENDROOT
BRANCH   1   2
ATOM      2  C   UNL     1      23.281  49.968  -4.101  1.00  0.00    -0.000 C 
BRANCH   2   3
ATOM      3  C   UNL     1      24.421  49.131  -4.702  1.00  0.00    -0.003 C 
ATOM      4  C   UNL     1      24.860  47.989  -3.785  1.00  0.00     0.004 C 
ENDBRANCH   2   3
ENDBRANCH   1   2
BRANCH   1   5
ATOM      5  C   UNL     1      22.243  52.314  -4.197  1.00  0.00     0.008 C 
BRANCH   5   6
ATOM      6  C   UNL     1      22.490  53.707  -4.804  1.00  0.00     0.072 C 
BRANCH   6   7
ATOM      7  C   UNL     1      23.276  53.647  -6.080  1.00  0.00     0.224 C 
ATOM      8  O   UNL     1      22.797  54.059  -7.125  1.00  0.00    -0.303 OA
ENDBRANCH   6   7
ENDBRANCH   5   6
ENDBRANCH   1   5
TORSDOF 5
ENDMDL
MODEL 2
REMARK VINA RESULT:    -5.228      3.030      5.268
REMARK INTER + INTRA:          -6.862
REMARK INTER:                  -6.787
REMARK INTRA:                  -0.075
REMARK UNBOUND:                -0.106
REMARK SMILES CCCCCCC=O
REMARK SMILES IDX 4 1 3 2 2 3 1 4 5 5 6 6 7 7 8 8
REMARK H PARENT
REMARK Flexibility Score: inf
ROOT
ATOM      1  C   UNL     1      23.581  51.111  -4.709  1.00  0.00     0.000 C 
ENDROOT
BRANCH   1   2
ATOM      2  C   UNL     1      22.293  51.866  -4.338  1.00  0.00    -0.000 C 
BRANCH   2   3
ATOM      3  C   UNL     1      22.497  53.388  -4.295  1.00  0.00    -0.003 C 
ATOM      4  C   UNL     1      22.944  53.961  -5.640  1.00  0.00     0.004 C 
ENDBRANCH   2   3
ENDBRANCH   1   2
BRANCH   1   5
ATOM      5  C   UNL     1      23.396  49.582  -4.738  1.00  0.00     0.008 C 
BRANCH   5   6
ATOM      6  C   UNL     1      24.711  48.795  -4.596  1.00  0.00     0.072 C 
BRANCH   6   7
ATOM      7  C   UNL     1      24.670  47.804  -3.470  1.00  0.00     0.224 C 
ATOM      8  O   UNL     1      25.691  47.252  -3.093  1.00  0.00    -0.303 OA
ENDBRANCH   6   7
ENDBRANCH   5   6
ENDBRANCH   1   5
TORSDOF 5
ENDMDL
MODEL 3
REMARK VINA RESULT:    -5.101      0.886      1.476
REMARK INTER + INTRA:          -6.698
REMARK INTER:                  -6.584
REMARK INTRA:                  -0.114
REMARK UNBOUND:                -0.106
REMARK SMILES CCCCCCC=O
REMARK SMILES IDX 4 1 3 2 2 3 1 4 5 5 6 6 7 7 8 8
REMARK H PARENT
REMARK Flexibility Score: inf
ROOT
ATOM      1  C   UNL     1      22.493  52.178  -4.205  1.00  0.00     0.000 C 
ENDROOT
BRANCH   1   2
ATOM      2  C   UNL     1      23.304  51.118  -4.970  1.00  0.00    -0.000 C 
BRANCH   2   3
ATOM      3  C   UNL     1      23.433  49.801  -4.190  1.00  0.00    -0.003 C 
ATOM      4  C   UNL     1      24.161  48.715  -4.983  1.00  0.00     0.004 C 
ENDBRANCH   2   3
ENDBRANCH   1   2
BRANCH   1   5
ATOM      5  C   UNL     1      22.562  53.573  -4.853  1.00  0.00     0.008 C 
BRANCH   5   6
ATOM      6  C   UNL     1      22.869  53.543  -6.361  1.00  0.00     0.072 C 
BRANCH   6   7
ATOM      7  C   UNL     1      23.779  54.657  -6.785  1.00  0.00     0.224 C 
ATOM      8  O   UNL     1      24.109  54.778  -7.955  1.00  0.00    -0.303 OA
ENDBRANCH   6   7
ENDBRANCH   5   6
ENDBRANCH   1   5
TORSDOF 5
ENDMDL
MODEL 4
REMARK VINA RESULT:    -5.053      2.334      4.783
REMARK INTER + INTRA:          -6.635
REMARK INTER:                  -6.495
REMARK INTRA:                  -0.140
REMARK UNBOUND:                -0.106
REMARK SMILES CCCCCCC=O
REMARK SMILES IDX 4 1 3 2 2 3 1 4 5 5 6 6 7 7 8 8
REMARK H PARENT
REMARK Flexibility Score: inf
ROOT
ATOM      1  C   UNL     1      22.473  52.418  -4.222  1.00  0.00     0.000 C 
ENDROOT
BRANCH   1   2
ATOM      2  C   UNL     1      22.629  53.789  -4.903  1.00  0.00    -0.000 C 
BRANCH   2   3
ATOM      3  C   UNL     1      22.939  53.669  -6.403  1.00  0.00    -0.003 C 
ATOM      4  C   UNL     1      23.882  54.764  -6.899  1.00  0.00     0.004 C 
ENDBRANCH   2   3
ENDBRANCH   1   2
BRANCH   1   5
ATOM      5  C   UNL     1      23.254  51.299  -4.935  1.00  0.00     0.008 C 
BRANCH   5   6
ATOM      6  C   UNL     1      23.302  49.977  -4.149  1.00  0.00     0.072 C 
BRANCH   6   7
ATOM      7  C   UNL     1      24.356  49.040  -4.661  1.00  0.00     0.224 C 
ATOM      8  O   UNL     1      24.047  48.060  -5.321  1.00  0.00    -0.303 OA
ENDBRANCH   6   7
ENDBRANCH   5   6
ENDBRANCH   1   5
TORSDOF 5
ENDMDL
MODEL 5
REMARK VINA RESULT:    -4.953      2.183      3.602
REMARK INTER + INTRA:          -6.506
REMARK INTER:                  -6.408
REMARK INTRA:                  -0.098
REMARK UNBOUND:                -0.106
REMARK SMILES CCCCCCC=O
REMARK SMILES IDX 4 1 3 2 2 3 1 4 5 5 6 6 7 7 8 8
REMARK H PARENT
REMARK Flexibility Score: inf
ROOT
ATOM      1  C   UNL     1      22.932  53.524  -6.131  1.00  0.00     0.000 C 
ENDROOT
BRANCH   1   2
ATOM      2  C   UNL     1      22.506  53.432  -4.656  1.00  0.00    -0.000 C 
BRANCH   2   3
ATOM      3  C   UNL     1      22.119  52.003  -4.245  1.00  0.00    -0.003 C 
ATOM      4  C   UNL     1      23.145  50.963  -4.694  1.00  0.00     0.004 C 
ENDBRANCH   2   3
ENDBRANCH   1   2
BRANCH   1   5
ATOM      5  C   UNL     1      23.786  54.769  -6.435  1.00  0.00     0.008 C 
BRANCH   5   6
ATOM      6  C   UNL     1      24.257  54.858  -7.898  1.00  0.00     0.072 C 
BRANCH   6   7
ATOM      7  C   UNL     1      25.429  55.778  -8.070  1.00  0.00     0.224 C 
ATOM      8  O   UNL     1      25.530  56.474  -9.069  1.00  0.00    -0.303 OA
ENDBRANCH   6   7
ENDBRANCH   5   6
ENDBRANCH   1   5
TORSDOF 5
ENDMDL
MODEL 6
REMARK VINA RESULT:    -4.819      2.449      5.068
REMARK INTER + INTRA:          -6.334
REMARK INTER:                  -6.257
REMARK INTRA:                  -0.077
REMARK UNBOUND:                -0.106
REMARK SMILES CCCCCCC=O
REMARK SMILES IDX 4 1 3 2 2 3 1 4 5 5 6 6 7 7 8 8
REMARK H PARENT
REMARK Flexibility Score: inf
ROOT
ATOM      1  C   UNL     1      22.909  53.605  -6.261  1.00  0.00     0.000 C 
ENDROOT
BRANCH   1   2
ATOM      2  C   UNL     1      23.642  54.890  -6.681  1.00  0.00    -0.000 C 
BRANCH   2   3
ATOM      3  C   UNL     1      24.329  54.755  -8.049  1.00  0.00    -0.003 C 
ATOM      4  C   UNL     1      25.071  56.025  -8.463  1.00  0.00     0.004 C 
ENDBRANCH   2   3
ENDBRANCH   1   2
BRANCH   1   5
ATOM      5  C   UNL     1      22.588  53.558  -4.756  1.00  0.00     0.008 C 
BRANCH   5   6
ATOM      6  C   UNL     1      22.356  52.136  -4.214  1.00  0.00     0.072 C 
BRANCH   6   7
ATOM      7  C   UNL     1      23.427  51.176  -4.641  1.00  0.00     0.224 C 
ATOM      8  O   UNL     1      23.351  49.993  -4.349  1.00  0.00    -0.303 OA
ENDBRANCH   6   7
ENDBRANCH   5   6
ENDBRANCH   1   5
TORSDOF 5
ENDMDL
MODEL 7
REMARK VINA RESULT:    -4.698      2.952      4.401
REMARK INTER + INTRA:          -6.176
REMARK INTER:                  -6.111
REMARK INTRA:                  -0.066
REMARK UNBOUND:                -0.106
REMARK SMILES CCCCCCC=O
REMARK SMILES IDX 4 1 3 2 2 3 1 4 5 5 6 6 7 7 8 8
REMARK H PARENT
REMARK Flexibility Score: inf
ROOT
ATOM      1  C   UNL     1      22.986  54.297  -6.949  1.00  0.00     0.000 C 
ENDROOT
BRANCH   1   2
ATOM      2  C   UNL     1      22.827  53.999  -5.449  1.00  0.00    -0.000 C 
BRANCH   2   3
ATOM      3  C   UNL     1      23.131  52.533  -5.105  1.00  0.00    -0.003 C 
ATOM      4  C   UNL     1      22.037  51.888  -4.254  1.00  0.00     0.004 C 
ENDBRANCH   2   3
ENDBRANCH   1   2
BRANCH   1   5
ATOM      5  C   UNL     1      24.417  54.720  -7.331  1.00  0.00     0.008 C 
BRANCH   5   6
ATOM      6  C   UNL     1      24.478  55.716  -8.503  1.00  0.00     0.072 C 
BRANCH   6   7
ATOM      7  C   UNL     1      25.593  56.709  -8.356  1.00  0.00     0.224 C 
ATOM      8  O   UNL     1      25.482  57.838  -8.808  1.00  0.00    -0.303 OA
ENDBRANCH   6   7
ENDBRANCH   5   6
ENDBRANCH   1   5
TORSDOF 5
ENDMDL
MODEL 8
REMARK VINA RESULT:    -4.551      1.514      2.198
REMARK INTER + INTRA:          -5.987
REMARK INTER:                  -5.917
REMARK INTRA:                  -0.070
REMARK UNBOUND:                -0.106
REMARK SMILES CCCCCCC=O
REMARK SMILES IDX 4 1 3 2 2 3 1 4 5 5 6 6 7 7 8 8
REMARK H PARENT
REMARK Flexibility Score: inf
ROOT
ATOM      1  C   UNL     1      23.532  49.724  -3.885  1.00  0.00     0.000 C 
ENDROOT
BRANCH   1   2
ATOM      2  C   UNL     1      24.676  48.793  -4.323  1.00  0.00    -0.000 C 
BRANCH   2   3
ATOM      3  C   UNL     1      24.688  47.469  -3.544  1.00  0.00    -0.003 C 
ATOM      4  C   UNL     1      26.031  47.195  -2.868  1.00  0.00     0.004 C 
ENDBRANCH   2   3
ENDBRANCH   1   2
BRANCH   1   5
ATOM      5  C   UNL     1      23.117  50.724  -4.979  1.00  0.00     0.008 C 
BRANCH   5   6
ATOM      6  C   UNL     1      22.001  51.691  -4.545  1.00  0.00     0.072 C 
BRANCH   6   7
ATOM      7  C   UNL     1      22.444  53.125  -4.561  1.00  0.00     0.224 C 
ATOM      8  O   UNL     1      22.857  53.658  -3.543  1.00  0.00    -0.303 OA
ENDBRANCH   6   7
ENDBRANCH   5   6
ENDBRANCH   1   5
TORSDOF 5
ENDMDL
MODEL 9
REMARK VINA RESULT:    -4.481      2.841      5.634
REMARK INTER + INTRA:          -5.897
REMARK INTER:                  -5.840
REMARK INTRA:                  -0.056
REMARK UNBOUND:                -0.106
REMARK SMILES CCCCCCC=O
REMARK SMILES IDX 4 1 3 2 2 3 1 4 5 5 6 6 7 7 8 8
REMARK H PARENT
REMARK Flexibility Score: inf
ROOT
ATOM      1  C   UNL     1      23.274  54.751  -6.894  1.00  0.00     0.000 C 
ENDROOT
BRANCH   1   2
ATOM      2  C   UNL     1      24.623  55.002  -7.591  1.00  0.00    -0.000 C 
BRANCH   2   3
ATOM      3  C   UNL     1      24.538  56.106  -8.655  1.00  0.00    -0.003 C 
ATOM      4  C   UNL     1      25.746  57.042  -8.630  1.00  0.00     0.004 C 
ENDBRANCH   2   3
ENDBRANCH   1   2
BRANCH   1   5
ATOM      5  C   UNL     1      23.255  53.452  -6.068  1.00  0.00     0.008 C 
BRANCH   5   6
ATOM      6  C   UNL     1      22.530  53.586  -4.717  1.00  0.00     0.072 C 
BRANCH   6   7
ATOM      7  C   UNL     1      22.157  52.256  -4.130  1.00  0.00     0.224 C 
ATOM      8  O   UNL     1      22.667  51.229  -4.548  1.00  0.00    -0.303 OA
ENDBRANCH   6   7
ENDBRANCH   5   6
ENDBRANCH   1   5
TORSDOF 5
ENDMDL
