MODEL 1
REMARK VINA RESULT:    -5.498      0.000      0.000
REMARK INTER + INTRA:         -10.596
REMARK INTER:                  -8.390
REMARK INTRA:                  -2.206
REMARK UNBOUND:                -2.206
REMARK SMILES CC(=O)CCC=C(C)CCC=C(C)CCC=C(C)C
REMARK SMILES IDX 10 1 11 2 12 3 13 4 14 5 15 6 16 7 18 8 17 9 19 10 9 11 7 12
REMARK SMILES IDX 6 13 8 14 5 15 4 16 2 17 3 18 1 19
REMARK H PARENT
REMARK Flexibility Score: inf
ROOT
ATOM      1  C   UNL     1      -9.321 -23.071 -18.073  1.00  0.00     0.032 C 
ENDROOT
BRANCH   1   2
ATOM      2  C   UNL     1      -8.172 -22.164 -18.435  1.00  0.00    -0.028 C 
ATOM      3  C   UNL     1      -7.193 -21.780 -17.583  1.00  0.00    -0.077 C 
ATOM      4  C   UNL     1      -6.082 -20.914 -18.119  1.00  0.00     0.039 C 
BRANCH   3   5
ATOM      5  C   UNL     1      -7.185 -22.155 -16.111  1.00  0.00     0.034 C 
BRANCH   5   6
ATOM      6  C   UNL     1      -5.917 -22.926 -15.720  1.00  0.00     0.032 C 
BRANCH   6   7
ATOM      7  C   UNL     1      -5.944 -24.337 -16.262  1.00  0.00    -0.028 C 
ATOM      8  C   UNL     1      -5.256 -26.250 -17.641  1.00  0.00     0.039 C 
ATOM      9  C   UNL     1      -5.055 -24.841 -17.145  1.00  0.00    -0.080 C 
ATOM     10  C   UNL     1      -3.877 -24.039 -17.648  1.00  0.00     0.039 C 
ENDBRANCH   6   7
ENDBRANCH   5   6
ENDBRANCH   3   5
ENDBRANCH   1   2
BRANCH   1  11
ATOM     11  C   UNL     1      -8.922 -24.542 -18.236  1.00  0.00     0.034 C 
BRANCH  11  12
ATOM     12  C   UNL     1      -9.579 -25.392 -17.167  1.00  0.00    -0.077 C 
ATOM     13  C   UNL     1     -10.131 -26.600 -17.422  1.00  0.00    -0.028 C 
ATOM     14  C   UNL     1      -9.688 -24.837 -15.772  1.00  0.00     0.039 C 
BRANCH  13  15
ATOM     15  C   UNL     1     -10.093 -27.306 -18.757  1.00  0.00     0.035 C 
BRANCH  15  16
ATOM     16  C   UNL     1     -10.320 -28.816 -18.604  1.00  0.00     0.079 C 
BRANCH  16  17
ATOM     17  C   UNL     1      -9.017 -29.560 -18.451  1.00  0.00     0.130 C 
ATOM     18  O   UNL     1      -9.024 -30.706 -18.027  1.00  0.00    -0.300 OA
ATOM     19  C   UNL     1      -7.709 -28.921 -18.809  1.00  0.00     0.087 C 
ENDBRANCH  16  17
ENDBRANCH  15  16
ENDBRANCH  13  15
ENDBRANCH  11  12
ENDBRANCH   1  11
TORSDOF 9
ENDMDL
MODEL 2
REMARK VINA RESULT:    -5.368      1.466      3.651
REMARK INTER + INTRA:         -10.398
REMARK INTER:                  -8.217
REMARK INTRA:                  -2.181
REMARK UNBOUND:                -2.206
REMARK SMILES CC(=O)CCC=C(C)CCC=C(C)CCC=C(C)C
REMARK SMILES IDX 10 1 11 2 12 3 13 4 14 5 15 6 16 7 18 8 17 9 19 10 9 11 7 12
REMARK SMILES IDX 6 13 8 14 5 15 4 16 2 17 3 18 1 19
REMARK H PARENT
REMARK Flexibility Score: inf
ROOT
ATOM      1  C   UNL     1      -6.122 -24.769 -19.103  1.00  0.00     0.032 C 
ENDROOT
BRANCH   1   2
ATOM      2  C   UNL     1      -7.452 -24.795 -18.391  1.00  0.00    -0.028 C 
ATOM      3  C   UNL     1      -7.641 -24.459 -17.095  1.00  0.00    -0.077 C 
ATOM      4  C   UNL     1      -9.047 -24.485 -16.551  1.00  0.00     0.039 C 
BRANCH   3   5
ATOM      5  C   UNL     1      -6.501 -24.092 -16.161  1.00  0.00     0.034 C 
BRANCH   5   6
ATOM      6  C   UNL     1      -6.469 -22.588 -15.854  1.00  0.00     0.032 C 
BRANCH   6   7
ATOM      7  C   UNL     1      -5.580 -21.848 -16.828  1.00  0.00    -0.028 C 
ATOM      8  C   UNL     1      -5.003 -20.517 -18.810  1.00  0.00     0.039 C 
ATOM      9  C   UNL     1      -6.022 -21.147 -17.895  1.00  0.00    -0.080 C 
ATOM     10  C   UNL     1      -7.493 -20.980 -18.195  1.00  0.00     0.039 C 
ENDBRANCH   6   7
ENDBRANCH   5   6
ENDBRANCH   3   5
ENDBRANCH   1   2
BRANCH   1  11
ATOM     11  C   UNL     1      -5.776 -26.155 -19.656  1.00  0.00     0.034 C 
BRANCH  11  12
ATOM     12  C   UNL     1      -5.475 -27.118 -18.525  1.00  0.00    -0.077 C 
ATOM     13  C   UNL     1      -6.228 -28.212 -18.268  1.00  0.00    -0.028 C 
ATOM     14  C   UNL     1      -4.329 -26.806 -17.599  1.00  0.00     0.039 C 
BRANCH  13  15
ATOM     15  C   UNL     1      -7.395 -28.675 -19.106  1.00  0.00     0.035 C 
BRANCH  15  16
ATOM     16  C   UNL     1      -8.726 -28.129 -18.571  1.00  0.00     0.079 C 
BRANCH  16  17
ATOM     17  C   UNL     1      -9.865 -29.078 -18.844  1.00  0.00     0.130 C 
ATOM     18  O   UNL     1     -10.649 -29.353 -17.948  1.00  0.00    -0.300 OA
ATOM     19  C   UNL     1     -10.059 -29.694 -20.198  1.00  0.00     0.087 C 
ENDBRANCH  16  17
ENDBRANCH  15  16
ENDBRANCH  13  15
ENDBRANCH  11  12
ENDBRANCH   1  11
TORSDOF 9
ENDMDL
MODEL 3
REMARK VINA RESULT:    -5.342      1.593      3.621
REMARK INTER + INTRA:         -10.359
REMARK INTER:                  -8.548
REMARK INTRA:                  -1.811
REMARK UNBOUND:                -2.206
REMARK SMILES CC(=O)CCC=C(C)CCC=C(C)CCC=C(C)C
REMARK SMILES IDX 10 1 11 2 12 3 13 4 14 5 15 6 16 7 18 8 17 9 19 10 9 11 7 12
REMARK SMILES IDX 6 13 8 14 5 15 4 16 2 17 3 18 1 19
REMARK H PARENT
REMARK Flexibility Score: inf
ROOT
ATOM      1  C   UNL     1      -7.507 -25.451 -18.425  1.00  0.00     0.032 C 
ENDROOT
BRANCH   1   2
ATOM      2  C   UNL     1      -8.422 -25.614 -17.238  1.00  0.00    -0.028 C 
ATOM      3  C   UNL     1      -9.018 -24.596 -16.575  1.00  0.00    -0.077 C 
ATOM      4  C   UNL     1      -9.952 -24.935 -15.442  1.00  0.00     0.039 C 
BRANCH   3   5
ATOM      5  C   UNL     1      -8.761 -23.135 -16.902  1.00  0.00     0.034 C 
BRANCH   5   6
ATOM      6  C   UNL     1      -7.867 -22.459 -15.853  1.00  0.00     0.032 C 
BRANCH   6   7
ATOM      7  C   UNL     1      -6.507 -22.125 -16.425  1.00  0.00    -0.028 C 
ATOM      8  C   UNL     1      -4.096 -22.366 -16.828  1.00  0.00     0.039 C 
ATOM      9  C   UNL     1      -5.393 -22.868 -16.246  1.00  0.00    -0.080 C 
ATOM     10  C   UNL     1      -5.409 -24.172 -15.484  1.00  0.00     0.039 C 
ENDBRANCH   6   7
ENDBRANCH   5   6
ENDBRANCH   3   5
ENDBRANCH   1   2
BRANCH   1  11
ATOM     11  C   UNL     1      -6.303 -26.392 -18.315  1.00  0.00     0.034 C 
BRANCH  11  12
ATOM     12  C   UNL     1      -6.258 -27.339 -19.497  1.00  0.00    -0.077 C 
ATOM     13  C   UNL     1      -6.873 -28.544 -19.501  1.00  0.00    -0.028 C 
ATOM     14  C   UNL     1      -5.429 -26.956 -20.695  1.00  0.00     0.039 C 
BRANCH  13  15
ATOM     15  C   UNL     1      -7.753 -29.070 -18.392  1.00  0.00     0.035 C 
BRANCH  15  16
ATOM     16  C   UNL     1      -8.906 -29.920 -18.941  1.00  0.00     0.079 C 
BRANCH  16  17
ATOM     17  C   UNL     1      -9.988 -29.062 -19.548  1.00  0.00     0.130 C 
ATOM     18  O   UNL     1     -10.275 -27.996 -19.026  1.00  0.00    -0.300 OA
ATOM     19  C   UNL     1     -10.721 -29.492 -20.784  1.00  0.00     0.087 C 
ENDBRANCH  16  17
ENDBRANCH  15  16
ENDBRANCH  13  15
ENDBRANCH  11  12
ENDBRANCH   1  11
TORSDOF 9
ENDMDL
MODEL 4
REMARK VINA RESULT:    -5.266      1.557      3.269
REMARK INTER + INTRA:         -10.243
REMARK INTER:                  -7.656
REMARK INTRA:                  -2.587
REMARK UNBOUND:                -2.206
REMARK SMILES CC(=O)CCC=C(C)CCC=C(C)CCC=C(C)C
REMARK SMILES IDX 10 1 11 2 12 3 13 4 14 5 15 6 16 7 18 8 17 9 19 10 9 11 7 12
REMARK SMILES IDX 6 13 8 14 5 15 4 16 2 17 3 18 1 19
REMARK H PARENT
REMARK Flexibility Score: inf
ROOT
ATOM      1  C   UNL     1      -5.393 -23.758 -19.273  1.00  0.00     0.032 C 
ENDROOT
BRANCH   1   2
ATOM      2  C   UNL     1      -6.152 -22.461 -19.401  1.00  0.00    -0.028 C 
ATOM      3  C   UNL     1      -6.540 -21.687 -18.361  1.00  0.00    -0.077 C 
ATOM      4  C   UNL     1      -7.242 -20.389 -18.664  1.00  0.00     0.039 C 
BRANCH   3   5
ATOM      5  C   UNL     1      -6.329 -22.085 -16.910  1.00  0.00     0.034 C 
BRANCH   5   6
ATOM      6  C   UNL     1      -7.656 -22.229 -16.153  1.00  0.00     0.032 C 
BRANCH   6   7
ATOM      7  C   UNL     1      -8.166 -23.651 -16.206  1.00  0.00    -0.028 C 
ATOM      8  C   UNL     1      -9.556 -25.535 -16.949  1.00  0.00     0.039 C 
ATOM      9  C   UNL     1      -9.106 -24.102 -17.066  1.00  0.00    -0.080 C 
ATOM     10  C   UNL     1      -9.715 -23.217 -18.128  1.00  0.00     0.039 C 
ENDBRANCH   6   7
ENDBRANCH   5   6
ENDBRANCH   3   5
ENDBRANCH   1   2
BRANCH   1  11
ATOM     11  C   UNL     1      -6.357 -24.947 -19.215  1.00  0.00     0.034 C 
BRANCH  11  12
ATOM     12  C   UNL     1      -5.890 -25.961 -18.190  1.00  0.00    -0.077 C 
ATOM     13  C   UNL     1      -6.321 -27.243 -18.171  1.00  0.00    -0.028 C 
ATOM     14  C   UNL     1      -4.961 -25.504 -17.096  1.00  0.00     0.039 C 
BRANCH  13  15
ATOM     15  C   UNL     1      -7.236 -27.864 -19.200  1.00  0.00     0.035 C 
BRANCH  15  16
ATOM     16  C   UNL     1      -8.317 -28.733 -18.544  1.00  0.00     0.079 C 
BRANCH  16  17
ATOM     17  C   UNL     1      -9.548 -28.835 -19.409  1.00  0.00     0.130 C 
ATOM     18  O   UNL     1     -10.422 -27.987 -19.314  1.00  0.00    -0.300 OA
ATOM     19  C   UNL     1      -9.722 -29.959 -20.386  1.00  0.00     0.087 C 
ENDBRANCH  16  17
ENDBRANCH  15  16
ENDBRANCH  13  15
ENDBRANCH  11  12
ENDBRANCH   1  11
TORSDOF 9
ENDMDL
MODEL 5
REMARK VINA RESULT:    -5.179      1.952      2.776
REMARK INTER + INTRA:         -10.110
REMARK INTER:                  -8.076
REMARK INTRA:                  -2.034
REMARK UNBOUND:                -2.206
REMARK SMILES CC(=O)CCC=C(C)CCC=C(C)CCC=C(C)C
REMARK SMILES IDX 10 1 11 2 12 3 13 4 14 5 15 6 16 7 18 8 17 9 19 10 9 11 7 12
REMARK SMILES IDX 6 13 8 14 5 15 4 16 2 17 3 18 1 19
REMARK H PARENT
REMARK Flexibility Score: inf
ROOT
ATOM      1  C   UNL     1      -9.169 -24.757 -17.624  1.00  0.00     0.032 C 
ENDROOT
BRANCH   1   2
ATOM      2  C   UNL     1      -8.738 -23.438 -18.215  1.00  0.00    -0.028 C 
ATOM      3  C   UNL     1      -8.144 -22.439 -17.523  1.00  0.00    -0.077 C 
ATOM      4  C   UNL     1      -7.722 -21.205 -18.276  1.00  0.00     0.039 C 
BRANCH   3   5
ATOM      5  C   UNL     1      -7.916 -22.496 -16.022  1.00  0.00     0.034 C 
BRANCH   5   6
ATOM      6  C   UNL     1      -6.425 -22.424 -15.662  1.00  0.00     0.032 C 
BRANCH   6   7
ATOM      7  C   UNL     1      -5.776 -23.787 -15.743  1.00  0.00    -0.028 C 
ATOM      8  C   UNL     1      -4.448 -25.612 -16.714  1.00  0.00     0.039 C 
ATOM      9  C   UNL     1      -4.966 -24.197 -16.744  1.00  0.00    -0.080 C 
ATOM     10  C   UNL     1      -4.572 -23.287 -17.884  1.00  0.00     0.039 C 
ENDBRANCH   6   7
ENDBRANCH   5   6
ENDBRANCH   3   5
ENDBRANCH   1   2
BRANCH   1  11
ATOM     11  C   UNL     1      -8.089 -25.824 -17.833  1.00  0.00     0.034 C 
BRANCH  11  12
ATOM     12  C   UNL     1      -8.704 -27.111 -18.345  1.00  0.00    -0.077 C 
ATOM     13  C   UNL     1      -7.968 -28.153 -18.793  1.00  0.00    -0.028 C 
ATOM     14  C   UNL     1     -10.205 -27.208 -18.429  1.00  0.00     0.039 C 
BRANCH  13  15
ATOM     15  C   UNL     1      -6.460 -28.224 -18.763  1.00  0.00     0.035 C 
BRANCH  15  16
ATOM     16  C   UNL     1      -5.967 -29.392 -17.898  1.00  0.00     0.079 C 
BRANCH  16  17
ATOM     17  C   UNL     1      -4.487 -29.293 -17.624  1.00  0.00     0.130 C 
ATOM     18  O   UNL     1      -4.096 -29.130 -16.478  1.00  0.00    -0.300 OA
ATOM     19  C   UNL     1      -3.482 -29.392 -18.733  1.00  0.00     0.087 C 
ENDBRANCH  16  17
ENDBRANCH  15  16
ENDBRANCH  13  15
ENDBRANCH  11  12
ENDBRANCH   1  11
TORSDOF 9
ENDMDL
MODEL 6
REMARK VINA RESULT:    -5.148      1.568      3.837
REMARK INTER + INTRA:         -10.063
REMARK INTER:                  -8.013
REMARK INTRA:                  -2.050
REMARK UNBOUND:                -2.206
REMARK SMILES CC(=O)CCC=C(C)CCC=C(C)CCC=C(C)C
REMARK SMILES IDX 10 1 11 2 12 3 13 4 14 5 15 6 16 7 18 8 17 9 19 10 9 11 7 12
REMARK SMILES IDX 6 13 8 14 5 15 4 16 2 17 3 18 1 19
REMARK H PARENT
REMARK Flexibility Score: inf
ROOT
ATOM      1  C   UNL     1      -5.488 -23.084 -15.967  1.00  0.00     0.032 C 
ENDROOT
BRANCH   1   2
ATOM      2  C   UNL     1      -4.148 -23.603 -16.422  1.00  0.00    -0.028 C 
ATOM      3  C   UNL     1      -3.129 -22.830 -16.863  1.00  0.00    -0.077 C 
ATOM      4  C   UNL     1      -1.831 -23.503 -17.228  1.00  0.00     0.039 C 
BRANCH   3   5
ATOM      5  C   UNL     1      -3.248 -21.326 -17.037  1.00  0.00     0.034 C 
BRANCH   5   6
ATOM      6  C   UNL     1      -3.760 -20.945 -18.434  1.00  0.00     0.032 C 
BRANCH   6   7
ATOM      7  C   UNL     1      -5.106 -20.262 -18.357  1.00  0.00    -0.028 C 
ATOM      8  C   UNL     1      -7.506 -19.929 -18.764  1.00  0.00     0.039 C 
ATOM      9  C   UNL     1      -6.254 -20.763 -18.864  1.00  0.00    -0.080 C 
ATOM     10  C   UNL     1      -6.318 -22.120 -19.525  1.00  0.00     0.039 C 
ENDBRANCH   6   7
ENDBRANCH   5   6
ENDBRANCH   3   5
ENDBRANCH   1   2
BRANCH   1  11
ATOM     11  C   UNL     1      -6.570 -24.156 -16.135  1.00  0.00     0.034 C 
BRANCH  11  12
ATOM     12  C   UNL     1      -7.899 -23.519 -16.490  1.00  0.00    -0.077 C 
ATOM     13  C   UNL     1      -8.744 -24.038 -17.409  1.00  0.00    -0.028 C 
ATOM     14  C   UNL     1      -8.263 -22.207 -15.844  1.00  0.00     0.039 C 
BRANCH  13  15
ATOM     15  C   UNL     1      -8.538 -25.348 -18.131  1.00  0.00     0.035 C 
BRANCH  15  16
ATOM     16  C   UNL     1      -9.788 -26.236 -18.059  1.00  0.00     0.079 C 
BRANCH  16  17
ATOM     17  C   UNL     1      -9.464 -27.676 -18.365  1.00  0.00     0.130 C 
ATOM     18  O   UNL     1     -10.354 -28.512 -18.342  1.00  0.00    -0.300 OA
ATOM     19  C   UNL     1      -8.066 -28.106 -18.699  1.00  0.00     0.087 C 
ENDBRANCH  16  17
ENDBRANCH  15  16
ENDBRANCH  13  15
ENDBRANCH  11  12
ENDBRANCH   1  11
TORSDOF 9
ENDMDL
MODEL 7
REMARK VINA RESULT:    -5.128      1.693      3.971
REMARK INTER + INTRA:         -10.031
REMARK INTER:                  -7.504
REMARK INTRA:                  -2.528
REMARK UNBOUND:                -2.206
REMARK SMILES CC(=O)CCC=C(C)CCC=C(C)CCC=C(C)C
REMARK SMILES IDX 10 1 11 2 12 3 13 4 14 5 15 6 16 7 18 8 17 9 19 10 9 11 7 12
REMARK SMILES IDX 6 13 8 14 5 15 4 16 2 17 3 18 1 19
REMARK H PARENT
REMARK Flexibility Score: inf
ROOT
ATOM      1  C   UNL     1      -4.317 -25.846 -17.457  1.00  0.00     0.032 C 
ENDROOT
BRANCH   1   2
ATOM      2  C   UNL     1      -3.713 -24.473 -17.302  1.00  0.00    -0.028 C 
ATOM      3  C   UNL     1      -4.192 -23.505 -16.487  1.00  0.00    -0.077 C 
ATOM      4  C   UNL     1      -3.435 -22.205 -16.405  1.00  0.00     0.039 C 
BRANCH   3   5
ATOM      5  C   UNL     1      -5.470 -23.661 -15.681  1.00  0.00     0.034 C 
BRANCH   5   6
ATOM      6  C   UNL     1      -6.307 -22.374 -15.672  1.00  0.00     0.032 C 
BRANCH   6   7
ATOM      7  C   UNL     1      -7.380 -22.411 -16.737  1.00  0.00    -0.028 C 
ATOM      8  C   UNL     1      -8.560 -21.759 -18.791  1.00  0.00     0.039 C 
ATOM      9  C   UNL     1      -7.382 -21.654 -17.855  1.00  0.00    -0.080 C 
ATOM     10  C   UNL     1      -6.251 -20.710 -18.191  1.00  0.00     0.039 C 
ENDBRANCH   6   7
ENDBRANCH   5   6
ENDBRANCH   3   5
ENDBRANCH   1   2
BRANCH   1  11
ATOM     11  C   UNL     1      -4.784 -26.073 -18.898  1.00  0.00     0.034 C 
BRANCH  11  12
ATOM     12  C   UNL     1      -5.848 -25.062 -19.278  1.00  0.00    -0.077 C 
ATOM     13  C   UNL     1      -7.151 -25.201 -18.941  1.00  0.00    -0.028 C 
ATOM     14  C   UNL     1      -5.452 -23.887 -20.132  1.00  0.00     0.039 C 
BRANCH  13  15
ATOM     15  C   UNL     1      -7.709 -26.307 -18.078  1.00  0.00     0.035 C 
BRANCH  15  16
ATOM     16  C   UNL     1      -9.124 -25.979 -17.585  1.00  0.00     0.079 C 
BRANCH  16  17
ATOM     17  C   UNL     1     -10.106 -27.061 -17.956  1.00  0.00     0.130 C 
ATOM     18  O   UNL     1     -11.205 -27.086 -17.423  1.00  0.00    -0.300 OA
ATOM     19  C   UNL     1      -9.761 -28.111 -18.970  1.00  0.00     0.087 C 
ENDBRANCH  16  17
ENDBRANCH  15  16
ENDBRANCH  13  15
ENDBRANCH  11  12
ENDBRANCH   1  11
TORSDOF 9
ENDMDL
MODEL 8
REMARK VINA RESULT:    -5.113      0.828      2.809
REMARK INTER + INTRA:         -10.009
REMARK INTER:                  -8.122
REMARK INTRA:                  -1.887
REMARK UNBOUND:                -2.206
REMARK SMILES CC(=O)CCC=C(C)CCC=C(C)CCC=C(C)C
REMARK SMILES IDX 10 1 11 2 12 3 13 4 14 5 15 6 16 7 18 8 17 9 19 10 9 11 7 12
REMARK SMILES IDX 6 13 8 14 5 15 4 16 2 17 3 18 1 19
REMARK H PARENT
REMARK Flexibility Score: inf
ROOT
ATOM      1  C   UNL     1      -7.046 -26.174 -17.890  1.00  0.00     0.032 C 
ENDROOT
BRANCH   1   2
ATOM      2  C   UNL     1      -5.772 -25.484 -18.308  1.00  0.00    -0.028 C 
ATOM      3  C   UNL     1      -4.982 -24.755 -17.487  1.00  0.00    -0.077 C 
ATOM      4  C   UNL     1      -3.709 -24.178 -18.051  1.00  0.00     0.039 C 
BRANCH   3   5
ATOM      5  C   UNL     1      -5.338 -24.468 -16.038  1.00  0.00     0.034 C 
BRANCH   5   6
ATOM      6  C   UNL     1      -6.272 -23.257 -15.903  1.00  0.00     0.032 C 
BRANCH   6   7
ATOM      7  C   UNL     1      -5.733 -22.063 -16.657  1.00  0.00    -0.028 C 
ATOM      8  C   UNL     1      -5.693 -20.274 -18.341  1.00  0.00     0.039 C 
ATOM      9  C   UNL     1      -6.393 -21.410 -17.639  1.00  0.00    -0.080 C 
ATOM     10  C   UNL     1      -7.797 -21.784 -18.051  1.00  0.00     0.039 C 
ENDBRANCH   6   7
ENDBRANCH   5   6
ENDBRANCH   3   5
ENDBRANCH   1   2
BRANCH   1  11
ATOM     11  C   UNL     1      -8.270 -25.360 -18.322  1.00  0.00     0.034 C 
BRANCH  11  12
ATOM     12  C   UNL     1      -9.436 -25.615 -17.387  1.00  0.00    -0.077 C 
ATOM     13  C   UNL     1     -10.365 -26.572 -17.612  1.00  0.00    -0.028 C 
ATOM     14  C   UNL     1      -9.611 -24.716 -16.191  1.00  0.00     0.039 C 
BRANCH  13  15
ATOM     15  C   UNL     1     -10.328 -27.564 -18.749  1.00  0.00     0.035 C 
BRANCH  15  16
ATOM     16  C   UNL     1     -10.333 -29.011 -18.237  1.00  0.00     0.079 C 
BRANCH  16  17
ATOM     17  C   UNL     1      -9.056 -29.729 -18.593  1.00  0.00     0.130 C 
ATOM     18  O   UNL     1      -8.736 -30.733 -17.974  1.00  0.00    -0.300 OA
ATOM     19  C   UNL     1      -8.167 -29.237 -19.696  1.00  0.00     0.087 C 
ENDBRANCH  16  17
ENDBRANCH  15  16
ENDBRANCH  13  15
ENDBRANCH  11  12
ENDBRANCH   1  11
TORSDOF 9
ENDMDL
MODEL 9
REMARK VINA RESULT:    -5.080      2.688      6.350
REMARK INTER + INTRA:          -9.958
REMARK INTER:                  -8.081
REMARK INTRA:                  -1.878
REMARK UNBOUND:                -2.206
REMARK SMILES CC(=O)CCC=C(C)CCC=C(C)CCC=C(C)C
REMARK SMILES IDX 10 1 11 2 12 3 13 4 14 5 15 6 16 7 18 8 17 9 19 10 9 11 7 12
REMARK SMILES IDX 6 13 8 14 5 15 4 16 2 17 3 18 1 19
REMARK H PARENT
REMARK Flexibility Score: inf
ROOT
ATOM      1  C   UNL     1     -10.195 -26.927 -17.812  1.00  0.00     0.032 C 
ENDROOT
BRANCH   1   2
ATOM      2  C   UNL     1     -10.405 -27.711 -19.083  1.00  0.00    -0.028 C 
ATOM      3  C   UNL     1     -10.135 -29.029 -19.231  1.00  0.00    -0.077 C 
ATOM      4  C   UNL     1     -10.457 -29.677 -20.553  1.00  0.00     0.039 C 
BRANCH   3   5
ATOM      5  C   UNL     1      -9.495 -29.869 -18.139  1.00  0.00     0.034 C 
BRANCH   5   6
ATOM      6  C   UNL     1      -8.015 -30.157 -18.427  1.00  0.00     0.032 C 
BRANCH   6   7
ATOM      7  C   UNL     1      -7.169 -28.918 -18.241  1.00  0.00    -0.028 C 
ATOM      8  C   UNL     1      -5.656 -27.089 -18.874  1.00  0.00     0.039 C 
ATOM      9  C   UNL     1      -6.513 -28.276 -19.232  1.00  0.00    -0.080 C 
ATOM     10  C   UNL     1      -6.612 -28.712 -20.675  1.00  0.00     0.039 C 
ENDBRANCH   6   7
ENDBRANCH   5   6
ENDBRANCH   3   5
ENDBRANCH   1   2
BRANCH   1  11
ATOM     11  C   UNL     1      -9.136 -25.839 -18.015  1.00  0.00     0.034 C 
BRANCH  11  12
ATOM     12  C   UNL     1      -8.965 -25.020 -16.752  1.00  0.00    -0.077 C 
ATOM     13  C   UNL     1      -7.915 -24.192 -16.545  1.00  0.00    -0.028 C 
ATOM     14  C   UNL     1      -9.969 -25.190 -15.642  1.00  0.00     0.039 C 
BRANCH  13  15
ATOM     15  C   UNL     1      -6.834 -23.897 -17.558  1.00  0.00     0.035 C 
BRANCH  15  16
ATOM     16  C   UNL     1      -7.249 -22.772 -18.515  1.00  0.00     0.079 C 
BRANCH  16  17
ATOM     17  C   UNL     1      -6.705 -21.437 -18.073  1.00  0.00     0.130 C 
ATOM     18  O   UNL     1      -5.815 -21.396 -17.237  1.00  0.00    -0.300 OA
ATOM     19  C   UNL     1      -7.234 -20.154 -18.642  1.00  0.00     0.087 C 
ENDBRANCH  16  17
ENDBRANCH  15  16
ENDBRANCH  13  15
ENDBRANCH  11  12
ENDBRANCH   1  11
TORSDOF 9
ENDMDL
