MODEL 1
REMARK VINA RESULT:    -2.275      0.000      0.000
REMARK INTER + INTRA:          -2.275
REMARK INTER:                  -2.275
REMARK INTRA:                   0.000
REMARK UNBOUND:                 0.000
REMARK SMILES CC(=O)[O-]
REMARK SMILES IDX 1 1 2 2 3 3 4 4
REMARK H PARENT
REMARK Flexibility Score: inf
ROOT
ATOM      1  C   UNL     1      -0.526   5.896   6.487  1.00  0.00     0.063 C 
ATOM      2  C   UNL     1      -0.613   6.098   5.012  1.00  0.00     0.038 C 
ATOM      3  O   UNL     1      -1.212   7.101   4.545  1.00  0.00    -0.550 OA
ATOM      4  O   UNL     1       0.014   5.206   4.151  1.00  0.00    -0.550 OA
ENDROOT
TORSDOF 0
ENDMDL
MODEL 2
REMARK VINA RESULT:    -2.274      0.119      1.624
REMARK INTER + INTRA:          -2.274
REMARK INTER:                  -2.274
REMARK INTRA:                   0.000
REMARK UNBOUND:                 0.000
REMARK SMILES CC(=O)[O-]
REMARK SMILES IDX 1 1 2 2 3 3 4 4
REMARK H PARENT
REMARK Flexibility Score: inf
ROOT
ATOM      1  C   UNL     1      -0.375   5.781   6.467  1.00  0.00     0.063 C 
ATOM      2  C   UNL     1      -0.500   6.025   5.002  1.00  0.00     0.038 C 
ATOM      3  O   UNL     1      -0.009   5.208   4.180  1.00  0.00    -0.550 OA
ATOM      4  O   UNL     1      -1.205   7.129   4.539  1.00  0.00    -0.550 OA
ENDROOT
TORSDOF 0
ENDMDL
MODEL 3
REMARK VINA RESULT:    -2.090     11.076     11.533
REMARK INTER + INTRA:          -2.090
REMARK INTER:                  -2.090
REMARK INTRA:                   0.000
REMARK UNBOUND:                 0.000
REMARK SMILES CC(=O)[O-]
REMARK SMILES IDX 1 1 2 2 3 3 4 4
REMARK H PARENT
REMARK Flexibility Score: inf
ROOT
ATOM      1  C   UNL     1      -8.434   3.435  -3.385  1.00  0.00     0.063 C 
ATOM      2  C   UNL     1      -8.337   4.902  -3.136  1.00  0.00     0.038 C 
ATOM      3  O   UNL     1      -7.232   5.492  -3.260  1.00  0.00    -0.550 OA
ATOM      4  O   UNL     1      -9.476   5.631  -2.818  1.00  0.00    -0.550 OA
ENDROOT
TORSDOF 0
ENDMDL
MODEL 4
REMARK VINA RESULT:    -1.942      8.095      8.483
REMARK INTER + INTRA:          -1.942
REMARK INTER:                  -1.942
REMARK INTRA:                   0.000
REMARK UNBOUND:                 0.000
REMARK SMILES CC(=O)[O-]
REMARK SMILES IDX 1 1 2 2 3 3 4 4
REMARK H PARENT
REMARK Flexibility Score: inf
ROOT
ATOM      1  C   UNL     1      -4.446  -0.927   4.702  1.00  0.00     0.063 C 
ATOM      2  C   UNL     1      -3.461  -1.679   3.872  1.00  0.00     0.038 C 
ATOM      3  O   UNL     1      -2.249  -1.342   3.869  1.00  0.00    -0.550 OA
ATOM      4  O   UNL     1      -3.871  -2.789   3.143  1.00  0.00    -0.550 OA
ENDROOT
TORSDOF 0
ENDMDL
MODEL 5
REMARK VINA RESULT:    -1.936     12.442     12.658
REMARK INTER + INTRA:          -1.936
REMARK INTER:                  -1.936
REMARK INTRA:                   0.000
REMARK UNBOUND:                 0.000
REMARK SMILES CC(=O)[O-]
REMARK SMILES IDX 1 1 2 2 3 3 4 4
REMARK H PARENT
REMARK Flexibility Score: inf
ROOT
ATOM      1  C   UNL     1      -1.412  -4.451  -1.153  1.00  0.00     0.063 C 
ATOM      2  C   UNL     1      -0.333  -4.299  -2.171  1.00  0.00     0.038 C 
ATOM      3  O   UNL     1      -0.499  -3.535  -3.158  1.00  0.00    -0.550 OA
ATOM      4  O   UNL     1       0.878  -4.957  -2.004  1.00  0.00    -0.550 OA
ENDROOT
TORSDOF 0
ENDMDL
MODEL 6
REMARK VINA RESULT:    -1.922     12.827     13.170
REMARK INTER + INTRA:          -1.922
REMARK INTER:                  -1.922
REMARK INTRA:                   0.000
REMARK UNBOUND:                 0.000
REMARK SMILES CC(=O)[O-]
REMARK SMILES IDX 1 1 2 2 3 3 4 4
REMARK H PARENT
REMARK Flexibility Score: inf
ROOT
ATOM      1  C   UNL     1      -1.034  -4.223  -1.553  1.00  0.00     0.063 C 
ATOM      2  C   UNL     1       0.088  -4.627  -2.449  1.00  0.00     0.038 C 
ATOM      3  O   UNL     1       1.153  -5.085  -1.960  1.00  0.00    -0.550 OA
ATOM      4  O   UNL     1      -0.061  -4.550  -3.828  1.00  0.00    -0.550 OA
ENDROOT
TORSDOF 0
ENDMDL
MODEL 7
REMARK VINA RESULT:    -1.920      8.346      8.739
REMARK INTER + INTRA:          -1.920
REMARK INTER:                  -1.920
REMARK INTRA:                   0.000
REMARK UNBOUND:                 0.000
REMARK SMILES CC(=O)[O-]
REMARK SMILES IDX 1 1 2 2 3 3 4 4
REMARK H PARENT
REMARK Flexibility Score: inf
ROOT
ATOM      1  C   UNL     1       1.236  -1.824   5.261  1.00  0.00     0.063 C 
ATOM      2  C   UNL     1       2.727  -1.817   5.288  1.00  0.00     0.038 C 
ATOM      3  O   UNL     1       3.378  -2.392   4.379  1.00  0.00    -0.550 OA
ATOM      4  O   UNL     1       3.400  -1.128   6.289  1.00  0.00    -0.550 OA
ENDROOT
TORSDOF 0
ENDMDL
MODEL 8
REMARK VINA RESULT:    -1.883      8.091      8.476
REMARK INTER + INTRA:          -1.883
REMARK INTER:                  -1.883
REMARK INTRA:                   0.000
REMARK UNBOUND:                 0.000
REMARK SMILES CC(=O)[O-]
REMARK SMILES IDX 1 1 2 2 3 3 4 4
REMARK H PARENT
REMARK Flexibility Score: inf
ROOT
ATOM      1  C   UNL     1       3.565  -2.339   4.830  1.00  0.00     0.063 C 
ATOM      2  C   UNL     1       2.421  -1.610   5.449  1.00  0.00     0.038 C 
ATOM      3  O   UNL     1       2.629  -0.755   6.349  1.00  0.00    -0.550 OA
ATOM      4  O   UNL     1       1.127  -1.834   4.997  1.00  0.00    -0.550 OA
ENDROOT
TORSDOF 0
ENDMDL
MODEL 9
REMARK VINA RESULT:    -1.881      8.767      9.155
REMARK INTER + INTRA:          -1.881
REMARK INTER:                  -1.881
REMARK INTRA:                   0.000
REMARK UNBOUND:                 0.000
REMARK SMILES CC(=O)[O-]
REMARK SMILES IDX 1 1 2 2 3 3 4 4
REMARK H PARENT
REMARK Flexibility Score: inf
ROOT
ATOM      1  C   UNL     1       3.059  -3.022   6.428  1.00  0.00     0.063 C 
ATOM      2  C   UNL     1       2.819  -2.367   5.110  1.00  0.00     0.038 C 
ATOM      3  O   UNL     1       1.690  -1.879   4.843  1.00  0.00    -0.550 OA
ATOM      4  O   UNL     1       3.856  -2.244   4.195  1.00  0.00    -0.550 OA
ENDROOT
TORSDOF 0
ENDMDL
