MODEL 1
REMARK VINA RESULT:    -4.105      0.000      0.000
REMARK INTER + INTRA:          -5.462
REMARK INTER:                  -5.305
REMARK INTRA:                  -0.157
REMARK UNBOUND:                -0.157
REMARK SMILES CCO[C@@H]1O[C@@H](CO)[C@H](O)[C@H](O)[C@H]1O
REMARK SMILES IDX 4 1 13 2 11 3 9 4 6 5 5 6 3 7 2 8 1 9 14 10 12 12 7 14 8 15
REMARK SMILES IDX 10 17
REMARK H PARENT 14 11 12 13 8 16 10 18
REMARK Flexibility Score: inf
ROOT
ATOM      1  C   UNL     1       7.892  -3.815  -2.736  1.00  0.00     0.281 C 
ATOM      2  C   UNL     1       7.514  -4.936  -1.733  1.00  0.00     0.202 C 
ATOM      3  C   UNL     1       6.724  -4.380  -0.532  1.00  0.00     0.179 C 
ATOM      4  C   UNL     1       5.589  -3.451  -1.009  1.00  0.00     0.177 C 
ATOM      5  C   UNL     1       6.140  -2.417  -2.015  1.00  0.00     0.178 C 
ATOM      6  O   UNL     1       6.750  -3.065  -3.122  1.00  0.00    -0.341 OA
ENDROOT
BRANCH   1   7
ATOM      7  O   UNL     1       8.878  -2.952  -2.182  1.00  0.00    -0.350 OA
BRANCH   7   8
ATOM      8  C   UNL     1       9.978  -2.809  -3.057  1.00  0.00     0.160 C 
ATOM      9  C   UNL     1      10.781  -4.100  -3.062  1.00  0.00     0.035 C 
ENDBRANCH   7   8
ENDBRANCH   1   7
BRANCH   2  10
ATOM     10  O   UNL     1       6.796  -5.966  -2.371  1.00  0.00    -0.385 OA
ATOM     11  H   UNL     1       6.160  -6.353  -1.716  1.00  0.00     0.211 HD
ENDBRANCH   2  10
BRANCH   3  12
ATOM     12  O   UNL     1       7.605  -3.680   0.313  1.00  0.00    -0.387 OA
ATOM     13  H   UNL     1       8.017  -4.347   0.921  1.00  0.00     0.211 HD
ENDBRANCH   3  12
BRANCH   5  14
ATOM     14  C   UNL     1       5.030  -1.495  -2.544  1.00  0.00     0.191 C 
BRANCH  14  15
ATOM     15  O   UNL     1       5.438  -0.152  -2.522  1.00  0.00    -0.394 OA
ATOM     16  H   UNL     1       5.072   0.274  -3.341  1.00  0.00     0.210 HD
ENDBRANCH  14  15
ENDBRANCH   5  14
BRANCH   4  17
ATOM     17  O   UNL     1       5.010  -2.791   0.088  1.00  0.00    -0.387 OA
ATOM     18  H   UNL     1       4.094  -3.158   0.194  1.00  0.00     0.211 HD
ENDBRANCH   4  17
TORSDOF 7
ENDMDL
MODEL 2
REMARK VINA RESULT:    -3.857      1.601      2.916
REMARK INTER + INTRA:          -5.141
REMARK INTER:                  -4.695
REMARK INTRA:                  -0.446
REMARK UNBOUND:                -0.157
REMARK SMILES CCO[C@@H]1O[C@@H](CO)[C@H](O)[C@H](O)[C@H]1O
REMARK SMILES IDX 4 1 13 2 11 3 9 4 6 5 5 6 3 7 2 8 1 9 14 10 12 12 7 14 8 15
REMARK SMILES IDX 10 17
REMARK H PARENT 14 11 12 13 8 16 10 18
REMARK Flexibility Score: inf
ROOT
ATOM      1  C   UNL     1       7.610  -5.022  -1.340  1.00  0.00     0.281 C 
ATOM      2  C   UNL     1       8.492  -3.803  -0.963  1.00  0.00     0.202 C 
ATOM      3  C   UNL     1       8.158  -2.573  -1.830  1.00  0.00     0.179 C 
ATOM      4  C   UNL     1       6.634  -2.346  -1.889  1.00  0.00     0.177 C 
ATOM      5  C   UNL     1       5.917  -3.665  -2.253  1.00  0.00     0.178 C 
ATOM      6  O   UNL     1       6.231  -4.685  -1.316  1.00  0.00    -0.341 OA
ENDROOT
BRANCH   1   7
ATOM      7  O   UNL     1       7.967  -5.529  -2.620  1.00  0.00    -0.350 OA
BRANCH   7   8
ATOM      8  C   UNL     1       9.129  -6.330  -2.544  1.00  0.00     0.160 C 
ATOM      9  C   UNL     1       8.854  -7.520  -1.637  1.00  0.00     0.035 C 
ENDBRANCH   7   8
ENDBRANCH   1   7
BRANCH   2  10
ATOM     10  O   UNL     1       8.377  -3.497   0.406  1.00  0.00    -0.385 OA
ATOM     11  H   UNL     1       9.126  -2.896   0.654  1.00  0.00     0.211 HD
ENDBRANCH   2  10
BRANCH   3  12
ATOM     12  O   UNL     1       8.674  -2.769  -3.124  1.00  0.00    -0.387 OA
ATOM     13  H   UNL     1       8.252  -3.591  -3.485  1.00  0.00     0.211 HD
ENDBRANCH   3  12
BRANCH   5  14
ATOM     14  C   UNL     1       4.391  -3.489  -2.286  1.00  0.00     0.191 C 
BRANCH  14  15
ATOM     15  O   UNL     1       3.969  -2.562  -1.320  1.00  0.00    -0.394 OA
ATOM     16  H   UNL     1       4.195  -2.947  -0.433  1.00  0.00     0.210 HD
ENDBRANCH  14  15
ENDBRANCH   5  14
BRANCH   4  17
ATOM     17  O   UNL     1       6.329  -1.357  -2.840  1.00  0.00    -0.387 OA
ATOM     18  H   UNL     1       6.658  -1.689  -3.716  1.00  0.00     0.211 HD
ENDBRANCH   4  17
TORSDOF 7
ENDMDL
MODEL 3
REMARK VINA RESULT:    -3.854      1.937      4.190
REMARK INTER + INTRA:          -5.138
REMARK INTER:                  -4.777
REMARK INTRA:                  -0.361
REMARK UNBOUND:                -0.157
REMARK SMILES CCO[C@@H]1O[C@@H](CO)[C@H](O)[C@H](O)[C@H]1O
REMARK SMILES IDX 4 1 13 2 11 3 9 4 6 5 5 6 3 7 2 8 1 9 14 10 12 12 7 14 8 15
REMARK SMILES IDX 10 17
REMARK H PARENT 14 11 12 13 8 16 10 18
REMARK Flexibility Score: inf
ROOT
ATOM      1  C   UNL     1       6.570  -4.541  -2.965  1.00  0.00     0.281 C 
ATOM      2  C   UNL     1       6.192  -3.186  -2.311  1.00  0.00     0.202 C 
ATOM      3  C   UNL     1       6.795  -3.052  -0.899  1.00  0.00     0.179 C 
ATOM      4  C   UNL     1       8.288  -3.438  -0.904  1.00  0.00     0.177 C 
ATOM      5  C   UNL     1       8.479  -4.797  -1.612  1.00  0.00     0.178 C 
ATOM      6  O   UNL     1       7.973  -4.751  -2.939  1.00  0.00    -0.341 OA
ENDROOT
BRANCH   1   7
ATOM      7  O   UNL     1       5.902  -5.618  -2.319  1.00  0.00    -0.350 OA
BRANCH   7   8
ATOM      8  C   UNL     1       5.913  -6.779  -3.123  1.00  0.00     0.160 C 
ATOM      9  C   UNL     1       6.518  -7.928  -2.330  1.00  0.00     0.035 C 
ENDBRANCH   7   8
ENDBRANCH   1   7
BRANCH   2  10
ATOM     10  O   UNL     1       6.579  -2.105  -3.125  1.00  0.00    -0.385 OA
ATOM     11  H   UNL     1       7.004  -2.469  -3.945  1.00  0.00     0.211 HD
ENDBRANCH   2  10
BRANCH   3  12
ATOM     12  O   UNL     1       6.080  -3.879  -0.013  1.00  0.00    -0.387 OA
ATOM     13  H   UNL     1       6.738  -4.264   0.622  1.00  0.00     0.211 HD
ENDBRANCH   3  12
BRANCH   5  14
ATOM     14  C   UNL     1       9.960  -5.201  -1.672  1.00  0.00     0.191 C 
BRANCH  14  15
ATOM     15  O   UNL     1      10.380  -5.762  -0.455  1.00  0.00    -0.394 OA
ATOM     16  H   UNL     1      10.180  -6.733  -0.502  1.00  0.00     0.210 HD
ENDBRANCH  14  15
ENDBRANCH   5  14
BRANCH   4  17
ATOM     17  O   UNL     1       8.773  -3.512   0.413  1.00  0.00    -0.387 OA
ATOM     18  H   UNL     1       8.179  -4.138   0.903  1.00  0.00     0.211 HD
ENDBRANCH   4  17
TORSDOF 7
ENDMDL
MODEL 4
REMARK VINA RESULT:    -3.807      1.288      4.345
REMARK INTER + INTRA:          -5.077
REMARK INTER:                  -4.660
REMARK INTRA:                  -0.417
REMARK UNBOUND:                -0.157
REMARK SMILES CCO[C@@H]1O[C@@H](CO)[C@H](O)[C@H](O)[C@H]1O
REMARK SMILES IDX 4 1 13 2 11 3 9 4 6 5 5 6 3 7 2 8 1 9 14 10 12 12 7 14 8 15
REMARK SMILES IDX 10 17
REMARK H PARENT 14 11 12 13 8 16 10 18
REMARK Flexibility Score: inf
ROOT
ATOM      1  C   UNL     1       7.317  -2.726  -1.834  1.00  0.00     0.281 C 
ATOM      2  C   UNL     1       6.895  -3.905  -0.918  1.00  0.00     0.202 C 
ATOM      3  C   UNL     1       7.396  -5.256  -1.467  1.00  0.00     0.179 C 
ATOM      4  C   UNL     1       8.886  -5.168  -1.857  1.00  0.00     0.177 C 
ATOM      5  C   UNL     1       9.126  -3.927  -2.745  1.00  0.00     0.178 C 
ATOM      6  O   UNL     1       8.716  -2.742  -2.079  1.00  0.00    -0.341 OA
ENDROOT
BRANCH   1   7
ATOM      7  O   UNL     1       6.606  -2.762  -3.065  1.00  0.00    -0.350 OA
BRANCH   7   8
ATOM      8  C   UNL     1       5.264  -2.358  -2.888  1.00  0.00     0.160 C 
ATOM      9  C   UNL     1       5.203  -0.838  -2.848  1.00  0.00     0.035 C 
ENDBRANCH   7   8
ENDBRANCH   1   7
BRANCH   2  10
ATOM     10  O   UNL     1       7.339  -3.705   0.402  1.00  0.00    -0.385 OA
ATOM     11  H   UNL     1       6.994  -2.830   0.718  1.00  0.00     0.211 HD
ENDBRANCH   2  10
BRANCH   3  12
ATOM     12  O   UNL     1       6.619  -5.615  -2.584  1.00  0.00    -0.387 OA
ATOM     13  H   UNL     1       7.140  -5.370  -3.392  1.00  0.00     0.211 HD
ENDBRANCH   3  12
BRANCH   5  14
ATOM     14  C   UNL     1      10.608  -3.782  -3.125  1.00  0.00     0.191 C 
BRANCH  14  15
ATOM     15  O   UNL     1      11.415  -4.620  -2.339  1.00  0.00    -0.394 OA
ATOM     16  H   UNL     1      12.082  -5.032  -2.947  1.00  0.00     0.210 HD
ENDBRANCH  14  15
ENDBRANCH   5  14
BRANCH   4  17
ATOM     17  O   UNL     1       9.276  -6.331  -2.542  1.00  0.00    -0.387 OA
ATOM     18  H   UNL     1       9.981  -6.764  -1.994  1.00  0.00     0.211 HD
ENDBRANCH   4  17
TORSDOF 7
ENDMDL
MODEL 5
REMARK VINA RESULT:    -3.685      1.799      3.481
REMARK INTER + INTRA:          -4.919
REMARK INTER:                  -4.707
REMARK INTRA:                  -0.211
REMARK UNBOUND:                -0.157
REMARK SMILES CCO[C@@H]1O[C@@H](CO)[C@H](O)[C@H](O)[C@H]1O
REMARK SMILES IDX 4 1 13 2 11 3 9 4 6 5 5 6 3 7 2 8 1 9 14 10 12 12 7 14 8 15
REMARK SMILES IDX 10 17
REMARK H PARENT 14 11 12 13 8 16 10 18
REMARK Flexibility Score: inf
ROOT
ATOM      1  C   UNL     1       9.150  -4.644  -1.748  1.00  0.00     0.281 C 
ATOM      2  C   UNL     1       8.502  -3.373  -1.138  1.00  0.00     0.202 C 
ATOM      3  C   UNL     1       7.150  -3.052  -1.804  1.00  0.00     0.179 C 
ATOM      4  C   UNL     1       6.270  -4.316  -1.891  1.00  0.00     0.177 C 
ATOM      5  C   UNL     1       7.081  -5.481  -2.498  1.00  0.00     0.178 C 
ATOM      6  O   UNL     1       8.248  -5.740  -1.729  1.00  0.00    -0.341 OA
ENDROOT
BRANCH   1   7
ATOM      7  O   UNL     1       9.592  -4.398  -3.078  1.00  0.00    -0.350 OA
BRANCH   7   8
ATOM      8  C   UNL     1      10.994  -4.231  -3.125  1.00  0.00     0.160 C 
ATOM      9  C   UNL     1      11.657  -5.377  -2.375  1.00  0.00     0.035 C 
ENDBRANCH   7   8
ENDBRANCH   1   7
BRANCH   2  10
ATOM     10  O   UNL     1       8.357  -3.498   0.257  1.00  0.00    -0.385 OA
ATOM     11  H   UNL     1       9.127  -3.048   0.691  1.00  0.00     0.211 HD
ENDBRANCH   2  10
BRANCH   3  12
ATOM     12  O   UNL     1       7.383  -2.529  -3.089  1.00  0.00    -0.387 OA
ATOM     13  H   UNL     1       6.602  -2.776  -3.650  1.00  0.00     0.211 HD
ENDBRANCH   3  12
BRANCH   5  14
ATOM     14  C   UNL     1       6.251  -6.772  -2.567  1.00  0.00     0.191 C 
BRANCH  14  15
ATOM     15  O   UNL     1       6.627  -7.670  -1.555  1.00  0.00    -0.394 OA
ATOM     16  H   UNL     1       7.274  -8.305  -1.959  1.00  0.00     0.210 HD
ENDBRANCH  14  15
ENDBRANCH   5  14
BRANCH   4  17
ATOM     17  O   UNL     1       5.135  -4.061  -2.678  1.00  0.00    -0.387 OA
ATOM     18  H   UNL     1       4.856  -4.930  -3.070  1.00  0.00     0.211 HD
ENDBRANCH   4  17
TORSDOF 7
ENDMDL
MODEL 6
REMARK VINA RESULT:    -3.229      1.943      3.925
REMARK INTER + INTRA:          -4.329
REMARK INTER:                  -4.143
REMARK INTRA:                  -0.186
REMARK UNBOUND:                -0.157
REMARK SMILES CCO[C@@H]1O[C@@H](CO)[C@H](O)[C@H](O)[C@H]1O
REMARK SMILES IDX 4 1 13 2 11 3 9 4 6 5 5 6 3 7 2 8 1 9 14 10 12 12 7 14 8 15
REMARK SMILES IDX 10 17
REMARK H PARENT 14 11 12 13 8 16 10 18
REMARK Flexibility Score: inf
ROOT
ATOM      1  C   UNL     1       7.541  -5.827  -2.401  1.00  0.00     0.281 C 
ATOM      2  C   UNL     1       6.418  -4.834  -2.000  1.00  0.00     0.202 C 
ATOM      3  C   UNL     1       6.985  -3.610  -1.254  1.00  0.00     0.179 C 
ATOM      4  C   UNL     1       8.201  -3.029  -2.004  1.00  0.00     0.177 C 
ATOM      5  C   UNL     1       9.200  -4.158  -2.343  1.00  0.00     0.178 C 
ATOM      6  O   UNL     1       8.575  -5.170  -3.119  1.00  0.00    -0.341 OA
ENDROOT
BRANCH   1   7
ATOM      7  O   UNL     1       8.077  -6.474  -1.254  1.00  0.00    -0.350 OA
BRANCH   7   8
ATOM      8  C   UNL     1       7.819  -7.863  -1.286  1.00  0.00     0.160 C 
ATOM      9  C   UNL     1       8.896  -8.550  -2.112  1.00  0.00     0.035 C 
ENDBRANCH   7   8
ENDBRANCH   1   7
BRANCH   2  10
ATOM     10  O   UNL     1       5.670  -4.434  -3.123  1.00  0.00    -0.385 OA
ATOM     11  H   UNL     1       6.089  -4.827  -3.932  1.00  0.00     0.211 HD
ENDBRANCH   2  10
BRANCH   3  12
ATOM     12  O   UNL     1       7.352  -3.994   0.048  1.00  0.00    -0.387 OA
ATOM     13  H   UNL     1       7.811  -4.871  -0.025  1.00  0.00     0.211 HD
ENDBRANCH   3  12
BRANCH   5  14
ATOM     14  C   UNL     1      10.411  -3.626  -3.125  1.00  0.00     0.191 C 
BRANCH  14  15
ATOM     15  O   UNL     1      11.610  -4.149  -2.616  1.00  0.00    -0.394 OA
ATOM     16  H   UNL     1      11.385  -5.008  -2.172  1.00  0.00     0.210 HD
ENDBRANCH  14  15
ENDBRANCH   5  14
BRANCH   4  17
ATOM     17  O   UNL     1       8.833  -2.051  -1.218  1.00  0.00    -0.387 OA
ATOM     18  H   UNL     1       9.160  -2.507  -0.399  1.00  0.00     0.211 HD
ENDBRANCH   4  17
TORSDOF 7
ENDMDL
MODEL 7
REMARK VINA RESULT:    -2.626      1.797      3.997
REMARK INTER + INTRA:          -3.550
REMARK INTER:                  -3.655
REMARK INTRA:                   0.105
REMARK UNBOUND:                -0.157
REMARK SMILES CCO[C@@H]1O[C@@H](CO)[C@H](O)[C@H](O)[C@H]1O
REMARK SMILES IDX 4 1 13 2 11 3 9 4 6 5 5 6 3 7 2 8 1 9 14 10 12 12 7 14 8 15
REMARK SMILES IDX 10 17
REMARK H PARENT 14 11 12 13 8 16 10 18
REMARK Flexibility Score: inf
ROOT
ATOM      1  C   UNL     1       8.365  -3.590  -1.066  1.00  0.00     0.281 C 
ATOM      2  C   UNL     1       6.826  -3.565  -0.871  1.00  0.00     0.202 C 
ATOM      3  C   UNL     1       6.120  -4.568  -1.805  1.00  0.00     0.179 C 
ATOM      4  C   UNL     1       6.813  -5.945  -1.752  1.00  0.00     0.177 C 
ATOM      5  C   UNL     1       8.336  -5.776  -1.940  1.00  0.00     0.178 C 
ATOM      6  O   UNL     1       8.876  -4.910  -0.952  1.00  0.00    -0.341 OA
ENDROOT
BRANCH   1   7
ATOM      7  O   UNL     1       8.724  -3.035  -2.326  1.00  0.00    -0.350 OA
BRANCH   7   8
ATOM      8  C   UNL     1      10.054  -3.365  -2.666  1.00  0.00     0.160 C 
ATOM      9  C   UNL     1      10.777  -2.108  -3.125  1.00  0.00     0.035 C 
ENDBRANCH   7   8
ENDBRANCH   1   7
BRANCH   2  10
ATOM     10  O   UNL     1       6.482  -3.805   0.472  1.00  0.00    -0.385 OA
ATOM     11  H   UNL     1       5.534  -4.098   0.503  1.00  0.00     0.211 HD
ENDBRANCH   2  10
BRANCH   3  12
ATOM     12  O   UNL     1       6.138  -4.063  -3.119  1.00  0.00    -0.387 OA
ATOM     13  H   UNL     1       6.863  -3.386  -3.161  1.00  0.00     0.211 HD
ENDBRANCH   3  12
BRANCH   5  14
ATOM     14  C   UNL     1       9.069  -7.124  -1.855  1.00  0.00     0.191 C 
BRANCH  14  15
ATOM     15  O   UNL     1       8.515  -7.938  -0.854  1.00  0.00    -0.394 OA
ATOM     16  H   UNL     1       8.853  -8.858  -1.010  1.00  0.00     0.210 HD
ENDBRANCH  14  15
ENDBRANCH   5  14
BRANCH   4  17
ATOM     17  O   UNL     1       6.296  -6.786  -2.752  1.00  0.00    -0.387 OA
ATOM     18  H   UNL     1       6.902  -7.570  -2.808  1.00  0.00     0.211 HD
ENDBRANCH   4  17
TORSDOF 7
ENDMDL
MODEL 8
REMARK VINA RESULT:    -2.446      2.752      4.714
REMARK INTER + INTRA:          -3.317
REMARK INTER:                  -2.951
REMARK INTRA:                  -0.366
REMARK UNBOUND:                -0.157
REMARK SMILES CCO[C@@H]1O[C@@H](CO)[C@H](O)[C@H](O)[C@H]1O
REMARK SMILES IDX 4 1 13 2 11 3 9 4 6 5 5 6 3 7 2 8 1 9 14 10 12 12 7 14 8 15
REMARK SMILES IDX 10 17
REMARK H PARENT 14 11 12 13 8 16 10 18
REMARK Flexibility Score: inf
ROOT
ATOM      1  C   UNL     1      10.416  -5.365  -1.603  1.00  0.00     0.281 C 
ATOM      2  C   UNL     1       9.279  -4.416  -1.138  1.00  0.00     0.202 C 
ATOM      3  C   UNL     1       7.927  -4.801  -1.770  1.00  0.00     0.179 C 
ATOM      4  C   UNL     1       7.675  -6.317  -1.638  1.00  0.00     0.177 C 
ATOM      5  C   UNL     1       8.913  -7.102  -2.123  1.00  0.00     0.178 C 
ATOM      6  O   UNL     1      10.069  -6.725  -1.388  1.00  0.00    -0.341 OA
ENDROOT
BRANCH   1   7
ATOM      7  O   UNL     1      10.724  -5.150  -2.975  1.00  0.00    -0.350 OA
BRANCH   7   8
ATOM      8  C   UNL     1      12.005  -4.573  -3.125  1.00  0.00     0.160 C 
ATOM      9  C   UNL     1      13.006  -5.363  -2.294  1.00  0.00     0.035 C 
ENDBRANCH   7   8
ENDBRANCH   1   7
BRANCH   2  10
ATOM     10  O   UNL     1       9.186  -4.387   0.266  1.00  0.00    -0.385 OA
ATOM     11  H   UNL     1       8.959  -3.462   0.543  1.00  0.00     0.211 HD
ENDBRANCH   2  10
BRANCH   3  12
ATOM     12  O   UNL     1       7.928  -4.422  -3.125  1.00  0.00    -0.387 OA
ATOM     13  H   UNL     1       8.514  -5.061  -3.606  1.00  0.00     0.211 HD
ENDBRANCH   3  12
BRANCH   5  14
ATOM     14  C   UNL     1       8.717  -8.618  -1.972  1.00  0.00     0.191 C 
BRANCH  14  15
ATOM     15  O   UNL     1       7.830  -8.910  -0.923  1.00  0.00    -0.394 OA
ATOM     16  H   UNL     1       7.114  -8.223  -0.951  1.00  0.00     0.210 HD
ENDBRANCH  14  15
ENDBRANCH   5  14
BRANCH   4  17
ATOM     17  O   UNL     1       6.548  -6.687  -2.392  1.00  0.00    -0.387 OA
ATOM     18  H   UNL     1       6.872  -6.902  -3.305  1.00  0.00     0.211 HD
ENDBRANCH   4  17
TORSDOF 7
ENDMDL
