MODEL 1
REMARK VINA RESULT:    -2.022      0.000      0.000
REMARK INTER + INTRA:          -2.989
REMARK INTER:                  -2.732
REMARK INTRA:                  -0.257
REMARK UNBOUND:                -0.257
REMARK SMILES CCCCCCCC(=O)[O-]
REMARK SMILES IDX 5 1 6 2 7 3 8 4 9 5 10 6 4 7 3 8 2 9 1 10
REMARK H PARENT
REMARK Flexibility Score: inf
ROOT
ATOM      1  C   UNL     1      32.999  23.145  28.664  1.00  0.00     0.000 C 
ENDROOT
BRANCH   1   2
ATOM      2  C   UNL     1      34.121  24.125  29.060  1.00  0.00     0.006 C 
BRANCH   2   3
ATOM      3  C   UNL     1      35.349  24.096  28.137  1.00  0.00     0.053 C 
BRANCH   3   4
ATOM      4  C   UNL     1      36.513  23.398  28.772  1.00  0.00     0.041 C 
ATOM      5  O   UNL     1      37.014  22.379  28.227  1.00  0.00    -0.550 OA
ATOM      6  O   UNL     1      37.064  23.891  29.947  1.00  0.00    -0.550 OA
ENDBRANCH   3   4
ENDBRANCH   2   3
ENDBRANCH   1   2
BRANCH   1   7
ATOM      7  C   UNL     1      33.046  22.659  27.204  1.00  0.00     0.000 C 
BRANCH   7   8
ATOM      8  C   UNL     1      31.936  21.645  26.876  1.00  0.00    -0.000 C 
BRANCH   8   9
ATOM      9  C   UNL     1      30.696  21.822  27.766  1.00  0.00    -0.003 C 
ATOM     10  C   UNL     1      29.477  21.068  27.233  1.00  0.00     0.004 C 
ENDBRANCH   8   9
ENDBRANCH   7   8
ENDBRANCH   1   7
TORSDOF 6
ENDMDL
MODEL 2
REMARK VINA RESULT:    -1.428     21.322     22.441
REMARK INTER + INTRA:          -2.186
REMARK INTER:                  -2.540
REMARK INTRA:                   0.354
REMARK UNBOUND:                -0.257
REMARK SMILES CCCCCCCC(=O)[O-]
REMARK SMILES IDX 5 1 6 2 7 3 8 4 9 5 10 6 4 7 3 8 2 9 1 10
REMARK H PARENT
REMARK Flexibility Score: inf
ROOT
ATOM      1  C   UNL     1      19.927  22.898  46.901  1.00  0.00     0.000 C 
ENDROOT
BRANCH   1   2
ATOM      2  C   UNL     1      20.404  21.436  46.792  1.00  0.00     0.006 C 
BRANCH   2   3
ATOM      3  C   UNL     1      21.717  21.248  46.016  1.00  0.00     0.053 C 
BRANCH   3   4
ATOM      4  C   UNL     1      22.280  22.553  45.542  1.00  0.00     0.041 C 
ATOM      5  O   UNL     1      23.449  22.894  45.867  1.00  0.00    -0.550 OA
ATOM      6  O   UNL     1      21.528  23.377  44.715  1.00  0.00    -0.550 OA
ENDBRANCH   3   4
ENDBRANCH   2   3
ENDBRANCH   1   2
BRANCH   1   7
ATOM      7  C   UNL     1      18.415  23.074  47.124  1.00  0.00     0.000 C 
BRANCH   7   8
ATOM      8  C   UNL     1      17.791  24.125  46.188  1.00  0.00    -0.000 C 
BRANCH   8   9
ATOM      9  C   UNL     1      18.297  24.000  44.743  1.00  0.00    -0.003 C 
ATOM     10  C   UNL     1      17.170  24.096  43.715  1.00  0.00     0.004 C 
ENDBRANCH   8   9
ENDBRANCH   7   8
ENDBRANCH   1   7
TORSDOF 6
ENDMDL
MODEL 3
REMARK VINA RESULT:    -0.938     21.387     22.590
REMARK INTER + INTRA:          -1.525
REMARK INTER:                  -1.876
REMARK INTRA:                   0.352
REMARK UNBOUND:                -0.257
REMARK SMILES CCCCCCCC(=O)[O-]
REMARK SMILES IDX 5 1 6 2 7 3 8 4 9 5 10 6 4 7 3 8 2 9 1 10
REMARK H PARENT
REMARK Flexibility Score: inf
ROOT
ATOM      1  C   UNL     1      20.310  21.933  45.988  1.00  0.00     0.000 C 
ENDROOT
BRANCH   1   2
ATOM      2  C   UNL     1      19.413  22.474  47.120  1.00  0.00     0.006 C 
BRANCH   2   3
ATOM      3  C   UNL     1      18.560  23.693  46.731  1.00  0.00     0.053 C 
BRANCH   3   4
ATOM      4  C   UNL     1      18.450  23.849  45.246  1.00  0.00     0.041 C 
ATOM      5  O   UNL     1      17.327  23.762  44.682  1.00  0.00    -0.550 OA
ATOM      6  O   UNL     1      19.581  24.125  44.488  1.00  0.00    -0.550 OA
ENDBRANCH   3   4
ENDBRANCH   2   3
ENDBRANCH   1   2
BRANCH   1   7
ATOM      7  C   UNL     1      21.779  21.694  46.380  1.00  0.00     0.000 C 
BRANCH   7   8
ATOM      8  C   UNL     1      22.751  22.649  45.666  1.00  0.00    -0.000 C 
BRANCH   8   9
ATOM      9  C   UNL     1      24.019  22.922  46.488  1.00  0.00    -0.003 C 
ATOM     10  C   UNL     1      25.202  23.354  45.620  1.00  0.00     0.004 C 
ENDBRANCH   8   9
ENDBRANCH   7   8
ENDBRANCH   1   7
TORSDOF 6
ENDMDL
MODEL 4
REMARK VINA RESULT:     0.798     20.567     21.542
REMARK INTER + INTRA:           0.821
REMARK INTER:                   1.101
REMARK INTRA:                  -0.280
REMARK UNBOUND:                -0.257
REMARK SMILES CCCCCCCC(=O)[O-]
REMARK SMILES IDX 5 1 6 2 7 3 8 4 9 5 10 6 4 7 3 8 2 9 1 10
REMARK H PARENT
REMARK Flexibility Score: inf
ROOT
ATOM      1  C   UNL     1      20.761  21.934  46.243  1.00  0.00     0.000 C 
ENDROOT
BRANCH   1   2
ATOM      2  C   UNL     1      22.256  22.130  46.562  1.00  0.00     0.006 C 
BRANCH   2   3
ATOM      3  C   UNL     1      23.075  22.759  45.424  1.00  0.00     0.053 C 
BRANCH   3   4
ATOM      4  C   UNL     1      24.492  23.024  45.832  1.00  0.00     0.041 C 
ATOM      5  O   UNL     1      25.054  22.286  46.685  1.00  0.00    -0.550 OA
ATOM      6  O   UNL     1      25.203  24.064  45.247  1.00  0.00    -0.550 OA
ENDBRANCH   3   4
ENDBRANCH   2   3
ENDBRANCH   1   2
BRANCH   1   7
ATOM      7  C   UNL     1      19.796  22.746  47.125  1.00  0.00     0.000 C 
BRANCH   7   8
ATOM      8  C   UNL     1      18.641  23.374  46.326  1.00  0.00    -0.000 C 
BRANCH   8   9
ATOM      9  C   UNL     1      19.083  23.866  44.939  1.00  0.00    -0.003 C 
ATOM     10  C   UNL     1      17.943  23.860  43.921  1.00  0.00     0.004 C 
ENDBRANCH   8   9
ENDBRANCH   7   8
ENDBRANCH   1   7
TORSDOF 6
ENDMDL
