MODEL 1
REMARK VINA RESULT:    -3.961      0.000      0.000
REMARK INTER + INTRA:          -7.703
REMARK INTER:                  -5.350
REMARK INTRA:                  -2.353
REMARK UNBOUND:                -2.353
REMARK SMILES C=CC(C)=CCC=C(C)CCC=C(C)C
REMARK SMILES IDX 8 1 7 2 9 3 10 4 11 5 12 6 14 7 13 8 15 9 6 10 5 11 3 12
REMARK SMILES IDX 4 13 2 14 1 15
REMARK H PARENT
REMARK Flexibility Score: inf
ROOT
ATOM      1  C   UNL     1      10.288  19.606  27.175  1.00  0.00    -0.077 C 
ATOM      2  C   UNL     1       9.130  18.911  27.082  1.00  0.00    -0.024 C 
ATOM      3  C   UNL     1      11.498  18.906  27.738  1.00  0.00     0.039 C 
ENDROOT
BRANCH   1   4
ATOM      4  C   UNL     1      10.409  21.062  26.762  1.00  0.00     0.034 C 
BRANCH   4   5
ATOM      5  C   UNL     1      11.541  21.276  25.744  1.00  0.00     0.032 C 
BRANCH   5   6
ATOM      6  C   UNL     1      11.009  21.477  24.344  1.00  0.00    -0.028 C 
ATOM      7  C   UNL     1      11.282  19.068  23.713  1.00  0.00     0.039 C 
ATOM      8  C   UNL     1      10.925  20.502  23.410  1.00  0.00    -0.080 C 
ATOM      9  C   UNL     1      10.407  20.828  22.034  1.00  0.00     0.039 C 
ENDBRANCH   5   6
ENDBRANCH   4   5
ENDBRANCH   1   4
BRANCH   2  10
ATOM     10  C   UNL     1       7.849  19.454  26.501  1.00  0.00     0.055 C 
BRANCH  10  11
ATOM     11  C   UNL     1       7.638  18.959  25.093  1.00  0.00    -0.020 C 
ATOM     12  C   UNL     1       7.358  19.763  24.049  1.00  0.00    -0.055 C 
ATOM     13  C   UNL     1       7.214  21.260  24.216  1.00  0.00     0.044 C 
BRANCH  12  14
ATOM     14  C   UNL     1       7.120  19.130  22.726  1.00  0.00    -0.005 C 
ATOM     15  C   UNL     1       7.901  18.178  22.213  1.00  0.00     0.009 C 
ENDBRANCH  12  14
ENDBRANCH  10  11
ENDBRANCH   2  10
TORSDOF 6
ENDMDL
MODEL 2
REMARK VINA RESULT:    -3.855      1.221      2.992
REMARK INTER + INTRA:          -7.561
REMARK INTER:                  -5.224
REMARK INTRA:                  -2.337
REMARK UNBOUND:                -2.353
REMARK SMILES C=CC(C)=CCC=C(C)CCC=C(C)C
REMARK SMILES IDX 8 1 7 2 9 3 10 4 11 5 12 6 14 7 13 8 15 9 6 10 5 11 3 12
REMARK SMILES IDX 4 13 2 14 1 15
REMARK H PARENT
REMARK Flexibility Score: inf
ROOT
ATOM      1  C   UNL     1      11.296  19.672  26.452  1.00  0.00    -0.077 C 
ATOM      2  C   UNL     1      11.487  18.972  25.309  1.00  0.00    -0.024 C 
ATOM      3  C   UNL     1      11.534  18.972  27.765  1.00  0.00     0.039 C 
ENDROOT
BRANCH   1   4
ATOM      4  C   UNL     1      10.831  21.117  26.465  1.00  0.00     0.034 C 
BRANCH   4   5
ATOM      5  C   UNL     1       9.558  21.302  27.304  1.00  0.00     0.032 C 
BRANCH   5   6
ATOM      6  C   UNL     1       8.342  21.538  26.440  1.00  0.00    -0.028 C 
ATOM      7  C   UNL     1       7.651  19.130  26.463  1.00  0.00     0.039 C 
ATOM      8  C   UNL     1       7.501  20.565  26.021  1.00  0.00    -0.080 C 
ATOM      9  C   UNL     1       6.336  20.915  25.133  1.00  0.00     0.039 C 
ENDBRANCH   5   6
ENDBRANCH   4   5
ENDBRANCH   1   4
BRANCH   2  10
ATOM     10  C   UNL     1      11.336  19.541  23.921  1.00  0.00     0.055 C 
BRANCH  10  11
ATOM     11  C   UNL     1      10.078  19.038  23.260  1.00  0.00    -0.020 C 
ATOM     12  C   UNL     1       9.121  19.842  22.758  1.00  0.00    -0.055 C 
ATOM     13  C   UNL     1       9.229  21.350  22.836  1.00  0.00     0.044 C 
BRANCH  12  14
ATOM     14  C   UNL     1       7.908  19.206  22.182  1.00  0.00    -0.005 C 
ATOM     15  C   UNL     1       7.343  18.108  22.685  1.00  0.00     0.009 C 
ENDBRANCH  12  14
ENDBRANCH  10  11
ENDBRANCH   2  10
TORSDOF 6
ENDMDL
MODEL 3
REMARK VINA RESULT:    -3.835      0.867      4.110
REMARK INTER + INTRA:          -7.534
REMARK INTER:                  -5.292
REMARK INTRA:                  -2.241
REMARK UNBOUND:                -2.353
REMARK SMILES C=CC(C)=CCC=C(C)CCC=C(C)C
REMARK SMILES IDX 8 1 7 2 9 3 10 4 11 5 12 6 14 7 13 8 15 9 6 10 5 11 3 12
REMARK SMILES IDX 4 13 2 14 1 15
REMARK H PARENT
REMARK Flexibility Score: inf
ROOT
ATOM      1  C   UNL     1       7.697  19.784  24.060  1.00  0.00    -0.077 C 
ATOM      2  C   UNL     1       7.510  19.053  25.184  1.00  0.00    -0.024 C 
ATOM      3  C   UNL     1       7.225  19.212  22.748  1.00  0.00     0.039 C 
ENDROOT
BRANCH   1   4
ATOM      4  C   UNL     1       8.383  21.139  24.064  1.00  0.00     0.034 C 
BRANCH   4   5
ATOM      5  C   UNL     1       9.523  21.208  23.036  1.00  0.00     0.032 C 
BRANCH   5   6
ATOM      6  C   UNL     1      10.878  21.279  23.701  1.00  0.00    -0.028 C 
ATOM      7  C   UNL     1      11.272  18.809  23.543  1.00  0.00     0.039 C 
ATOM      8  C   UNL     1      11.654  20.204  23.972  1.00  0.00    -0.080 C 
ATOM      9  C   UNL     1      12.976  20.394  24.669  1.00  0.00     0.039 C 
ENDBRANCH   5   6
ENDBRANCH   4   5
ENDBRANCH   1   4
BRANCH   2  10
ATOM     10  C   UNL     1       7.884  19.506  26.572  1.00  0.00     0.055 C 
BRANCH  10  11
ATOM     11  C   UNL     1       9.202  18.914  27.001  1.00  0.00    -0.020 C 
ATOM     12  C   UNL     1      10.271  19.648  27.366  1.00  0.00    -0.055 C 
ATOM     13  C   UNL     1      10.235  21.161  27.357  1.00  0.00     0.044 C 
BRANCH  12  14
ATOM     14  C   UNL     1      11.525  18.930  27.713  1.00  0.00    -0.005 C 
ATOM     15  C   UNL     1      12.581  19.519  28.275  1.00  0.00     0.009 C 
ENDBRANCH  12  14
ENDBRANCH  10  11
ENDBRANCH   2  10
TORSDOF 6
ENDMDL
MODEL 4
REMARK VINA RESULT:    -3.827      1.133      5.126
REMARK INTER + INTRA:          -7.522
REMARK INTER:                  -5.628
REMARK INTRA:                  -1.894
REMARK UNBOUND:                -2.353
REMARK SMILES C=CC(C)=CCC=C(C)CCC=C(C)C
REMARK SMILES IDX 8 1 7 2 9 3 10 4 11 5 12 6 14 7 13 8 15 9 6 10 5 11 3 12
REMARK SMILES IDX 4 13 2 14 1 15
REMARK H PARENT
REMARK Flexibility Score: inf
ROOT
ATOM      1  C   UNL     1       8.897  19.213  22.776  1.00  0.00    -0.077 C 
ATOM      2  C   UNL     1      10.186  18.921  23.065  1.00  0.00    -0.024 C 
ATOM      3  C   UNL     1       8.061  18.160  22.095  1.00  0.00     0.039 C 
ENDROOT
BRANCH   1   4
ATOM      4  C   UNL     1       8.269  20.561  23.086  1.00  0.00     0.034 C 
BRANCH   4   5
ATOM      5  C   UNL     1       7.148  20.444  24.130  1.00  0.00     0.032 C 
BRANCH   5   6
ATOM      6  C   UNL     1       7.435  19.365  25.147  1.00  0.00    -0.028 C 
ATOM      7  C   UNL     1       6.860  20.821  27.104  1.00  0.00     0.039 C 
ATOM      8  C   UNL     1       7.349  19.534  26.487  1.00  0.00    -0.080 C 
ATOM      9  C   UNL     1       7.692  18.392  27.408  1.00  0.00     0.039 C 
ENDBRANCH   5   6
ENDBRANCH   4   5
ENDBRANCH   1   4
BRANCH   2  10
ATOM     10  C   UNL     1      11.135  19.847  23.783  1.00  0.00     0.055 C 
BRANCH  10  11
ATOM     11  C   UNL     1      11.194  19.531  25.255  1.00  0.00    -0.020 C 
ATOM     12  C   UNL     1      10.838  20.398  26.223  1.00  0.00    -0.055 C 
ATOM     13  C   UNL     1      10.355  21.795  25.900  1.00  0.00     0.044 C 
BRANCH  12  14
ATOM     14  C   UNL     1      10.999  19.968  27.637  1.00  0.00    -0.005 C 
ATOM     15  C   UNL     1      11.959  19.140  28.050  1.00  0.00     0.009 C 
ENDBRANCH  12  14
ENDBRANCH  10  11
ENDBRANCH   2  10
TORSDOF 6
ENDMDL
MODEL 5
REMARK VINA RESULT:    -3.823      1.300      5.034
REMARK INTER + INTRA:          -7.517
REMARK INTER:                  -5.251
REMARK INTRA:                  -2.266
REMARK UNBOUND:                -2.353
REMARK SMILES C=CC(C)=CCC=C(C)CCC=C(C)C
REMARK SMILES IDX 8 1 7 2 9 3 10 4 11 5 12 6 14 7 13 8 15 9 6 10 5 11 3 12
REMARK SMILES IDX 4 13 2 14 1 15
REMARK H PARENT
REMARK Flexibility Score: inf
ROOT
ATOM      1  C   UNL     1       6.856  19.159  22.556  1.00  0.00    -0.077 C 
ATOM      2  C   UNL     1       8.115  18.711  22.343  1.00  0.00    -0.024 C 
ATOM      3  C   UNL     1       5.719  18.176  22.445  1.00  0.00     0.039 C 
ENDROOT
BRANCH   1   4
ATOM      4  C   UNL     1       6.542  20.611  22.874  1.00  0.00     0.034 C 
BRANCH   4   5
ATOM      5  C   UNL     1       5.918  20.769  24.270  1.00  0.00     0.032 C 
BRANCH   5   6
ATOM      6  C   UNL     1       6.885  21.385  25.253  1.00  0.00    -0.028 C 
ATOM      7  C   UNL     1       7.481  19.187  26.300  1.00  0.00     0.039 C 
ATOM      8  C   UNL     1       7.563  20.691  26.196  1.00  0.00    -0.080 C 
ATOM      9  C   UNL     1       8.479  21.418  27.145  1.00  0.00     0.039 C 
ENDBRANCH   5   6
ENDBRANCH   4   5
ENDBRANCH   1   4
BRANCH   2  10
ATOM     10  C   UNL     1       9.357  19.557  22.462  1.00  0.00     0.055 C 
BRANCH  10  11
ATOM     11  C   UNL     1      10.141  19.201  23.699  1.00  0.00    -0.020 C 
ATOM     12  C   UNL     1      10.761  20.108  24.481  1.00  0.00    -0.055 C 
ATOM     13  C   UNL     1      10.732  21.586  24.159  1.00  0.00     0.044 C 
BRANCH  12  14
ATOM     14  C   UNL     1      11.544  19.608  25.641  1.00  0.00    -0.005 C 
ATOM     15  C   UNL     1      11.054  18.769  26.554  1.00  0.00     0.009 C 
ENDBRANCH  12  14
ENDBRANCH  10  11
ENDBRANCH   2  10
TORSDOF 6
ENDMDL
MODEL 6
REMARK VINA RESULT:    -3.751      1.250      4.693
REMARK INTER + INTRA:          -7.421
REMARK INTER:                  -5.465
REMARK INTRA:                  -1.956
REMARK UNBOUND:                -2.353
REMARK SMILES C=CC(C)=CCC=C(C)CCC=C(C)C
REMARK SMILES IDX 8 1 7 2 9 3 10 4 11 5 12 6 14 7 13 8 15 9 6 10 5 11 3 12
REMARK SMILES IDX 4 13 2 14 1 15
REMARK H PARENT
REMARK Flexibility Score: inf
ROOT
ATOM      1  C   UNL     1       6.759  19.685  23.950  1.00  0.00    -0.077 C 
ATOM      2  C   UNL     1       7.023  19.994  25.241  1.00  0.00    -0.024 C 
ATOM      3  C   UNL     1       5.763  20.534  23.201  1.00  0.00     0.039 C 
ENDROOT
BRANCH   1   4
ATOM      4  C   UNL     1       7.402  18.509  23.237  1.00  0.00     0.034 C 
BRANCH   4   5
ATOM      5  C   UNL     1       8.492  18.962  22.252  1.00  0.00     0.032 C 
BRANCH   5   6
ATOM      6  C   UNL     1       9.868  18.910  22.873  1.00  0.00    -0.028 C 
ATOM      7  C   UNL     1       9.960  21.379  23.289  1.00  0.00     0.039 C 
ATOM      8  C   UNL     1      10.555  19.993  23.305  1.00  0.00    -0.080 C 
ATOM      9  C   UNL     1      11.937  19.821  23.878  1.00  0.00     0.039 C 
ENDBRANCH   5   6
ENDBRANCH   4   5
ENDBRANCH   1   4
BRANCH   2  10
ATOM     10  C   UNL     1       8.024  19.273  26.107  1.00  0.00     0.055 C 
BRANCH  10  11
ATOM     11  C   UNL     1       8.999  20.238  26.731  1.00  0.00    -0.020 C 
ATOM     12  C   UNL     1      10.217  19.884  27.186  1.00  0.00    -0.055 C 
ATOM     13  C   UNL     1      10.705  18.453  27.120  1.00  0.00     0.044 C 
BRANCH  12  14
ATOM     14  C   UNL     1      11.053  20.932  27.827  1.00  0.00    -0.005 C 
ATOM     15  C   UNL     1      10.778  21.469  29.017  1.00  0.00     0.009 C 
ENDBRANCH  12  14
ENDBRANCH  10  11
ENDBRANCH   2  10
TORSDOF 6
ENDMDL
MODEL 7
REMARK VINA RESULT:    -3.611      1.316      3.467
REMARK INTER + INTRA:          -7.231
REMARK INTER:                  -5.473
REMARK INTRA:                  -1.758
REMARK UNBOUND:                -2.353
REMARK SMILES C=CC(C)=CCC=C(C)CCC=C(C)C
REMARK SMILES IDX 8 1 7 2 9 3 10 4 11 5 12 6 14 7 13 8 15 9 6 10 5 11 3 12
REMARK SMILES IDX 4 13 2 14 1 15
REMARK H PARENT
REMARK Flexibility Score: inf
ROOT
ATOM      1  C   UNL     1      11.553  19.908  25.143  1.00  0.00    -0.077 C 
ATOM      2  C   UNL     1      11.111  19.997  23.866  1.00  0.00    -0.024 C 
ATOM      3  C   UNL     1      12.628  20.863  25.595  1.00  0.00     0.039 C 
ENDROOT
BRANCH   1   4
ATOM      4  C   UNL     1      11.030  18.875  26.125  1.00  0.00     0.034 C 
BRANCH   4   5
ATOM      5  C   UNL     1      10.342  19.529  27.333  1.00  0.00     0.032 C 
BRANCH   5   6
ATOM      6  C   UNL     1       9.197  20.420  26.916  1.00  0.00    -0.028 C 
ATOM      7  C   UNL     1       7.499  18.581  27.043  1.00  0.00     0.039 C 
ATOM      8  C   UNL     1       7.923  19.998  26.742  1.00  0.00    -0.080 C 
ATOM      9  C   UNL     1       6.867  20.973  26.291  1.00  0.00     0.039 C 
ENDBRANCH   5   6
ENDBRANCH   4   5
ENDBRANCH   1   4
BRANCH   2  10
ATOM     10  C   UNL     1      10.013  19.148  23.279  1.00  0.00     0.055 C 
BRANCH  10  11
ATOM     11  C   UNL     1       8.733  19.931  23.143  1.00  0.00    -0.020 C 
ATOM     12  C   UNL     1       7.529  19.369  22.916  1.00  0.00    -0.055 C 
ATOM     13  C   UNL     1       7.369  17.872  22.759  1.00  0.00     0.044 C 
BRANCH  12  14
ATOM     14  C   UNL     1       6.359  20.270  22.751  1.00  0.00    -0.005 C 
ATOM     15  C   UNL     1       5.095  19.844  22.747  1.00  0.00     0.009 C 
ENDBRANCH  12  14
ENDBRANCH  10  11
ENDBRANCH   2  10
TORSDOF 6
ENDMDL
MODEL 8
REMARK VINA RESULT:    -3.601      1.375      5.009
REMARK INTER + INTRA:          -7.217
REMARK INTER:                  -5.194
REMARK INTRA:                  -2.023
REMARK UNBOUND:                -2.353
REMARK SMILES C=CC(C)=CCC=C(C)CCC=C(C)C
REMARK SMILES IDX 8 1 7 2 9 3 10 4 11 5 12 6 14 7 13 8 15 9 6 10 5 11 3 12
REMARK SMILES IDX 4 13 2 14 1 15
REMARK H PARENT
REMARK Flexibility Score: inf
ROOT
ATOM      1  C   UNL     1       7.995  19.175  23.486  1.00  0.00    -0.077 C 
ATOM      2  C   UNL     1       9.109  19.610  22.853  1.00  0.00    -0.024 C 
ATOM      3  C   UNL     1       7.252  18.001  22.900  1.00  0.00     0.039 C 
ENDROOT
BRANCH   1   4
ATOM      4  C   UNL     1       7.451  19.833  24.742  1.00  0.00     0.034 C 
BRANCH   4   5
ATOM      5  C   UNL     1       7.986  19.163  26.017  1.00  0.00     0.032 C 
BRANCH   5   6
ATOM      6  C   UNL     1       8.796  20.120  26.859  1.00  0.00    -0.028 C 
ATOM      7  C   UNL     1      10.717  18.531  27.115  1.00  0.00     0.039 C 
ATOM      8  C   UNL     1      10.007  19.833  27.392  1.00  0.00    -0.080 C 
ATOM      9  C   UNL     1      10.710  20.857  28.244  1.00  0.00     0.039 C 
ENDBRANCH   5   6
ENDBRANCH   4   5
ENDBRANCH   1   4
BRANCH   2  10
ATOM     10  C   UNL     1       9.984  20.738  23.337  1.00  0.00     0.055 C 
BRANCH  10  11
ATOM     11  C   UNL     1      11.301  20.221  23.857  1.00  0.00    -0.020 C 
ATOM     12  C   UNL     1      12.140  20.943  24.624  1.00  0.00    -0.055 C 
ATOM     13  C   UNL     1      11.826  22.370  25.019  1.00  0.00     0.044 C 
BRANCH  12  14
ATOM     14  C   UNL     1      13.431  20.322  25.019  1.00  0.00    -0.005 C 
ATOM     15  C   UNL     1      13.902  20.331  26.267  1.00  0.00     0.009 C 
ENDBRANCH  12  14
ENDBRANCH  10  11
ENDBRANCH   2  10
TORSDOF 6
ENDMDL
MODEL 9
REMARK VINA RESULT:    -3.593      2.543      6.207
REMARK INTER + INTRA:          -7.207
REMARK INTER:                  -5.158
REMARK INTRA:                  -2.049
REMARK UNBOUND:                -2.353
REMARK SMILES C=CC(C)=CCC=C(C)CCC=C(C)C
REMARK SMILES IDX 8 1 7 2 9 3 10 4 11 5 12 6 14 7 13 8 15 9 6 10 5 11 3 12
REMARK SMILES IDX 4 13 2 14 1 15
REMARK H PARENT
REMARK Flexibility Score: inf
ROOT
ATOM      1  C   UNL     1       4.241  19.676  22.013  1.00  0.00    -0.077 C 
ATOM      2  C   UNL     1       4.956  18.625  22.477  1.00  0.00    -0.024 C 
ATOM      3  C   UNL     1       2.738  19.611  22.097  1.00  0.00     0.039 C 
ENDROOT
BRANCH   1   4
ATOM      4  C   UNL     1       4.888  20.902  21.391  1.00  0.00     0.034 C 
BRANCH   4   5
ATOM      5  C   UNL     1       4.659  22.163  22.238  1.00  0.00     0.032 C 
BRANCH   5   6
ATOM      6  C   UNL     1       5.380  22.090  23.564  1.00  0.00    -0.028 C 
ATOM      7  C   UNL     1       3.267  22.171  24.908  1.00  0.00     0.039 C 
ATOM      8  C   UNL     1       4.769  22.134  24.770  1.00  0.00    -0.080 C 
ATOM      9  C   UNL     1       5.596  22.086  26.028  1.00  0.00     0.039 C 
ENDBRANCH   5   6
ENDBRANCH   4   5
ENDBRANCH   1   4
BRANCH   2  10
ATOM     10  C   UNL     1       6.462  18.558  22.505  1.00  0.00     0.055 C 
BRANCH  10  11
ATOM     11  C   UNL     1       6.990  18.769  23.901  1.00  0.00    -0.020 C 
ATOM     12  C   UNL     1       8.010  19.597  24.200  1.00  0.00    -0.055 C 
ATOM     13  C   UNL     1       8.734  20.384  23.130  1.00  0.00     0.044 C 
BRANCH  12  14
ATOM     14  C   UNL     1       8.461  19.664  25.615  1.00  0.00    -0.005 C 
ATOM     15  C   UNL     1       7.807  19.090  26.625  1.00  0.00     0.009 C 
ENDBRANCH  12  14
ENDBRANCH  10  11
ENDBRANCH   2  10
TORSDOF 6
ENDMDL
