MODEL 1
REMARK VINA RESULT:    -3.650      0.000      0.000
REMARK INTER + INTRA:          -3.650
REMARK INTER:                  -3.650
REMARK INTRA:                   0.000
REMARK UNBOUND:                 0.000
REMARK SMILES CC(C)=C1CC[C@H](C)CC1=O
REMARK SMILES IDX 8 1 7 2 6 3 5 4 4 5 2 6 1 7 3 8 10 9 11 10 9 11
REMARK H PARENT
REMARK Flexibility Score: inf
ROOT
ATOM      1  C   UNL     1      10.926  84.113  17.480  1.00  0.00     0.008 C 
ATOM      2  C   UNL     1      11.595  82.847  18.030  1.00  0.00    -0.006 C 
ATOM      3  C   UNL     1      11.377  82.737  19.548  1.00  0.00     0.008 C 
ATOM      4  C   UNL     1      12.124  81.531  20.132  1.00  0.00     0.039 C 
ATOM      5  C   UNL     1      11.803  80.235  19.399  1.00  0.00    -0.006 C 
ATOM      6  C   UNL     1      11.797  79.035  20.051  1.00  0.00    -0.070 C 
ATOM      7  C   UNL     1      12.125  78.941  21.523  1.00  0.00     0.039 C 
ATOM      8  C   UNL     1      11.425  77.750  19.348  1.00  0.00     0.039 C 
ATOM      9  C   UNL     1      11.616  80.346  17.922  1.00  0.00     0.159 C 
ATOM     10  O   UNL     1      11.939  79.405  17.149  1.00  0.00    -0.295 OA
ATOM     11  C   UNL     1      11.040  81.598  17.329  1.00  0.00     0.084 C 
ENDROOT
TORSDOF 0
ENDMDL
MODEL 2
REMARK VINA RESULT:    -3.595      1.704      4.621
REMARK INTER + INTRA:          -3.595
REMARK INTER:                  -3.595
REMARK INTRA:                   0.000
REMARK UNBOUND:                 0.000
REMARK SMILES CC(C)=C1CC[C@H](C)CC1=O
REMARK SMILES IDX 8 1 7 2 6 3 5 4 4 5 2 6 1 7 3 8 10 9 11 10 9 11
REMARK H PARENT
REMARK Flexibility Score: inf
ROOT
ATOM      1  C   UNL     1      11.704  77.529  19.637  1.00  0.00     0.008 C 
ATOM      2  C   UNL     1      12.082  78.973  19.286  1.00  0.00    -0.006 C 
ATOM      3  C   UNL     1      11.572  79.340  17.882  1.00  0.00     0.008 C 
ATOM      4  C   UNL     1      12.029  80.745  17.474  1.00  0.00     0.039 C 
ATOM      5  C   UNL     1      11.680  81.799  18.516  1.00  0.00    -0.006 C 
ATOM      6  C   UNL     1      11.391  83.085  18.156  1.00  0.00    -0.070 C 
ATOM      7  C   UNL     1      11.424  83.520  16.709  1.00  0.00     0.039 C 
ATOM      8  C   UNL     1      10.988  84.125  19.176  1.00  0.00     0.039 C 
ATOM      9  C   UNL     1      11.788  81.372  19.942  1.00  0.00     0.159 C 
ATOM     10  O   UNL     1      12.119  82.184  20.846  1.00  0.00    -0.295 OA
ATOM     11  C   UNL     1      11.505  79.948  20.324  1.00  0.00     0.084 C 
ENDROOT
TORSDOF 0
ENDMDL
MODEL 3
REMARK VINA RESULT:    -3.414     16.692     17.645
REMARK INTER + INTRA:          -3.414
REMARK INTER:                  -3.414
REMARK INTRA:                   0.000
REMARK UNBOUND:                 0.000
REMARK SMILES CC(C)=C1CC[C@H](C)CC1=O
REMARK SMILES IDX 8 1 7 2 6 3 5 4 4 5 2 6 1 7 3 8 10 9 11 10 9 11
REMARK H PARENT
REMARK Flexibility Score: inf
ROOT
ATOM      1  C   UNL     1       5.728  63.875  26.205  1.00  0.00     0.008 C 
ATOM      2  C   UNL     1       6.950  64.507  25.527  1.00  0.00    -0.006 C 
ATOM      3  C   UNL     1       8.251  63.937  26.117  1.00  0.00     0.008 C 
ATOM      4  C   UNL     1       9.483  64.631  25.523  1.00  0.00     0.039 C 
ATOM      5  C   UNL     1       9.479  64.624  24.000  1.00  0.00    -0.006 C 
ATOM      6  C   UNL     1      10.644  64.573  23.288  1.00  0.00    -0.070 C 
ATOM      7  C   UNL     1      11.986  64.540  23.982  1.00  0.00     0.039 C 
ATOM      8  C   UNL     1      10.651  64.509  21.778  1.00  0.00     0.039 C 
ATOM      9  C   UNL     1       8.148  64.793  23.347  1.00  0.00     0.159 C 
ATOM     10  O   UNL     1       8.031  65.382  22.239  1.00  0.00    -0.295 OA
ATOM     11  C   UNL     1       6.911  64.261  24.011  1.00  0.00     0.084 C 
ENDROOT
TORSDOF 0
ENDMDL
MODEL 4
REMARK VINA RESULT:    -3.294     16.744     17.576
REMARK INTER + INTRA:          -3.294
REMARK INTER:                  -3.294
REMARK INTRA:                   0.000
REMARK UNBOUND:                 0.000
REMARK SMILES CC(C)=C1CC[C@H](C)CC1=O
REMARK SMILES IDX 8 1 7 2 6 3 5 4 4 5 2 6 1 7 3 8 10 9 11 10 9 11
REMARK H PARENT
REMARK Flexibility Score: inf
ROOT
ATOM      1  C   UNL     1      11.375  64.109  20.983  1.00  0.00     0.008 C 
ATOM      2  C   UNL     1      10.400  64.616  22.052  1.00  0.00    -0.006 C 
ATOM      3  C   UNL     1       9.026  63.946  21.894  1.00  0.00     0.008 C 
ATOM      4  C   UNL     1       8.009  64.516  22.891  1.00  0.00     0.039 C 
ATOM      5  C   UNL     1       8.516  64.479  24.327  1.00  0.00    -0.006 C 
ATOM      6  C   UNL     1       7.659  64.312  25.377  1.00  0.00    -0.070 C 
ATOM      7  C   UNL     1       6.170  64.174  25.159  1.00  0.00     0.039 C 
ATOM      8  C   UNL     1       8.156  64.217  26.801  1.00  0.00     0.039 C 
ATOM      9  C   UNL     1       9.971  64.752  24.515  1.00  0.00     0.159 C 
ATOM     10  O   UNL     1      10.401  65.328  25.551  1.00  0.00    -0.295 OA
ATOM     11  C   UNL     1      10.956  64.346  23.458  1.00  0.00     0.084 C 
ENDROOT
TORSDOF 0
ENDMDL
MODEL 5
REMARK VINA RESULT:    -3.205     16.546     17.717
REMARK INTER + INTRA:          -3.205
REMARK INTER:                  -3.205
REMARK INTRA:                   0.000
REMARK UNBOUND:                 0.000
REMARK SMILES CC(C)=C1CC[C@H](C)CC1=O
REMARK SMILES IDX 8 1 7 2 6 3 5 4 4 5 2 6 1 7 3 8 10 9 11 10 9 11
REMARK H PARENT
REMARK Flexibility Score: inf
ROOT
ATOM      1  C   UNL     1       6.333  64.250  25.828  1.00  0.00     0.008 C 
ATOM      2  C   UNL     1       7.506  63.878  24.913  1.00  0.00    -0.006 C 
ATOM      3  C   UNL     1       7.245  64.357  23.476  1.00  0.00     0.008 C 
ATOM      4  C   UNL     1       8.361  63.905  22.526  1.00  0.00     0.039 C 
ATOM      5  C   UNL     1       9.747  64.290  23.028  1.00  0.00    -0.006 C 
ATOM      6  C   UNL     1      10.759  64.583  22.160  1.00  0.00    -0.070 C 
ATOM      7  C   UNL     1      10.552  64.520  20.664  1.00  0.00     0.039 C 
ATOM      8  C   UNL     1      12.122  65.021  22.646  1.00  0.00     0.039 C 
ATOM      9  C   UNL     1       9.954  64.212  24.504  1.00  0.00     0.159 C 
ATOM     10  O   UNL     1      11.076  63.910  24.993  1.00  0.00    -0.295 OA
ATOM     11  C   UNL     1       8.814  64.489  25.440  1.00  0.00     0.084 C 
ENDROOT
TORSDOF 0
ENDMDL
MODEL 6
REMARK VINA RESULT:    -2.649     16.468     17.806
REMARK INTER + INTRA:          -2.649
REMARK INTER:                  -2.649
REMARK INTRA:                   0.000
REMARK UNBOUND:                 0.000
REMARK SMILES CC(C)=C1CC[C@H](C)CC1=O
REMARK SMILES IDX 8 1 7 2 6 3 5 4 4 5 2 6 1 7 3 8 10 9 11 10 9 11
REMARK H PARENT
REMARK Flexibility Score: inf
ROOT
ATOM      1  C   UNL     1      12.098  65.245  23.273  1.00  0.00     0.008 C 
ATOM      2  C   UNL     1      10.880  64.515  23.852  1.00  0.00    -0.006 C 
ATOM      3  C   UNL     1      10.742  64.802  25.356  1.00  0.00     0.008 C 
ATOM      4  C   UNL     1       9.589  64.000  25.972  1.00  0.00     0.039 C 
ATOM      5  C   UNL     1       8.279  64.187  25.218  1.00  0.00    -0.006 C 
ATOM      6  C   UNL     1       7.076  64.139  25.864  1.00  0.00    -0.070 C 
ATOM      7  C   UNL     1       6.994  63.881  27.351  1.00  0.00     0.039 C 
ATOM      8  C   UNL     1       5.773  64.379  25.136  1.00  0.00     0.039 C 
ATOM      9  C   UNL     1       8.388  64.305  23.734  1.00  0.00     0.159 C 
ATOM     10  O   UNL     1       7.479  63.875  22.974  1.00  0.00    -0.295 OA
ATOM     11  C   UNL     1       9.600  64.940  23.117  1.00  0.00     0.084 C 
ENDROOT
TORSDOF 0
ENDMDL
MODEL 7
REMARK VINA RESULT:    -2.473      1.555      2.440
REMARK INTER + INTRA:          -2.473
REMARK INTER:                  -2.473
REMARK INTRA:                   0.000
REMARK UNBOUND:                 0.000
REMARK SMILES CC(C)=C1CC[C@H](C)CC1=O
REMARK SMILES IDX 8 1 7 2 6 3 5 4 4 5 2 6 1 7 3 8 10 9 11 10 9 11
REMARK H PARENT
REMARK Flexibility Score: inf
ROOT
ATOM      1  C   UNL     1      11.962  84.125  16.771  1.00  0.00     0.008 C 
ATOM      2  C   UNL     1      11.427  82.978  17.636  1.00  0.00    -0.006 C 
ATOM      3  C   UNL     1      11.637  81.626  16.933  1.00  0.00     0.008 C 
ATOM      4  C   UNL     1      11.016  80.478  17.737  1.00  0.00     0.039 C 
ATOM      5  C   UNL     1      11.482  80.461  19.187  1.00  0.00    -0.006 C 
ATOM      6  C   UNL     1      11.609  79.290  19.878  1.00  0.00    -0.070 C 
ATOM      7  C   UNL     1      11.275  77.962  19.238  1.00  0.00     0.039 C 
ATOM      8  C   UNL     1      12.124  79.256  21.299  1.00  0.00     0.039 C 
ATOM      9  C   UNL     1      11.674  81.795  19.829  1.00  0.00     0.159 C 
ATOM     10  O   UNL     1      11.463  81.966  21.059  1.00  0.00    -0.295 OA
ATOM     11  C   UNL     1      12.120  82.969  19.006  1.00  0.00     0.084 C 
ENDROOT
TORSDOF 0
ENDMDL
MODEL 8
REMARK VINA RESULT:    -2.401      1.103      4.049
REMARK INTER + INTRA:          -2.401
REMARK INTER:                  -2.401
REMARK INTRA:                   0.000
REMARK UNBOUND:                 0.000
REMARK SMILES CC(C)=C1CC[C@H](C)CC1=O
REMARK SMILES IDX 8 1 7 2 6 3 5 4 4 5 2 6 1 7 3 8 10 9 11 10 9 11
REMARK H PARENT
REMARK Flexibility Score: inf
ROOT
ATOM      1  C   UNL     1      12.087  77.462  19.891  1.00  0.00     0.008 C 
ATOM      2  C   UNL     1      11.572  78.865  19.546  1.00  0.00    -0.006 C 
ATOM      3  C   UNL     1      12.125  79.902  20.537  1.00  0.00     0.008 C 
ATOM      4  C   UNL     1      11.540  81.294  20.270  1.00  0.00     0.039 C 
ATOM      5  C   UNL     1      11.702  81.727  18.818  1.00  0.00    -0.006 C 
ATOM      6  C   UNL     1      11.867  83.041  18.484  1.00  0.00    -0.070 C 
ATOM      7  C   UNL     1      11.878  84.123  19.539  1.00  0.00     0.039 C 
ATOM      8  C   UNL     1      12.085  83.477  17.053  1.00  0.00     0.039 C 
ATOM      9  C   UNL     1      11.552  80.652  17.794  1.00  0.00     0.159 C 
ATOM     10  O   UNL     1      11.075  80.896  16.653  1.00  0.00    -0.295 OA
ATOM     11  C   UNL     1      11.969  79.246  18.112  1.00  0.00     0.084 C 
ENDROOT
TORSDOF 0
ENDMDL
MODEL 9
REMARK VINA RESULT:    -1.166     16.584     17.085
REMARK INTER + INTRA:          -1.166
REMARK INTER:                  -1.166
REMARK INTRA:                   0.000
REMARK UNBOUND:                 0.000
REMARK SMILES CC(C)=C1CC[C@H](C)CC1=O
REMARK SMILES IDX 8 1 7 2 6 3 5 4 4 5 2 6 1 7 3 8 10 9 11 10 9 11
REMARK H PARENT
REMARK Flexibility Score: inf
ROOT
ATOM      1  C   UNL     1      11.881  64.512  19.614  1.00  0.00     0.008 C 
ATOM      2  C   UNL     1      11.274  64.094  20.959  1.00  0.00    -0.006 C 
ATOM      3  C   UNL     1      12.125  64.624  22.125  1.00  0.00     0.008 C 
ATOM      4  C   UNL     1      11.590  64.129  23.474  1.00  0.00     0.039 C 
ATOM      5  C   UNL     1      10.106  64.418  23.656  1.00  0.00    -0.006 C 
ATOM      6  C   UNL     1       9.578  64.671  24.890  1.00  0.00    -0.070 C 
ATOM      7  C   UNL     1      10.442  64.659  26.130  1.00  0.00     0.039 C 
ATOM      8  C   UNL     1       8.118  65.015  25.075  1.00  0.00     0.039 C 
ATOM      9  C   UNL     1       9.259  64.291  22.433  1.00  0.00     0.159 C 
ATOM     10  O   UNL     1       8.060  63.910  22.503  1.00  0.00    -0.295 OA
ATOM     11  C   UNL     1       9.833  64.612  21.083  1.00  0.00     0.084 C 
ENDROOT
TORSDOF 0
ENDMDL
