MODEL 1
REMARK VINA RESULT:    -3.199      0.000      0.000
REMARK INTER + INTRA:          -5.805
REMARK INTER:                  -4.883
REMARK INTRA:                  -0.922
REMARK UNBOUND:                -0.922
REMARK SMILES CCCCCCCCCCC(=O)[O-]
REMARK SMILES IDX 7 1 8 2 9 3 10 4 11 5 12 6 13 7 6 8 5 9 4 10 3 11 2 12 1 13
REMARK H PARENT
REMARK Flexibility Score: inf
ROOT
ATOM      1  C   UNL     1      16.029  -6.778   5.508  1.00  0.00     0.000 C 
ENDROOT
BRANCH   1   2
ATOM      2  C   UNL     1      15.706  -7.641   6.744  1.00  0.00     0.000 C 
BRANCH   2   3
ATOM      3  C   UNL     1      14.731  -8.809   6.492  1.00  0.00     0.006 C 
BRANCH   3   4
ATOM      4  C   UNL     1      13.336  -8.614   7.105  1.00  0.00     0.053 C 
BRANCH   4   5
ATOM      5  C   UNL     1      12.330  -8.186   6.081  1.00  0.00     0.041 C 
ATOM      6  O   UNL     1      12.710  -7.723   4.973  1.00  0.00    -0.550 OA
ATOM      7  O   UNL     1      10.973  -8.268   6.363  1.00  0.00    -0.550 OA
ENDBRANCH   4   5
ENDBRANCH   3   4
ENDBRANCH   2   3
ENDBRANCH   1   2
BRANCH   1   8
ATOM      8  C   UNL     1      16.725  -7.524   4.355  1.00  0.00     0.000 C 
BRANCH   8   9
ATOM      9  C   UNL     1      18.074  -8.133   4.767  1.00  0.00    -0.000 C 
BRANCH   9  10
ATOM     10  C   UNL     1      19.197  -7.093   4.675  1.00  0.00    -0.000 C 
BRANCH  10  11
ATOM     11  C   UNL     1      19.987  -7.021   5.990  1.00  0.00    -0.000 C 
BRANCH  11  12
ATOM     12  C   UNL     1      19.354  -7.866   7.106  1.00  0.00    -0.003 C 
ATOM     13  C   UNL     1      19.009  -7.043   8.346  1.00  0.00     0.004 C 
ENDBRANCH  11  12
ENDBRANCH  10  11
ENDBRANCH   9  10
ENDBRANCH   8   9
ENDBRANCH   1   8
TORSDOF 9
ENDMDL
MODEL 2
REMARK VINA RESULT:    -3.147      1.363      2.194
REMARK INTER + INTRA:          -5.724
REMARK INTER:                  -4.679
REMARK INTRA:                  -1.046
REMARK UNBOUND:                -0.922
REMARK SMILES CCCCCCCCCCC(=O)[O-]
REMARK SMILES IDX 7 1 8 2 9 3 10 4 11 5 12 6 13 7 6 8 5 9 4 10 3 11 2 12 1 13
REMARK H PARENT
REMARK Flexibility Score: inf
ROOT
ATOM      1  C   UNL     1      17.982  -6.747   3.915  1.00  0.00     0.000 C 
ENDROOT
BRANCH   1   2
ATOM      2  C   UNL     1      16.493  -6.951   4.257  1.00  0.00     0.000 C 
BRANCH   2   3
ATOM      3  C   UNL     1      16.177  -7.076   5.761  1.00  0.00     0.006 C 
BRANCH   3   4
ATOM      4  C   UNL     1      15.623  -8.446   6.181  1.00  0.00     0.053 C 
BRANCH   4   5
ATOM      5  C   UNL     1      14.168  -8.376   6.533  1.00  0.00     0.041 C 
ATOM      6  O   UNL     1      13.322  -8.030   5.667  1.00  0.00    -0.550 OA
ATOM      7  O   UNL     1      13.752  -8.661   7.827  1.00  0.00    -0.550 OA
ENDBRANCH   4   5
ENDBRANCH   3   4
ENDBRANCH   2   3
ENDBRANCH   1   2
BRANCH   1   8
ATOM      8  C   UNL     1      18.877  -7.981   4.136  1.00  0.00     0.000 C 
BRANCH   8   9
ATOM      9  C   UNL     1      20.153  -7.658   4.928  1.00  0.00    -0.000 C 
BRANCH   9  10
ATOM     10  C   UNL     1      20.499  -8.795   5.897  1.00  0.00    -0.000 C 
BRANCH  10  11
ATOM     11  C   UNL     1      19.330  -9.081   6.851  1.00  0.00    -0.000 C 
BRANCH  11  12
ATOM     12  C   UNL     1      19.523  -8.433   8.230  1.00  0.00    -0.003 C 
ATOM     13  C   UNL     1      18.889  -7.045   8.326  1.00  0.00     0.004 C 
ENDBRANCH  11  12
ENDBRANCH  10  11
ENDBRANCH   9  10
ENDBRANCH   8   9
ENDBRANCH   1   8
TORSDOF 9
ENDMDL
MODEL 3
REMARK VINA RESULT:    -3.142      3.418      7.876
REMARK INTER + INTRA:          -5.718
REMARK INTER:                  -5.195
REMARK INTRA:                  -0.523
REMARK UNBOUND:                -0.922
REMARK SMILES CCCCCCCCCCC(=O)[O-]
REMARK SMILES IDX 7 1 8 2 9 3 10 4 11 5 12 6 13 7 6 8 5 9 4 10 3 11 2 12 1 13
REMARK H PARENT
REMARK Flexibility Score: inf
ROOT
ATOM      1  C   UNL     1      11.473  -8.129   6.395  1.00  0.00     0.000 C 
ENDROOT
BRANCH   1   2
ATOM      2  C   UNL     1      12.918  -8.166   5.860  1.00  0.00     0.000 C 
BRANCH   2   3
ATOM      3  C   UNL     1      13.949  -8.820   6.802  1.00  0.00     0.006 C 
BRANCH   3   4
ATOM      4  C   UNL     1      15.395  -8.785   6.282  1.00  0.00     0.053 C 
BRANCH   4   5
ATOM      5  C   UNL     1      15.980  -7.408   6.348  1.00  0.00     0.041 C 
ATOM      6  O   UNL     1      16.348  -6.928   7.453  1.00  0.00    -0.550 OA
ATOM      7  O   UNL     1      16.086  -6.642   5.195  1.00  0.00    -0.550 OA
ENDBRANCH   4   5
ENDBRANCH   3   4
ENDBRANCH   2   3
ENDBRANCH   1   2
BRANCH   1   8
ATOM      8  C   UNL     1      10.376  -8.182   5.316  1.00  0.00     0.000 C 
BRANCH   8   9
ATOM      9  C   UNL     1       9.299  -9.237   5.610  1.00  0.00    -0.000 C 
BRANCH   9  10
ATOM     10  C   UNL     1       9.098  -9.409   7.121  1.00  0.00    -0.000 C 
BRANCH  10  11
ATOM     11  C   UNL     1       7.794  -8.741   7.581  1.00  0.00    -0.000 C 
BRANCH  11  12
ATOM     12  C   UNL     1       6.897  -8.325   6.405  1.00  0.00    -0.003 C 
ATOM     13  C   UNL     1       6.488  -6.854   6.465  1.00  0.00     0.004 C 
ENDBRANCH  11  12
ENDBRANCH  10  11
ENDBRANCH   9  10
ENDBRANCH   8   9
ENDBRANCH   1   8
TORSDOF 9
ENDMDL
MODEL 4
REMARK VINA RESULT:    -2.995      3.183      6.197
REMARK INTER + INTRA:          -5.493
REMARK INTER:                  -4.785
REMARK INTRA:                  -0.708
REMARK UNBOUND:                -0.922
REMARK SMILES CCCCCCCCCCC(=O)[O-]
REMARK SMILES IDX 7 1 8 2 9 3 10 4 11 5 12 6 13 7 6 8 5 9 4 10 3 11 2 12 1 13
REMARK H PARENT
REMARK Flexibility Score: inf
ROOT
ATOM      1  C   UNL     1      16.146  -6.959   5.810  1.00  0.00     0.000 C 
ENDROOT
BRANCH   1   2
ATOM      2  C   UNL     1      17.459  -7.461   5.176  1.00  0.00     0.000 C 
BRANCH   2   3
ATOM      3  C   UNL     1      18.172  -8.587   5.952  1.00  0.00     0.006 C 
BRANCH   3   4
ATOM      4  C   UNL     1      19.478  -8.155   6.638  1.00  0.00     0.053 C 
BRANCH   4   5
ATOM      5  C   UNL     1      19.285  -7.910   8.103  1.00  0.00     0.041 C 
ATOM      6  O   UNL     1      18.775  -6.831   8.504  1.00  0.00    -0.550 OA
ATOM      7  O   UNL     1      19.698  -8.861   9.026  1.00  0.00    -0.550 OA
ENDBRANCH   4   5
ENDBRANCH   3   4
ENDBRANCH   2   3
ENDBRANCH   1   2
BRANCH   1   8
ATOM      8  C   UNL     1      15.409  -7.988   6.686  1.00  0.00     0.000 C 
BRANCH   8   9
ATOM      9  C   UNL     1      14.290  -8.721   5.931  1.00  0.00    -0.000 C 
BRANCH   9  10
ATOM     10  C   UNL     1      13.778  -7.880   4.755  1.00  0.00    -0.000 C 
BRANCH  10  11
ATOM     11  C   UNL     1      12.259  -7.672   4.848  1.00  0.00    -0.000 C 
BRANCH  11  12
ATOM     12  C   UNL     1      11.695  -8.056   6.224  1.00  0.00    -0.003 C 
ATOM     13  C   UNL     1      10.362  -8.798   6.131  1.00  0.00     0.004 C 
ENDBRANCH  11  12
ENDBRANCH  10  11
ENDBRANCH   9  10
ENDBRANCH   8   9
ENDBRANCH   1   8
TORSDOF 9
ENDMDL
MODEL 5
REMARK VINA RESULT:    -2.958      3.520      7.421
REMARK INTER + INTRA:          -5.436
REMARK INTER:                  -5.198
REMARK INTRA:                  -0.238
REMARK UNBOUND:                -0.922
REMARK SMILES CCCCCCCCCCC(=O)[O-]
REMARK SMILES IDX 7 1 8 2 9 3 10 4 11 5 12 6 13 7 6 8 5 9 4 10 3 11 2 12 1 13
REMARK H PARENT
REMARK Flexibility Score: inf
ROOT
ATOM      1  C   UNL     1      13.919  -8.211   5.859  1.00  0.00     0.000 C 
ENDROOT
BRANCH   1   2
ATOM      2  C   UNL     1      15.016  -7.805   4.855  1.00  0.00     0.000 C 
BRANCH   2   3
ATOM      3  C   UNL     1      16.143  -6.927   5.436  1.00  0.00     0.006 C 
BRANCH   3   4
ATOM      4  C   UNL     1      16.462  -7.201   6.914  1.00  0.00     0.053 C 
BRANCH   4   5
ATOM      5  C   UNL     1      17.937  -7.305   7.157  1.00  0.00     0.041 C 
ATOM      6  O   UNL     1      18.404  -7.127   8.313  1.00  0.00    -0.550 OA
ATOM      7  O   UNL     1      18.798  -7.567   6.100  1.00  0.00    -0.550 OA
ENDBRANCH   4   5
ENDBRANCH   3   4
ENDBRANCH   2   3
ENDBRANCH   1   2
BRANCH   1   8
ATOM      8  C   UNL     1      12.475  -8.045   5.351  1.00  0.00     0.000 C 
BRANCH   8   9
ATOM      9  C   UNL     1      11.429  -8.207   6.464  1.00  0.00    -0.000 C 
BRANCH   9  10
ATOM     10  C   UNL     1      10.034  -8.451   5.874  1.00  0.00    -0.000 C 
BRANCH  10  11
ATOM     11  C   UNL     1       9.274  -9.512   6.682  1.00  0.00    -0.000 C 
BRANCH  11  12
ATOM     12  C   UNL     1       8.077  -8.926   7.447  1.00  0.00    -0.003 C 
ATOM     13  C   UNL     1       7.359  -9.965   8.307  1.00  0.00     0.004 C 
ENDBRANCH  11  12
ENDBRANCH  10  11
ENDBRANCH   9  10
ENDBRANCH   8   9
ENDBRANCH   1   8
TORSDOF 9
ENDMDL
MODEL 6
REMARK VINA RESULT:    -2.930      3.206      5.477
REMARK INTER + INTRA:          -5.394
REMARK INTER:                  -4.851
REMARK INTRA:                  -0.543
REMARK UNBOUND:                -0.922
REMARK SMILES CCCCCCCCCCC(=O)[O-]
REMARK SMILES IDX 7 1 8 2 9 3 10 4 11 5 12 6 13 7 6 8 5 9 4 10 3 11 2 12 1 13
REMARK H PARENT
REMARK Flexibility Score: inf
ROOT
ATOM      1  C   UNL     1      10.423  -7.902   5.415  1.00  0.00     0.000 C 
ENDROOT
BRANCH   1   2
ATOM      2  C   UNL     1       9.729  -9.137   6.023  1.00  0.00     0.000 C 
BRANCH   2   3
ATOM      3  C   UNL     1       8.676  -8.830   7.107  1.00  0.00     0.006 C 
BRANCH   3   4
ATOM      4  C   UNL     1       7.228  -8.797   6.593  1.00  0.00     0.053 C 
BRANCH   4   5
ATOM      5  C   UNL     1       6.818  -7.420   6.166  1.00  0.00     0.041 C 
ATOM      6  O   UNL     1       6.361  -6.604   7.009  1.00  0.00    -0.550 OA
ATOM      7  O   UNL     1       6.911  -7.051   4.831  1.00  0.00    -0.550 OA
ENDBRANCH   4   5
ENDBRANCH   3   4
ENDBRANCH   2   3
ENDBRANCH   1   2
BRANCH   1   8
ATOM      8  C   UNL     1      11.962  -7.934   5.452  1.00  0.00     0.000 C 
BRANCH   8   9
ATOM      9  C   UNL     1      12.516  -8.478   6.777  1.00  0.00    -0.000 C 
BRANCH   9  10
ATOM     10  C   UNL     1      14.047  -8.556   6.741  1.00  0.00    -0.000 C 
BRANCH  10  11
ATOM     11  C   UNL     1      14.589  -8.100   5.378  1.00  0.00    -0.000 C 
BRANCH  11  12
ATOM     12  C   UNL     1      15.803  -7.168   5.509  1.00  0.00    -0.003 C 
ATOM     13  C   UNL     1      16.447  -7.227   6.894  1.00  0.00     0.004 C 
ENDBRANCH  11  12
ENDBRANCH  10  11
ENDBRANCH   9  10
ENDBRANCH   8   9
ENDBRANCH   1   8
TORSDOF 9
ENDMDL
MODEL 7
REMARK VINA RESULT:    -2.778      1.405      2.367
REMARK INTER + INTRA:          -5.162
REMARK INTER:                  -4.780
REMARK INTRA:                  -0.383
REMARK UNBOUND:                -0.922
REMARK SMILES CCCCCCCCCCC(=O)[O-]
REMARK SMILES IDX 7 1 8 2 9 3 10 4 11 5 12 6 13 7 6 8 5 9 4 10 3 11 2 12 1 13
REMARK H PARENT
REMARK Flexibility Score: inf
ROOT
ATOM      1  C   UNL     1      16.562  -7.130   7.195  1.00  0.00     0.000 C 
ENDROOT
BRANCH   1   2
ATOM      2  C   UNL     1      15.589  -7.508   6.059  1.00  0.00     0.000 C 
BRANCH   2   3
ATOM      3  C   UNL     1      14.416  -8.418   6.477  1.00  0.00     0.006 C 
BRANCH   3   4
ATOM      4  C   UNL     1      13.439  -8.753   5.340  1.00  0.00     0.053 C 
BRANCH   4   5
ATOM      5  C   UNL     1      12.220  -7.883   5.377  1.00  0.00     0.041 C 
ATOM      6  O   UNL     1      11.489  -7.859   6.402  1.00  0.00    -0.550 OA
ATOM      7  O   UNL     1      11.873  -7.125   4.266  1.00  0.00    -0.550 OA
ENDBRANCH   4   5
ENDBRANCH   3   4
ENDBRANCH   2   3
ENDBRANCH   1   2
BRANCH   1   8
ATOM      8  C   UNL     1      18.036  -7.495   6.940  1.00  0.00     0.000 C 
BRANCH   8   9
ATOM      9  C   UNL     1      18.321  -7.834   5.470  1.00  0.00    -0.000 C 
BRANCH   9  10
ATOM     10  C   UNL     1      19.800  -7.608   5.131  1.00  0.00    -0.000 C 
BRANCH  10  11
ATOM     11  C   UNL     1      19.983  -6.336   4.290  1.00  0.00    -0.000 C 
BRANCH  11  12
ATOM     12  C   UNL     1      21.217  -5.524   4.710  1.00  0.00    -0.003 C 
ATOM     13  C   UNL     1      22.519  -6.313   4.573  1.00  0.00     0.004 C 
ENDBRANCH  11  12
ENDBRANCH  10  11
ENDBRANCH   9  10
ENDBRANCH   8   9
ENDBRANCH   1   8
TORSDOF 9
ENDMDL
MODEL 8
REMARK VINA RESULT:    -2.769      1.371      2.181
REMARK INTER + INTRA:          -5.148
REMARK INTER:                  -4.365
REMARK INTRA:                  -0.784
REMARK UNBOUND:                -0.922
REMARK SMILES CCCCCCCCCCC(=O)[O-]
REMARK SMILES IDX 7 1 8 2 9 3 10 4 11 5 12 6 13 7 6 8 5 9 4 10 3 11 2 12 1 13
REMARK H PARENT
REMARK Flexibility Score: inf
ROOT
ATOM      1  C   UNL     1      14.698  -8.522   6.802  1.00  0.00     0.000 C 
ENDROOT
BRANCH   1   2
ATOM      2  C   UNL     1      14.709  -9.315   5.479  1.00  0.00     0.000 C 
BRANCH   2   3
ATOM      3  C   UNL     1      13.456  -9.138   4.598  1.00  0.00     0.006 C 
BRANCH   3   4
ATOM      4  C   UNL     1      13.018  -7.677   4.406  1.00  0.00     0.053 C 
BRANCH   4   5
ATOM      5  C   UNL     1      11.632  -7.438   4.921  1.00  0.00     0.041 C 
ATOM      6  O   UNL     1      10.801  -6.793   4.228  1.00  0.00    -0.550 OA
ATOM      7  O   UNL     1      11.269  -7.897   6.179  1.00  0.00    -0.550 OA
ENDBRANCH   4   5
ENDBRANCH   3   4
ENDBRANCH   2   3
ENDBRANCH   1   2
BRANCH   1   8
ATOM      8  C   UNL     1      15.802  -7.458   6.934  1.00  0.00     0.000 C 
BRANCH   8   9
ATOM      9  C   UNL     1      16.610  -7.272   5.640  1.00  0.00    -0.000 C 
BRANCH   9  10
ATOM     10  C   UNL     1      18.069  -7.700   5.838  1.00  0.00    -0.000 C 
BRANCH  10  11
ATOM     11  C   UNL     1      18.533  -7.424   7.276  1.00  0.00    -0.000 C 
BRANCH  11  12
ATOM     12  C   UNL     1      19.471  -8.515   7.813  1.00  0.00    -0.003 C 
ATOM     13  C   UNL     1      19.599  -9.705   6.863  1.00  0.00     0.004 C 
ENDBRANCH  11  12
ENDBRANCH  10  11
ENDBRANCH   9  10
ENDBRANCH   8   9
ENDBRANCH   1   8
TORSDOF 9
ENDMDL
MODEL 9
REMARK VINA RESULT:    -2.757      4.219      6.538
REMARK INTER + INTRA:          -5.130
REMARK INTER:                  -4.513
REMARK INTRA:                  -0.617
REMARK UNBOUND:                -0.922
REMARK SMILES CCCCCCCCCCC(=O)[O-]
REMARK SMILES IDX 7 1 8 2 9 3 10 4 11 5 12 6 13 7 6 8 5 9 4 10 3 11 2 12 1 13
REMARK H PARENT
REMARK Flexibility Score: inf
ROOT
ATOM      1  C   UNL     1      19.038  -7.528   7.210  1.00  0.00     0.000 C 
ENDROOT
BRANCH   1   2
ATOM      2  C   UNL     1      19.852  -8.515   6.350  1.00  0.00     0.000 C 
BRANCH   2   3
ATOM      3  C   UNL     1      20.605  -7.883   5.162  1.00  0.00     0.006 C 
BRANCH   3   4
ATOM      4  C   UNL     1      20.273  -6.403   4.916  1.00  0.00     0.053 C 
BRANCH   4   5
ATOM      5  C   UNL     1      21.489  -5.612   4.541  1.00  0.00     0.041 C 
ATOM      6  O   UNL     1      21.370  -4.443   4.087  1.00  0.00    -0.550 OA
ATOM      7  O   UNL     1      22.750  -6.179   4.661  1.00  0.00    -0.550 OA
ENDBRANCH   4   5
ENDBRANCH   3   4
ENDBRANCH   2   3
ENDBRANCH   1   2
BRANCH   1   8
ATOM      8  C   UNL     1      17.527  -7.497   6.915  1.00  0.00     0.000 C 
BRANCH   8   9
ATOM      9  C   UNL     1      17.124  -8.436   5.768  1.00  0.00    -0.000 C 
BRANCH   9  10
ATOM     10  C   UNL     1      16.263  -7.701   4.734  1.00  0.00    -0.000 C 
BRANCH  10  11
ATOM     11  C   UNL     1      14.793  -7.655   5.176  1.00  0.00    -0.000 C 
BRANCH  11  12
ATOM     12  C   UNL     1      14.352  -8.942   5.891  1.00  0.00    -0.003 C 
ATOM     13  C   UNL     1      13.803  -8.680   7.293  1.00  0.00     0.004 C 
ENDBRANCH  11  12
ENDBRANCH  10  11
ENDBRANCH   9  10
ENDBRANCH   8   9
ENDBRANCH   1   8
TORSDOF 9
ENDMDL
