MODEL 1
REMARK VINA RESULT:    -5.974      0.000      0.000
REMARK INTER + INTRA:          -6.422
REMARK INTER:                  -6.323
REMARK INTRA:                  -0.099
REMARK UNBOUND:                -0.099
REMARK SMILES C=C(C)[C@@H]1CC=C(C)C(=O)C1
REMARK SMILES IDX 8 1 7 2 6 3 5 4 4 5 11 6 9 7 10 8 2 9 1 10 3 11
REMARK H PARENT
REMARK Flexibility Score: inf
ROOT
ATOM      1  C   UNL     1     -13.387  -0.547 -19.628  1.00  0.00     0.048 C 
ATOM      2  C   UNL     1     -12.174   0.221 -19.177  1.00  0.00    -0.012 C 
ATOM      3  C   UNL     1     -12.265   1.056 -18.128  1.00  0.00    -0.019 C 
ATOM      4  C   UNL     1     -11.078   1.836 -17.624  1.00  0.00     0.036 C 
ATOM      5  C   UNL     1     -10.128   2.206 -18.778  1.00  0.00     0.025 C 
ATOM      6  C   UNL     1      -9.709   0.943 -19.552  1.00  0.00     0.089 C 
ATOM      7  C   UNL     1     -10.919   0.151 -19.965  1.00  0.00     0.158 C 
ATOM      8  O   UNL     1     -10.845  -0.605 -20.971  1.00  0.00    -0.295 OA
ENDROOT
BRANCH   5   9
ATOM      9  C   UNL     1      -8.915   2.978 -18.276  1.00  0.00    -0.077 C 
ATOM     10  C   UNL     1      -7.686   2.453 -18.396  1.00  0.00     0.008 C 
ATOM     11  C   UNL     1      -9.059   4.337 -17.636  1.00  0.00     0.039 C 
ENDBRANCH   5   9
TORSDOF 1
ENDMDL
MODEL 2
REMARK VINA RESULT:    -5.370      1.974      4.664
REMARK INTER + INTRA:          -5.783
REMARK INTER:                  -5.686
REMARK INTRA:                  -0.097
REMARK UNBOUND:                -0.099
REMARK SMILES C=C(C)[C@@H]1CC=C(C)C(=O)C1
REMARK SMILES IDX 8 1 7 2 6 3 5 4 4 5 11 6 9 7 10 8 2 9 1 10 3 11
REMARK H PARENT
REMARK Flexibility Score: inf
ROOT
ATOM      1  C   UNL     1      -8.389   3.949 -17.954  1.00  0.00     0.048 C 
ATOM      2  C   UNL     1      -9.288   2.806 -18.339  1.00  0.00    -0.012 C 
ATOM      3  C   UNL     1      -8.910   1.956 -19.308  1.00  0.00    -0.019 C 
ATOM      4  C   UNL     1      -9.763   0.785 -19.720  1.00  0.00     0.036 C 
ATOM      5  C   UNL     1     -11.260   1.112 -19.573  1.00  0.00     0.025 C 
ATOM      6  C   UNL     1     -11.567   1.580 -18.140  1.00  0.00     0.089 C 
ATOM      7  C   UNL     1     -10.640   2.694 -17.737  1.00  0.00     0.158 C 
ATOM      8  O   UNL     1     -11.010   3.513 -16.854  1.00  0.00    -0.295 OA
ENDROOT
BRANCH   5   9
ATOM      9  C   UNL     1     -12.131  -0.073 -19.969  1.00  0.00    -0.077 C 
ATOM     10  C   UNL     1     -11.706  -0.939 -20.903  1.00  0.00     0.008 C 
ATOM     11  C   UNL     1     -13.480  -0.305 -19.334  1.00  0.00     0.039 C 
ENDBRANCH   5   9
TORSDOF 1
ENDMDL
MODEL 3
REMARK VINA RESULT:    -5.317      1.638      4.264
REMARK INTER + INTRA:          -5.727
REMARK INTER:                  -5.629
REMARK INTRA:                  -0.098
REMARK UNBOUND:                -0.099
REMARK SMILES C=C(C)[C@@H]1CC=C(C)C(=O)C1
REMARK SMILES IDX 8 1 7 2 6 3 5 4 4 5 11 6 9 7 10 8 2 9 1 10 3 11
REMARK H PARENT
REMARK Flexibility Score: inf
ROOT
ATOM      1  C   UNL     1      -9.126   3.903 -16.876  1.00  0.00     0.048 C 
ATOM      2  C   UNL     1      -9.957   2.972 -17.717  1.00  0.00    -0.012 C 
ATOM      3  C   UNL     1     -11.224   2.702 -17.361  1.00  0.00    -0.019 C 
ATOM      4  C   UNL     1     -12.105   1.792 -18.176  1.00  0.00     0.036 C 
ATOM      5  C   UNL     1     -11.279   0.682 -18.853  1.00  0.00     0.025 C 
ATOM      6  C   UNL     1     -10.143   1.295 -19.690  1.00  0.00     0.089 C 
ATOM      7  C   UNL     1      -9.338   2.259 -18.862  1.00  0.00     0.158 C 
ATOM      8  O   UNL     1      -8.138   2.484 -19.174  1.00  0.00    -0.295 OA
ENDROOT
BRANCH   5   9
ATOM      9  C   UNL     1     -12.159  -0.233 -19.695  1.00  0.00    -0.077 C 
ATOM     10  C   UNL     1     -11.657  -0.833 -20.785  1.00  0.00     0.008 C 
ATOM     11  C   UNL     1     -13.603  -0.485 -19.334  1.00  0.00     0.039 C 
ENDBRANCH   5   9
TORSDOF 1
ENDMDL
MODEL 4
REMARK VINA RESULT:    -4.927      2.691      4.383
REMARK INTER + INTRA:          -5.314
REMARK INTER:                  -5.227
REMARK INTRA:                  -0.087
REMARK UNBOUND:                -0.099
REMARK SMILES C=C(C)[C@@H]1CC=C(C)C(=O)C1
REMARK SMILES IDX 8 1 7 2 6 3 5 4 4 5 11 6 9 7 10 8 2 9 1 10 3 11
REMARK H PARENT
REMARK Flexibility Score: inf
ROOT
ATOM      1  C   UNL     1      -7.600   1.957 -18.216  1.00  0.00     0.048 C 
ATOM      2  C   UNL     1      -8.694   2.763 -18.861  1.00  0.00    -0.012 C 
ATOM      3  C   UNL     1      -8.506   4.070 -19.106  1.00  0.00    -0.019 C 
ATOM      4  C   UNL     1      -9.560   4.919 -19.766  1.00  0.00     0.036 C 
ATOM      5  C   UNL     1     -10.974   4.439 -19.388  1.00  0.00     0.025 C 
ATOM      6  C   UNL     1     -11.138   2.946 -19.719  1.00  0.00     0.089 C 
ATOM      7  C   UNL     1     -10.020   2.144 -19.111  1.00  0.00     0.158 C 
ATOM      8  O   UNL     1     -10.210   0.926 -18.848  1.00  0.00    -0.295 OA
ENDROOT
BRANCH   5   9
ATOM      9  C   UNL     1     -12.048   5.281 -20.066  1.00  0.00    -0.077 C 
ATOM     10  C   UNL     1     -12.741   6.185 -19.357  1.00  0.00     0.008 C 
ATOM     11  C   UNL     1     -12.361   5.122 -21.534  1.00  0.00     0.039 C 
ENDBRANCH   5   9
TORSDOF 1
ENDMDL
MODEL 5
REMARK VINA RESULT:    -4.769      1.690      2.155
REMARK INTER + INTRA:          -5.147
REMARK INTER:                  -5.050
REMARK INTRA:                  -0.097
REMARK UNBOUND:                -0.099
REMARK SMILES C=C(C)[C@@H]1CC=C(C)C(=O)C1
REMARK SMILES IDX 8 1 7 2 6 3 5 4 4 5 11 6 9 7 10 8 2 9 1 10 3 11
REMARK H PARENT
REMARK Flexibility Score: inf
ROOT
ATOM      1  C   UNL     1     -12.145  -0.991 -20.233  1.00  0.00     0.048 C 
ATOM      2  C   UNL     1     -11.734   0.319 -19.617  1.00  0.00    -0.012 C 
ATOM      3  C   UNL     1     -11.442   1.366 -20.406  1.00  0.00    -0.019 C 
ATOM      4  C   UNL     1     -11.043   2.704 -19.841  1.00  0.00     0.036 C 
ATOM      5  C   UNL     1     -10.266   2.539 -18.522  1.00  0.00     0.025 C 
ATOM      6  C   UNL     1     -11.084   1.704 -17.520  1.00  0.00     0.089 C 
ATOM      7  C   UNL     1     -11.532   0.414 -18.149  1.00  0.00     0.158 C 
ATOM      8  O   UNL     1     -11.771  -0.579 -17.411  1.00  0.00    -0.295 OA
ENDROOT
BRANCH   5   9
ATOM      9  C   UNL     1      -9.874   3.888 -17.933  1.00  0.00    -0.077 C 
ATOM     10  C   UNL     1      -9.415   3.965 -16.675  1.00  0.00     0.008 C 
ATOM     11  C   UNL     1      -9.992   5.160 -18.736  1.00  0.00     0.039 C 
ENDBRANCH   5   9
TORSDOF 1
ENDMDL
MODEL 6
REMARK VINA RESULT:    -4.669      3.754      4.903
REMARK INTER + INTRA:          -5.041
REMARK INTER:                  -4.946
REMARK INTRA:                  -0.095
REMARK UNBOUND:                -0.099
REMARK SMILES C=C(C)[C@@H]1CC=C(C)C(=O)C1
REMARK SMILES IDX 8 1 7 2 6 3 5 4 4 5 11 6 9 7 10 8 2 9 1 10 3 11
REMARK H PARENT
REMARK Flexibility Score: inf
ROOT
ATOM      1  C   UNL     1      -9.580   3.250 -16.669  1.00  0.00     0.048 C 
ATOM      2  C   UNL     1     -10.237   4.012 -17.788  1.00  0.00    -0.012 C 
ATOM      3  C   UNL     1     -11.467   4.525 -17.615  1.00  0.00    -0.019 C 
ATOM      4  C   UNL     1     -12.163   5.311 -18.695  1.00  0.00     0.036 C 
ATOM      5  C   UNL     1     -11.771   4.799 -20.093  1.00  0.00     0.025 C 
ATOM      6  C   UNL     1     -10.241   4.811 -20.257  1.00  0.00     0.089 C 
ATOM      7  C   UNL     1      -9.580   4.088 -19.117  1.00  0.00     0.158 C 
ATOM      8  O   UNL     1      -8.442   3.575 -19.291  1.00  0.00    -0.295 OA
ENDROOT
BRANCH   5   9
ATOM      9  C   UNL     1     -12.455   5.601 -21.193  1.00  0.00    -0.077 C 
ATOM     10  C   UNL     1     -12.231   5.303 -22.482  1.00  0.00     0.008 C 
ATOM     11  C   UNL     1     -13.391   6.739 -20.868  1.00  0.00     0.039 C 
ENDBRANCH   5   9
TORSDOF 1
ENDMDL
MODEL 7
REMARK VINA RESULT:    -4.556      4.037      4.977
REMARK INTER + INTRA:          -4.921
REMARK INTER:                  -4.834
REMARK INTRA:                  -0.087
REMARK UNBOUND:                -0.099
REMARK SMILES C=C(C)[C@@H]1CC=C(C)C(=O)C1
REMARK SMILES IDX 8 1 7 2 6 3 5 4 4 5 11 6 9 7 10 8 2 9 1 10 3 11
REMARK H PARENT
REMARK Flexibility Score: inf
ROOT
ATOM      1  C   UNL     1     -13.091   6.269 -22.023  1.00  0.00     0.048 C 
ATOM      2  C   UNL     1     -12.394   5.566 -20.890  1.00  0.00    -0.012 C 
ATOM      3  C   UNL     1     -11.732   4.420 -21.121  1.00  0.00    -0.019 C 
ATOM      4  C   UNL     1     -11.002   3.685 -20.027  1.00  0.00     0.036 C 
ATOM      5  C   UNL     1     -11.711   3.864 -18.671  1.00  0.00     0.025 C 
ATOM      6  C   UNL     1     -11.886   5.359 -18.353  1.00  0.00     0.089 C 
ATOM      7  C   UNL     1     -12.543   6.072 -19.502  1.00  0.00     0.158 C 
ATOM      8  O   UNL     1     -13.195   7.128 -19.280  1.00  0.00    -0.295 OA
ENDROOT
BRANCH   5   9
ATOM      9  C   UNL     1     -10.970   3.140 -17.555  1.00  0.00    -0.077 C 
ATOM     10  C   UNL     1     -11.401   1.944 -17.126  1.00  0.00     0.008 C 
ATOM     11  C   UNL     1      -9.746   3.740 -16.907  1.00  0.00     0.039 C 
ENDBRANCH   5   9
TORSDOF 1
ENDMDL
MODEL 8
REMARK VINA RESULT:    -4.532      2.996      4.263
REMARK INTER + INTRA:          -4.895
REMARK INTER:                  -4.808
REMARK INTRA:                  -0.087
REMARK UNBOUND:                -0.099
REMARK SMILES C=C(C)[C@@H]1CC=C(C)C(=O)C1
REMARK SMILES IDX 8 1 7 2 6 3 5 4 4 5 11 6 9 7 10 8 2 9 1 10 3 11
REMARK H PARENT
REMARK Flexibility Score: inf
ROOT
ATOM      1  C   UNL     1     -12.857   6.256 -18.876  1.00  0.00     0.048 C 
ATOM      2  C   UNL     1     -11.767   5.219 -18.859  1.00  0.00    -0.012 C 
ATOM      3  C   UNL     1     -10.941   5.101 -19.911  1.00  0.00    -0.019 C 
ATOM      4  C   UNL     1      -9.822   4.093 -19.938  1.00  0.00     0.036 C 
ATOM      5  C   UNL     1     -10.204   2.821 -19.158  1.00  0.00     0.025 C 
ATOM      6  C   UNL     1     -10.629   3.181 -17.724  1.00  0.00     0.089 C 
ATOM      7  C   UNL     1     -11.687   4.249 -17.738  1.00  0.00     0.158 C 
ATOM      8  O   UNL     1     -12.487   4.336 -16.767  1.00  0.00    -0.295 OA
ENDROOT
BRANCH   5   9
ATOM      9  C   UNL     1      -9.072   1.802 -19.164  1.00  0.00    -0.077 C 
ATOM     10  C   UNL     1      -9.234   0.619 -19.776  1.00  0.00     0.008 C 
ATOM     11  C   UNL     1      -7.752   2.090 -18.490  1.00  0.00     0.039 C 
ENDBRANCH   5   9
TORSDOF 1
ENDMDL
MODEL 9
REMARK VINA RESULT:    -4.393      3.644      4.422
REMARK INTER + INTRA:          -4.748
REMARK INTER:                  -4.651
REMARK INTRA:                  -0.098
REMARK UNBOUND:                -0.099
REMARK SMILES C=C(C)[C@@H]1CC=C(C)C(=O)C1
REMARK SMILES IDX 8 1 7 2 6 3 5 4 4 5 11 6 9 7 10 8 2 9 1 10 3 11
REMARK H PARENT
REMARK Flexibility Score: inf
ROOT
ATOM      1  C   UNL     1     -13.557   6.855 -20.940  1.00  0.00     0.048 C 
ATOM      2  C   UNL     1     -12.626   5.902 -20.241  1.00  0.00    -0.012 C 
ATOM      3  C   UNL     1     -12.536   5.918 -18.900  1.00  0.00    -0.019 C 
ATOM      4  C   UNL     1     -11.634   4.974 -18.149  1.00  0.00     0.036 C 
ATOM      5  C   UNL     1     -10.370   4.647 -18.967  1.00  0.00     0.025 C 
ATOM      6  C   UNL     1     -10.756   4.105 -20.354  1.00  0.00     0.089 C 
ATOM      7  C   UNL     1     -11.721   5.035 -21.036  1.00  0.00     0.158 C 
ATOM      8  O   UNL     1     -11.779   5.046 -22.295  1.00  0.00    -0.295 OA
ENDROOT
BRANCH   5   9
ATOM      9  C   UNL     1      -9.461   3.678 -18.223  1.00  0.00    -0.077 C 
ATOM     10  C   UNL     1      -9.531   3.580 -16.887  1.00  0.00     0.008 C 
ATOM     11  C   UNL     1      -8.467   2.812 -18.958  1.00  0.00     0.039 C 
ENDBRANCH   5   9
TORSDOF 1
ENDMDL
