MODEL 1
REMARK VINA RESULT:    -4.372      0.000      0.000
REMARK INTER + INTRA:         -12.591
REMARK INTER:                  -9.483
REMARK INTRA:                  -3.108
REMARK UNBOUND:                -3.108
REMARK SMILES CCCCCCCCCCCCCCCCCCCCCC(=O)[O-]
REMARK SMILES IDX 12 1 11 2 10 3 9 4 8 5 7 6 6 7 5 8 4 9 3 10 2 11 1 12 13 13
REMARK SMILES IDX 14 14 15 15 16 16 17 17 18 18 19 19 20 20 21 21 22 22 23 23
REMARK SMILES IDX 24 24
REMARK H PARENT
REMARK Flexibility Score: inf
ROOT
ATOM      1  C   UNL     1      24.688   4.461   8.184  1.00  0.00     0.000 C 
ENDROOT
BRANCH   1   2
ATOM      2  C   UNL     1      25.285   3.701   9.381  1.00  0.00     0.000 C 
BRANCH   2   3
ATOM      3  C   UNL     1      25.816   4.638  10.479  1.00  0.00     0.000 C 
BRANCH   3   4
ATOM      4  C   UNL     1      27.351   4.652  10.499  1.00  0.00    -0.000 C 
BRANCH   4   5
ATOM      5  C   UNL     1      27.969   3.333  10.004  1.00  0.00    -0.000 C 
BRANCH   5   6
ATOM      6  C   UNL     1      28.774   3.443   8.694  1.00  0.00    -0.000 C 
BRANCH   6   7
ATOM      7  C   UNL     1      28.378   2.434   7.603  1.00  0.00    -0.000 C 
BRANCH   7   8
ATOM      8  C   UNL     1      27.772   1.144   8.178  1.00  0.00    -0.000 C 
BRANCH   8   9
ATOM      9  C   UNL     1      28.870   0.140   8.549  1.00  0.00    -0.000 C 
BRANCH   9  10
ATOM     10  C   UNL     1      28.326  -0.952   9.484  1.00  0.00    -0.000 C 
BRANCH  10  11
ATOM     11  C   UNL     1      28.351  -2.346   8.841  1.00  0.00    -0.003 C 
ATOM     12  C   UNL     1      28.311  -2.293   7.314  1.00  0.00     0.004 C 
ENDBRANCH  10  11
ENDBRANCH   9  10
ENDBRANCH   8   9
ENDBRANCH   7   8
ENDBRANCH   6   7
ENDBRANCH   5   6
ENDBRANCH   4   5
ENDBRANCH   3   4
ENDBRANCH   2   3
ENDBRANCH   1   2
BRANCH   1  13
ATOM     13  C   UNL     1      25.711   4.923   7.127  1.00  0.00     0.000 C 
BRANCH  13  14
ATOM     14  C   UNL     1      25.772   6.453   6.933  1.00  0.00     0.000 C 
BRANCH  14  15
ATOM     15  C   UNL     1      26.802   7.122   7.860  1.00  0.00     0.000 C 
BRANCH  15  16
ATOM     16  C   UNL     1      26.220   8.304   8.657  1.00  0.00     0.000 C 
BRANCH  16  17
ATOM     17  C   UNL     1      24.686   8.295   8.819  1.00  0.00     0.000 C 
BRANCH  17  18
ATOM     18  C   UNL     1      24.167   7.677  10.130  1.00  0.00     0.000 C 
BRANCH  18  19
ATOM     19  C   UNL     1      22.723   7.141  10.071  1.00  0.00     0.000 C 
BRANCH  19  20
ATOM     20  C   UNL     1      22.137   7.079   8.640  1.00  0.00     0.006 C 
BRANCH  20  21
ATOM     21  C   UNL     1      20.613   7.263   8.579  1.00  0.00     0.053 C 
BRANCH  21  22
ATOM     22  C   UNL     1      20.165   7.850   7.273  1.00  0.00     0.041 C 
ATOM     23  O   UNL     1      19.415   7.189   6.506  1.00  0.00    -0.550 OA
ATOM     24  O   UNL     1      20.557   9.135   6.914  1.00  0.00    -0.550 OA
ENDBRANCH  21  22
ENDBRANCH  20  21
ENDBRANCH  19  20
ENDBRANCH  18  19
ENDBRANCH  17  18
ENDBRANCH  16  17
ENDBRANCH  15  16
ENDBRANCH  14  15
ENDBRANCH  13  14
ENDBRANCH   1  13
TORSDOF 20
ENDMDL
MODEL 2
REMARK VINA RESULT:    -4.310      1.595      2.241
REMARK INTER + INTRA:         -12.457
REMARK INTER:                  -8.908
REMARK INTRA:                  -3.549
REMARK UNBOUND:                -3.108
REMARK SMILES CCCCCCCCCCCCCCCCCCCCCC(=O)[O-]
REMARK SMILES IDX 12 1 11 2 10 3 9 4 8 5 7 6 6 7 5 8 4 9 3 10 2 11 1 12 13 13
REMARK SMILES IDX 14 14 15 15 16 16 17 17 18 18 19 19 20 20 21 21 22 22 23 23
REMARK SMILES IDX 24 24
REMARK H PARENT
REMARK Flexibility Score: inf
ROOT
ATOM      1  C   UNL     1      25.000   4.719   8.243  1.00  0.00     0.000 C 
ENDROOT
BRANCH   1   2
ATOM      2  C   UNL     1      25.518   4.467   9.669  1.00  0.00     0.000 C 
BRANCH   2   3
ATOM      3  C   UNL     1      26.985   4.888   9.855  1.00  0.00     0.000 C 
BRANCH   3   4
ATOM      4  C   UNL     1      27.750   3.869  10.711  1.00  0.00    -0.000 C 
BRANCH   4   5
ATOM      5  C   UNL     1      28.710   2.994   9.887  1.00  0.00    -0.000 C 
BRANCH   5   6
ATOM      6  C   UNL     1      28.692   3.260   8.368  1.00  0.00    -0.000 C 
BRANCH   6   7
ATOM      7  C   UNL     1      28.390   2.028   7.497  1.00  0.00    -0.000 C 
BRANCH   7   8
ATOM      8  C   UNL     1      27.403   1.058   8.164  1.00  0.00    -0.000 C 
BRANCH   8   9
ATOM      9  C   UNL     1      25.992   1.227   7.587  1.00  0.00    -0.000 C 
BRANCH   9  10
ATOM     10  C   UNL     1      26.041   1.847   6.181  1.00  0.00    -0.000 C 
BRANCH  10  11
ATOM     11  C   UNL     1      24.803   1.503   5.342  1.00  0.00    -0.003 C 
ATOM     12  C   UNL     1      25.148   0.736   4.066  1.00  0.00     0.004 C 
ENDBRANCH  10  11
ENDBRANCH   9  10
ENDBRANCH   8   9
ENDBRANCH   7   8
ENDBRANCH   6   7
ENDBRANCH   5   6
ENDBRANCH   4   5
ENDBRANCH   3   4
ENDBRANCH   2   3
ENDBRANCH   1   2
BRANCH   1  13
ATOM     13  C   UNL     1      26.040   5.296   7.262  1.00  0.00     0.000 C 
BRANCH  13  14
ATOM     14  C   UNL     1      25.716   6.721   6.763  1.00  0.00     0.000 C 
BRANCH  14  15
ATOM     15  C   UNL     1      26.698   7.771   7.309  1.00  0.00     0.000 C 
BRANCH  15  16
ATOM     16  C   UNL     1      26.296   8.310   8.695  1.00  0.00     0.000 C 
BRANCH  16  17
ATOM     17  C   UNL     1      24.792   8.599   8.877  1.00  0.00     0.000 C 
BRANCH  17  18
ATOM     18  C   UNL     1      24.123   7.880  10.063  1.00  0.00     0.000 C 
BRANCH  18  19
ATOM     19  C   UNL     1      22.670   7.429   9.817  1.00  0.00     0.000 C 
BRANCH  19  20
ATOM     20  C   UNL     1      22.339   7.171   8.327  1.00  0.00     0.006 C 
BRANCH  20  21
ATOM     21  C   UNL     1      21.195   8.038   7.781  1.00  0.00     0.053 C 
BRANCH  21  22
ATOM     22  C   UNL     1      20.326   7.286   6.815  1.00  0.00     0.041 C 
ATOM     23  O   UNL     1      19.071   7.351   6.910  1.00  0.00    -0.550 OA
ATOM     24  O   UNL     1      20.902   6.533   5.798  1.00  0.00    -0.550 OA
ENDBRANCH  21  22
ENDBRANCH  20  21
ENDBRANCH  19  20
ENDBRANCH  18  19
ENDBRANCH  17  18
ENDBRANCH  16  17
ENDBRANCH  15  16
ENDBRANCH  14  15
ENDBRANCH  13  14
ENDBRANCH   1  13
TORSDOF 20
ENDMDL
MODEL 3
REMARK VINA RESULT:    -4.132      3.281      7.937
REMARK INTER + INTRA:         -12.071
REMARK INTER:                  -9.119
REMARK INTRA:                  -2.952
REMARK UNBOUND:                -3.108
REMARK SMILES CCCCCCCCCCCCCCCCCCCCCC(=O)[O-]
REMARK SMILES IDX 12 1 11 2 10 3 9 4 8 5 7 6 6 7 5 8 4 9 3 10 2 11 1 12 13 13
REMARK SMILES IDX 14 14 15 15 16 16 17 17 18 18 19 19 20 20 21 21 22 22 23 23
REMARK SMILES IDX 24 24
REMARK H PARENT
REMARK Flexibility Score: inf
ROOT
ATOM      1  C   UNL     1      25.235   3.276   9.468  1.00  0.00     0.000 C 
ENDROOT
BRANCH   1   2
ATOM      2  C   UNL     1      26.173   4.214  10.247  1.00  0.00     0.000 C 
BRANCH   2   3
ATOM      3  C   UNL     1      25.811   5.699  10.075  1.00  0.00     0.000 C 
BRANCH   3   4
ATOM      4  C   UNL     1      26.676   6.358   8.991  1.00  0.00    -0.000 C 
BRANCH   4   5
ATOM      5  C   UNL     1      25.843   7.007   7.873  1.00  0.00    -0.000 C 
BRANCH   5   6
ATOM      6  C   UNL     1      25.048   6.020   6.996  1.00  0.00    -0.000 C 
BRANCH   6   7
ATOM      7  C   UNL     1      23.524   6.051   7.202  1.00  0.00    -0.000 C 
BRANCH   7   8
ATOM      8  C   UNL     1      22.873   4.670   7.027  1.00  0.00    -0.000 C 
BRANCH   8   9
ATOM      9  C   UNL     1      21.650   4.752   6.106  1.00  0.00    -0.000 C 
BRANCH   9  10
ATOM     10  C   UNL     1      21.343   6.209   5.724  1.00  0.00    -0.000 C 
BRANCH  10  11
ATOM     11  C   UNL     1      20.032   6.717   6.340  1.00  0.00    -0.003 C 
ATOM     12  C   UNL     1      20.192   8.066   7.041  1.00  0.00     0.004 C 
ENDBRANCH  10  11
ENDBRANCH   9  10
ENDBRANCH   8   9
ENDBRANCH   7   8
ENDBRANCH   6   7
ENDBRANCH   5   6
ENDBRANCH   4   5
ENDBRANCH   3   4
ENDBRANCH   2   3
ENDBRANCH   1   2
BRANCH   1  13
ATOM     13  C   UNL     1      25.938   2.313   8.490  1.00  0.00     0.000 C 
BRANCH  13  14
ATOM     14  C   UNL     1      26.925   3.004   7.524  1.00  0.00     0.000 C 
BRANCH  14  15
ATOM     15  C   UNL     1      28.358   2.462   7.662  1.00  0.00     0.000 C 
BRANCH  15  16
ATOM     16  C   UNL     1      28.607   1.750   9.005  1.00  0.00     0.000 C 
BRANCH  16  17
ATOM     17  C   UNL     1      28.783   0.220   8.915  1.00  0.00     0.000 C 
BRANCH  17  18
ATOM     18  C   UNL     1      28.603  -0.381   7.509  1.00  0.00     0.000 C 
BRANCH  18  19
ATOM     19  C   UNL     1      27.273  -1.129   7.287  1.00  0.00     0.000 C 
BRANCH  19  20
ATOM     20  C   UNL     1      26.726  -1.015   5.844  1.00  0.00     0.006 C 
BRANCH  20  21
ATOM     21  C   UNL     1      27.214   0.227   5.085  1.00  0.00     0.053 C 
BRANCH  21  22
ATOM     22  C   UNL     1      26.195   0.732   4.107  1.00  0.00     0.041 C 
ATOM     23  O   UNL     1      26.458   0.756   2.875  1.00  0.00    -0.550 OA
ATOM     24  O   UNL     1      24.947   1.153   4.553  1.00  0.00    -0.550 OA
ENDBRANCH  21  22
ENDBRANCH  20  21
ENDBRANCH  19  20
ENDBRANCH  18  19
ENDBRANCH  17  18
ENDBRANCH  16  17
ENDBRANCH  15  16
ENDBRANCH  14  15
ENDBRANCH  13  14
ENDBRANCH   1  13
TORSDOF 20
ENDMDL
MODEL 4
REMARK VINA RESULT:    -4.123      2.751      4.956
REMARK INTER + INTRA:         -12.051
REMARK INTER:                  -8.410
REMARK INTRA:                  -3.641
REMARK UNBOUND:                -3.108
REMARK SMILES CCCCCCCCCCCCCCCCCCCCCC(=O)[O-]
REMARK SMILES IDX 12 1 11 2 10 3 9 4 8 5 7 6 6 7 5 8 4 9 3 10 2 11 1 12 13 13
REMARK SMILES IDX 14 14 15 15 16 16 17 17 18 18 19 19 20 20 21 21 22 22 23 23
REMARK SMILES IDX 24 24
REMARK H PARENT
REMARK Flexibility Score: inf
ROOT
ATOM      1  C   UNL     1      28.538   1.978   7.042  1.00  0.00     0.000 C 
ENDROOT
BRANCH   1   2
ATOM      2  C   UNL     1      27.526   1.607   5.944  1.00  0.00     0.000 C 
BRANCH   2   3
ATOM      3  C   UNL     1      26.103   1.397   6.489  1.00  0.00     0.000 C 
BRANCH   3   4
ATOM      4  C   UNL     1      25.063   1.462   5.361  1.00  0.00    -0.000 C 
BRANCH   4   5
ATOM      5  C   UNL     1      24.622   0.072   4.872  1.00  0.00    -0.000 C 
BRANCH   5   6
ATOM      6  C   UNL     1      24.343  -0.953   5.989  1.00  0.00    -0.000 C 
BRANCH   6   7
ATOM      7  C   UNL     1      25.161  -2.253   5.896  1.00  0.00    -0.000 C 
BRANCH   7   8
ATOM      8  C   UNL     1      26.306  -2.307   6.918  1.00  0.00    -0.000 C 
BRANCH   8   9
ATOM      9  C   UNL     1      27.665  -2.134   6.230  1.00  0.00    -0.000 C 
BRANCH   9  10
ATOM     10  C   UNL     1      28.762  -1.791   7.251  1.00  0.00    -0.000 C 
BRANCH  10  11
ATOM     11  C   UNL     1      28.351  -2.124   8.692  1.00  0.00    -0.003 C 
ATOM     12  C   UNL     1      28.422  -0.914   9.622  1.00  0.00     0.004 C 
ENDBRANCH  10  11
ENDBRANCH   9  10
ENDBRANCH   8   9
ENDBRANCH   7   8
ENDBRANCH   6   7
ENDBRANCH   5   6
ENDBRANCH   4   5
ENDBRANCH   3   4
ENDBRANCH   2   3
ENDBRANCH   1   2
BRANCH   1  13
ATOM     13  C   UNL     1      27.917   2.478   8.361  1.00  0.00     0.000 C 
BRANCH  13  14
ATOM     14  C   UNL     1      28.545   3.781   8.901  1.00  0.00     0.000 C 
BRANCH  14  15
ATOM     15  C   UNL     1      27.628   4.504   9.902  1.00  0.00     0.000 C 
BRANCH  15  16
ATOM     16  C   UNL     1      26.338   3.723  10.212  1.00  0.00     0.000 C 
BRANCH  16  17
ATOM     17  C   UNL     1      25.031   4.403   9.755  1.00  0.00     0.000 C 
BRANCH  17  18
ATOM     18  C   UNL     1      24.347   3.759   8.535  1.00  0.00     0.000 C 
BRANCH  18  19
ATOM     19  C   UNL     1      24.347   4.622   7.257  1.00  0.00     0.000 C 
BRANCH  19  20
ATOM     20  C   UNL     1      25.748   5.132   6.847  1.00  0.00     0.006 C 
BRANCH  20  21
ATOM     21  C   UNL     1      25.795   6.631   6.511  1.00  0.00     0.053 C 
BRANCH  21  22
ATOM     22  C   UNL     1      26.392   7.442   7.624  1.00  0.00     0.041 C 
ATOM     23  O   UNL     1      27.542   7.940   7.497  1.00  0.00    -0.550 OA
ATOM     24  O   UNL     1      25.668   7.667   8.790  1.00  0.00    -0.550 OA
ENDBRANCH  21  22
ENDBRANCH  20  21
ENDBRANCH  19  20
ENDBRANCH  18  19
ENDBRANCH  17  18
ENDBRANCH  16  17
ENDBRANCH  15  16
ENDBRANCH  14  15
ENDBRANCH  13  14
ENDBRANCH   1  13
TORSDOF 20
ENDMDL
MODEL 5
REMARK VINA RESULT:    -4.119     10.090     12.859
REMARK INTER + INTRA:         -12.043
REMARK INTER:                  -9.012
REMARK INTRA:                  -3.030
REMARK UNBOUND:                -3.108
REMARK SMILES CCCCCCCCCCCCCCCCCCCCCC(=O)[O-]
REMARK SMILES IDX 12 1 11 2 10 3 9 4 8 5 7 6 6 7 5 8 4 9 3 10 2 11 1 12 13 13
REMARK SMILES IDX 14 14 15 15 16 16 17 17 18 18 19 19 20 20 21 21 22 22 23 23
REMARK SMILES IDX 24 24
REMARK H PARENT
REMARK Flexibility Score: inf
ROOT
ATOM      1  C   UNL     1      25.367   0.627  18.285  1.00  0.00     0.000 C 
ENDROOT
BRANCH   1   2
ATOM      2  C   UNL     1      25.327   1.711  17.195  1.00  0.00     0.000 C 
BRANCH   2   3
ATOM      3  C   UNL     1      25.365   3.137  17.769  1.00  0.00     0.000 C 
BRANCH   3   4
ATOM      4  C   UNL     1      24.392   4.061  17.023  1.00  0.00    -0.000 C 
BRANCH   4   5
ATOM      5  C   UNL     1      22.964   4.013  17.593  1.00  0.00    -0.000 C 
BRANCH   5   6
ATOM      6  C   UNL     1      22.809   4.600  19.010  1.00  0.00    -0.000 C 
BRANCH   6   7
ATOM      7  C   UNL     1      21.456   5.278  19.287  1.00  0.00    -0.000 C 
BRANCH   7   8
ATOM      8  C   UNL     1      21.608   6.708  19.828  1.00  0.00    -0.000 C 
BRANCH   8   9
ATOM      9  C   UNL     1      23.064   7.180  19.732  1.00  0.00    -0.000 C 
BRANCH   9  10
ATOM     10  C   UNL     1      23.194   8.378  18.778  1.00  0.00    -0.000 C 
BRANCH  10  11
ATOM     11  C   UNL     1      23.938   8.024  17.483  1.00  0.00    -0.003 C 
ATOM     12  C   UNL     1      23.006   7.491  16.394  1.00  0.00     0.004 C 
ENDBRANCH  10  11
ENDBRANCH   9  10
ENDBRANCH   8   9
ENDBRANCH   7   8
ENDBRANCH   6   7
ENDBRANCH   5   6
ENDBRANCH   4   5
ENDBRANCH   3   4
ENDBRANCH   2   3
ENDBRANCH   1   2
BRANCH   1  13
ATOM     13  C   UNL     1      24.215  -0.397  18.231  1.00  0.00     0.000 C 
BRANCH  13  14
ATOM     14  C   UNL     1      22.811   0.223  18.400  1.00  0.00     0.000 C 
BRANCH  14  15
ATOM     15  C   UNL     1      22.647   0.947  19.747  1.00  0.00     0.000 C 
BRANCH  15  16
ATOM     16  C   UNL     1      21.188   1.332  20.051  1.00  0.00     0.000 C 
BRANCH  16  17
ATOM     17  C   UNL     1      20.314   1.629  18.815  1.00  0.00     0.000 C 
BRANCH  17  18
ATOM     18  C   UNL     1      19.118   0.681  18.613  1.00  0.00     0.000 C 
BRANCH  18  19
ATOM     19  C   UNL     1      19.465  -0.821  18.645  1.00  0.00     0.000 C 
BRANCH  19  20
ATOM     20  C   UNL     1      19.878  -1.397  17.269  1.00  0.00     0.006 C 
BRANCH  20  21
ATOM     21  C   UNL     1      19.644  -2.909  17.128  1.00  0.00     0.053 C 
BRANCH  21  22
ATOM     22  C   UNL     1      20.911  -3.652  16.821  1.00  0.00     0.041 C 
ATOM     23  O   UNL     1      20.892  -4.904  16.680  1.00  0.00    -0.550 OA
ATOM     24  O   UNL     1      22.107  -2.960  16.668  1.00  0.00    -0.550 OA
ENDBRANCH  21  22
ENDBRANCH  20  21
ENDBRANCH  19  20
ENDBRANCH  18  19
ENDBRANCH  17  18
ENDBRANCH  16  17
ENDBRANCH  15  16
ENDBRANCH  14  15
ENDBRANCH  13  14
ENDBRANCH   1  13
TORSDOF 20
ENDMDL
MODEL 6
REMARK VINA RESULT:    -4.095      3.827      8.056
REMARK INTER + INTRA:         -11.991
REMARK INTER:                  -8.230
REMARK INTRA:                  -3.761
REMARK UNBOUND:                -3.108
REMARK SMILES CCCCCCCCCCCCCCCCCCCCCC(=O)[O-]
REMARK SMILES IDX 12 1 11 2 10 3 9 4 8 5 7 6 6 7 5 8 4 9 3 10 2 11 1 12 13 13
REMARK SMILES IDX 14 14 15 15 16 16 17 17 18 18 19 19 20 20 21 21 22 22 23 23
REMARK SMILES IDX 24 24
REMARK H PARENT
REMARK Flexibility Score: inf
ROOT
ATOM      1  C   UNL     1      25.554   2.498   6.610  1.00  0.00     0.000 C 
ENDROOT
BRANCH   1   2
ATOM      2  C   UNL     1      24.659   3.226   7.629  1.00  0.00     0.000 C 
BRANCH   2   3
ATOM      3  C   UNL     1      24.788   2.657   9.051  1.00  0.00     0.000 C 
BRANCH   3   4
ATOM      4  C   UNL     1      24.930   3.781  10.087  1.00  0.00    -0.000 C 
BRANCH   4   5
ATOM      5  C   UNL     1      26.394   4.179  10.343  1.00  0.00    -0.000 C 
BRANCH   5   6
ATOM      6  C   UNL     1      26.731   5.653  10.043  1.00  0.00    -0.000 C 
BRANCH   6   7
ATOM      7  C   UNL     1      26.979   5.973   8.559  1.00  0.00    -0.000 C 
BRANCH   7   8
ATOM      8  C   UNL     1      26.087   7.111   8.040  1.00  0.00    -0.000 C 
BRANCH   8   9
ATOM      9  C   UNL     1      24.953   7.414   9.026  1.00  0.00    -0.000 C 
BRANCH   9  10
ATOM     10  C   UNL     1      23.614   6.856   8.516  1.00  0.00    -0.000 C 
BRANCH  10  11
ATOM     11  C   UNL     1      22.636   6.535   9.655  1.00  0.00    -0.003 C 
ATOM     12  C   UNL     1      23.142   7.006  11.018  1.00  0.00     0.004 C 
ENDBRANCH  10  11
ENDBRANCH   9  10
ENDBRANCH   8   9
ENDBRANCH   7   8
ENDBRANCH   6   7
ENDBRANCH   5   6
ENDBRANCH   4   5
ENDBRANCH   3   4
ENDBRANCH   2   3
ENDBRANCH   1   2
BRANCH   1  13
ATOM     13  C   UNL     1      26.925   3.157   6.357  1.00  0.00     0.000 C 
BRANCH  13  14
ATOM     14  C   UNL     1      28.131   2.260   6.707  1.00  0.00     0.000 C 
BRANCH  14  15
ATOM     15  C   UNL     1      28.409   2.213   8.219  1.00  0.00     0.000 C 
BRANCH  15  16
ATOM     16  C   UNL     1      28.705   0.793   8.735  1.00  0.00     0.000 C 
BRANCH  16  17
ATOM     17  C   UNL     1      27.582  -0.239   8.502  1.00  0.00     0.000 C 
BRANCH  17  18
ATOM     18  C   UNL     1      28.044  -1.603   7.958  1.00  0.00     0.000 C 
BRANCH  18  19
ATOM     19  C   UNL     1      27.675  -1.876   6.486  1.00  0.00     0.000 C 
BRANCH  19  20
ATOM     20  C   UNL     1      26.464  -1.056   5.983  1.00  0.00     0.006 C 
BRANCH  20  21
ATOM     21  C   UNL     1      26.690  -0.375   4.625  1.00  0.00     0.053 C 
BRANCH  21  22
ATOM     22  C   UNL     1      26.387  -1.290   3.475  1.00  0.00     0.041 C 
ATOM     23  O   UNL     1      26.910  -1.084   2.347  1.00  0.00    -0.550 OA
ATOM     24  O   UNL     1      25.545  -2.382   3.654  1.00  0.00    -0.550 OA
ENDBRANCH  21  22
ENDBRANCH  20  21
ENDBRANCH  19  20
ENDBRANCH  18  19
ENDBRANCH  17  18
ENDBRANCH  16  17
ENDBRANCH  15  16
ENDBRANCH  14  15
ENDBRANCH  13  14
ENDBRANCH   1  13
TORSDOF 20
ENDMDL
MODEL 7
REMARK VINA RESULT:    -4.069      1.448      3.040
REMARK INTER + INTRA:         -11.935
REMARK INTER:                  -8.660
REMARK INTRA:                  -3.275
REMARK UNBOUND:                -3.108
REMARK SMILES CCCCCCCCCCCCCCCCCCCCCC(=O)[O-]
REMARK SMILES IDX 12 1 11 2 10 3 9 4 8 5 7 6 6 7 5 8 4 9 3 10 2 11 1 12 13 13
REMARK SMILES IDX 14 14 15 15 16 16 17 17 18 18 19 19 20 20 21 21 22 22 23 23
REMARK SMILES IDX 24 24
REMARK H PARENT
REMARK Flexibility Score: inf
ROOT
ATOM      1  C   UNL     1      26.521   3.919   9.209  1.00  0.00     0.000 C 
ENDROOT
BRANCH   1   2
ATOM      2  C   UNL     1      27.949   4.089   8.662  1.00  0.00     0.000 C 
BRANCH   2   3
ATOM      3  C   UNL     1      28.559   2.768   8.165  1.00  0.00     0.000 C 
BRANCH   3   4
ATOM      4  C   UNL     1      27.847   1.559   8.789  1.00  0.00    -0.000 C 
BRANCH   4   5
ATOM      5  C   UNL     1      28.819   0.448   9.221  1.00  0.00    -0.000 C 
BRANCH   5   6
ATOM      6  C   UNL     1      28.447  -0.968   8.736  1.00  0.00    -0.000 C 
BRANCH   6   7
ATOM      7  C   UNL     1      28.838  -1.279   7.281  1.00  0.00    -0.000 C 
BRANCH   7   8
ATOM      8  C   UNL     1      27.669  -1.841   6.459  1.00  0.00    -0.000 C 
BRANCH   8   9
ATOM      9  C   UNL     1      26.557  -0.797   6.300  1.00  0.00    -0.000 C 
BRANCH   9  10
ATOM     10  C   UNL     1      26.906   0.218   5.199  1.00  0.00    -0.000 C 
BRANCH  10  11
ATOM     11  C   UNL     1      26.318   1.609   5.472  1.00  0.00    -0.003 C 
ATOM     12  C   UNL     1      25.043   1.558   6.313  1.00  0.00     0.004 C 
ENDBRANCH  10  11
ENDBRANCH   9  10
ENDBRANCH   8   9
ENDBRANCH   7   8
ENDBRANCH   6   7
ENDBRANCH   5   6
ENDBRANCH   4   5
ENDBRANCH   3   4
ENDBRANCH   2   3
ENDBRANCH   1   2
BRANCH   1  13
ATOM     13  C   UNL     1      25.425   4.656   8.414  1.00  0.00     0.000 C 
BRANCH  13  14
ATOM     14  C   UNL     1      25.868   5.122   7.010  1.00  0.00     0.000 C 
BRANCH  14  15
ATOM     15  C   UNL     1      25.759   6.646   6.836  1.00  0.00     0.000 C 
BRANCH  15  16
ATOM     16  C   UNL     1      26.798   7.424   7.666  1.00  0.00     0.000 C 
BRANCH  16  17
ATOM     17  C   UNL     1      26.213   8.323   8.774  1.00  0.00     0.000 C 
BRANCH  17  18
ATOM     18  C   UNL     1      24.676   8.391   8.824  1.00  0.00     0.000 C 
BRANCH  18  19
ATOM     19  C   UNL     1      24.031   7.681  10.031  1.00  0.00     0.000 C 
BRANCH  19  20
ATOM     20  C   UNL     1      22.705   6.957   9.696  1.00  0.00     0.006 C 
BRANCH  20  21
ATOM     21  C   UNL     1      22.353   6.958   8.201  1.00  0.00     0.053 C 
BRANCH  21  22
ATOM     22  C   UNL     1      21.176   7.838   7.897  1.00  0.00     0.041 C 
ATOM     23  O   UNL     1      21.251   9.082   8.085  1.00  0.00    -0.550 OA
ATOM     24  O   UNL     1      20.006   7.288   7.385  1.00  0.00    -0.550 OA
ENDBRANCH  21  22
ENDBRANCH  20  21
ENDBRANCH  19  20
ENDBRANCH  18  19
ENDBRANCH  17  18
ENDBRANCH  16  17
ENDBRANCH  15  16
ENDBRANCH  14  15
ENDBRANCH  13  14
ENDBRANCH   1  13
TORSDOF 20
ENDMDL
MODEL 8
REMARK VINA RESULT:    -4.027      1.981      3.425
REMARK INTER + INTRA:         -11.843
REMARK INTER:                  -7.862
REMARK INTRA:                  -3.981
REMARK UNBOUND:                -3.108
REMARK SMILES CCCCCCCCCCCCCCCCCCCCCC(=O)[O-]
REMARK SMILES IDX 12 1 11 2 10 3 9 4 8 5 7 6 6 7 5 8 4 9 3 10 2 11 1 12 13 13
REMARK SMILES IDX 14 14 15 15 16 16 17 17 18 18 19 19 20 20 21 21 22 22 23 23
REMARK SMILES IDX 24 24
REMARK H PARENT
REMARK Flexibility Score: inf
ROOT
ATOM      1  C   UNL     1      26.082   3.785   9.415  1.00  0.00     0.000 C 
ENDROOT
BRANCH   1   2
ATOM      2  C   UNL     1      27.403   4.555   9.585  1.00  0.00     0.000 C 
BRANCH   2   3
ATOM      3  C   UNL     1      28.625   3.763   9.092  1.00  0.00     0.000 C 
BRANCH   3   4
ATOM      4  C   UNL     1      28.557   2.299   9.548  1.00  0.00    -0.000 C 
BRANCH   4   5
ATOM      5  C   UNL     1      28.570   1.305   8.374  1.00  0.00    -0.000 C 
BRANCH   5   6
ATOM      6  C   UNL     1      28.281   1.925   6.992  1.00  0.00    -0.000 C 
BRANCH   6   7
ATOM      7  C   UNL     1      27.052   1.351   6.267  1.00  0.00    -0.000 C 
BRANCH   7   8
ATOM      8  C   UNL     1      26.102   0.600   7.213  1.00  0.00    -0.000 C 
BRANCH   8   9
ATOM      9  C   UNL     1      24.770   0.288   6.520  1.00  0.00    -0.000 C 
BRANCH   9  10
ATOM     10  C   UNL     1      23.667   1.252   6.986  1.00  0.00    -0.000 C 
BRANCH  10  11
ATOM     11  C   UNL     1      23.257   2.252   5.896  1.00  0.00    -0.003 C 
ATOM     12  C   UNL     1      21.742   2.325   5.701  1.00  0.00     0.004 C 
ENDBRANCH  10  11
ENDBRANCH   9  10
ENDBRANCH   8   9
ENDBRANCH   7   8
ENDBRANCH   6   7
ENDBRANCH   5   6
ENDBRANCH   4   5
ENDBRANCH   3   4
ENDBRANCH   2   3
ENDBRANCH   1   2
BRANCH   1  13
ATOM     13  C   UNL     1      25.164   4.304   8.291  1.00  0.00     0.000 C 
BRANCH  13  14
ATOM     14  C   UNL     1      25.918   4.877   7.072  1.00  0.00     0.000 C 
BRANCH  14  15
ATOM     15  C   UNL     1      25.502   6.322   6.749  1.00  0.00     0.000 C 
BRANCH  15  16
ATOM     16  C   UNL     1      26.561   7.361   7.159  1.00  0.00     0.000 C 
BRANCH  16  17
ATOM     17  C   UNL     1      26.322   8.041   8.524  1.00  0.00     0.000 C 
BRANCH  17  18
ATOM     18  C   UNL     1      24.847   8.309   8.875  1.00  0.00     0.000 C 
BRANCH  18  19
ATOM     19  C   UNL     1      24.300   7.485  10.058  1.00  0.00     0.000 C 
BRANCH  19  20
ATOM     20  C   UNL     1      23.013   6.692   9.726  1.00  0.00     0.006 C 
BRANCH  20  21
ATOM     21  C   UNL     1      22.352   7.099   8.401  1.00  0.00     0.053 C 
BRANCH  21  22
ATOM     22  C   UNL     1      21.880   5.912   7.614  1.00  0.00     0.041 C 
ATOM     23  O   UNL     1      21.297   4.958   8.197  1.00  0.00    -0.550 OA
ATOM     24  O   UNL     1      22.064   5.869   6.237  1.00  0.00    -0.550 OA
ENDBRANCH  21  22
ENDBRANCH  20  21
ENDBRANCH  19  20
ENDBRANCH  18  19
ENDBRANCH  17  18
ENDBRANCH  16  17
ENDBRANCH  15  16
ENDBRANCH  14  15
ENDBRANCH  13  14
ENDBRANCH   1  13
TORSDOF 20
ENDMDL
MODEL 9
REMARK VINA RESULT:    -4.022      1.591      2.612
REMARK INTER + INTRA:         -11.834
REMARK INTER:                  -8.218
REMARK INTRA:                  -3.615
REMARK UNBOUND:                -3.108
REMARK SMILES CCCCCCCCCCCCCCCCCCCCCC(=O)[O-]
REMARK SMILES IDX 12 1 11 2 10 3 9 4 8 5 7 6 6 7 5 8 4 9 3 10 2 11 1 12 13 13
REMARK SMILES IDX 14 14 15 15 16 16 17 17 18 18 19 19 20 20 21 21 22 22 23 23
REMARK SMILES IDX 24 24
REMARK H PARENT
REMARK Flexibility Score: inf
ROOT
ATOM      1  C   UNL     1      25.403   5.652   6.653  1.00  0.00     0.000 C 
ENDROOT
BRANCH   1   2
ATOM      2  C   UNL     1      26.193   4.397   7.062  1.00  0.00     0.000 C 
BRANCH   2   3
ATOM      3  C   UNL     1      25.490   3.580   8.159  1.00  0.00     0.000 C 
BRANCH   3   4
ATOM      4  C   UNL     1      26.236   3.690   9.496  1.00  0.00    -0.000 C 
BRANCH   4   5
ATOM      5  C   UNL     1      27.696   4.149   9.332  1.00  0.00    -0.000 C 
BRANCH   5   6
ATOM      6  C   UNL     1      28.676   3.049   8.878  1.00  0.00    -0.000 C 
BRANCH   6   7
ATOM      7  C   UNL     1      28.756   1.826   9.809  1.00  0.00    -0.000 C 
BRANCH   7   8
ATOM      8  C   UNL     1      28.758   0.495   9.042  1.00  0.00    -0.000 C 
BRANCH   8   9
ATOM      9  C   UNL     1      27.557   0.405   8.094  1.00  0.00    -0.000 C 
BRANCH   9  10
ATOM     10  C   UNL     1      28.012   0.139   6.650  1.00  0.00    -0.000 C 
BRANCH  10  11
ATOM     11  C   UNL     1      27.614   1.268   5.689  1.00  0.00    -0.003 C 
ATOM     12  C   UNL     1      26.167   1.156   5.212  1.00  0.00     0.004 C 
ENDBRANCH  10  11
ENDBRANCH   9  10
ENDBRANCH   8   9
ENDBRANCH   7   8
ENDBRANCH   6   7
ENDBRANCH   5   6
ENDBRANCH   4   5
ENDBRANCH   3   4
ENDBRANCH   2   3
ENDBRANCH   1   2
BRANCH   1  13
ATOM     13  C   UNL     1      26.106   6.992   6.947  1.00  0.00     0.000 C 
BRANCH  13  14
ATOM     14  C   UNL     1      26.228   7.325   8.450  1.00  0.00     0.000 C 
BRANCH  14  15
ATOM     15  C   UNL     1      24.887   7.756   9.067  1.00  0.00     0.000 C 
BRANCH  15  16
ATOM     16  C   UNL     1      24.465   6.885  10.264  1.00  0.00     0.000 C 
BRANCH  16  17
ATOM     17  C   UNL     1      23.248   5.970  10.016  1.00  0.00     0.000 C 
BRANCH  17  18
ATOM     18  C   UNL     1      22.508   6.208   8.687  1.00  0.00     0.000 C 
BRANCH  18  19
ATOM     19  C   UNL     1      21.982   4.932   7.998  1.00  0.00     0.000 C 
BRANCH  19  20
ATOM     20  C   UNL     1      21.787   5.082   6.471  1.00  0.00     0.006 C 
BRANCH  20  21
ATOM     21  C   UNL     1      21.213   6.441   6.043  1.00  0.00     0.053 C 
BRANCH  21  22
ATOM     22  C   UNL     1      19.712   6.442   6.026  1.00  0.00     0.041 C 
ATOM     23  O   UNL     1      19.092   6.133   4.973  1.00  0.00    -0.550 OA
ATOM     24  O   UNL     1      19.000   6.761   7.176  1.00  0.00    -0.550 OA
ENDBRANCH  21  22
ENDBRANCH  20  21
ENDBRANCH  19  20
ENDBRANCH  18  19
ENDBRANCH  17  18
ENDBRANCH  16  17
ENDBRANCH  15  16
ENDBRANCH  14  15
ENDBRANCH  13  14
ENDBRANCH   1  13
TORSDOF 20
ENDMDL
