MODEL 1
REMARK VINA RESULT:    -3.395      0.000      0.000
REMARK INTER + INTRA:          -4.423
REMARK INTER:                  -4.586
REMARK INTRA:                   0.163
REMARK UNBOUND:                 0.163
REMARK SMILES C=C1CCC=C(C)CC[C@H]2[C@@H]1CC2(C)C
REMARK SMILES IDX 11 1 12 2 13 3 10 4 14 5 15 6 9 7 8 8 6 9 7 10 5 11 2 13
REMARK SMILES IDX 1 14 3 15 4 16
REMARK H PARENT
REMARK Flexibility Score: 70.00
ROOT
ATOM      1  C   UNL     1      29.797   8.466  35.271  1.00  0.00     0.018 C 
ATOM      2  C   UNL     1      29.558   8.796  36.753  1.00  0.00     0.015 C 
ATOM      3  C   UNL     1      30.352  10.106  36.599  1.00  0.00    -0.031 C 
ATOM      4  C   UNL     1      30.548   9.806  35.089  1.00  0.00     0.002 C 
ATOM      5  C   UNL     1      29.483  11.352  36.852  1.00  0.00     0.011 C 
ATOM      6  C   UNL     1      31.625  10.137  37.471  1.00  0.00     0.011 C 
ENDROOT
BRANCH   4   7
ATOM      7  C   UNL     1      32.000   9.757  34.537  1.00  0.00     0.009 C 
BRANCH   7   8
ATOM      8  C   UNL     1      32.174  10.307  33.098  1.00  0.00     0.030 C 
BRANCH   8   9
ATOM      9  C   UNL     1      31.240   9.726  32.045  1.00  0.00    -0.077 C 
ATOM     10  C   UNL     1      30.521  10.670  31.112  1.00  0.00     0.039 C 
ATOM     11  C   UNL     1      31.043   8.401  31.870  1.00  0.00    -0.028 CG0
ATOM     12  G   UNL     1      31.631   7.304  32.721  1.00  0.00     0.000 G0
ENDBRANCH   8   9
ENDBRANCH   7   8
ENDBRANCH   4   7
BRANCH   1  13
ATOM     13  C   UNL     1      30.556   7.166  34.980  1.00  0.00    -0.074 C 
ATOM     14  C   UNL     1      31.294   6.513  35.900  1.00  0.00     0.008 C 
BRANCH  13  15
ATOM     15  C   UNL     1      30.532   6.624  33.569  1.00  0.00     0.035 C 
BRANCH  15  16
ATOM     16  C   UNL     1      31.627   7.272  32.713  1.00  0.00     0.032 CG0
ATOM     17  G   UNL     1      31.056   8.385  31.872  1.00  0.00     0.000 G0
ENDBRANCH  15  16
ENDBRANCH  13  15
ENDBRANCH   1  13
TORSDOF 0
ENDMDL
MODEL 2
REMARK VINA RESULT:    -3.379      6.901      9.194
REMARK INTER + INTRA:          -4.402
REMARK INTER:                  -4.577
REMARK INTRA:                   0.176
REMARK UNBOUND:                 0.163
REMARK SMILES C=C1CCC=C(C)CC[C@H]2[C@@H]1CC2(C)C
REMARK SMILES IDX 11 1 12 2 13 3 10 4 14 5 15 6 9 7 8 8 6 9 7 10 5 11 2 13
REMARK SMILES IDX 1 14 3 15 4 16
REMARK H PARENT
REMARK Flexibility Score: 70.00
ROOT
ATOM      1  C   UNL     1      28.430   9.341  26.212  1.00  0.00     0.018 C 
ATOM      2  C   UNL     1      28.103  10.678  26.896  1.00  0.00     0.015 C 
ATOM      3  C   UNL     1      29.027  11.418  25.912  1.00  0.00    -0.031 C 
ATOM      4  C   UNL     1      29.318  10.080  25.182  1.00  0.00     0.002 C 
ATOM      5  C   UNL     1      28.262  12.424  25.032  1.00  0.00     0.011 C 
ATOM      6  C   UNL     1      30.222  12.098  26.614  1.00  0.00     0.011 C 
ENDROOT
BRANCH   4   7
ATOM      7  C   UNL     1      30.799   9.630  25.043  1.00  0.00     0.009 C 
BRANCH   7   8
ATOM      8  C   UNL     1      31.116   8.802  23.771  1.00  0.00     0.030 C 
BRANCH   8   9
ATOM      9  C   UNL     1      30.101   7.729  23.404  1.00  0.00    -0.077 C 
ATOM     10  C   UNL     1      29.487   7.752  22.025  1.00  0.00     0.039 C 
ATOM     11  C   UNL     1      29.739   6.726  24.233  1.00  0.00    -0.028 CG0
ATOM     12  G   UNL     1      30.202   6.553  25.657  1.00  0.00     0.000 G0
ENDBRANCH   8   9
ENDBRANCH   7   8
ENDBRANCH   4   7
BRANCH   1  13
ATOM     13  C   UNL     1      29.084   8.271  27.094  1.00  0.00    -0.074 C 
ATOM     14  C   UNL     1      29.748   8.550  28.234  1.00  0.00     0.008 C 
BRANCH  13  15
ATOM     15  C   UNL     1      29.041   6.834  26.626  1.00  0.00     0.035 C 
BRANCH  15  16
ATOM     16  C   UNL     1      30.192   6.535  25.659  1.00  0.00     0.032 CG0
ATOM     17  G   UNL     1      29.752   6.729  24.231  1.00  0.00     0.000 G0
ENDBRANCH  15  16
ENDBRANCH  13  15
ENDBRANCH   1  13
TORSDOF 0
ENDMDL
MODEL 3
REMARK VINA RESULT:    -3.321      2.970      4.968
REMARK INTER + INTRA:          -4.322
REMARK INTER:                  -4.389
REMARK INTRA:                   0.066
REMARK UNBOUND:                 0.163
REMARK SMILES C=C1CCC=C(C)CC[C@H]2[C@@H]1CC2(C)C
REMARK SMILES IDX 11 1 12 2 13 3 10 4 14 5 15 6 9 7 8 8 6 9 7 10 5 11 2 13
REMARK SMILES IDX 1 14 3 15 4 16
REMARK H PARENT
REMARK Flexibility Score: 70.00
ROOT
ATOM      1  C   UNL     1      31.407   8.088  36.818  1.00  0.00     0.018 C 
ATOM      2  C   UNL     1      31.526   6.650  36.289  1.00  0.00     0.015 C 
ATOM      3  C   UNL     1      30.878   7.076  34.958  1.00  0.00    -0.031 C 
ATOM      4  C   UNL     1      30.806   8.541  35.465  1.00  0.00     0.002 C 
ATOM      5  C   UNL     1      31.832   6.905  33.761  1.00  0.00     0.011 C 
ATOM      6  C   UNL     1      29.533   6.366  34.697  1.00  0.00     0.011 C 
ENDROOT
BRANCH   4   7
ATOM      7  C   UNL     1      29.419   9.239  35.482  1.00  0.00     0.009 C 
BRANCH   7   8
ATOM      8  C   UNL     1      29.465  10.789  35.484  1.00  0.00     0.030 C 
BRANCH   8   9
ATOM      9  C   UNL     1      29.013  11.469  36.769  1.00  0.00    -0.077 C 
ATOM     10  C   UNL     1      27.709  12.228  36.769  1.00  0.00     0.039 C 
ATOM     11  C   UNL     1      29.699  11.402  37.931  1.00  0.00    -0.028 CG0
ATOM     12  G   UNL     1      31.036  10.733  38.126  1.00  0.00     0.000 G0
ENDBRANCH   8   9
ENDBRANCH   7   8
ENDBRANCH   4   7
BRANCH   1  13
ATOM     13  C   UNL     1      30.561   8.277  38.082  1.00  0.00    -0.074 C 
ATOM     14  C   UNL     1      29.527   7.477  38.413  1.00  0.00     0.008 C 
BRANCH  13  15
ATOM     15  C   UNL     1      30.858   9.462  38.972  1.00  0.00     0.035 C 
BRANCH  15  16
ATOM     16  C   UNL     1      31.039  10.740  38.143  1.00  0.00     0.032 CG0
ATOM     17  G   UNL     1      29.714  11.424  37.921  1.00  0.00     0.000 G0
ENDBRANCH  15  16
ENDBRANCH  13  15
ENDBRANCH   1  13
TORSDOF 0
ENDMDL
MODEL 4
REMARK VINA RESULT:    -3.210      7.069      9.500
REMARK INTER + INTRA:          -4.172
REMARK INTER:                  -4.250
REMARK INTRA:                   0.078
REMARK UNBOUND:                 0.163
REMARK SMILES C=C1CCC=C(C)CC[C@H]2[C@@H]1CC2(C)C
REMARK SMILES IDX 11 1 12 2 13 3 10 4 14 5 15 6 9 7 8 8 6 9 7 10 5 11 2 13
REMARK SMILES IDX 1 14 3 15 4 16
REMARK H PARENT
REMARK Flexibility Score: 70.00
ROOT
ATOM      1  C   UNL     1      30.237   9.423  26.998  1.00  0.00     0.018 C 
ATOM      2  C   UNL     1      29.866   8.543  28.202  1.00  0.00     0.015 C 
ATOM      3  C   UNL     1      30.232   7.279  27.403  1.00  0.00    -0.031 C 
ATOM      4  C   UNL     1      30.662   8.164  26.204  1.00  0.00     0.002 C 
ATOM      5  C   UNL     1      31.411   6.511  28.030  1.00  0.00     0.011 C 
ATOM      6  C   UNL     1      29.024   6.345  27.178  1.00  0.00     0.011 C 
ENDROOT
BRANCH   4   7
ATOM      7  C   UNL     1      29.986   7.909  24.829  1.00  0.00     0.009 C 
BRANCH   7   8
ATOM      8  C   UNL     1      30.825   8.333  23.596  1.00  0.00     0.030 C 
BRANCH   8   9
ATOM      9  C   UNL     1      30.303   9.531  22.814  1.00  0.00    -0.077 C 
ATOM     10  C   UNL     1      29.821   9.321  21.399  1.00  0.00     0.039 C 
ATOM     11  C   UNL     1      30.210  10.777  23.329  1.00  0.00    -0.028 CG0
ATOM     12  G   UNL     1      30.675  11.200  24.699  1.00  0.00     0.000 G0
ENDBRANCH   8   9
ENDBRANCH   7   8
ENDBRANCH   4   7
BRANCH   1  13
ATOM     13  C   UNL     1      29.114  10.294  26.423  1.00  0.00    -0.074 C 
ATOM     14  C   UNL     1      27.804   9.998  26.547  1.00  0.00     0.008 C 
BRANCH  13  15
ATOM     15  C   UNL     1      29.496  11.514  25.616  1.00  0.00     0.035 C 
BRANCH  15  16
ATOM     16  C   UNL     1      30.688  11.216  24.700  1.00  0.00     0.032 CG0
ATOM     17  G   UNL     1      30.216  10.773  23.338  1.00  0.00     0.000 G0
ENDBRANCH  15  16
ENDBRANCH  13  15
ENDBRANCH   1  13
TORSDOF 0
ENDMDL
MODEL 5
REMARK VINA RESULT:    -3.203      6.511      9.579
REMARK INTER + INTRA:          -4.163
REMARK INTER:                  -4.373
REMARK INTRA:                   0.210
REMARK UNBOUND:                 0.163
REMARK SMILES C=C1CCC=C(C)CC[C@H]2[C@@H]1CC2(C)C
REMARK SMILES IDX 11 1 12 2 13 3 10 4 14 5 15 6 9 7 8 8 6 9 7 10 5 11 2 13
REMARK SMILES IDX 1 14 3 15 4 16
REMARK H PARENT
REMARK Flexibility Score: 70.00
ROOT
ATOM      1  C   UNL     1      30.880   9.067  24.882  1.00  0.00     0.018 C 
ATOM      2  C   UNL     1      31.242   9.456  23.440  1.00  0.00     0.015 C 
ATOM      3  C   UNL     1      30.202  10.591  23.475  1.00  0.00    -0.031 C 
ATOM      4  C   UNL     1      29.871  10.239  24.950  1.00  0.00     0.002 C 
ATOM      5  C   UNL     1      30.846  11.982  23.324  1.00  0.00     0.011 C 
ATOM      6  C   UNL     1      29.070  10.393  22.445  1.00  0.00     0.011 C 
ENDROOT
BRANCH   4   7
ATOM      7  C   UNL     1      28.396   9.909  25.308  1.00  0.00     0.009 C 
BRANCH   7   8
ATOM      8  C   UNL     1      28.005  10.174  26.786  1.00  0.00     0.030 C 
BRANCH   8   9
ATOM      9  C   UNL     1      29.101   9.944  27.817  1.00  0.00    -0.077 C 
ATOM     10  C   UNL     1      29.601  11.120  28.620  1.00  0.00     0.039 C 
ATOM     11  C   UNL     1      29.635   8.731  28.084  1.00  0.00    -0.028 CG0
ATOM     12  G   UNL     1      29.304   7.448  27.365  1.00  0.00     0.000 G0
ENDBRANCH   8   9
ENDBRANCH   7   8
ENDBRANCH   4   7
BRANCH   1  13
ATOM     13  C   UNL     1      30.348   7.644  25.086  1.00  0.00    -0.074 C 
ATOM     14  C   UNL     1      29.715   6.941  24.125  1.00  0.00     0.008 C 
BRANCH  13  15
ATOM     15  C   UNL     1      30.479   7.021  26.457  1.00  0.00     0.035 C 
BRANCH  15  16
ATOM     16  C   UNL     1      29.322   7.445  27.368  1.00  0.00     0.032 CG0
ATOM     17  G   UNL     1      29.643   8.740  28.069  1.00  0.00     0.000 G0
ENDBRANCH  15  16
ENDBRANCH  13  15
ENDBRANCH   1  13
TORSDOF 0
ENDMDL
MODEL 6
REMARK VINA RESULT:    -3.202      1.995      4.423
REMARK INTER + INTRA:          -4.162
REMARK INTER:                  -4.354
REMARK INTRA:                   0.192
REMARK UNBOUND:                 0.163
REMARK SMILES C=C1CCC=C(C)CC[C@H]2[C@@H]1CC2(C)C
REMARK SMILES IDX 11 1 12 2 13 3 10 4 14 5 15 6 9 7 8 8 6 9 7 10 5 11 2 13
REMARK SMILES IDX 1 14 3 15 4 16
REMARK H PARENT
REMARK Flexibility Score: 70.00
ROOT
ATOM      1  C   UNL     1      31.365   7.799  34.367  1.00  0.00     0.018 C 
ATOM      2  C   UNL     1      31.994   7.969  32.975  1.00  0.00     0.015 C 
ATOM      3  C   UNL     1      31.723   9.484  33.027  1.00  0.00    -0.031 C 
ATOM      4  C   UNL     1      31.138   9.328  34.456  1.00  0.00     0.002 C 
ATOM      5  C   UNL     1      33.021  10.313  33.001  1.00  0.00     0.011 C 
ATOM      6  C   UNL     1      30.748   9.953  31.926  1.00  0.00     0.011 C 
ENDROOT
BRANCH   4   7
ATOM      7  C   UNL     1      29.692   9.835  34.712  1.00  0.00     0.009 C 
BRANCH   7   8
ATOM      8  C   UNL     1      29.449  10.440  36.119  1.00  0.00     0.030 C 
BRANCH   8   9
ATOM      9  C   UNL     1      29.896   9.586  37.298  1.00  0.00    -0.077 C 
ATOM     10  C   UNL     1      30.733  10.224  38.380  1.00  0.00     0.039 C 
ATOM     11  C   UNL     1      29.555   8.288  37.454  1.00  0.00    -0.028 CG0
ATOM     12  G   UNL     1      28.766   7.462  36.470  1.00  0.00     0.000 G0
ENDBRANCH   8   9
ENDBRANCH   7   8
ENDBRANCH   4   7
BRANCH   1  13
ATOM     13  C   UNL     1      30.140   6.881  34.449  1.00  0.00    -0.074 C 
ATOM     14  C   UNL     1      29.406   6.521  33.377  1.00  0.00     0.008 C 
BRANCH  13  15
ATOM     15  C   UNL     1      29.690   6.409  35.813  1.00  0.00     0.035 C 
BRANCH  15  16
ATOM     16  C   UNL     1      28.780   7.446  36.482  1.00  0.00     0.032 CG0
ATOM     17  G   UNL     1      29.562   8.298  37.448  1.00  0.00     0.000 G0
ENDBRANCH  15  16
ENDBRANCH  13  15
ENDBRANCH   1  13
TORSDOF 0
ENDMDL
MODEL 7
REMARK VINA RESULT:    -3.157      2.348      4.597
REMARK INTER + INTRA:          -4.101
REMARK INTER:                  -4.250
REMARK INTRA:                   0.148
REMARK UNBOUND:                 0.163
REMARK SMILES C=C1CCC=C(C)CC[C@H]2[C@@H]1CC2(C)C
REMARK SMILES IDX 11 1 12 2 13 3 10 4 14 5 15 6 9 7 8 8 6 9 7 10 5 11 2 13
REMARK SMILES IDX 1 14 3 15 4 16
REMARK H PARENT
REMARK Flexibility Score: 70.00
ROOT
ATOM      1  C   UNL     1      31.673   9.893  34.396  1.00  0.00     0.018 C 
ATOM      2  C   UNL     1      32.386   9.749  33.042  1.00  0.00     0.015 C 
ATOM      3  C   UNL     1      31.267  10.553  32.355  1.00  0.00    -0.031 C 
ATOM      4  C   UNL     1      30.570  10.750  33.728  1.00  0.00     0.002 C 
ATOM      5  C   UNL     1      31.779  11.874  31.751  1.00  0.00     0.011 C 
ATOM      6  C   UNL     1      30.500   9.726  31.302  1.00  0.00     0.011 C 
ENDROOT
BRANCH   4   7
ATOM      7  C   UNL     1      29.096  10.280  33.873  1.00  0.00     0.009 C 
BRANCH   7   8
ATOM      8  C   UNL     1      28.357  10.816  35.126  1.00  0.00     0.030 C 
BRANCH   8   9
ATOM      9  C   UNL     1      27.990   9.779  36.178  1.00  0.00    -0.077 C 
ATOM     10  C   UNL     1      26.568   9.276  36.237  1.00  0.00     0.039 C 
ATOM     11  C   UNL     1      28.878   9.249  37.048  1.00  0.00    -0.028 CG0
ATOM     12  G   UNL     1      30.326   9.648  37.179  1.00  0.00     0.000 G0
ENDBRANCH   8   9
ENDBRANCH   7   8
ENDBRANCH   4   7
BRANCH   1  13
ATOM     13  C   UNL     1      31.256   8.589  35.084  1.00  0.00    -0.074 C 
ATOM     14  C   UNL     1      30.841   7.494  34.415  1.00  0.00     0.008 C 
BRANCH  13  15
ATOM     15  C   UNL     1      31.245   8.549  36.595  1.00  0.00     0.035 C 
BRANCH  15  16
ATOM     16  C   UNL     1      30.336   9.643  37.167  1.00  0.00     0.032 CG0
ATOM     17  G   UNL     1      28.885   9.251  37.041  1.00  0.00     0.000 G0
ENDBRANCH  15  16
ENDBRANCH  13  15
ENDBRANCH   1  13
TORSDOF 0
ENDMDL
MODEL 8
REMARK VINA RESULT:    -3.097      6.257      8.611
REMARK INTER + INTRA:          -4.020
REMARK INTER:                  -4.211
REMARK INTRA:                   0.192
REMARK UNBOUND:                 0.163
REMARK SMILES C=C1CCC=C(C)CC[C@H]2[C@@H]1CC2(C)C
REMARK SMILES IDX 11 1 12 2 13 3 10 4 14 5 15 6 9 7 8 8 6 9 7 10 5 11 2 13
REMARK SMILES IDX 1 14 3 15 4 16
REMARK H PARENT
REMARK Flexibility Score: 70.00
ROOT
ATOM      1  C   UNL     1      29.700  11.849  27.258  1.00  0.00     0.018 C 
ATOM      2  C   UNL     1      28.987  12.852  28.178  1.00  0.00     0.015 C 
ATOM      3  C   UNL     1      28.061  11.735  28.694  1.00  0.00    -0.031 C 
ATOM      4  C   UNL     1      28.813  10.706  27.809  1.00  0.00     0.002 C 
ATOM      5  C   UNL     1      28.242  11.472  30.201  1.00  0.00     0.011 C 
ATOM      6  C   UNL     1      26.577  11.987  28.354  1.00  0.00     0.011 C 
ENDROOT
BRANCH   4   7
ATOM      7  C   UNL     1      27.984   9.873  26.793  1.00  0.00     0.009 C 
BRANCH   7   8
ATOM      8  C   UNL     1      28.574   8.481  26.451  1.00  0.00     0.030 C 
BRANCH   8   9
ATOM      9  C   UNL     1      30.091   8.405  26.352  1.00  0.00    -0.077 C 
ATOM     10  C   UNL     1      30.835   7.484  27.289  1.00  0.00     0.039 C 
ATOM     11  C   UNL     1      30.817   9.093  25.444  1.00  0.00    -0.028 CG0
ATOM     12  G   UNL     1      30.271  10.092  24.455  1.00  0.00     0.000 G0
ENDBRANCH   8   9
ENDBRANCH   7   8
ENDBRANCH   4   7
BRANCH   1  13
ATOM     13  C   UNL     1      29.641  12.148  25.756  1.00  0.00    -0.074 C 
ATOM     14  C   UNL     1      28.673  12.890  25.181  1.00  0.00     0.008 C 
BRANCH  13  15
ATOM     15  C   UNL     1      30.685  11.521  24.860  1.00  0.00     0.035 C 
BRANCH  15  16
ATOM     16  C   UNL     1      30.279  10.100  24.453  1.00  0.00     0.032 CG0
ATOM     17  G   UNL     1      30.809   9.090  25.439  1.00  0.00     0.000 G0
ENDBRANCH  15  16
ENDBRANCH  13  15
ENDBRANCH   1  13
TORSDOF 0
ENDMDL
MODEL 9
REMARK VINA RESULT:    -3.039      9.283     11.787
REMARK INTER + INTRA:          -3.942
REMARK INTER:                  -4.015
REMARK INTRA:                   0.073
REMARK UNBOUND:                 0.163
REMARK SMILES C=C1CCC=C(C)CC[C@H]2[C@@H]1CC2(C)C
REMARK SMILES IDX 11 1 12 2 13 3 10 4 14 5 15 6 9 7 8 8 6 9 7 10 5 11 2 13
REMARK SMILES IDX 1 14 3 15 4 16
REMARK H PARENT
REMARK Flexibility Score: 70.00
ROOT
ATOM      1  C   UNL     1      30.479  11.093  24.400  1.00  0.00     0.018 C 
ATOM      2  C   UNL     1      30.518  10.611  25.859  1.00  0.00     0.015 C 
ATOM      3  C   UNL     1      29.604   9.425  25.501  1.00  0.00    -0.031 C 
ATOM      4  C   UNL     1      29.606   9.873  24.016  1.00  0.00     0.002 C 
ATOM      5  C   UNL     1      30.296   8.066  25.715  1.00  0.00     0.011 C 
ATOM      6  C   UNL     1      28.248   9.474  26.238  1.00  0.00     0.011 C 
ENDROOT
BRANCH   4   7
ATOM      7  C   UNL     1      28.237  10.145  23.333  1.00  0.00     0.009 C 
BRANCH   7   8
ATOM      8  C   UNL     1      28.254  10.086  21.784  1.00  0.00     0.030 C 
BRANCH   8   9
ATOM      9  C   UNL     1      28.043  11.411  21.064  1.00  0.00    -0.077 C 
ATOM     10  C   UNL     1      26.739  11.644  20.340  1.00  0.00     0.039 C 
ATOM     11  C   UNL     1      28.947  12.415  21.064  1.00  0.00    -0.028 CG0
ATOM     12  G   UNL     1      30.318  12.363  21.688  1.00  0.00     0.000 G0
ENDBRANCH   8   9
ENDBRANCH   7   8
ENDBRANCH   4   7
BRANCH   1  13
ATOM     13  C   UNL     1      29.905  12.494  24.164  1.00  0.00    -0.074 C 
ATOM     14  C   UNL     1      28.971  13.059  24.956  1.00  0.00     0.008 C 
BRANCH  13  15
ATOM     15  C   UNL     1      30.360  13.258  22.941  1.00  0.00     0.035 C 
BRANCH  15  16
ATOM     16  C   UNL     1      30.320  12.370  21.692  1.00  0.00     0.032 CG0
ATOM     17  G   UNL     1      28.956  12.414  21.051  1.00  0.00     0.000 G0
ENDBRANCH  15  16
ENDBRANCH  13  15
ENDBRANCH   1  13
TORSDOF 0
ENDMDL
