MODEL 1
REMARK VINA RESULT:    -3.579      0.000      0.000
REMARK INTER + INTRA:          -5.647
REMARK INTER:                  -5.462
REMARK INTRA:                  -0.185
REMARK UNBOUND:                -0.185
REMARK SMILES CC1=CCC[C@H](C)C(=O)C[C@H](C(C)C)C(=O)C1
REMARK SMILES IDX 8 1 9 2 6 3 7 4 5 5 4 6 3 7 2 8 1 9 10 11 11 12 15 13 16 14
REMARK SMILES IDX 17 15 12 17 13 18 14 19
REMARK H PARENT
REMARK Flexibility Score: 70.00
ROOT
ATOM      1  C   UNL     1      18.284 -21.696 -24.502  1.00  0.00     0.136 C 
ATOM      2  O   UNL     1      18.961 -20.712 -24.762  1.00  0.00    -0.299 OA
ENDROOT
BRANCH   1   3
ATOM      3  C   UNL     1      17.241 -22.150 -25.506  1.00  0.00     0.053 C 
ATOM      4  C   UNL     1      16.666 -20.953 -26.272  1.00  0.00     0.016 C 
BRANCH   3   5
ATOM      5  C   UNL     1      17.807 -23.207 -26.474  1.00  0.00     0.015 C 
BRANCH   5   6
ATOM      6  C   UNL     1      17.823 -24.613 -25.849  1.00  0.00     0.028 C 
BRANCH   6   7
ATOM      7  C   UNL     1      16.461 -24.975 -25.317  1.00  0.00    -0.028 C 
ATOM      8  C   UNL     1      16.184 -25.217 -24.014  1.00  0.00    -0.070 CG0
ATOM      9  C   UNL     1      14.781 -25.635 -23.655  1.00  0.00     0.039 C 
ATOM     10  G   UNL     1      17.218 -25.066 -22.908  1.00  0.00     0.000 G0
ENDBRANCH   6   7
ENDBRANCH   5   6
ENDBRANCH   3   5
ENDBRANCH   1   3
BRANCH   1  11
ATOM     11  C   UNL     1      18.540 -22.431 -23.204  1.00  0.00     0.087 C 
BRANCH  11  12
ATOM     12  C   UNL     1      17.278 -22.488 -22.302  1.00  0.00     0.066 C 
BRANCH  12  13
ATOM     13  C   UNL     1      16.903 -23.924 -21.959  1.00  0.00     0.140 C 
ATOM     14  O   UNL     1      16.284 -24.163 -20.932  1.00  0.00    -0.299 OA
BRANCH  13  15
ATOM     15  C   UNL     1      17.225 -25.057 -22.902  1.00  0.00     0.106 CG0
ATOM     16  G   UNL     1      16.194 -25.192 -24.013  1.00  0.00     0.000 G0
ENDBRANCH  13  15
ENDBRANCH  12  13
BRANCH  12  17
ATOM     17  C   UNL     1      17.433 -21.597 -21.031  1.00  0.00    -0.006 C 
ATOM     18  C   UNL     1      16.463 -20.403 -20.977  1.00  0.00     0.008 C 
ATOM     19  C   UNL     1      18.880 -21.110 -20.856  1.00  0.00     0.008 C 
ENDBRANCH  12  17
ENDBRANCH  11  12
ENDBRANCH   1  11
TORSDOF 1
ENDMDL
MODEL 2
REMARK VINA RESULT:    -3.498      1.579      2.205
REMARK INTER + INTRA:          -5.524
REMARK INTER:                  -5.420
REMARK INTRA:                  -0.104
REMARK UNBOUND:                -0.185
REMARK SMILES CC1=CCC[C@H](C)C(=O)C[C@H](C(C)C)C(=O)C1
REMARK SMILES IDX 8 1 9 2 6 3 7 4 5 5 4 6 3 7 2 8 1 9 10 11 11 12 15 13 16 14
REMARK SMILES IDX 17 15 12 17 13 18 14 19
REMARK H PARENT
REMARK Flexibility Score: 70.00
ROOT
ATOM      1  C   UNL     1      18.709 -21.611 -23.569  1.00  0.00     0.136 C 
ATOM      2  O   UNL     1      18.830 -20.668 -22.801  1.00  0.00    -0.299 OA
ENDROOT
BRANCH   1   3
ATOM      3  C   UNL     1      18.875 -21.365 -25.057  1.00  0.00     0.053 C 
ATOM      4  C   UNL     1      19.583 -22.548 -25.729  1.00  0.00     0.016 C 
BRANCH   3   5
ATOM      5  C   UNL     1      17.526 -21.068 -25.738  1.00  0.00     0.015 C 
BRANCH   5   6
ATOM      6  C   UNL     1      17.045 -22.244 -26.607  1.00  0.00     0.028 C 
BRANCH   6   7
ATOM      7  C   UNL     1      15.644 -22.648 -26.229  1.00  0.00    -0.028 C 
ATOM      8  C   UNL     1      15.322 -23.796 -25.589  1.00  0.00    -0.070 CG0
ATOM      9  C   UNL     1      13.863 -24.085 -25.345  1.00  0.00     0.039 C 
ATOM     10  G   UNL     1      16.365 -24.788 -25.094  1.00  0.00     0.000 G0
ENDBRANCH   6   7
ENDBRANCH   5   6
ENDBRANCH   3   5
ENDBRANCH   1   3
BRANCH   1  11
ATOM     11  C   UNL     1      18.430 -22.983 -22.996  1.00  0.00     0.087 C 
BRANCH  11  12
ATOM     12  C   UNL     1      16.913 -23.311 -22.968  1.00  0.00     0.066 C 
BRANCH  12  13
ATOM     13  C   UNL     1      16.623 -24.662 -23.610  1.00  0.00     0.140 C 
ATOM     14  O   UNL     1      16.528 -25.661 -22.911  1.00  0.00    -0.299 OA
BRANCH  13  15
ATOM     15  C   UNL     1      16.384 -24.781 -25.095  1.00  0.00     0.106 CG0
ATOM     16  G   UNL     1      15.318 -23.811 -25.585  1.00  0.00     0.000 G0
ENDBRANCH  13  15
ENDBRANCH  12  13
BRANCH  12  17
ATOM     17  C   UNL     1      16.323 -23.202 -21.527  1.00  0.00    -0.006 C 
ATOM     18  C   UNL     1      15.572 -21.887 -21.254  1.00  0.00     0.008 C 
ATOM     19  C   UNL     1      17.402 -23.427 -20.457  1.00  0.00     0.008 C 
ENDBRANCH  12  17
ENDBRANCH  11  12
ENDBRANCH   1  11
TORSDOF 1
ENDMDL
MODEL 3
REMARK VINA RESULT:    -3.490      2.086      4.610
REMARK INTER + INTRA:          -5.511
REMARK INTER:                  -5.537
REMARK INTRA:                   0.025
REMARK UNBOUND:                -0.185
REMARK SMILES CC1=CCC[C@H](C)C(=O)C[C@H](C(C)C)C(=O)C1
REMARK SMILES IDX 8 1 9 2 6 3 7 4 5 5 4 6 3 7 2 8 1 9 10 11 11 12 15 13 16 14
REMARK SMILES IDX 17 15 12 17 13 18 14 19
REMARK H PARENT
REMARK Flexibility Score: 70.00
ROOT
ATOM      1  C   UNL     1      17.559 -24.627 -25.091  1.00  0.00     0.136 C 
ATOM      2  O   UNL     1      16.651 -25.334 -25.502  1.00  0.00    -0.299 OA
ENDROOT
BRANCH   1   3
ATOM      3  C   UNL     1      18.449 -25.155 -23.981  1.00  0.00     0.053 C 
ATOM      4  C   UNL     1      19.809 -24.448 -23.991  1.00  0.00     0.016 C 
BRANCH   3   5
ATOM      5  C   UNL     1      17.771 -25.032 -22.603  1.00  0.00     0.015 C 
BRANCH   5   6
ATOM      6  C   UNL     1      18.367 -23.887 -21.766  1.00  0.00     0.028 C 
BRANCH   6   7
ATOM      7  C   UNL     1      17.342 -22.808 -21.534  1.00  0.00    -0.028 C 
ATOM      8  C   UNL     1      17.421 -21.553 -22.034  1.00  0.00    -0.070 CG0
ATOM      9  C   UNL     1      16.345 -20.569 -21.650  1.00  0.00     0.039 C 
ATOM     10  G   UNL     1      18.531 -21.105 -22.973  1.00  0.00     0.000 G0
ENDBRANCH   6   7
ENDBRANCH   5   6
ENDBRANCH   3   5
ENDBRANCH   1   3
BRANCH   1  11
ATOM     11  C   UNL     1      17.770 -23.271 -25.730  1.00  0.00     0.087 C 
BRANCH  11  12
ATOM     12  C   UNL     1      17.092 -22.130 -24.926  1.00  0.00     0.066 C 
BRANCH  12  13
ATOM     13  C   UNL     1      18.114 -21.115 -24.431  1.00  0.00     0.140 C 
ATOM     14  O   UNL     1      18.569 -20.283 -25.202  1.00  0.00    -0.299 OA
BRANCH  13  15
ATOM     15  C   UNL     1      18.527 -21.073 -22.980  1.00  0.00     0.106 CG0
ATOM     16  G   UNL     1      17.420 -21.553 -22.053  1.00  0.00     0.000 G0
ENDBRANCH  13  15
ENDBRANCH  12  13
BRANCH  12  17
ATOM     17  C   UNL     1      15.935 -21.461 -25.732  1.00  0.00    -0.006 C 
ATOM     18  C   UNL     1      14.530 -21.945 -25.333  1.00  0.00     0.008 C 
ATOM     19  C   UNL     1      16.138 -21.620 -27.247  1.00  0.00     0.008 C 
ENDBRANCH  12  17
ENDBRANCH  11  12
ENDBRANCH   1  11
TORSDOF 1
ENDMDL
MODEL 4
REMARK VINA RESULT:    -3.468      1.497      2.032
REMARK INTER + INTRA:          -5.478
REMARK INTER:                  -5.114
REMARK INTRA:                  -0.364
REMARK UNBOUND:                -0.185
REMARK SMILES CC1=CCC[C@H](C)C(=O)C[C@H](C(C)C)C(=O)C1
REMARK SMILES IDX 8 1 9 2 6 3 7 4 5 5 4 6 3 7 2 8 1 9 10 11 11 12 15 13 16 14
REMARK SMILES IDX 17 15 12 17 13 18 14 19
REMARK H PARENT
REMARK Flexibility Score: 70.00
ROOT
ATOM      1  C   UNL     1      18.150 -21.465 -24.589  1.00  0.00     0.136 C 
ATOM      2  O   UNL     1      18.466 -20.436 -25.169  1.00  0.00    -0.299 OA
ENDROOT
BRANCH   1   3
ATOM      3  C   UNL     1      17.275 -22.470 -25.314  1.00  0.00     0.053 C 
ATOM      4  C   UNL     1      16.459 -21.787 -26.418  1.00  0.00     0.016 C 
BRANCH   3   5
ATOM      5  C   UNL     1      18.102 -23.640 -25.881  1.00  0.00     0.015 C 
BRANCH   5   6
ATOM      6  C   UNL     1      17.804 -24.963 -25.154  1.00  0.00     0.028 C 
BRANCH   6   7
ATOM      7  C   UNL     1      19.009 -25.428 -24.378  1.00  0.00    -0.028 C 
ATOM      8  C   UNL     1      19.115 -25.389 -23.029  1.00  0.00    -0.070 CG0
ATOM      9  C   UNL     1      20.417 -25.828 -22.409  1.00  0.00     0.039 C 
ATOM     10  G   UNL     1      17.977 -24.944 -22.122  1.00  0.00     0.000 G0
ENDBRANCH   6   7
ENDBRANCH   5   6
ENDBRANCH   3   5
ENDBRANCH   1   3
BRANCH   1  11
ATOM     11  C   UNL     1      18.673 -21.701 -23.189  1.00  0.00     0.087 C 
BRANCH  11  12
ATOM     12  C   UNL     1      17.612 -22.359 -22.268  1.00  0.00     0.066 C 
BRANCH  12  13
ATOM     13  C   UNL     1      18.176 -23.580 -21.553  1.00  0.00     0.140 C 
ATOM     14  O   UNL     1      18.749 -23.448 -20.481  1.00  0.00    -0.299 OA
BRANCH  13  15
ATOM     15  C   UNL     1      17.982 -24.968 -22.113  1.00  0.00     0.106 CG0
ATOM     16  G   UNL     1      19.125 -25.385 -23.027  1.00  0.00     0.000 G0
ENDBRANCH  13  15
ENDBRANCH  12  13
BRANCH  12  17
ATOM     17  C   UNL     1      16.986 -21.330 -21.277  1.00  0.00    -0.006 C 
ATOM     18  C   UNL     1      15.560 -20.886 -21.650  1.00  0.00     0.008 C 
ATOM     19  C   UNL     1      17.890 -20.101 -21.092  1.00  0.00     0.008 C 
ENDBRANCH  12  17
ENDBRANCH  11  12
ENDBRANCH   1  11
TORSDOF 1
ENDMDL
MODEL 5
REMARK VINA RESULT:    -3.425      2.262      5.001
REMARK INTER + INTRA:          -5.413
REMARK INTER:                  -5.898
REMARK INTRA:                   0.485
REMARK UNBOUND:                -0.185
REMARK SMILES CC1=CCC[C@H](C)C(=O)C[C@H](C(C)C)C(=O)C1
REMARK SMILES IDX 8 1 9 2 6 3 7 4 5 5 4 6 3 7 2 8 1 9 10 11 11 12 15 13 16 14
REMARK SMILES IDX 17 15 12 17 13 18 14 19
REMARK H PARENT
REMARK Flexibility Score: 70.00
ROOT
ATOM      1  C   UNL     1      19.676 -24.444 -22.755  1.00  0.00     0.136 C 
ATOM      2  O   UNL     1      20.801 -24.705 -22.354  1.00  0.00    -0.299 OA
ENDROOT
BRANCH   1   3
ATOM      3  C   UNL     1      18.663 -23.887 -21.773  1.00  0.00     0.053 C 
ATOM      4  C   UNL     1      18.174 -24.981 -20.817  1.00  0.00     0.016 C 
BRANCH   3   5
ATOM      5  C   UNL     1      19.227 -22.683 -20.995  1.00  0.00     0.015 C 
BRANCH   5   6
ATOM      6  C   UNL     1      18.830 -21.343 -21.637  1.00  0.00     0.028 C 
BRANCH   6   7
ATOM      7  C   UNL     1      17.459 -21.433 -22.254  1.00  0.00    -0.028 C 
ATOM      8  C   UNL     1      17.193 -21.241 -23.567  1.00  0.00    -0.070 CG0
ATOM      9  C   UNL     1      15.754 -21.299 -24.013  1.00  0.00     0.039 C 
ATOM     10  G   UNL     1      18.279 -20.992 -24.603  1.00  0.00     0.000 G0
ENDBRANCH   6   7
ENDBRANCH   5   6
ENDBRANCH   3   5
ENDBRANCH   1   3
BRANCH   1  11
ATOM     11  C   UNL     1      19.359 -24.659 -24.219  1.00  0.00     0.087 C 
BRANCH  11  12
ATOM     12  C   UNL     1      18.309 -23.646 -24.749  1.00  0.00     0.066 C 
BRANCH  12  13
ATOM     13  C   UNL     1      18.943 -22.292 -25.044  1.00  0.00     0.140 C 
ATOM     14  O   UNL     1      19.983 -22.233 -25.683  1.00  0.00    -0.299 OA
BRANCH  13  15
ATOM     15  C   UNL     1      18.270 -21.010 -24.616  1.00  0.00     0.106 CG0
ATOM     16  G   UNL     1      17.197 -21.247 -23.564  1.00  0.00     0.000 G0
ENDBRANCH  13  15
ENDBRANCH  12  13
BRANCH  12  17
ATOM     17  C   UNL     1      17.524 -24.211 -25.973  1.00  0.00    -0.006 C 
ATOM     18  C   UNL     1      17.155 -23.151 -27.026  1.00  0.00     0.008 C 
ATOM     19  C   UNL     1      16.267 -24.978 -25.532  1.00  0.00     0.008 C 
ENDBRANCH  12  17
ENDBRANCH  11  12
ENDBRANCH   1  11
TORSDOF 1
ENDMDL
MODEL 6
REMARK VINA RESULT:    -3.408      2.021      4.265
REMARK INTER + INTRA:          -5.387
REMARK INTER:                  -4.940
REMARK INTRA:                  -0.447
REMARK UNBOUND:                -0.185
REMARK SMILES CC1=CCC[C@H](C)C(=O)C[C@H](C(C)C)C(=O)C1
REMARK SMILES IDX 8 1 9 2 6 3 7 4 5 5 4 6 3 7 2 8 1 9 10 11 11 12 15 13 16 14
REMARK SMILES IDX 17 15 12 17 13 18 14 19
REMARK H PARENT
REMARK Flexibility Score: 70.00
ROOT
ATOM      1  C   UNL     1      16.991 -21.640 -22.318  1.00  0.00     0.136 C 
ATOM      2  O   UNL     1      16.073 -20.979 -21.853  1.00  0.00    -0.299 OA
ENDROOT
BRANCH   1   3
ATOM      3  C   UNL     1      18.353 -21.566 -21.653  1.00  0.00     0.053 C 
ATOM      4  C   UNL     1      18.847 -20.116 -21.585  1.00  0.00     0.016 C 
BRANCH   3   5
ATOM      5  C   UNL     1      18.339 -22.212 -20.255  1.00  0.00     0.015 C 
BRANCH   5   6
ATOM      6  C   UNL     1      17.931 -23.695 -20.308  1.00  0.00     0.028 C 
BRANCH   6   7
ATOM      7  C   UNL     1      19.070 -24.542 -20.814  1.00  0.00    -0.028 C 
ATOM      8  C   UNL     1      19.010 -25.331 -21.912  1.00  0.00    -0.070 CG0
ATOM      9  C   UNL     1      20.217 -26.171 -22.246  1.00  0.00     0.039 C 
ATOM     10  G   UNL     1      17.794 -25.389 -22.825  1.00  0.00     0.000 G0
ENDBRANCH   6   7
ENDBRANCH   5   6
ENDBRANCH   3   5
ENDBRANCH   1   3
BRANCH   1  11
ATOM     11  C   UNL     1      16.716 -22.524 -23.515  1.00  0.00     0.087 C 
BRANCH  11  12
ATOM     12  C   UNL     1      18.017 -23.115 -24.121  1.00  0.00     0.066 C 
BRANCH  12  13
ATOM     13  C   UNL     1      17.990 -24.638 -24.118  1.00  0.00     0.140 C 
ATOM     14  O   UNL     1      18.182 -25.253 -25.157  1.00  0.00    -0.299 OA
BRANCH  13  15
ATOM     15  C   UNL     1      17.798 -25.410 -22.835  1.00  0.00     0.106 CG0
ATOM     16  G   UNL     1      19.020 -25.337 -21.931  1.00  0.00     0.000 G0
ENDBRANCH  13  15
ENDBRANCH  12  13
BRANCH  12  17
ATOM     17  C   UNL     1      18.314 -22.531 -25.537  1.00  0.00    -0.006 C 
ATOM     18  C   UNL     1      19.245 -21.305 -25.528  1.00  0.00     0.008 C 
ATOM     19  C   UNL     1      17.019 -22.206 -26.297  1.00  0.00     0.008 C 
ENDBRANCH  12  17
ENDBRANCH  11  12
ENDBRANCH   1  11
TORSDOF 1
ENDMDL
MODEL 7
REMARK VINA RESULT:    -3.403      1.980      3.358
REMARK INTER + INTRA:          -5.379
REMARK INTER:                  -5.090
REMARK INTRA:                  -0.289
REMARK UNBOUND:                -0.185
REMARK SMILES CC1=CCC[C@H](C)C(=O)C[C@H](C(C)C)C(=O)C1
REMARK SMILES IDX 8 1 9 2 6 3 7 4 5 5 4 6 3 7 2 8 1 9 10 11 11 12 15 13 16 14
REMARK SMILES IDX 17 15 12 17 13 18 14 19
REMARK H PARENT
REMARK Flexibility Score: 70.00
ROOT
ATOM      1  C   UNL     1      18.158 -22.256 -23.627  1.00  0.00     0.136 C 
ATOM      2  O   UNL     1      18.775 -21.783 -22.683  1.00  0.00    -0.299 OA
ENDROOT
BRANCH   1   3
ATOM      3  C   UNL     1      18.921 -23.047 -24.674  1.00  0.00     0.053 C 
ATOM      4  C   UNL     1      19.704 -22.110 -25.601  1.00  0.00     0.016 C 
BRANCH   3   5
ATOM      5  C   UNL     1      19.851 -24.093 -24.029  1.00  0.00     0.015 C 
BRANCH   5   6
ATOM      6  C   UNL     1      19.119 -25.414 -23.736  1.00  0.00     0.028 C 
BRANCH   6   7
ATOM      7  C   UNL     1      18.752 -25.508 -22.278  1.00  0.00    -0.028 C 
ATOM      8  C   UNL     1      17.484 -25.554 -21.807  1.00  0.00    -0.070 CG0
ATOM      9  C   UNL     1      17.286 -25.577 -20.313  1.00  0.00     0.039 C 
ATOM     10  G   UNL     1      16.265 -25.601 -22.716  1.00  0.00     0.000 G0
ENDBRANCH   6   7
ENDBRANCH   5   6
ENDBRANCH   3   5
ENDBRANCH   1   3
BRANCH   1  11
ATOM     11  C   UNL     1      16.660 -22.055 -23.690  1.00  0.00     0.087 C 
BRANCH  11  12
ATOM     12  C   UNL     1      15.908 -23.355 -24.080  1.00  0.00     0.066 C 
BRANCH  12  13
ATOM     13  C   UNL     1      15.632 -24.226 -22.861  1.00  0.00     0.140 C 
ATOM     14  O   UNL     1      14.846 -23.845 -22.006  1.00  0.00    -0.299 OA
BRANCH  13  15
ATOM     15  C   UNL     1      16.264 -25.590 -22.722  1.00  0.00     0.106 CG0
ATOM     16  G   UNL     1      17.468 -25.573 -21.792  1.00  0.00     0.000 G0
ENDBRANCH  13  15
ENDBRANCH  12  13
BRANCH  12  17
ATOM     17  C   UNL     1      14.613 -23.053 -24.897  1.00  0.00    -0.006 C 
ATOM     18  C   UNL     1      13.728 -24.287 -25.150  1.00  0.00     0.008 C 
ATOM     19  C   UNL     1      14.934 -22.352 -26.226  1.00  0.00     0.008 C 
ENDBRANCH  12  17
ENDBRANCH  11  12
ENDBRANCH   1  11
TORSDOF 1
ENDMDL
MODEL 8
REMARK VINA RESULT:    -3.402      2.076      3.560
REMARK INTER + INTRA:          -5.377
REMARK INTER:                  -5.147
REMARK INTRA:                  -0.231
REMARK UNBOUND:                -0.185
REMARK SMILES CC1=CCC[C@H](C)C(=O)C[C@H](C(C)C)C(=O)C1
REMARK SMILES IDX 8 1 9 2 6 3 7 4 5 5 4 6 3 7 2 8 1 9 10 11 11 12 15 13 16 14
REMARK SMILES IDX 17 15 12 17 13 18 14 19
REMARK H PARENT
REMARK Flexibility Score: 70.00
ROOT
ATOM      1  C   UNL     1      17.753 -24.804 -22.585  1.00  0.00     0.136 C 
ATOM      2  O   UNL     1      16.983 -25.753 -22.622  1.00  0.00    -0.299 OA
ENDROOT
BRANCH   1   3
ATOM      3  C   UNL     1      18.968 -24.817 -23.494  1.00  0.00     0.053 C 
ATOM      4  C   UNL     1      19.968 -25.892 -23.052  1.00  0.00     0.016 C 
BRANCH   3   5
ATOM      5  C   UNL     1      18.571 -25.002 -24.970  1.00  0.00     0.015 C 
BRANCH   5   6
ATOM      6  C   UNL     1      18.814 -23.729 -25.799  1.00  0.00     0.028 C 
BRANCH   6   7
ATOM      7  C   UNL     1      17.507 -23.112 -26.224  1.00  0.00    -0.028 C 
ATOM      8  C   UNL     1      16.949 -22.023 -25.646  1.00  0.00    -0.070 CG0
ATOM      9  C   UNL     1      15.600 -21.571 -26.145  1.00  0.00     0.039 C 
ATOM     10  G   UNL     1      17.630 -21.233 -24.538  1.00  0.00     0.000 G0
ENDBRANCH   6   7
ENDBRANCH   5   6
ENDBRANCH   3   5
ENDBRANCH   1   3
BRANCH   1  11
ATOM     11  C   UNL     1      17.441 -23.651 -21.657  1.00  0.00     0.087 C 
BRANCH  11  12
ATOM     12  C   UNL     1      18.053 -22.314 -22.154  1.00  0.00     0.066 C 
BRANCH  12  13
ATOM     13  C   UNL     1      17.133 -21.617 -23.149  1.00  0.00     0.140 C 
ATOM     14  O   UNL     1      15.995 -21.317 -22.819  1.00  0.00    -0.299 OA
BRANCH  13  15
ATOM     15  C   UNL     1      17.626 -21.225 -24.521  1.00  0.00     0.106 CG0
ATOM     16  G   UNL     1      16.942 -22.017 -25.625  1.00  0.00     0.000 G0
ENDBRANCH  13  15
ENDBRANCH  12  13
BRANCH  12  17
ATOM     17  C   UNL     1      18.456 -21.384 -20.968  1.00  0.00    -0.006 C 
ATOM     18  C   UNL     1      19.188 -20.099 -21.398  1.00  0.00     0.008 C 
ATOM     19  C   UNL     1      19.284 -22.137 -19.916  1.00  0.00     0.008 C 
ENDBRANCH  12  17
ENDBRANCH  11  12
ENDBRANCH   1  11
TORSDOF 1
ENDMDL
MODEL 9
REMARK VINA RESULT:    -3.312      2.316      5.226
REMARK INTER + INTRA:          -5.240
REMARK INTER:                  -5.146
REMARK INTRA:                  -0.094
REMARK UNBOUND:                -0.185
REMARK SMILES CC1=CCC[C@H](C)C(=O)C[C@H](C(C)C)C(=O)C1
REMARK SMILES IDX 8 1 9 2 6 3 7 4 5 5 4 6 3 7 2 8 1 9 10 11 11 12 15 13 16 14
REMARK SMILES IDX 17 15 12 17 13 18 14 19
REMARK H PARENT
REMARK Flexibility Score: 70.00
ROOT
ATOM      1  C   UNL     1      19.888 -24.830 -22.737  1.00  0.00     0.136 C 
ATOM      2  O   UNL     1      21.076 -24.991 -22.494  1.00  0.00    -0.299 OA
ENDROOT
BRANCH   1   3
ATOM      3  C   UNL     1      18.866 -25.299 -21.719  1.00  0.00     0.053 C 
ATOM      4  C   UNL     1      19.084 -26.776 -21.369  1.00  0.00     0.016 C 
BRANCH   3   5
ATOM      5  C   UNL     1      18.880 -24.422 -20.453  1.00  0.00     0.015 C 
BRANCH   5   6
ATOM      6  C   UNL     1      17.615 -23.552 -20.339  1.00  0.00     0.028 C 
BRANCH   6   7
ATOM      7  C   UNL     1      17.981 -22.099 -20.185  1.00  0.00    -0.028 C 
ATOM      8  C   UNL     1      17.833 -21.163 -21.152  1.00  0.00    -0.070 CG0
ATOM      9  C   UNL     1      18.312 -19.764 -20.861  1.00  0.00     0.039 C 
ATOM     10  G   UNL     1      17.191 -21.460 -22.499  1.00  0.00     0.000 G0
ENDBRANCH   6   7
ENDBRANCH   5   6
ENDBRANCH   3   5
ENDBRANCH   1   3
BRANCH   1  11
ATOM     11  C   UNL     1      19.498 -24.141 -24.027  1.00  0.00     0.087 C 
BRANCH  11  12
ATOM     12  C   UNL     1      18.095 -23.483 -23.941  1.00  0.00     0.066 C 
BRANCH  12  13
ATOM     13  C   UNL     1      18.189 -22.030 -23.492  1.00  0.00     0.140 C 
ATOM     14  O   UNL     1      19.045 -21.299 -23.969  1.00  0.00    -0.299 OA
BRANCH  13  15
ATOM     15  C   UNL     1      17.196 -21.453 -22.513  1.00  0.00     0.106 CG0
ATOM     16  G   UNL     1      17.821 -21.184 -21.152  1.00  0.00     0.000 G0
ENDBRANCH  13  15
ENDBRANCH  12  13
BRANCH  12  17
ATOM     17  C   UNL     1      17.298 -23.641 -25.272  1.00  0.00    -0.006 C 
ATOM     18  C   UNL     1      16.638 -25.020 -25.450  1.00  0.00     0.008 C 
ATOM     19  C   UNL     1      18.169 -23.311 -26.495  1.00  0.00     0.008 C 
ENDBRANCH  12  17
ENDBRANCH  11  12
ENDBRANCH   1  11
TORSDOF 1
ENDMDL
