MODEL 1
REMARK VINA RESULT:    -5.407      0.000      0.000
REMARK INTER + INTRA:         -16.227
REMARK INTER:                 -12.362
REMARK INTRA:                  -3.865
REMARK UNBOUND:                -3.865
REMARK SMILES CCCCCCCCCCCCCCCCCCCCCCCC(=O)[O-]
REMARK SMILES IDX 13 1 14 2 15 3 16 4 17 5 18 6 19 7 20 8 21 9 22 10 23 11
REMARK SMILES IDX 24 12 25 13 26 14 12 15 11 16 10 17 9 18 8 19 7 20 6 21 5 22
REMARK SMILES IDX 4 23 3 24 2 25 1 26
REMARK H PARENT
REMARK Flexibility Score: inf
ROOT
ATOM      1  C   UNL     1      12.249  42.296   4.365  1.00  0.00     0.000 C 
ENDROOT
BRANCH   1   2
ATOM      2  C   UNL     1      12.709  43.313   3.300  1.00  0.00     0.000 C 
BRANCH   2   3
ATOM      3  C   UNL     1      14.233  43.546   3.294  1.00  0.00     0.000 C 
BRANCH   3   4
ATOM      4  C   UNL     1      14.606  44.957   3.784  1.00  0.00     0.000 C 
BRANCH   4   5
ATOM      5  C   UNL     1      15.884  44.973   4.642  1.00  0.00     0.000 C 
BRANCH   5   6
ATOM      6  C   UNL     1      16.744  43.695   4.555  1.00  0.00     0.000 C 
BRANCH   6   7
ATOM      7  C   UNL     1      16.697  42.793   5.804  1.00  0.00     0.000 C 
BRANCH   7   8
ATOM      8  C   UNL     1      17.224  43.443   7.099  1.00  0.00     0.000 C 
BRANCH   8   9
ATOM      9  C   UNL     1      17.036  42.598   8.373  1.00  0.00     0.000 C 
BRANCH   9  10
ATOM     10  C   UNL     1      16.074  41.413   8.169  1.00  0.00     0.006 C 
BRANCH  10  11
ATOM     11  C   UNL     1      16.277  40.316   9.220  1.00  0.00     0.053 C 
BRANCH  11  12
ATOM     12  C   UNL     1      14.970  39.781   9.724  1.00  0.00     0.041 C 
ATOM     13  O   UNL     1      14.948  38.945  10.666  1.00  0.00    -0.550 OA
ATOM     14  O   UNL     1      13.777  40.183   9.132  1.00  0.00    -0.550 OA
ENDBRANCH  11  12
ENDBRANCH  10  11
ENDBRANCH   9  10
ENDBRANCH   8   9
ENDBRANCH   7   8
ENDBRANCH   6   7
ENDBRANCH   5   6
ENDBRANCH   4   5
ENDBRANCH   3   4
ENDBRANCH   2   3
ENDBRANCH   1   2
BRANCH   1  15
ATOM     15  C   UNL     1      13.036  42.397   5.686  1.00  0.00     0.000 C 
BRANCH  15  16
ATOM     16  C   UNL     1      12.571  43.578   6.556  1.00  0.00     0.000 C 
BRANCH  16  17
ATOM     17  C   UNL     1      13.577  43.914   7.673  1.00  0.00     0.000 C 
BRANCH  17  18
ATOM     18  C   UNL     1      13.920  45.416   7.771  1.00  0.00    -0.000 C 
BRANCH  18  19
ATOM     19  C   UNL     1      12.698  46.355   7.691  1.00  0.00    -0.000 C 
BRANCH  19  20
ATOM     20  C   UNL     1      12.555  47.126   6.362  1.00  0.00    -0.000 C 
BRANCH  20  21
ATOM     21  C   UNL     1      11.233  46.889   5.601  1.00  0.00    -0.000 C 
BRANCH  21  22
ATOM     22  C   UNL     1      10.121  47.918   5.882  1.00  0.00    -0.000 C 
BRANCH  22  23
ATOM     23  C   UNL     1       9.144  47.530   7.009  1.00  0.00    -0.000 C 
BRANCH  23  24
ATOM     24  C   UNL     1       9.059  46.010   7.268  1.00  0.00    -0.000 C 
BRANCH  24  25
ATOM     25  C   UNL     1       9.082  45.662   8.765  1.00  0.00    -0.003 C 
ATOM     26  C   UNL     1       9.864  44.375   9.020  1.00  0.00     0.004 C 
ENDBRANCH  24  25
ENDBRANCH  23  24
ENDBRANCH  22  23
ENDBRANCH  21  22
ENDBRANCH  20  21
ENDBRANCH  19  20
ENDBRANCH  18  19
ENDBRANCH  17  18
ENDBRANCH  16  17
ENDBRANCH  15  16
ENDBRANCH   1  15
TORSDOF 22
ENDMDL
MODEL 2
REMARK VINA RESULT:    -5.282      2.909      6.044
REMARK INTER + INTRA:         -15.940
REMARK INTER:                 -13.029
REMARK INTRA:                  -2.912
REMARK UNBOUND:                -3.865
REMARK SMILES CCCCCCCCCCCCCCCCCCCCCCCC(=O)[O-]
REMARK SMILES IDX 13 1 14 2 15 3 16 4 17 5 18 6 19 7 20 8 21 9 22 10 23 11
REMARK SMILES IDX 24 12 25 13 26 14 12 15 11 16 10 17 9 18 8 19 7 20 6 21 5 22
REMARK SMILES IDX 4 23 3 24 2 25 1 26
REMARK H PARENT
REMARK Flexibility Score: inf
ROOT
ATOM      1  C   UNL     1      16.463  43.475   8.886  1.00  0.00     0.000 C 
ENDROOT
BRANCH   1   2
ATOM      2  C   UNL     1      14.962  43.120   8.918  1.00  0.00     0.000 C 
BRANCH   2   3
ATOM      3  C   UNL     1      14.668  41.662   8.511  1.00  0.00     0.000 C 
BRANCH   3   4
ATOM      4  C   UNL     1      15.818  40.712   8.889  1.00  0.00     0.000 C 
BRANCH   4   5
ATOM      5  C   UNL     1      15.343  39.491   9.696  1.00  0.00     0.000 C 
BRANCH   5   6
ATOM      6  C   UNL     1      13.827  39.446   9.981  1.00  0.00     0.000 C 
BRANCH   6   7
ATOM      7  C   UNL     1      13.318  38.123  10.586  1.00  0.00     0.000 C 
BRANCH   7   8
ATOM      8  C   UNL     1      12.927  38.192  12.075  1.00  0.00     0.000 C 
BRANCH   8   9
ATOM      9  C   UNL     1      14.016  37.717  13.055  1.00  0.00     0.000 C 
BRANCH   9  10
ATOM     10  C   UNL     1      14.710  36.422  12.596  1.00  0.00     0.006 C 
BRANCH  10  11
ATOM     11  C   UNL     1      13.949  35.168  13.040  1.00  0.00     0.053 C 
BRANCH  11  12
ATOM     12  C   UNL     1      14.238  33.997  12.148  1.00  0.00     0.041 C 
ATOM     13  O   UNL     1      13.292  33.312  11.676  1.00  0.00    -0.550 OA
ATOM     14  O   UNL     1      15.552  33.646  11.863  1.00  0.00    -0.550 OA
ENDBRANCH  11  12
ENDBRANCH  10  11
ENDBRANCH   9  10
ENDBRANCH   8   9
ENDBRANCH   7   8
ENDBRANCH   6   7
ENDBRANCH   5   6
ENDBRANCH   4   5
ENDBRANCH   3   4
ENDBRANCH   2   3
ENDBRANCH   1   2
BRANCH   1  15
ATOM     15  C   UNL     1      16.738  44.933   8.468  1.00  0.00     0.000 C 
BRANCH  15  16
ATOM     16  C   UNL     1      17.138  45.052   6.986  1.00  0.00     0.000 C 
BRANCH  16  17
ATOM     17  C   UNL     1      17.695  43.731   6.422  1.00  0.00     0.000 C 
BRANCH  17  18
ATOM     18  C   UNL     1      16.678  42.939   5.574  1.00  0.00    -0.000 C 
BRANCH  18  19
ATOM     19  C   UNL     1      16.658  43.323   4.079  1.00  0.00    -0.000 C 
BRANCH  19  20
ATOM     20  C   UNL     1      15.313  43.876   3.565  1.00  0.00    -0.000 C 
BRANCH  20  21
ATOM     21  C   UNL     1      15.023  45.348   3.928  1.00  0.00    -0.000 C 
BRANCH  21  22
ATOM     22  C   UNL     1      13.680  45.594   4.642  1.00  0.00    -0.000 C 
BRANCH  22  23
ATOM     23  C   UNL     1      13.637  45.155   6.119  1.00  0.00    -0.000 C 
BRANCH  23  24
ATOM     24  C   UNL     1      12.341  44.413   6.514  1.00  0.00    -0.000 C 
BRANCH  24  25
ATOM     25  C   UNL     1      11.898  43.391   5.455  1.00  0.00    -0.003 C 
ATOM     26  C   UNL     1      12.792  42.153   5.477  1.00  0.00     0.004 C 
ENDBRANCH  24  25
ENDBRANCH  23  24
ENDBRANCH  22  23
ENDBRANCH  21  22
ENDBRANCH  20  21
ENDBRANCH  19  20
ENDBRANCH  18  19
ENDBRANCH  17  18
ENDBRANCH  16  17
ENDBRANCH  15  16
ENDBRANCH   1  15
TORSDOF 22
ENDMDL
MODEL 3
REMARK VINA RESULT:    -5.246      2.662      7.153
REMARK INTER + INTRA:         -15.859
REMARK INTER:                 -12.567
REMARK INTRA:                  -3.291
REMARK UNBOUND:                -3.865
REMARK SMILES CCCCCCCCCCCCCCCCCCCCCCCC(=O)[O-]
REMARK SMILES IDX 13 1 14 2 15 3 16 4 17 5 18 6 19 7 20 8 21 9 22 10 23 11
REMARK SMILES IDX 24 12 25 13 26 14 12 15 11 16 10 17 9 18 8 19 7 20 6 21 5 22
REMARK SMILES IDX 4 23 3 24 2 25 1 26
REMARK H PARENT
REMARK Flexibility Score: inf
ROOT
ATOM      1  C   UNL     1      15.186  44.294   7.783  1.00  0.00     0.000 C 
ENDROOT
BRANCH   1   2
ATOM      2  C   UNL     1      13.933  43.475   7.410  1.00  0.00     0.000 C 
BRANCH   2   3
ATOM      3  C   UNL     1      14.130  42.589   6.164  1.00  0.00     0.000 C 
BRANCH   3   4
ATOM      4  C   UNL     1      12.891  42.589   5.251  1.00  0.00     0.000 C 
BRANCH   4   5
ATOM      5  C   UNL     1      13.200  43.077   3.824  1.00  0.00     0.000 C 
BRANCH   5   6
ATOM      6  C   UNL     1      14.653  43.542   3.595  1.00  0.00     0.000 C 
BRANCH   6   7
ATOM      7  C   UNL     1      14.851  45.071   3.577  1.00  0.00     0.000 C 
BRANCH   7   8
ATOM      8  C   UNL     1      13.611  45.895   3.978  1.00  0.00     0.000 C 
BRANCH   8   9
ATOM      9  C   UNL     1      13.712  46.598   5.345  1.00  0.00     0.000 C 
BRANCH   9  10
ATOM     10  C   UNL     1      12.343  47.034   5.896  1.00  0.00     0.006 C 
BRANCH  10  11
ATOM     11  C   UNL     1      12.096  46.509   7.315  1.00  0.00     0.053 C 
BRANCH  11  12
ATOM     12  C   UNL     1      10.755  45.851   7.439  1.00  0.00     0.041 C 
ATOM     13  O   UNL     1       9.805  46.449   8.010  1.00  0.00    -0.550 OA
ATOM     14  O   UNL     1      10.563  44.563   6.950  1.00  0.00    -0.550 OA
ENDBRANCH  11  12
ENDBRANCH  10  11
ENDBRANCH   9  10
ENDBRANCH   8   9
ENDBRANCH   7   8
ENDBRANCH   6   7
ENDBRANCH   5   6
ENDBRANCH   4   5
ENDBRANCH   3   4
ENDBRANCH   2   3
ENDBRANCH   1   2
BRANCH   1  15
ATOM     15  C   UNL     1      16.354  44.108   6.796  1.00  0.00     0.000 C 
BRANCH  15  16
ATOM     16  C   UNL     1      17.532  43.337   7.419  1.00  0.00     0.000 C 
BRANCH  16  17
ATOM     17  C   UNL     1      17.323  43.066   8.921  1.00  0.00     0.000 C 
BRANCH  17  18
ATOM     18  C   UNL     1      17.457  41.578   9.309  1.00  0.00    -0.000 C 
BRANCH  18  19
ATOM     19  C   UNL     1      16.378  40.660   8.697  1.00  0.00    -0.000 C 
BRANCH  19  20
ATOM     20  C   UNL     1      15.051  40.601   9.481  1.00  0.00    -0.000 C 
BRANCH  20  21
ATOM     21  C   UNL     1      14.835  39.322  10.319  1.00  0.00    -0.000 C 
BRANCH  21  22
ATOM     22  C   UNL     1      13.363  38.914  10.523  1.00  0.00    -0.000 C 
BRANCH  22  23
ATOM     23  C   UNL     1      13.154  37.590  11.283  1.00  0.00    -0.000 C 
BRANCH  23  24
ATOM     24  C   UNL     1      13.215  37.734  12.819  1.00  0.00    -0.000 C 
BRANCH  24  25
ATOM     25  C   UNL     1      14.592  37.367  13.394  1.00  0.00    -0.003 C 
ATOM     26  C   UNL     1      15.132  36.088  12.758  1.00  0.00     0.004 C 
ENDBRANCH  24  25
ENDBRANCH  23  24
ENDBRANCH  22  23
ENDBRANCH  21  22
ENDBRANCH  20  21
ENDBRANCH  19  20
ENDBRANCH  18  19
ENDBRANCH  17  18
ENDBRANCH  16  17
ENDBRANCH  15  16
ENDBRANCH   1  15
TORSDOF 22
ENDMDL
MODEL 4
REMARK VINA RESULT:    -5.220      2.175      6.751
REMARK INTER + INTRA:         -15.800
REMARK INTER:                 -11.900
REMARK INTRA:                  -3.900
REMARK UNBOUND:                -3.865
REMARK SMILES CCCCCCCCCCCCCCCCCCCCCCCC(=O)[O-]
REMARK SMILES IDX 13 1 14 2 15 3 16 4 17 5 18 6 19 7 20 8 21 9 22 10 23 11
REMARK SMILES IDX 24 12 25 13 26 14 12 15 11 16 10 17 9 18 8 19 7 20 6 21 5 22
REMARK SMILES IDX 4 23 3 24 2 25 1 26
REMARK H PARENT
REMARK Flexibility Score: inf
ROOT
ATOM      1  C   UNL     1      12.715  44.713   7.136  1.00  0.00     0.000 C 
ENDROOT
BRANCH   1   2
ATOM      2  C   UNL     1      13.590  45.972   6.966  1.00  0.00     0.000 C 
BRANCH   2   3
ATOM      3  C   UNL     1      12.993  47.006   5.990  1.00  0.00     0.000 C 
BRANCH   3   4
ATOM      4  C   UNL     1      11.740  46.471   5.275  1.00  0.00     0.000 C 
BRANCH   4   5
ATOM      5  C   UNL     1      10.510  47.376   5.467  1.00  0.00     0.000 C 
BRANCH   5   6
ATOM      6  C   UNL     1       9.938  47.403   6.899  1.00  0.00     0.000 C 
BRANCH   6   7
ATOM      7  C   UNL     1       8.398  47.378   6.985  1.00  0.00     0.000 C 
BRANCH   7   8
ATOM      8  C   UNL     1       7.820  47.546   8.404  1.00  0.00     0.000 C 
BRANCH   8   9
ATOM      9  C   UNL     1       7.967  46.312   9.315  1.00  0.00     0.000 C 
BRANCH   9  10
ATOM     10  C   UNL     1       7.973  44.987   8.532  1.00  0.00     0.006 C 
BRANCH  10  11
ATOM     11  C   UNL     1       9.261  44.187   8.758  1.00  0.00     0.053 C 
BRANCH  11  12
ATOM     12  C   UNL     1       9.461  43.852  10.206  1.00  0.00     0.041 C 
ATOM     13  O   UNL     1      10.584  44.031  10.748  1.00  0.00    -0.550 OA
ATOM     14  O   UNL     1       8.415  43.315  10.949  1.00  0.00    -0.550 OA
ENDBRANCH  11  12
ENDBRANCH  10  11
ENDBRANCH   9  10
ENDBRANCH   8   9
ENDBRANCH   7   8
ENDBRANCH   6   7
ENDBRANCH   5   6
ENDBRANCH   4   5
ENDBRANCH   3   4
ENDBRANCH   2   3
ENDBRANCH   1   2
BRANCH   1  15
ATOM     15  C   UNL     1      13.533  43.416   7.292  1.00  0.00     0.000 C 
BRANCH  15  16
ATOM     16  C   UNL     1      13.461  42.523   6.040  1.00  0.00     0.000 C 
BRANCH  16  17
ATOM     17  C   UNL     1      12.261  42.876   5.139  1.00  0.00     0.000 C 
BRANCH  17  18
ATOM     18  C   UNL     1      12.621  42.995   3.644  1.00  0.00    -0.000 C 
BRANCH  18  19
ATOM     19  C   UNL     1      14.118  43.246   3.366  1.00  0.00    -0.000 C 
BRANCH  19  20
ATOM     20  C   UNL     1      14.568  44.716   3.500  1.00  0.00    -0.000 C 
BRANCH  20  21
ATOM     21  C   UNL     1      15.876  44.936   4.290  1.00  0.00    -0.000 C 
BRANCH  21  22
ATOM     22  C   UNL     1      16.663  43.654   4.624  1.00  0.00    -0.000 C 
BRANCH  22  23
ATOM     23  C   UNL     1      17.149  43.549   6.083  1.00  0.00    -0.000 C 
BRANCH  23  24
ATOM     24  C   UNL     1      17.126  44.890   6.849  1.00  0.00    -0.000 C 
BRANCH  24  25
ATOM     25  C   UNL     1      16.872  44.708   8.354  1.00  0.00    -0.003 C 
ATOM     26  C   UNL     1      17.312  43.324   8.824  1.00  0.00     0.004 C 
ENDBRANCH  24  25
ENDBRANCH  23  24
ENDBRANCH  22  23
ENDBRANCH  21  22
ENDBRANCH  20  21
ENDBRANCH  19  20
ENDBRANCH  18  19
ENDBRANCH  17  18
ENDBRANCH  16  17
ENDBRANCH  15  16
ENDBRANCH   1  15
TORSDOF 22
ENDMDL
MODEL 5
REMARK VINA RESULT:    -5.148      1.859      6.538
REMARK INTER + INTRA:         -15.634
REMARK INTER:                 -12.220
REMARK INTRA:                  -3.414
REMARK UNBOUND:                -3.865
REMARK SMILES CCCCCCCCCCCCCCCCCCCCCCCC(=O)[O-]
REMARK SMILES IDX 13 1 14 2 15 3 16 4 17 5 18 6 19 7 20 8 21 9 22 10 23 11
REMARK SMILES IDX 24 12 25 13 26 14 12 15 11 16 10 17 9 18 8 19 7 20 6 21 5 22
REMARK SMILES IDX 4 23 3 24 2 25 1 26
REMARK H PARENT
REMARK Flexibility Score: inf
ROOT
ATOM      1  C   UNL     1      12.002  43.805   6.182  1.00  0.00     0.000 C 
ENDROOT
BRANCH   1   2
ATOM      2  C   UNL     1      13.172  44.524   6.887  1.00  0.00     0.000 C 
BRANCH   2   3
ATOM      3  C   UNL     1      13.011  46.057   6.929  1.00  0.00     0.000 C 
BRANCH   3   4
ATOM      4  C   UNL     1      12.339  46.605   5.658  1.00  0.00     0.000 C 
BRANCH   4   5
ATOM      5  C   UNL     1      11.021  47.343   5.949  1.00  0.00     0.000 C 
BRANCH   5   6
ATOM      6  C   UNL     1      10.354  46.982   7.292  1.00  0.00     0.000 C 
BRANCH   6   7
ATOM      7  C   UNL     1       8.832  47.228   7.349  1.00  0.00     0.000 C 
BRANCH   7   8
ATOM      8  C   UNL     1       8.035  46.200   8.175  1.00  0.00     0.000 C 
BRANCH   8   9
ATOM      9  C   UNL     1       7.997  44.779   7.583  1.00  0.00     0.000 C 
BRANCH   9  10
ATOM     10  C   UNL     1       8.899  43.789   8.342  1.00  0.00     0.006 C 
BRANCH  10  11
ATOM     11  C   UNL     1       8.803  43.967   9.861  1.00  0.00     0.053 C 
BRANCH  11  12
ATOM     12  C   UNL     1      10.157  44.104  10.492  1.00  0.00     0.041 C 
ATOM     13  O   UNL     1      10.305  43.901  11.726  1.00  0.00    -0.550 OA
ATOM     14  O   UNL     1      11.249  44.486   9.721  1.00  0.00    -0.550 OA
ENDBRANCH  11  12
ENDBRANCH  10  11
ENDBRANCH   9  10
ENDBRANCH   8   9
ENDBRANCH   7   8
ENDBRANCH   6   7
ENDBRANCH   5   6
ENDBRANCH   4   5
ENDBRANCH   3   4
ENDBRANCH   2   3
ENDBRANCH   1   2
BRANCH   1  15
ATOM     15  C   UNL     1      12.459  42.667   5.248  1.00  0.00     0.000 C 
BRANCH  15  16
ATOM     16  C   UNL     1      12.657  43.142   3.798  1.00  0.00     0.000 C 
BRANCH  16  17
ATOM     17  C   UNL     1      14.145  43.289   3.428  1.00  0.00     0.000 C 
BRANCH  17  18
ATOM     18  C   UNL     1      14.670  44.737   3.522  1.00  0.00    -0.000 C 
BRANCH  18  19
ATOM     19  C   UNL     1      15.941  44.901   4.380  1.00  0.00    -0.000 C 
BRANCH  19  20
ATOM     20  C   UNL     1      16.334  43.660   5.207  1.00  0.00    -0.000 C 
BRANCH  20  21
ATOM     21  C   UNL     1      17.411  43.901   6.288  1.00  0.00    -0.000 C 
BRANCH  21  22
ATOM     22  C   UNL     1      17.165  43.181   7.628  1.00  0.00    -0.000 C 
BRANCH  22  23
ATOM     23  C   UNL     1      16.095  42.072   7.586  1.00  0.00    -0.000 C 
BRANCH  23  24
ATOM     24  C   UNL     1      15.107  42.109   8.772  1.00  0.00    -0.000 C 
BRANCH  24  25
ATOM     25  C   UNL     1      14.559  40.719   9.130  1.00  0.00    -0.003 C 
ATOM     26  C   UNL     1      15.692  39.737   9.418  1.00  0.00     0.004 C 
ENDBRANCH  24  25
ENDBRANCH  23  24
ENDBRANCH  22  23
ENDBRANCH  21  22
ENDBRANCH  20  21
ENDBRANCH  19  20
ENDBRANCH  18  19
ENDBRANCH  17  18
ENDBRANCH  16  17
ENDBRANCH  15  16
ENDBRANCH   1  15
TORSDOF 22
ENDMDL
MODEL 6
REMARK VINA RESULT:    -5.141      1.922      4.136
REMARK INTER + INTRA:         -15.619
REMARK INTER:                 -11.975
REMARK INTRA:                  -3.645
REMARK UNBOUND:                -3.865
REMARK SMILES CCCCCCCCCCCCCCCCCCCCCCCC(=O)[O-]
REMARK SMILES IDX 13 1 14 2 15 3 16 4 17 5 18 6 19 7 20 8 21 9 22 10 23 11
REMARK SMILES IDX 24 12 25 13 26 14 12 15 11 16 10 17 9 18 8 19 7 20 6 21 5 22
REMARK SMILES IDX 4 23 3 24 2 25 1 26
REMARK H PARENT
REMARK Flexibility Score: inf
ROOT
ATOM      1  C   UNL     1      13.481  45.373   7.203  1.00  0.00     0.000 C 
ENDROOT
BRANCH   1   2
ATOM      2  C   UNL     1      12.909  43.940   7.175  1.00  0.00     0.000 C 
BRANCH   2   3
ATOM      3  C   UNL     1      11.860  43.723   6.066  1.00  0.00     0.000 C 
BRANCH   3   4
ATOM      4  C   UNL     1      12.316  42.678   5.033  1.00  0.00     0.000 C 
BRANCH   4   5
ATOM      5  C   UNL     1      12.739  43.307   3.693  1.00  0.00     0.000 C 
BRANCH   5   6
ATOM      6  C   UNL     1      12.887  44.842   3.712  1.00  0.00     0.000 C 
BRANCH   6   7
ATOM      7  C   UNL     1      14.339  45.356   3.630  1.00  0.00     0.000 C 
BRANCH   7   8
ATOM      8  C   UNL     1      15.425  44.272   3.779  1.00  0.00     0.000 C 
BRANCH   8   9
ATOM      9  C   UNL     1      16.226  44.331   5.093  1.00  0.00     0.000 C 
BRANCH   9  10
ATOM     10  C   UNL     1      16.693  42.945   5.573  1.00  0.00     0.006 C 
BRANCH  10  11
ATOM     11  C   UNL     1      16.179  42.616   6.979  1.00  0.00     0.053 C 
BRANCH  11  12
ATOM     12  C   UNL     1      16.996  43.287   8.041  1.00  0.00     0.041 C 
ATOM     13  O   UNL     1      17.849  42.630   8.695  1.00  0.00    -0.550 OA
ATOM     14  O   UNL     1      16.794  44.632   8.331  1.00  0.00    -0.550 OA
ENDBRANCH  11  12
ENDBRANCH  10  11
ENDBRANCH   9  10
ENDBRANCH   8   9
ENDBRANCH   7   8
ENDBRANCH   6   7
ENDBRANCH   5   6
ENDBRANCH   4   5
ENDBRANCH   3   4
ENDBRANCH   2   3
ENDBRANCH   1   2
BRANCH   1  15
ATOM     15  C   UNL     1      12.421  46.449   7.512  1.00  0.00     0.000 C 
BRANCH  15  16
ATOM     16  C   UNL     1      12.174  47.388   6.318  1.00  0.00     0.000 C 
BRANCH  16  17
ATOM     17  C   UNL     1      10.700  47.392   5.872  1.00  0.00     0.000 C 
BRANCH  17  18
ATOM     18  C   UNL     1       9.702  47.139   7.022  1.00  0.00    -0.000 C 
BRANCH  18  19
ATOM     19  C   UNL     1       8.564  48.177   7.118  1.00  0.00    -0.000 C 
BRANCH  19  20
ATOM     20  C   UNL     1       7.236  47.637   7.687  1.00  0.00    -0.000 C 
BRANCH  20  21
ATOM     21  C   UNL     1       7.129  47.633   9.227  1.00  0.00    -0.000 C 
BRANCH  21  22
ATOM     22  C   UNL     1       7.176  46.239   9.883  1.00  0.00    -0.000 C 
BRANCH  22  23
ATOM     23  C   UNL     1       7.250  45.057   8.897  1.00  0.00    -0.000 C 
BRANCH  23  24
ATOM     24  C   UNL     1       8.545  44.224   9.014  1.00  0.00    -0.000 C 
BRANCH  24  25
ATOM     25  C   UNL     1       9.435  44.674  10.184  1.00  0.00    -0.003 C 
ATOM     26  C   UNL     1      10.853  44.128  10.039  1.00  0.00     0.004 C 
ENDBRANCH  24  25
ENDBRANCH  23  24
ENDBRANCH  22  23
ENDBRANCH  21  22
ENDBRANCH  20  21
ENDBRANCH  19  20
ENDBRANCH  18  19
ENDBRANCH  17  18
ENDBRANCH  16  17
ENDBRANCH  15  16
ENDBRANCH   1  15
TORSDOF 22
ENDMDL
MODEL 7
REMARK VINA RESULT:    -5.119      2.049      3.984
REMARK INTER + INTRA:         -15.567
REMARK INTER:                 -11.967
REMARK INTRA:                  -3.600
REMARK UNBOUND:                -3.865
REMARK SMILES CCCCCCCCCCCCCCCCCCCCCCCC(=O)[O-]
REMARK SMILES IDX 13 1 14 2 15 3 16 4 17 5 18 6 19 7 20 8 21 9 22 10 23 11
REMARK SMILES IDX 24 12 25 13 26 14 12 15 11 16 10 17 9 18 8 19 7 20 6 21 5 22
REMARK SMILES IDX 4 23 3 24 2 25 1 26
REMARK H PARENT
REMARK Flexibility Score: inf
ROOT
ATOM      1  C   UNL     1      12.676  46.501   7.699  1.00  0.00     0.000 C 
ENDROOT
BRANCH   1   2
ATOM      2  C   UNL     1      13.317  46.492   6.295  1.00  0.00     0.000 C 
BRANCH   2   3
ATOM      3  C   UNL     1      12.288  46.593   5.151  1.00  0.00     0.000 C 
BRANCH   3   4
ATOM      4  C   UNL     1      12.594  45.611   4.007  1.00  0.00     0.000 C 
BRANCH   4   5
ATOM      5  C   UNL     1      12.741  44.157   4.491  1.00  0.00     0.000 C 
BRANCH   5   6
ATOM      6  C   UNL     1      13.913  43.376   3.862  1.00  0.00     0.000 C 
BRANCH   6   7
ATOM      7  C   UNL     1      15.237  44.161   3.760  1.00  0.00     0.000 C 
BRANCH   7   8
ATOM      8  C   UNL     1      16.468  43.444   4.349  1.00  0.00     0.000 C 
BRANCH   8   9
ATOM      9  C   UNL     1      16.490  43.347   5.886  1.00  0.00     0.000 C 
BRANCH   9  10
ATOM     10  C   UNL     1      16.957  44.649   6.562  1.00  0.00     0.006 C 
BRANCH  10  11
ATOM     11  C   UNL     1      16.165  44.957   7.837  1.00  0.00     0.053 C 
BRANCH  11  12
ATOM     12  C   UNL     1      16.362  43.900   8.883  1.00  0.00     0.041 C 
ATOM     13  O   UNL     1      17.509  43.678   9.352  1.00  0.00    -0.550 OA
ATOM     14  O   UNL     1      15.282  43.139   9.316  1.00  0.00    -0.550 OA
ENDBRANCH  11  12
ENDBRANCH  10  11
ENDBRANCH   9  10
ENDBRANCH   8   9
ENDBRANCH   7   8
ENDBRANCH   6   7
ENDBRANCH   5   6
ENDBRANCH   4   5
ENDBRANCH   3   4
ENDBRANCH   2   3
ENDBRANCH   1   2
BRANCH   1  15
ATOM     15  C   UNL     1      12.426  45.090   8.265  1.00  0.00     0.000 C 
BRANCH  15  16
ATOM     16  C   UNL     1      10.952  44.862   8.643  1.00  0.00     0.000 C 
BRANCH  16  17
ATOM     17  C   UNL     1      10.088  44.483   7.425  1.00  0.00     0.000 C 
BRANCH  17  18
ATOM     18  C   UNL     1       8.824  45.354   7.264  1.00  0.00    -0.000 C 
BRANCH  18  19
ATOM     19  C   UNL     1       9.107  46.850   7.012  1.00  0.00    -0.000 C 
BRANCH  19  20
ATOM     20  C   UNL     1       8.201  47.825   7.791  1.00  0.00    -0.000 C 
BRANCH  20  21
ATOM     21  C   UNL     1       7.027  47.171   8.551  1.00  0.00    -0.000 C 
BRANCH  21  22
ATOM     22  C   UNL     1       7.084  47.305  10.085  1.00  0.00    -0.000 C 
BRANCH  22  23
ATOM     23  C   UNL     1       7.729  46.113  10.820  1.00  0.00    -0.000 C 
BRANCH  23  24
ATOM     24  C   UNL     1       7.037  44.760  10.545  1.00  0.00    -0.000 C 
BRANCH  24  25
ATOM     25  C   UNL     1       8.031  43.589  10.484  1.00  0.00    -0.003 C 
ATOM     26  C   UNL     1       9.005  43.632  11.659  1.00  0.00     0.004 C 
ENDBRANCH  24  25
ENDBRANCH  23  24
ENDBRANCH  22  23
ENDBRANCH  21  22
ENDBRANCH  20  21
ENDBRANCH  19  20
ENDBRANCH  18  19
ENDBRANCH  17  18
ENDBRANCH  16  17
ENDBRANCH  15  16
ENDBRANCH   1  15
TORSDOF 22
ENDMDL
MODEL 8
REMARK VINA RESULT:    -5.108      2.294      4.524
REMARK INTER + INTRA:         -15.542
REMARK INTER:                 -11.809
REMARK INTRA:                  -3.732
REMARK UNBOUND:                -3.865
REMARK SMILES CCCCCCCCCCCCCCCCCCCCCCCC(=O)[O-]
REMARK SMILES IDX 13 1 14 2 15 3 16 4 17 5 18 6 19 7 20 8 21 9 22 10 23 11
REMARK SMILES IDX 24 12 25 13 26 14 12 15 11 16 10 17 9 18 8 19 7 20 6 21 5 22
REMARK SMILES IDX 4 23 3 24 2 25 1 26
REMARK H PARENT
REMARK Flexibility Score: inf
ROOT
ATOM      1  C   UNL     1      12.801  45.673   7.070  1.00  0.00     0.000 C 
ENDROOT
BRANCH   1   2
ATOM      2  C   UNL     1      12.826  44.131   7.014  1.00  0.00     0.000 C 
BRANCH   2   3
ATOM      3  C   UNL     1      11.928  43.544   5.907  1.00  0.00     0.000 C 
BRANCH   3   4
ATOM      4  C   UNL     1      12.662  42.488   5.063  1.00  0.00     0.000 C 
BRANCH   4   5
ATOM      5  C   UNL     1      12.837  42.913   3.594  1.00  0.00     0.000 C 
BRANCH   5   6
ATOM      6  C   UNL     1      14.253  43.396   3.220  1.00  0.00     0.000 C 
BRANCH   6   7
ATOM      7  C   UNL     1      14.631  44.788   3.766  1.00  0.00     0.000 C 
BRANCH   7   8
ATOM      8  C   UNL     1      15.820  44.805   4.746  1.00  0.00     0.000 C 
BRANCH   8   9
ATOM      9  C   UNL     1      16.503  43.441   4.962  1.00  0.00     0.000 C 
BRANCH   9  10
ATOM     10  C   UNL     1      17.485  43.444   6.147  1.00  0.00     0.006 C 
BRANCH  10  11
ATOM     11  C   UNL     1      17.444  44.762   6.930  1.00  0.00     0.053 C 
BRANCH  11  12
ATOM     12  C   UNL     1      16.959  44.560   8.334  1.00  0.00     0.041 C 
ATOM     13  O   UNL     1      15.943  45.177   8.749  1.00  0.00    -0.550 OA
ATOM     14  O   UNL     1      17.648  43.712   9.194  1.00  0.00    -0.550 OA
ENDBRANCH  11  12
ENDBRANCH  10  11
ENDBRANCH   9  10
ENDBRANCH   8   9
ENDBRANCH   7   8
ENDBRANCH   6   7
ENDBRANCH   5   6
ENDBRANCH   4   5
ENDBRANCH   3   4
ENDBRANCH   2   3
ENDBRANCH   1   2
BRANCH   1  15
ATOM     15  C   UNL     1      11.994  46.313   5.924  1.00  0.00     0.000 C 
BRANCH  15  16
ATOM     16  C   UNL     1      11.138  47.500   6.402  1.00  0.00     0.000 C 
BRANCH  16  17
ATOM     17  C   UNL     1       9.629  47.236   6.237  1.00  0.00     0.000 C 
BRANCH  17  18
ATOM     18  C   UNL     1       8.970  46.604   7.481  1.00  0.00    -0.000 C 
BRANCH  18  19
ATOM     19  C   UNL     1       8.561  45.127   7.306  1.00  0.00    -0.000 C 
BRANCH  19  20
ATOM     20  C   UNL     1       9.263  44.139   8.261  1.00  0.00    -0.000 C 
BRANCH  20  21
ATOM     21  C   UNL     1      10.026  44.786   9.437  1.00  0.00    -0.000 C 
BRANCH  21  22
ATOM     22  C   UNL     1      10.411  43.823  10.576  1.00  0.00    -0.000 C 
BRANCH  22  23
ATOM     23  C   UNL     1       9.473  43.850  11.799  1.00  0.00    -0.000 C 
BRANCH  23  24
ATOM     24  C   UNL     1       8.042  43.352  11.501  1.00  0.00    -0.000 C 
BRANCH  24  25
ATOM     25  C   UNL     1       6.982  44.449  11.684  1.00  0.00    -0.003 C 
ATOM     26  C   UNL     1       6.346  44.830  10.349  1.00  0.00     0.004 C 
ENDBRANCH  24  25
ENDBRANCH  23  24
ENDBRANCH  22  23
ENDBRANCH  21  22
ENDBRANCH  20  21
ENDBRANCH  19  20
ENDBRANCH  18  19
ENDBRANCH  17  18
ENDBRANCH  16  17
ENDBRANCH  15  16
ENDBRANCH   1  15
TORSDOF 22
ENDMDL
MODEL 9
REMARK VINA RESULT:    -5.101      2.215      6.644
REMARK INTER + INTRA:         -15.526
REMARK INTER:                 -12.638
REMARK INTRA:                  -2.888
REMARK UNBOUND:                -3.865
REMARK SMILES CCCCCCCCCCCCCCCCCCCCCCCC(=O)[O-]
REMARK SMILES IDX 13 1 14 2 15 3 16 4 17 5 18 6 19 7 20 8 21 9 22 10 23 11
REMARK SMILES IDX 24 12 25 13 26 14 12 15 11 16 10 17 9 18 8 19 7 20 6 21 5 22
REMARK SMILES IDX 4 23 3 24 2 25 1 26
REMARK H PARENT
REMARK Flexibility Score: inf
ROOT
ATOM      1  C   UNL     1      14.819  45.070   3.595  1.00  0.00     0.000 C 
ENDROOT
BRANCH   1   2
ATOM      2  C   UNL     1      13.399  45.166   4.191  1.00  0.00     0.000 C 
BRANCH   2   3
ATOM      3  C   UNL     1      12.965  43.894   4.947  1.00  0.00     0.000 C 
BRANCH   3   4
ATOM      4  C   UNL     1      11.895  44.189   6.013  1.00  0.00     0.000 C 
BRANCH   4   5
ATOM      5  C   UNL     1      12.484  44.796   7.299  1.00  0.00     0.000 C 
BRANCH   5   6
ATOM      6  C   UNL     1      12.074  46.257   7.578  1.00  0.00     0.000 C 
BRANCH   6   7
ATOM      7  C   UNL     1      11.189  46.902   6.492  1.00  0.00     0.000 C 
BRANCH   7   8
ATOM      8  C   UNL     1       9.774  47.301   6.954  1.00  0.00     0.000 C 
BRANCH   8   9
ATOM      9  C   UNL     1       9.160  46.385   8.029  1.00  0.00     0.000 C 
BRANCH   9  10
ATOM     10  C   UNL     1       8.391  45.193   7.432  1.00  0.00     0.006 C 
BRANCH  10  11
ATOM     11  C   UNL     1       8.831  43.857   8.041  1.00  0.00     0.053 C 
BRANCH  11  12
ATOM     12  C   UNL     1       8.865  43.912   9.539  1.00  0.00     0.041 C 
ATOM     13  O   UNL     1       9.960  43.811  10.153  1.00  0.00    -0.550 OA
ATOM     14  O   UNL     1       7.682  44.044  10.258  1.00  0.00    -0.550 OA
ENDBRANCH  11  12
ENDBRANCH  10  11
ENDBRANCH   9  10
ENDBRANCH   8   9
ENDBRANCH   7   8
ENDBRANCH   6   7
ENDBRANCH   5   6
ENDBRANCH   4   5
ENDBRANCH   3   4
ENDBRANCH   2   3
ENDBRANCH   1   2
BRANCH   1  15
ATOM     15  C   UNL     1      15.385  43.636   3.592  1.00  0.00     0.000 C 
BRANCH  15  16
ATOM     16  C   UNL     1      16.743  43.540   4.311  1.00  0.00     0.000 C 
BRANCH  16  17
ATOM     17  C   UNL     1      16.606  43.011   5.751  1.00  0.00     0.000 C 
BRANCH  17  18
ATOM     18  C   UNL     1      16.189  44.089   6.773  1.00  0.00    -0.000 C 
BRANCH  18  19
ATOM     19  C   UNL     1      16.633  43.801   8.222  1.00  0.00    -0.000 C 
BRANCH  19  20
ATOM     20  C   UNL     1      15.507  43.342   9.171  1.00  0.00    -0.000 C 
BRANCH  20  21
ATOM     21  C   UNL     1      14.827  42.009   8.792  1.00  0.00    -0.000 C 
BRANCH  21  22
ATOM     22  C   UNL     1      15.759  40.781   8.773  1.00  0.00    -0.000 C 
BRANCH  22  23
ATOM     23  C   UNL     1      15.378  39.659   9.759  1.00  0.00    -0.000 C 
BRANCH  23  24
ATOM     24  C   UNL     1      13.886  39.263   9.710  1.00  0.00    -0.000 C 
BRANCH  24  25
ATOM     25  C   UNL     1      13.340  38.844  11.085  1.00  0.00    -0.003 C 
ATOM     26  C   UNL     1      12.752  37.436  11.038  1.00  0.00     0.004 C 
ENDBRANCH  24  25
ENDBRANCH  23  24
ENDBRANCH  22  23
ENDBRANCH  21  22
ENDBRANCH  20  21
ENDBRANCH  19  20
ENDBRANCH  18  19
ENDBRANCH  17  18
ENDBRANCH  16  17
ENDBRANCH  15  16
ENDBRANCH   1  15
TORSDOF 22
ENDMDL
