MODEL 1
REMARK VINA RESULT:    -6.224      0.000      0.000
REMARK INTER + INTRA:          -7.524
REMARK INTER:                  -7.316
REMARK INTRA:                  -0.208
REMARK UNBOUND:                -0.208
REMARK SMILES O=c1c(O)c(-c2ccc(O)c(O)c2)oc2cc(O)ccc12
REMARK SMILES IDX 5 1 3 2 2 3 1 4 21 5 15 6 14 7 16 8 17 9 19 10 20 11 6 12
REMARK SMILES IDX 7 13 8 14 9 15 13 16 11 17 10 18 12 20 4 22 18 24
REMARK H PARENT 10 19 12 21 4 23 18 25
REMARK Flexibility Score: inf
ROOT
ATOM      1  C   UNL     1      -1.390  -3.231 -12.398  1.00  0.00     0.180 A 
ATOM      2  C   UNL     1      -0.495  -2.635 -11.485  1.00  0.00     0.208 A 
ATOM      3  C   UNL     1       0.827  -2.397 -11.891  1.00  0.00     0.235 A 
ATOM      4  O   UNL     1       1.649  -1.875 -11.089  1.00  0.00    -0.285 OA
ATOM      5  C   UNL     1       1.219  -2.734 -13.196  1.00  0.00     0.069 A 
ATOM      6  C   UNL     1       0.257  -3.305 -14.057  1.00  0.00     0.142 A 
ATOM      7  O   UNL     1      -0.981  -3.523 -13.631  1.00  0.00    -0.452 OA
ATOM      8  C   UNL     1       0.608  -3.647 -15.368  1.00  0.00     0.094 A 
ATOM      9  C   UNL     1       1.913  -3.427 -15.830  1.00  0.00     0.119 A 
ATOM     10  C   UNL     1       2.867  -2.864 -14.978  1.00  0.00     0.047 A 
ATOM     11  C   UNL     1       2.527  -2.517 -13.666  1.00  0.00     0.020 A 
ENDROOT
BRANCH   1  12
ATOM     12  C   UNL     1      -2.795  -3.532 -12.039  1.00  0.00     0.025 A 
ATOM     13  C   UNL     1      -3.735  -2.507 -11.835  1.00  0.00     0.016 A 
ATOM     14  C   UNL     1      -5.050  -2.815 -11.474  1.00  0.00     0.051 A 
ATOM     15  C   UNL     1      -5.439  -4.148 -11.298  1.00  0.00     0.157 A 
ATOM     16  C   UNL     1      -3.186  -4.866 -11.841  1.00  0.00     0.062 A 
ATOM     17  C   UNL     1      -4.506  -5.176 -11.479  1.00  0.00     0.158 A 
BRANCH  15  18
ATOM     18  O   UNL     1      -6.750  -4.459 -10.940  1.00  0.00    -0.504 OA
ATOM     19  H   UNL     1      -7.393  -3.747 -10.614  1.00  0.00     0.293 HD
ENDBRANCH  15  18
BRANCH  17  20
ATOM     20  O   UNL     1      -4.895  -6.502 -11.296  1.00  0.00    -0.504 OA
ATOM     21  H   UNL     1      -4.751  -7.201 -12.017  1.00  0.00     0.293 HD
ENDBRANCH  17  20
ENDBRANCH   1  12
BRANCH   2  22
ATOM     22  O   UNL     1      -0.928  -2.264 -10.210  1.00  0.00    -0.502 OA
ATOM     23  H   UNL     1      -1.907  -2.121  -9.990  1.00  0.00     0.293 HD
ENDBRANCH   2  22
BRANCH   9  24
ATOM     24  O   UNL     1       2.270  -3.765 -17.133  1.00  0.00    -0.508 OA
ATOM     25  H   UNL     1       3.198  -4.108 -17.357  1.00  0.00     0.293 HD
ENDBRANCH   9  24
TORSDOF 5
ENDMDL
MODEL 2
REMARK VINA RESULT:    -5.726      1.701      1.984
REMARK INTER + INTRA:          -6.938
REMARK INTER:                  -6.697
REMARK INTRA:                  -0.241
REMARK UNBOUND:                -0.208
REMARK SMILES O=c1c(O)c(-c2ccc(O)c(O)c2)oc2cc(O)ccc12
REMARK SMILES IDX 5 1 3 2 2 3 1 4 21 5 15 6 14 7 16 8 17 9 19 10 20 11 6 12
REMARK SMILES IDX 7 13 8 14 9 15 13 16 11 17 10 18 12 20 4 22 18 24
REMARK H PARENT 10 19 12 21 4 23 18 25
REMARK Flexibility Score: inf
ROOT
ATOM      1  C   UNL     1      -2.031  -3.286 -13.534  1.00  0.00     0.180 A 
ATOM      2  C   UNL     1      -0.750  -3.275 -12.944  1.00  0.00     0.208 A 
ATOM      3  C   UNL     1       0.365  -2.998 -13.752  1.00  0.00     0.235 A 
ATOM      4  O   UNL     1       1.522  -2.992 -13.249  1.00  0.00    -0.285 OA
ATOM      5  C   UNL     1       0.177  -2.719 -15.115  1.00  0.00     0.069 A 
ATOM      6  C   UNL     1      -1.140  -2.727 -15.624  1.00  0.00     0.142 A 
ATOM      7  O   UNL     1      -2.167  -3.003 -14.828  1.00  0.00    -0.452 OA
ATOM      8  C   UNL     1      -1.369  -2.446 -16.975  1.00  0.00     0.094 A 
ATOM      9  C   UNL     1      -0.294  -2.158 -17.828  1.00  0.00     0.119 A 
ATOM     10  C   UNL     1       1.010  -2.151 -17.326  1.00  0.00     0.047 A 
ATOM     11  C   UNL     1       1.250  -2.430 -15.977  1.00  0.00     0.020 A 
ENDROOT
BRANCH   1  12
ATOM     12  C   UNL     1      -3.253  -3.588 -12.754  1.00  0.00     0.025 A 
ATOM     13  C   UNL     1      -4.151  -2.574 -12.378  1.00  0.00     0.016 A 
ATOM     14  C   UNL     1      -5.286  -2.880 -11.621  1.00  0.00     0.051 A 
ATOM     15  C   UNL     1      -5.531  -4.199 -11.219  1.00  0.00     0.157 A 
ATOM     16  C   UNL     1      -3.493  -4.905 -12.330  1.00  0.00     0.062 A 
ATOM     17  C   UNL     1      -4.632  -5.213 -11.571  1.00  0.00     0.158 A 
BRANCH  15  18
ATOM     18  O   UNL     1      -6.663  -4.507 -10.466  1.00  0.00    -0.504 OA
ATOM     19  H   UNL     1      -7.298  -5.246 -10.743  1.00  0.00     0.293 HD
ENDBRANCH  15  18
BRANCH  17  20
ATOM     20  O   UNL     1      -4.876  -6.523 -11.162  1.00  0.00    -0.504 OA
ATOM     21  H   UNL     1      -4.233  -7.017 -10.553  1.00  0.00     0.293 HD
ENDBRANCH  17  20
ENDBRANCH   1  12
BRANCH   2  22
ATOM     22  O   UNL     1      -0.599  -3.506 -11.575  1.00  0.00    -0.502 OA
ATOM     23  H   UNL     1      -0.078  -4.295 -11.213  1.00  0.00     0.293 HD
ENDBRANCH   2  22
BRANCH   9  24
ATOM     24  O   UNL     1      -0.513  -1.877 -19.175  1.00  0.00    -0.508 OA
ATOM     25  H   UNL     1      -1.177  -2.409 -19.726  1.00  0.00     0.293 HD
ENDBRANCH   9  24
TORSDOF 5
ENDMDL
MODEL 3
REMARK VINA RESULT:    -5.023      3.002      3.502
REMARK INTER + INTRA:          -6.111
REMARK INTER:                  -6.318
REMARK INTRA:                   0.207
REMARK UNBOUND:                -0.208
REMARK SMILES O=c1c(O)c(-c2ccc(O)c(O)c2)oc2cc(O)ccc12
REMARK SMILES IDX 5 1 3 2 2 3 1 4 21 5 15 6 14 7 16 8 17 9 19 10 20 11 6 12
REMARK SMILES IDX 7 13 8 14 9 15 13 16 11 17 10 18 12 20 4 22 18 24
REMARK H PARENT 10 19 12 21 4 23 18 25
REMARK Flexibility Score: inf
ROOT
ATOM      1  C   UNL     1      -1.134  -4.057 -12.124  1.00  0.00     0.180 A 
ATOM      2  C   UNL     1       0.008  -3.235 -12.216  1.00  0.00     0.208 A 
ATOM      3  C   UNL     1       1.274  -3.811 -12.035  1.00  0.00     0.235 A 
ATOM      4  O   UNL     1       2.310  -3.094 -12.102  1.00  0.00    -0.285 OA
ATOM      5  C   UNL     1       1.376  -5.190 -11.790  1.00  0.00     0.069 A 
ATOM      6  C   UNL     1       0.186  -5.949 -11.736  1.00  0.00     0.142 A 
ATOM      7  O   UNL     1      -0.993  -5.363 -11.904  1.00  0.00    -0.452 OA
ATOM      8  C   UNL     1       0.247  -7.328 -11.503  1.00  0.00     0.094 A 
ATOM      9  C   UNL     1       1.485  -7.959 -11.319  1.00  0.00     0.119 A 
ATOM     10  C   UNL     1       2.663  -7.208 -11.370  1.00  0.00     0.047 A 
ATOM     11  C   UNL     1       2.614  -5.830 -11.604  1.00  0.00     0.020 A 
ENDROOT
BRANCH   1  12
ATOM     12  C   UNL     1      -2.505  -3.521 -12.284  1.00  0.00     0.025 A 
ATOM     13  C   UNL     1      -2.785  -2.484 -13.191  1.00  0.00     0.016 A 
ATOM     14  C   UNL     1      -4.082  -1.977 -13.307  1.00  0.00     0.051 A 
ATOM     15  C   UNL     1      -5.114  -2.490 -12.511  1.00  0.00     0.157 A 
ATOM     16  C   UNL     1      -3.539  -4.016 -11.473  1.00  0.00     0.062 A 
ATOM     17  C   UNL     1      -4.842  -3.509 -11.589  1.00  0.00     0.158 A 
BRANCH  15  18
ATOM     18  O   UNL     1      -6.409  -1.988 -12.625  1.00  0.00    -0.504 OA
ATOM     19  H   UNL     1      -6.618  -1.189 -13.211  1.00  0.00     0.293 HD
ENDBRANCH  15  18
BRANCH  17  20
ATOM     20  O   UNL     1      -5.869  -4.012 -10.793  1.00  0.00    -0.504 OA
ATOM     21  H   UNL     1      -6.450  -3.402 -10.229  1.00  0.00     0.293 HD
ENDBRANCH  17  20
ENDBRANCH   1  12
BRANCH   2  22
ATOM     22  O   UNL     1      -0.122  -1.875 -12.512  1.00  0.00    -0.502 OA
ATOM     23  H   UNL     1       0.605  -1.203 -12.298  1.00  0.00     0.293 HD
ENDBRANCH   2  22
BRANCH   9  24
ATOM     24  O   UNL     1       1.554  -9.330 -11.086  1.00  0.00    -0.508 OA
ATOM     25  H   UNL     1       1.093  -9.996 -11.697  1.00  0.00     0.293 HD
ENDBRANCH   9  24
TORSDOF 5
ENDMDL
MODEL 4
REMARK VINA RESULT:    -4.945      9.433     11.104
REMARK INTER + INTRA:          -6.020
REMARK INTER:                  -5.747
REMARK INTRA:                  -0.273
REMARK UNBOUND:                -0.208
REMARK SMILES O=c1c(O)c(-c2ccc(O)c(O)c2)oc2cc(O)ccc12
REMARK SMILES IDX 5 1 3 2 2 3 1 4 21 5 15 6 14 7 16 8 17 9 19 10 20 11 6 12
REMARK SMILES IDX 7 13 8 14 9 15 13 16 11 17 10 18 12 20 4 22 18 24
REMARK H PARENT 10 19 12 21 4 23 18 25
REMARK Flexibility Score: inf
ROOT
ATOM      1  C   UNL     1       1.340 -11.950  -9.288  1.00  0.00     0.180 A 
ATOM      2  C   UNL     1       0.217 -12.391  -8.557  1.00  0.00     0.208 A 
ATOM      3  C   UNL     1      -0.125 -13.752  -8.597  1.00  0.00     0.235 A 
ATOM      4  O   UNL     1      -1.132 -14.168  -7.961  1.00  0.00    -0.285 OA
ATOM      5  C   UNL     1       0.666 -14.640  -9.342  1.00  0.00     0.069 A 
ATOM      6  C   UNL     1       1.788 -14.125 -10.027  1.00  0.00     0.142 A 
ATOM      7  O   UNL     1       2.072 -12.829  -9.971  1.00  0.00    -0.452 OA
ATOM      8  C   UNL     1       2.606 -14.980 -10.773  1.00  0.00     0.094 A 
ATOM      9  C   UNL     1       2.316 -16.350 -10.845  1.00  0.00     0.119 A 
ATOM     10  C   UNL     1       1.204 -16.862 -10.169  1.00  0.00     0.047 A 
ATOM     11  C   UNL     1       0.380 -16.015  -9.420  1.00  0.00     0.020 A 
ENDROOT
BRANCH   1  12
ATOM     12  C   UNL     1       1.754 -10.528  -9.312  1.00  0.00     0.025 A 
ATOM     13  C   UNL     1       2.445  -9.949  -8.233  1.00  0.00     0.016 A 
ATOM     14  C   UNL     1       2.804  -8.599  -8.268  1.00  0.00     0.051 A 
ATOM     15  C   UNL     1       2.469  -7.807  -9.373  1.00  0.00     0.157 A 
ATOM     16  C   UNL     1       1.402  -9.725 -10.408  1.00  0.00     0.062 A 
ATOM     17  C   UNL     1       1.763  -8.370 -10.444  1.00  0.00     0.158 A 
BRANCH  15  18
ATOM     18  O   UNL     1       2.827  -6.461  -9.413  1.00  0.00    -0.504 OA
ATOM     19  H   UNL     1       2.129  -5.727  -9.447  1.00  0.00     0.293 HD
ENDBRANCH  15  18
BRANCH  17  20
ATOM     20  O   UNL     1       1.424  -7.578 -11.540  1.00  0.00    -0.504 OA
ATOM     21  H   UNL     1       0.483  -7.224 -11.667  1.00  0.00     0.293 HD
ENDBRANCH  17  20
ENDBRANCH   1  12
BRANCH   2  22
ATOM     22  O   UNL     1      -0.522 -11.492  -7.784  1.00  0.00    -0.502 OA
ATOM     23  H   UNL     1      -0.105 -10.670  -7.362  1.00  0.00     0.293 HD
ENDBRANCH   2  22
BRANCH   9  24
ATOM     24  O   UNL     1       3.124 -17.208 -11.586  1.00  0.00    -0.508 OA
ATOM     25  H   UNL     1       3.226 -18.186 -11.338  1.00  0.00     0.293 HD
ENDBRANCH   9  24
TORSDOF 5
ENDMDL
MODEL 5
REMARK VINA RESULT:    -4.887      9.877     10.888
REMARK INTER + INTRA:          -5.952
REMARK INTER:                  -5.636
REMARK INTRA:                  -0.316
REMARK UNBOUND:                -0.208
REMARK SMILES O=c1c(O)c(-c2ccc(O)c(O)c2)oc2cc(O)ccc12
REMARK SMILES IDX 5 1 3 2 2 3 1 4 21 5 15 6 14 7 16 8 17 9 19 10 20 11 6 12
REMARK SMILES IDX 7 13 8 14 9 15 13 16 11 17 10 18 12 20 4 22 18 24
REMARK H PARENT 10 19 12 21 4 23 18 25
REMARK Flexibility Score: inf
ROOT
ATOM      1  C   UNL     1       2.156 -12.688  -9.369  1.00  0.00     0.180 A 
ATOM      2  C   UNL     1       2.554 -12.366  -8.055  1.00  0.00     0.208 A 
ATOM      3  C   UNL     1       2.704 -11.015  -7.704  1.00  0.00     0.235 A 
ATOM      4  O   UNL     1       3.070 -10.703  -6.538  1.00  0.00    -0.285 OA
ATOM      5  C   UNL     1       2.436 -10.021  -8.659  1.00  0.00     0.069 A 
ATOM      6  C   UNL     1       2.019 -10.424  -9.946  1.00  0.00     0.142 A 
ATOM      7  O   UNL     1       1.898 -11.714 -10.240  1.00  0.00    -0.452 OA
ATOM      8  C   UNL     1       1.733  -9.463 -10.921  1.00  0.00     0.094 A 
ATOM      9  C   UNL     1       1.861  -8.098 -10.627  1.00  0.00     0.119 A 
ATOM     10  C   UNL     1       2.276  -7.697  -9.353  1.00  0.00     0.047 A 
ATOM     11  C   UNL     1       2.563  -8.650  -8.370  1.00  0.00     0.020 A 
ENDROOT
BRANCH   1  12
ATOM     12  C   UNL     1       1.994 -14.089  -9.821  1.00  0.00     0.025 A 
ATOM     13  C   UNL     1       3.093 -14.851 -10.252  1.00  0.00     0.016 A 
ATOM     14  C   UNL     1       2.912 -16.164 -10.697  1.00  0.00     0.051 A 
ATOM     15  C   UNL     1       1.631 -16.727 -10.730  1.00  0.00     0.157 A 
ATOM     16  C   UNL     1       0.708 -14.652  -9.876  1.00  0.00     0.062 A 
ATOM     17  C   UNL     1       0.526 -15.969 -10.322  1.00  0.00     0.158 A 
BRANCH  15  18
ATOM     18  O   UNL     1       1.447 -18.036 -11.171  1.00  0.00    -0.504 OA
ATOM     19  H   UNL     1       1.478 -18.273 -12.156  1.00  0.00     0.293 HD
ENDBRANCH  15  18
BRANCH  17  20
ATOM     20  O   UNL     1      -0.749 -16.531 -10.363  1.00  0.00    -0.504 OA
ATOM     21  H   UNL     1      -0.894 -17.500 -10.621  1.00  0.00     0.293 HD
ENDBRANCH  17  20
ENDBRANCH   1  12
BRANCH   2  22
ATOM     22  O   UNL     1       2.765 -13.376  -7.112  1.00  0.00    -0.502 OA
ATOM     23  H   UNL     1       3.663 -13.831  -6.998  1.00  0.00     0.293 HD
ENDBRANCH   2  22
BRANCH   9  24
ATOM     24  O   UNL     1       1.579  -7.135 -11.592  1.00  0.00    -0.508 OA
ATOM     25  H   UNL     1       1.636  -6.144 -11.384  1.00  0.00     0.293 HD
ENDBRANCH   9  24
TORSDOF 5
ENDMDL
MODEL 6
REMARK VINA RESULT:    -4.874      1.949      6.940
REMARK INTER + INTRA:          -5.937
REMARK INTER:                  -5.621
REMARK INTRA:                  -0.315
REMARK UNBOUND:                -0.208
REMARK SMILES O=c1c(O)c(-c2ccc(O)c(O)c2)oc2cc(O)ccc12
REMARK SMILES IDX 5 1 3 2 2 3 1 4 21 5 15 6 14 7 16 8 17 9 19 10 20 11 6 12
REMARK SMILES IDX 7 13 8 14 9 15 13 16 11 17 10 18 12 20 4 22 18 24
REMARK H PARENT 10 19 12 21 4 23 18 25
REMARK Flexibility Score: inf
ROOT
ATOM      1  C   UNL     1      -1.290  -4.062 -13.879  1.00  0.00     0.180 A 
ATOM      2  C   UNL     1      -1.255  -5.201 -13.049  1.00  0.00     0.208 A 
ATOM      3  C   UNL     1      -2.336  -5.444 -12.188  1.00  0.00     0.235 A 
ATOM      4  O   UNL     1      -2.323  -6.451 -11.428  1.00  0.00    -0.285 OA
ATOM      5  C   UNL     1      -3.430  -4.565 -12.189  1.00  0.00     0.069 A 
ATOM      6  C   UNL     1      -3.399  -3.460 -13.067  1.00  0.00     0.142 A 
ATOM      7  O   UNL     1      -2.353  -3.260 -13.860  1.00  0.00    -0.452 OA
ATOM      8  C   UNL     1      -4.475  -2.565 -13.103  1.00  0.00     0.094 A 
ATOM      9  C   UNL     1      -5.584  -2.761 -12.269  1.00  0.00     0.119 A 
ATOM     10  C   UNL     1      -5.616  -3.853 -11.397  1.00  0.00     0.047 A 
ATOM     11  C   UNL     1      -4.546  -4.754 -11.354  1.00  0.00     0.020 A 
ENDROOT
BRANCH   1  12
ATOM     12  C   UNL     1      -0.180  -3.726 -14.801  1.00  0.00     0.025 A 
ATOM     13  C   UNL     1      -0.168  -4.184 -16.130  1.00  0.00     0.016 A 
ATOM     14  C   UNL     1       0.902  -3.875 -16.975  1.00  0.00     0.051 A 
ATOM     15  C   UNL     1       1.979  -3.115 -16.500  1.00  0.00     0.157 A 
ATOM     16  C   UNL     1       0.913  -2.983 -14.325  1.00  0.00     0.062 A 
ATOM     17  C   UNL     1       1.986  -2.672 -15.172  1.00  0.00     0.158 A 
BRANCH  15  18
ATOM     18  O   UNL     1       3.047  -2.803 -17.340  1.00  0.00    -0.504 OA
ATOM     19  H   UNL     1       3.070  -1.939 -17.869  1.00  0.00     0.293 HD
ENDBRANCH  15  18
BRANCH  17  20
ATOM     20  O   UNL     1       3.063  -1.922 -14.700  1.00  0.00    -0.504 OA
ATOM     21  H   UNL     1       3.820  -2.352 -14.181  1.00  0.00     0.293 HD
ENDBRANCH  17  20
ENDBRANCH   1  12
BRANCH   2  22
ATOM     22  O   UNL     1      -0.175  -6.086 -13.107  1.00  0.00    -0.502 OA
ATOM     23  H   UNL     1      -0.260  -7.062 -12.846  1.00  0.00     0.293 HD
ENDBRANCH   2  22
BRANCH   9  24
ATOM     24  O   UNL     1      -6.659  -1.875 -12.299  1.00  0.00    -0.508 OA
ATOM     25  H   UNL     1      -6.521  -0.879 -12.427  1.00  0.00     0.293 HD
ENDBRANCH   9  24
TORSDOF 5
ENDMDL
MODEL 7
REMARK VINA RESULT:    -4.646      2.735      5.182
REMARK INTER + INTRA:          -5.669
REMARK INTER:                  -5.464
REMARK INTRA:                  -0.205
REMARK UNBOUND:                -0.208
REMARK SMILES O=c1c(O)c(-c2ccc(O)c(O)c2)oc2cc(O)ccc12
REMARK SMILES IDX 5 1 3 2 2 3 1 4 21 5 15 6 14 7 16 8 17 9 19 10 20 11 6 12
REMARK SMILES IDX 7 13 8 14 9 15 13 16 11 17 10 18 12 20 4 22 18 24
REMARK H PARENT 10 19 12 21 4 23 18 25
REMARK Flexibility Score: inf
ROOT
ATOM      1  C   UNL     1      -1.366  -2.938 -13.612  1.00  0.00     0.180 A 
ATOM      2  C   UNL     1      -2.460  -2.648 -12.770  1.00  0.00     0.208 A 
ATOM      3  C   UNL     1      -2.212  -2.315 -11.429  1.00  0.00     0.235 A 
ATOM      4  O   UNL     1      -3.175  -2.062 -10.654  1.00  0.00    -0.285 OA
ATOM      5  C   UNL     1      -0.888  -2.258 -10.966  1.00  0.00     0.069 A 
ATOM      6  C   UNL     1       0.152  -2.538 -11.877  1.00  0.00     0.142 A 
ATOM      7  O   UNL     1      -0.125  -2.858 -13.136  1.00  0.00    -0.452 OA
ATOM      8  C   UNL     1       1.485  -2.483 -11.455  1.00  0.00     0.094 A 
ATOM      9  C   UNL     1       1.793  -2.151 -10.129  1.00  0.00     0.119 A 
ATOM     10  C   UNL     1       0.763  -1.875  -9.224  1.00  0.00     0.047 A 
ATOM     11  C   UNL     1      -0.572  -1.927  -9.636  1.00  0.00     0.020 A 
ENDROOT
BRANCH   1  12
ATOM     12  C   UNL     1      -1.546  -3.315 -15.033  1.00  0.00     0.025 A 
ATOM     13  C   UNL     1      -2.003  -2.388 -15.985  1.00  0.00     0.016 A 
ATOM     14  C   UNL     1      -2.188  -2.774 -17.315  1.00  0.00     0.051 A 
ATOM     15  C   UNL     1      -1.931  -4.092 -17.710  1.00  0.00     0.157 A 
ATOM     16  C   UNL     1      -1.310  -4.642 -15.430  1.00  0.00     0.062 A 
ATOM     17  C   UNL     1      -1.495  -5.029 -16.765  1.00  0.00     0.158 A 
BRANCH  15  18
ATOM     18  O   UNL     1      -2.112  -4.480 -19.036  1.00  0.00    -0.504 OA
ATOM     19  H   UNL     1      -2.958  -4.950 -19.340  1.00  0.00     0.293 HD
ENDBRANCH  15  18
BRANCH  17  20
ATOM     20  O   UNL     1      -1.247  -6.343 -17.159  1.00  0.00    -0.504 OA
ATOM     21  H   UNL     1      -1.857  -7.104 -16.883  1.00  0.00     0.293 HD
ENDBRANCH  17  20
ENDBRANCH   1  12
BRANCH   2  22
ATOM     22  O   UNL     1      -3.763  -2.663 -13.272  1.00  0.00    -0.502 OA
ATOM     23  H   UNL     1      -3.971  -2.474 -14.246  1.00  0.00     0.293 HD
ENDBRANCH   2  22
BRANCH   9  24
ATOM     24  O   UNL     1       3.117  -2.094  -9.701  1.00  0.00    -0.508 OA
ATOM     25  H   UNL     1       3.358  -2.135  -8.716  1.00  0.00     0.293 HD
ENDBRANCH   9  24
TORSDOF 5
ENDMDL
MODEL 8
REMARK VINA RESULT:    -4.641      8.161     10.389
REMARK INTER + INTRA:          -5.662
REMARK INTER:                  -5.364
REMARK INTRA:                  -0.298
REMARK UNBOUND:                -0.208
REMARK SMILES O=c1c(O)c(-c2ccc(O)c(O)c2)oc2cc(O)ccc12
REMARK SMILES IDX 5 1 3 2 2 3 1 4 21 5 15 6 14 7 16 8 17 9 19 10 20 11 6 12
REMARK SMILES IDX 7 13 8 14 9 15 13 16 11 17 10 18 12 20 4 22 18 24
REMARK H PARENT 10 19 12 21 4 23 18 25
REMARK Flexibility Score: inf
ROOT
ATOM      1  C   UNL     1       1.602 -10.595  -9.761  1.00  0.00     0.180 A 
ATOM      2  C   UNL     1       2.223 -11.583 -10.553  1.00  0.00     0.208 A 
ATOM      3  C   UNL     1       1.914 -12.931 -10.318  1.00  0.00     0.235 A 
ATOM      4  O   UNL     1       2.464 -13.834 -11.006  1.00  0.00    -0.285 OA
ATOM      5  C   UNL     1       0.983 -13.262  -9.320  1.00  0.00     0.069 A 
ATOM      6  C   UNL     1       0.388 -12.213  -8.586  1.00  0.00     0.142 A 
ATOM      7  O   UNL     1       0.715 -10.950  -8.834  1.00  0.00    -0.452 OA
ATOM      8  C   UNL     1      -0.551 -12.501  -7.589  1.00  0.00     0.094 A 
ATOM      9  C   UNL     1      -0.902 -13.830  -7.314  1.00  0.00     0.119 A 
ATOM     10  C   UNL     1      -0.312 -14.870  -8.038  1.00  0.00     0.047 A 
ATOM     11  C   UNL     1       0.627 -14.593  -9.037  1.00  0.00     0.020 A 
ENDROOT
BRANCH   1  12
ATOM     12  C   UNL     1       1.890  -9.152  -9.935  1.00  0.00     0.025 A 
ATOM     13  C   UNL     1       2.792  -8.478  -9.093  1.00  0.00     0.016 A 
ATOM     14  C   UNL     1       3.029  -7.111  -9.261  1.00  0.00     0.051 A 
ATOM     15  C   UNL     1       2.360  -6.397 -10.263  1.00  0.00     0.157 A 
ATOM     16  C   UNL     1       1.206  -8.426 -10.924  1.00  0.00     0.062 A 
ATOM     17  C   UNL     1       1.444  -7.054 -11.094  1.00  0.00     0.158 A 
BRANCH  15  18
ATOM     18  O   UNL     1       2.595  -5.034 -10.435  1.00  0.00    -0.504 OA
ATOM     19  H   UNL     1       2.287  -4.544 -11.266  1.00  0.00     0.293 HD
ENDBRANCH  15  18
BRANCH  17  20
ATOM     20  O   UNL     1       0.775  -6.339 -12.085  1.00  0.00    -0.504 OA
ATOM     21  H   UNL     1      -0.181  -6.557 -12.343  1.00  0.00     0.293 HD
ENDBRANCH  17  20
ENDBRANCH   1  12
BRANCH   2  22
ATOM     22  O   UNL     1       3.106 -11.221 -11.573  1.00  0.00    -0.502 OA
ATOM     23  H   UNL     1       4.104 -11.383 -11.508  1.00  0.00     0.293 HD
ENDBRANCH   2  22
BRANCH   9  24
ATOM     24  O   UNL     1      -1.835 -14.126  -6.323  1.00  0.00    -0.508 OA
ATOM     25  H   UNL     1      -2.548 -13.459  -6.050  1.00  0.00     0.293 HD
ENDBRANCH   9  24
TORSDOF 5
ENDMDL
