MODEL 1
REMARK VINA RESULT:    -7.304      0.000      0.000
REMARK INTER + INTRA:          -7.304
REMARK INTER:                  -7.304
REMARK INTRA:                   0.000
REMARK UNBOUND:                 0.000
REMARK SMILES C=C1CCC[C@]2(C)CC(=O)C(=C(C)C)C[C@@H]12
REMARK SMILES IDX 13 1 12 2 11 3 15 4 16 5 2 6 1 7 3 8 4 9 5 10 6 11 8 12 9 13
REMARK SMILES IDX 10 14 7 15 14 16
REMARK H PARENT
REMARK Flexibility Score: inf
ROOT
ATOM      1  C   UNL     1     -10.663  -9.443  13.997  1.00  0.00     0.039 C 
ATOM      2  C   UNL     1     -10.274  -7.995  14.190  1.00  0.00    -0.070 C 
ATOM      3  C   UNL     1      -9.183  -7.464  13.563  1.00  0.00    -0.006 C 
ATOM      4  C   UNL     1      -8.301  -8.316  12.660  1.00  0.00     0.047 C 
ATOM      5  C   UNL     1      -6.823  -7.849  12.653  1.00  0.00     0.025 C 
ATOM      6  C   UNL     1      -5.897  -8.644  11.732  1.00  0.00    -0.073 C 
ATOM      7  C   UNL     1      -6.299  -9.672  10.960  1.00  0.00     0.008 C 
ATOM      8  C   UNL     1      -4.439  -8.249  11.749  1.00  0.00     0.031 C 
ATOM      9  C   UNL     1      -4.290  -6.747  11.492  1.00  0.00     0.005 C 
ATOM     10  C   UNL     1      -5.179  -5.919  12.436  1.00  0.00     0.008 C 
ATOM     11  C   UNL     1      -6.684  -6.321  12.368  1.00  0.00    -0.018 C 
ATOM     12  C   UNL     1      -7.442  -5.542  13.471  1.00  0.00     0.088 C 
ATOM     13  C   UNL     1      -8.861  -6.008  13.620  1.00  0.00     0.159 C 
ATOM     14  O   UNL     1      -9.765  -5.144  13.780  1.00  0.00    -0.295 OA
ATOM     15  C   UNL     1      -7.263  -5.936  10.978  1.00  0.00     0.012 C 
ATOM     16  C   UNL     1     -11.125  -7.179  15.136  1.00  0.00     0.039 C 
ENDROOT
TORSDOF 0
ENDMDL
MODEL 2
REMARK VINA RESULT:    -6.199      2.195      4.929
REMARK INTER + INTRA:          -6.199
REMARK INTER:                  -6.199
REMARK INTRA:                   0.000
REMARK UNBOUND:                 0.000
REMARK SMILES C=C1CCC[C@]2(C)CC(=O)C(=C(C)C)C[C@@H]12
REMARK SMILES IDX 13 1 12 2 11 3 15 4 16 5 2 6 1 7 3 8 4 9 5 10 6 11 8 12 9 13
REMARK SMILES IDX 10 14 7 15 14 16
REMARK H PARENT
REMARK Flexibility Score: inf
ROOT
ATOM      1  C   UNL     1      -6.243  -2.852  13.648  1.00  0.00     0.039 C 
ATOM      2  C   UNL     1      -5.429  -3.856  12.862  1.00  0.00    -0.070 C 
ATOM      3  C   UNL     1      -5.882  -5.127  12.651  1.00  0.00    -0.006 C 
ATOM      4  C   UNL     1      -7.216  -5.592  13.219  1.00  0.00     0.047 C 
ATOM      5  C   UNL     1      -7.234  -7.107  13.546  1.00  0.00     0.025 C 
ATOM      6  C   UNL     1      -8.563  -7.639  14.082  1.00  0.00    -0.073 C 
ATOM      7  C   UNL     1      -9.663  -6.883  14.261  1.00  0.00     0.008 C 
ATOM      8  C   UNL     1      -8.591  -9.101  14.465  1.00  0.00     0.031 C 
ATOM      9  C   UNL     1      -8.097  -9.966  13.302  1.00  0.00     0.005 C 
ATOM     10  C   UNL     1      -6.738  -9.479  12.770  1.00  0.00     0.008 C 
ATOM     11  C   UNL     1      -6.750  -7.979  12.345  1.00  0.00    -0.018 C 
ATOM     12  C   UNL     1      -5.300  -7.568  11.989  1.00  0.00     0.088 C 
ATOM     13  C   UNL     1      -5.170  -6.090  11.761  1.00  0.00     0.159 C 
ATOM     14  O   UNL     1      -4.462  -5.689  10.799  1.00  0.00    -0.295 OA
ATOM     15  C   UNL     1      -7.656  -7.799  11.096  1.00  0.00     0.012 C 
ATOM     16  C   UNL     1      -4.080  -3.397  12.357  1.00  0.00     0.039 C 
ENDROOT
TORSDOF 0
ENDMDL
MODEL 3
REMARK VINA RESULT:    -6.123     10.243     11.581
REMARK INTER + INTRA:          -6.123
REMARK INTER:                  -6.123
REMARK INTRA:                   0.000
REMARK UNBOUND:                 0.000
REMARK SMILES C=C1CCC[C@]2(C)CC(=O)C(=C(C)C)C[C@@H]12
REMARK SMILES IDX 13 1 12 2 11 3 15 4 16 5 2 6 1 7 3 8 4 9 5 10 6 11 8 12 9 13
REMARK SMILES IDX 10 14 7 15 14 16
REMARK H PARENT
REMARK Flexibility Score: inf
ROOT
ATOM      1  C   UNL     1      -2.761  -8.250   2.589  1.00  0.00     0.039 C 
ATOM      2  C   UNL     1      -4.216  -7.890   2.791  1.00  0.00    -0.070 C 
ATOM      3  C   UNL     1      -4.662  -6.613   2.606  1.00  0.00    -0.006 C 
ATOM      4  C   UNL     1      -3.709  -5.494   2.210  1.00  0.00     0.047 C 
ATOM      5  C   UNL     1      -4.150  -4.110   2.750  1.00  0.00     0.025 C 
ATOM      6  C   UNL     1      -3.250  -2.940   2.349  1.00  0.00    -0.073 C 
ATOM      7  C   UNL     1      -2.154  -3.061   1.576  1.00  0.00     0.008 C 
ATOM      8  C   UNL     1      -3.624  -1.589   2.910  1.00  0.00     0.031 C 
ATOM      9  C   UNL     1      -5.089  -1.268   2.601  1.00  0.00     0.005 C 
ATOM     10  C   UNL     1      -6.023  -2.411   3.035  1.00  0.00     0.008 C 
ATOM     11  C   UNL     1      -5.638  -3.786   2.408  1.00  0.00    -0.018 C 
ATOM     12  C   UNL     1      -6.538  -4.874   3.044  1.00  0.00     0.088 C 
ATOM     13  C   UNL     1      -6.111  -6.260   2.657  1.00  0.00     0.159 C 
ATOM     14  O   UNL     1      -7.000  -7.105   2.366  1.00  0.00    -0.295 OA
ATOM     15  C   UNL     1      -5.885  -3.747   0.875  1.00  0.00     0.012 C 
ATOM     16  C   UNL     1      -5.138  -8.999   3.243  1.00  0.00     0.039 C 
ENDROOT
TORSDOF 0
ENDMDL
MODEL 4
REMARK VINA RESULT:    -6.098      1.791      3.209
REMARK INTER + INTRA:          -6.098
REMARK INTER:                  -6.098
REMARK INTRA:                   0.000
REMARK UNBOUND:                 0.000
REMARK SMILES C=C1CCC[C@]2(C)CC(=O)C(=C(C)C)C[C@@H]12
REMARK SMILES IDX 13 1 12 2 11 3 15 4 16 5 2 6 1 7 3 8 4 9 5 10 6 11 8 12 9 13
REMARK SMILES IDX 10 14 7 15 14 16
REMARK H PARENT
REMARK Flexibility Score: inf
ROOT
ATOM      1  C   UNL     1     -10.829  -7.391  15.101  1.00  0.00     0.039 C 
ATOM      2  C   UNL     1     -10.309  -8.277  13.991  1.00  0.00    -0.070 C 
ATOM      3  C   UNL     1      -9.179  -7.952  13.296  1.00  0.00    -0.006 C 
ATOM      4  C   UNL     1      -8.409  -6.673  13.596  1.00  0.00     0.047 C 
ATOM      5  C   UNL     1      -7.692  -6.099  12.348  1.00  0.00     0.025 C 
ATOM      6  C   UNL     1      -6.868  -4.835  12.599  1.00  0.00    -0.073 C 
ATOM      7  C   UNL     1      -6.742  -4.242  13.801  1.00  0.00     0.008 C 
ATOM      8  C   UNL     1      -6.206  -4.219  11.388  1.00  0.00     0.031 C 
ATOM      9  C   UNL     1      -5.369  -5.266  10.648  1.00  0.00     0.005 C 
ATOM     10  C   UNL     1      -6.186  -6.534  10.343  1.00  0.00     0.008 C 
ATOM     11  C   UNL     1      -6.824  -7.170  11.616  1.00  0.00    -0.018 C 
ATOM     12  C   UNL     1      -7.748  -8.328  11.164  1.00  0.00     0.088 C 
ATOM     13  C   UNL     1      -8.565  -8.875  12.297  1.00  0.00     0.159 C 
ATOM     14  O   UNL     1      -8.705 -10.125  12.390  1.00  0.00    -0.295 OA
ATOM     15  C   UNL     1      -5.705  -7.734  12.533  1.00  0.00     0.012 C 
ATOM     16  C   UNL     1     -11.119  -9.511  13.665  1.00  0.00     0.039 C 
ENDROOT
TORSDOF 0
ENDMDL
MODEL 5
REMARK VINA RESULT:    -5.945      9.631     10.290
REMARK INTER + INTRA:          -5.945
REMARK INTER:                  -5.945
REMARK INTRA:                   0.000
REMARK UNBOUND:                 0.000
REMARK SMILES C=C1CCC[C@]2(C)CC(=O)C(=C(C)C)C[C@@H]12
REMARK SMILES IDX 13 1 12 2 11 3 15 4 16 5 2 6 1 7 3 8 4 9 5 10 6 11 8 12 9 13
REMARK SMILES IDX 10 14 7 15 14 16
REMARK H PARENT
REMARK Flexibility Score: inf
ROOT
ATOM      1  C   UNL     1      -0.816  -6.702   4.641  1.00  0.00     0.039 C 
ATOM      2  C   UNL     1      -0.566  -5.573   5.615  1.00  0.00    -0.070 C 
ATOM      3  C   UNL     1       0.129  -5.776   6.773  1.00  0.00    -0.006 C 
ATOM      4  C   UNL     1       0.662  -7.154   7.140  1.00  0.00     0.047 C 
ATOM      5  C   UNL     1       0.726  -7.383   8.672  1.00  0.00     0.025 C 
ATOM      6  C   UNL     1       1.292  -8.737   9.102  1.00  0.00    -0.073 C 
ATOM      7  C   UNL     1       1.723  -9.682   8.245  1.00  0.00     0.008 C 
ATOM      8  C   UNL     1       1.312  -9.010  10.588  1.00  0.00     0.031 C 
ATOM      9  C   UNL     1       2.020  -7.873  11.330  1.00  0.00     0.005 C 
ATOM     10  C   UNL     1       1.440  -6.500  10.949  1.00  0.00     0.008 C 
ATOM     11  C   UNL     1       1.470  -6.228   9.414  1.00  0.00    -0.018 C 
ATOM     12  C   UNL     1       0.716  -4.902   9.145  1.00  0.00     0.088 C 
ATOM     13  C   UNL     1       0.513  -4.654   7.678  1.00  0.00     0.159 C 
ATOM     14  O   UNL     1       0.689  -3.487   7.235  1.00  0.00    -0.295 OA
ATOM     15  C   UNL     1       2.942  -6.087   8.938  1.00  0.00     0.012 C 
ATOM     16  C   UNL     1      -1.154  -4.225   5.264  1.00  0.00     0.039 C 
ENDROOT
TORSDOF 0
ENDMDL
MODEL 6
REMARK VINA RESULT:    -5.930      1.374      2.057
REMARK INTER + INTRA:          -5.930
REMARK INTER:                  -5.930
REMARK INTRA:                   0.000
REMARK UNBOUND:                 0.000
REMARK SMILES C=C1CCC[C@]2(C)CC(=O)C(=C(C)C)C[C@@H]12
REMARK SMILES IDX 13 1 12 2 11 3 15 4 16 5 2 6 1 7 3 8 4 9 5 10 6 11 8 12 9 13
REMARK SMILES IDX 10 14 7 15 14 16
REMARK H PARENT
REMARK Flexibility Score: inf
ROOT
ATOM      1  C   UNL     1      -8.128  -9.397  14.320  1.00  0.00     0.039 C 
ATOM      2  C   UNL     1      -8.655  -7.980  14.273  1.00  0.00    -0.070 C 
ATOM      3  C   UNL     1      -8.002  -7.004  13.577  1.00  0.00    -0.006 C 
ATOM      4  C   UNL     1      -6.704  -7.297  12.838  1.00  0.00     0.047 C 
ATOM      5  C   UNL     1      -5.763  -6.068  12.767  1.00  0.00     0.025 C 
ATOM      6  C   UNL     1      -4.459  -6.292  12.000  1.00  0.00    -0.073 C 
ATOM      7  C   UNL     1      -4.122  -7.453  11.407  1.00  0.00     0.008 C 
ATOM      8  C   UNL     1      -3.497  -5.128  11.966  1.00  0.00     0.031 C 
ATOM      9  C   UNL     1      -4.203  -3.865  11.465  1.00  0.00     0.005 C 
ATOM     10  C   UNL     1      -5.498  -3.590  12.249  1.00  0.00     0.008 C 
ATOM     11  C   UNL     1      -6.489  -4.793  12.233  1.00  0.00    -0.018 C 
ATOM     12  C   UNL     1      -7.666  -4.461  13.184  1.00  0.00     0.088 C 
ATOM     13  C   UNL     1      -8.573  -5.638  13.395  1.00  0.00     0.159 C 
ATOM     14  O   UNL     1      -9.819  -5.444  13.400  1.00  0.00    -0.295 OA
ATOM     15  C   UNL     1      -7.035  -4.999  10.793  1.00  0.00     0.012 C 
ATOM     16  C   UNL     1      -9.912  -7.692  15.062  1.00  0.00     0.039 C 
ENDROOT
TORSDOF 0
ENDMDL
MODEL 7
REMARK VINA RESULT:    -5.911      9.745     11.400
REMARK INTER + INTRA:          -5.911
REMARK INTER:                  -5.911
REMARK INTRA:                   0.000
REMARK UNBOUND:                 0.000
REMARK SMILES C=C1CCC[C@]2(C)CC(=O)C(=C(C)C)C[C@@H]12
REMARK SMILES IDX 13 1 12 2 11 3 15 4 16 5 2 6 1 7 3 8 4 9 5 10 6 11 8 12 9 13
REMARK SMILES IDX 10 14 7 15 14 16
REMARK H PARENT
REMARK Flexibility Score: inf
ROOT
ATOM      1  C   UNL     1      -2.511  -7.774  19.997  1.00  0.00     0.039 C 
ATOM      2  C   UNL     1      -1.031  -7.856  19.699  1.00  0.00    -0.070 C 
ATOM      3  C   UNL     1      -0.237  -6.746  19.738  1.00  0.00    -0.006 C 
ATOM      4  C   UNL     1      -0.815  -5.375  20.061  1.00  0.00     0.047 C 
ATOM      5  C   UNL     1      -0.046  -4.222  19.368  1.00  0.00     0.025 C 
ATOM      6  C   UNL     1      -0.557  -2.817  19.688  1.00  0.00    -0.073 C 
ATOM      7  C   UNL     1      -1.589  -2.559  20.515  1.00  0.00     0.008 C 
ATOM      8  C   UNL     1       0.137  -1.677  18.980  1.00  0.00     0.031 C 
ATOM      9  C   UNL     1       1.650  -1.757  19.195  1.00  0.00     0.005 C 
ATOM     10  C   UNL     1       2.201  -3.149  18.839  1.00  0.00     0.008 C 
ATOM     11  C   UNL     1       1.494  -4.303  19.614  1.00  0.00    -0.018 C 
ATOM     12  C   UNL     1       2.013  -5.649  19.052  1.00  0.00     0.088 C 
ATOM     13  C   UNL     1       1.246  -6.821  19.592  1.00  0.00     0.159 C 
ATOM     14  O   UNL     1       1.885  -7.855  19.928  1.00  0.00    -0.295 OA
ATOM     15  C   UNL     1       1.845  -4.207  21.124  1.00  0.00     0.012 C 
ATOM     16  C   UNL     1      -0.484  -9.215  19.321  1.00  0.00     0.039 C 
ENDROOT
TORSDOF 0
ENDMDL
MODEL 8
REMARK VINA RESULT:    -5.783     12.238     14.977
REMARK INTER + INTRA:          -5.783
REMARK INTER:                  -5.783
REMARK INTRA:                   0.000
REMARK UNBOUND:                 0.000
REMARK SMILES C=C1CCC[C@]2(C)CC(=O)C(=C(C)C)C[C@@H]12
REMARK SMILES IDX 13 1 12 2 11 3 15 4 16 5 2 6 1 7 3 8 4 9 5 10 6 11 8 12 9 13
REMARK SMILES IDX 10 14 7 15 14 16
REMARK H PARENT
REMARK Flexibility Score: inf
ROOT
ATOM      1  C   UNL     1       1.578   3.590   9.877  1.00  0.00     0.039 C 
ATOM      2  C   UNL     1       2.593   4.151  10.848  1.00  0.00    -0.070 C 
ATOM      3  C   UNL     1       2.884   3.510  12.017  1.00  0.00    -0.006 C 
ATOM      4  C   UNL     1       2.183   2.214  12.402  1.00  0.00     0.047 C 
ATOM      5  C   UNL     1       2.042   2.041  13.936  1.00  0.00     0.025 C 
ATOM      6  C   UNL     1       1.380   0.737  14.383  1.00  0.00    -0.073 C 
ATOM      7  C   UNL     1       0.948  -0.219  13.538  1.00  0.00     0.008 C 
ATOM      8  C   UNL     1       1.177   0.568  15.870  1.00  0.00     0.031 C 
ATOM      9  C   UNL     1       2.497   0.782  16.617  1.00  0.00     0.005 C 
ATOM     10  C   UNL     1       3.165   2.110  16.218  1.00  0.00     0.008 C 
ATOM     11  C   UNL     1       3.399   2.239  14.682  1.00  0.00    -0.018 C 
ATOM     12  C   UNL     1       3.916   3.670  14.393  1.00  0.00     0.088 C 
ATOM     13  C   UNL     1       3.981   3.962  12.922  1.00  0.00     0.159 C 
ATOM     14  O   UNL     1       4.984   4.581  12.475  1.00  0.00    -0.295 OA
ATOM     15  C   UNL     1       4.466   1.206  14.229  1.00  0.00     0.012 C 
ATOM     16  C   UNL     1       3.235   5.469  10.479  1.00  0.00     0.039 C 
ENDROOT
TORSDOF 0
ENDMDL
MODEL 9
REMARK VINA RESULT:    -5.718      2.737      5.507
REMARK INTER + INTRA:          -5.718
REMARK INTER:                  -5.718
REMARK INTRA:                   0.000
REMARK UNBOUND:                 0.000
REMARK SMILES C=C1CCC[C@]2(C)CC(=O)C(=C(C)C)C[C@@H]12
REMARK SMILES IDX 13 1 12 2 11 3 15 4 16 5 2 6 1 7 3 8 4 9 5 10 6 11 8 12 9 13
REMARK SMILES IDX 10 14 7 15 14 16
REMARK H PARENT
REMARK Flexibility Score: inf
ROOT
ATOM      1  C   UNL     1      -5.865  -1.156  14.066  1.00  0.00     0.039 C 
ATOM      2  C   UNL     1      -4.965  -2.127  13.334  1.00  0.00    -0.070 C 
ATOM      3  C   UNL     1      -5.423  -3.345  12.921  1.00  0.00    -0.006 C 
ATOM      4  C   UNL     1      -6.853  -3.785  13.200  1.00  0.00     0.047 C 
ATOM      5  C   UNL     1      -6.987  -5.320  13.363  1.00  0.00     0.025 C 
ATOM      6  C   UNL     1      -8.410  -5.825  13.606  1.00  0.00    -0.073 C 
ATOM      7  C   UNL     1      -9.494  -5.028  13.669  1.00  0.00     0.008 C 
ATOM      8  C   UNL     1      -8.562  -7.312  13.828  1.00  0.00     0.031 C 
ATOM      9  C   UNL     1      -7.904  -8.091  12.685  1.00  0.00     0.005 C 
ATOM     10  C   UNL     1      -6.455  -7.634  12.448  1.00  0.00     0.008 C 
ATOM     11  C   UNL     1      -6.333  -6.103  12.182  1.00  0.00    -0.018 C 
ATOM     12  C   UNL     1      -4.828  -5.742  12.124  1.00  0.00     0.088 C 
ATOM     13  C   UNL     1      -4.603  -4.259  12.074  1.00  0.00     0.159 C 
ATOM     14  O   UNL     1      -3.720  -3.810  11.293  1.00  0.00    -0.295 OA
ATOM     15  C   UNL     1      -6.996  -5.756  10.820  1.00  0.00     0.012 C 
ATOM     16  C   UNL     1      -3.531  -1.699  13.119  1.00  0.00     0.039 C 
ENDROOT
TORSDOF 0
ENDMDL
