MODEL 1
REMARK VINA RESULT:    -7.391      0.000      0.000
REMARK INTER + INTRA:          -9.060
REMARK INTER:                  -9.119
REMARK INTRA:                   0.059
REMARK UNBOUND:                 0.059
REMARK SMILES Oc1cc(O)c2cc(O)c(-c3cc(O)c(O)c(O)c3)[o+]c2c1
REMARK SMILES IDX 10 1 20 2 21 3 22 4 2 5 3 6 4 7 6 8 7 9 8 10 11 11 12 12
REMARK SMILES IDX 13 13 19 14 15 15 17 16 14 17 16 19 18 21 9 23 1 25 5 27
REMARK H PARENT 14 18 16 20 18 22 9 24 1 26 5 28
REMARK Flexibility Score: inf
ROOT
ATOM      1  C   UNL     1      15.426 -20.735  17.352  1.00  0.00     0.402 A 
ATOM      2  O   UNL     1      15.021 -19.496  17.087  1.00  0.00    -0.202 OA
ATOM      3  C   UNL     1      15.791 -18.588  16.494  1.00  0.00     0.368 A 
ATOM      4  C   UNL     1      15.277 -17.310  16.261  1.00  0.00     0.162 A 
ATOM      5  C   UNL     1      16.062 -16.337  15.643  1.00  0.00     0.128 A 
ATOM      6  C   UNL     1      17.372 -16.640  15.256  1.00  0.00     0.093 A 
ATOM      7  C   UNL     1      17.910 -17.914  15.479  1.00  0.00     0.136 A 
ATOM      8  C   UNL     1      17.113 -18.908  16.104  1.00  0.00     0.125 A 
ATOM      9  C   UNL     1      17.564 -20.214  16.356  1.00  0.00     0.078 A 
ATOM     10  C   UNL     1      16.718 -21.141  16.973  1.00  0.00     0.223 A 
ENDROOT
BRANCH   1  11
ATOM     11  C   UNL     1      14.479 -21.651  18.027  1.00  0.00     0.091 A 
ATOM     12  C   UNL     1      14.329 -22.963  17.550  1.00  0.00     0.068 A 
ATOM     13  C   UNL     1      13.426 -23.844  18.158  1.00  0.00     0.162 A 
ATOM     14  C   UNL     1      13.683 -21.220  19.102  1.00  0.00     0.068 A 
ATOM     15  C   UNL     1      12.650 -23.415  19.243  1.00  0.00     0.200 A 
ATOM     16  C   UNL     1      12.775 -22.097  19.714  1.00  0.00     0.162 A 
BRANCH  13  17
ATOM     17  O   UNL     1      13.292 -25.150  17.690  1.00  0.00    -0.504 OA
ATOM     18  H   UNL     1      12.839 -25.354  16.807  1.00  0.00     0.293 HD
ENDBRANCH  13  17
BRANCH  15  19
ATOM     19  O   UNL     1      11.757 -24.307  19.838  1.00  0.00    -0.502 OA
ATOM     20  H   UNL     1      12.057 -25.196  20.220  1.00  0.00     0.293 HD
ENDBRANCH  15  19
BRANCH  16  21
ATOM     21  O   UNL     1      11.995 -21.662  20.783  1.00  0.00    -0.504 OA
ATOM     22  H   UNL     1      11.928 -20.680  21.027  1.00  0.00     0.293 HD
ENDBRANCH  16  21
ENDBRANCH   1  11
BRANCH  10  23
ATOM     23  O   UNL     1      17.149 -22.452  17.178  1.00  0.00    -0.500 OA
ATOM     24  H   UNL     1      18.133 -22.690  17.212  1.00  0.00     0.294 HD
ENDBRANCH  10  23
BRANCH   5  25
ATOM     25  O   UNL     1      15.532 -15.067  15.419  1.00  0.00    -0.507 OA
ATOM     26  H   UNL     1      16.105 -14.234  15.489  1.00  0.00     0.293 HD
ENDBRANCH   5  25
BRANCH   7  27
ATOM     27  O   UNL     1      19.227 -18.138  15.066  1.00  0.00    -0.507 OA
ATOM     28  H   UNL     1      19.871 -17.409  14.793  1.00  0.00     0.293 HD
ENDBRANCH   7  27
TORSDOF 7
ENDMDL
MODEL 2
REMARK VINA RESULT:    -6.967      2.143      7.764
REMARK INTER + INTRA:          -8.537
REMARK INTER:                  -8.214
REMARK INTRA:                  -0.323
REMARK UNBOUND:                 0.059
REMARK SMILES Oc1cc(O)c2cc(O)c(-c3cc(O)c(O)c(O)c3)[o+]c2c1
REMARK SMILES IDX 10 1 20 2 21 3 22 4 2 5 3 6 4 7 6 8 7 9 8 10 11 11 12 12
REMARK SMILES IDX 13 13 19 14 15 15 17 16 14 17 16 19 18 21 9 23 1 25 5 27
REMARK H PARENT 14 18 16 20 18 22 9 24 1 26 5 28
REMARK Flexibility Score: inf
ROOT
ATOM      1  C   UNL     1      16.541 -17.673  16.738  1.00  0.00     0.402 A 
ATOM      2  O   UNL     1      16.561 -19.001  16.822  1.00  0.00    -0.202 OA
ATOM      3  C   UNL     1      15.535 -19.718  17.269  1.00  0.00     0.368 A 
ATOM      4  C   UNL     1      15.652 -21.109  17.325  1.00  0.00     0.162 A 
ATOM      5  C   UNL     1      14.592 -21.887  17.791  1.00  0.00     0.128 A 
ATOM      6  C   UNL     1      13.406 -21.273  18.208  1.00  0.00     0.093 A 
ATOM      7  C   UNL     1      13.265 -19.880  18.163  1.00  0.00     0.136 A 
ATOM      8  C   UNL     1      14.339 -19.085  17.685  1.00  0.00     0.125 A 
ATOM      9  C   UNL     1      14.282 -17.685  17.592  1.00  0.00     0.078 A 
ATOM     10  C   UNL     1      15.381 -16.970  17.107  1.00  0.00     0.223 A 
ENDROOT
BRANCH   1  11
ATOM     11  C   UNL     1      17.752 -16.986  16.233  1.00  0.00     0.091 A 
ATOM     12  C   UNL     1      18.112 -17.123  14.883  1.00  0.00     0.068 A 
ATOM     13  C   UNL     1      19.263 -16.500  14.385  1.00  0.00     0.162 A 
ATOM     14  C   UNL     1      18.583 -16.243  17.090  1.00  0.00     0.068 A 
ATOM     15  C   UNL     1      20.077 -15.744  15.239  1.00  0.00     0.200 A 
ATOM     16  C   UNL     1      19.738 -15.619  16.598  1.00  0.00     0.162 A 
BRANCH  13  17
ATOM     17  O   UNL     1      19.608 -16.627  13.040  1.00  0.00    -0.504 OA
ATOM     18  H   UNL     1      18.947 -16.420  12.301  1.00  0.00     0.293 HD
ENDBRANCH  13  17
BRANCH  15  19
ATOM     19  O   UNL     1      21.218 -15.128  14.726  1.00  0.00    -0.502 OA
ATOM     20  H   UNL     1      21.277 -14.821  13.762  1.00  0.00     0.293 HD
ENDBRANCH  15  19
BRANCH  16  21
ATOM     21  O   UNL     1      20.552 -14.879  17.453  1.00  0.00    -0.504 OA
ATOM     22  H   UNL     1      21.207 -15.328  18.083  1.00  0.00     0.293 HD
ENDBRANCH  16  21
ENDBRANCH   1  11
BRANCH  10  23
ATOM     23  O   UNL     1      15.306 -15.583  16.968  1.00  0.00    -0.500 OA
ATOM     24  H   UNL     1      14.564 -15.140  16.439  1.00  0.00     0.294 HD
ENDBRANCH  10  23
BRANCH   5  25
ATOM     25  O   UNL     1      14.728 -23.274  17.839  1.00  0.00    -0.507 OA
ATOM     26  H   UNL     1      13.923 -23.887  17.774  1.00  0.00     0.293 HD
ENDBRANCH   5  25
BRANCH   7  27
ATOM     27  O   UNL     1      12.050 -19.342  18.599  1.00  0.00    -0.507 OA
ATOM     28  H   UNL     1      11.177 -19.848  18.618  1.00  0.00     0.293 HD
ENDBRANCH   7  27
TORSDOF 7
ENDMDL
MODEL 3
REMARK VINA RESULT:    -6.936      1.602      2.078
REMARK INTER + INTRA:          -8.499
REMARK INTER:                  -8.523
REMARK INTRA:                   0.024
REMARK UNBOUND:                 0.059
REMARK SMILES Oc1cc(O)c2cc(O)c(-c3cc(O)c(O)c(O)c3)[o+]c2c1
REMARK SMILES IDX 10 1 20 2 21 3 22 4 2 5 3 6 4 7 6 8 7 9 8 10 11 11 12 12
REMARK SMILES IDX 13 13 19 14 15 15 17 16 14 17 16 19 18 21 9 23 1 25 5 27
REMARK H PARENT 14 18 16 20 18 22 9 24 1 26 5 28
REMARK Flexibility Score: inf
ROOT
ATOM      1  C   UNL     1      14.877 -20.253  17.575  1.00  0.00     0.402 A 
ATOM      2  O   UNL     1      14.978 -20.278  16.249  1.00  0.00    -0.202 OA
ATOM      3  C   UNL     1      15.626 -19.350  15.550  1.00  0.00     0.368 A 
ATOM      4  C   UNL     1      15.675 -19.460  14.158  1.00  0.00     0.162 A 
ATOM      5  C   UNL     1      16.345 -18.500  13.399  1.00  0.00     0.128 A 
ATOM      6  C   UNL     1      16.970 -17.421  14.034  1.00  0.00     0.093 A 
ATOM      7  C   UNL     1      16.934 -17.289  15.427  1.00  0.00     0.136 A 
ATOM      8  C   UNL     1      16.257 -18.264  16.203  1.00  0.00     0.125 A 
ATOM      9  C   UNL     1      16.180 -18.220  17.605  1.00  0.00     0.078 A 
ATOM     10  C   UNL     1      15.497 -19.222  18.302  1.00  0.00     0.223 A 
ENDROOT
BRANCH   1  11
ATOM     11  C   UNL     1      14.119 -21.339  18.239  1.00  0.00     0.091 A 
ATOM     12  C   UNL     1      14.216 -22.650  17.745  1.00  0.00     0.068 A 
ATOM     13  C   UNL     1      13.495 -23.692  18.342  1.00  0.00     0.162 A 
ATOM     14  C   UNL     1      13.260 -21.078  19.319  1.00  0.00     0.068 A 
ATOM     15  C   UNL     1      12.655 -23.429  19.432  1.00  0.00     0.200 A 
ATOM     16  C   UNL     1      12.534 -22.116  19.920  1.00  0.00     0.162 A 
BRANCH  13  17
ATOM     17  O   UNL     1      13.606 -24.994  17.857  1.00  0.00    -0.504 OA
ATOM     18  H   UNL     1      12.818 -25.474  17.440  1.00  0.00     0.293 HD
ENDBRANCH  13  17
BRANCH  15  19
ATOM     19  O   UNL     1      11.947 -24.479  20.016  1.00  0.00    -0.502 OA
ATOM     20  H   UNL     1      11.176 -24.321  20.655  1.00  0.00     0.293 HD
ENDBRANCH  15  19
BRANCH  16  21
ATOM     21  O   UNL     1      11.689 -21.848  20.996  1.00  0.00    -0.504 OA
ATOM     22  H   UNL     1      11.265 -22.593  21.537  1.00  0.00     0.293 HD
ENDBRANCH  16  21
ENDBRANCH   1  11
BRANCH  10  23
ATOM     23  O   UNL     1      15.465 -19.205  19.697  1.00  0.00    -0.500 OA
ATOM     24  H   UNL     1      15.097 -19.984  20.230  1.00  0.00     0.294 HD
ENDBRANCH  10  23
BRANCH   5  25
ATOM     25  O   UNL     1      16.383 -18.626  12.011  1.00  0.00    -0.507 OA
ATOM     26  H   UNL     1      16.407 -17.814  11.406  1.00  0.00     0.293 HD
ENDBRANCH   5  25
BRANCH   7  27
ATOM     27  O   UNL     1      17.580 -16.181  15.985  1.00  0.00    -0.507 OA
ATOM     28  H   UNL     1      17.126 -15.305  16.201  1.00  0.00     0.293 HD
ENDBRANCH   7  27
TORSDOF 7
ENDMDL
MODEL 4
REMARK VINA RESULT:    -6.520      2.367      3.679
REMARK INTER + INTRA:          -7.986
REMARK INTER:                  -7.601
REMARK INTRA:                  -0.385
REMARK UNBOUND:                 0.059
REMARK SMILES Oc1cc(O)c2cc(O)c(-c3cc(O)c(O)c(O)c3)[o+]c2c1
REMARK SMILES IDX 10 1 20 2 21 3 22 4 2 5 3 6 4 7 6 8 7 9 8 10 11 11 12 12
REMARK SMILES IDX 13 13 19 14 15 15 17 16 14 17 16 19 18 21 9 23 1 25 5 27
REMARK H PARENT 14 18 16 20 18 22 9 24 1 26 5 28
REMARK Flexibility Score: inf
ROOT
ATOM      1  C   UNL     1      16.341 -18.498  16.480  1.00  0.00     0.402 A 
ATOM      2  O   UNL     1      17.151 -17.876  17.333  1.00  0.00    -0.202 OA
ATOM      3  C   UNL     1      18.068 -16.991  16.953  1.00  0.00     0.368 A 
ATOM      4  C   UNL     1      18.876 -16.392  17.923  1.00  0.00     0.162 A 
ATOM      5  C   UNL     1      19.848 -15.462  17.554  1.00  0.00     0.128 A 
ATOM      6  C   UNL     1      20.017 -15.127  16.207  1.00  0.00     0.093 A 
ATOM      7  C   UNL     1      19.220 -15.714  15.216  1.00  0.00     0.136 A 
ATOM      8  C   UNL     1      18.228 -16.658  15.587  1.00  0.00     0.125 A 
ATOM      9  C   UNL     1      17.375 -17.286  14.665  1.00  0.00     0.078 A 
ATOM     10  C   UNL     1      16.417 -18.204  15.107  1.00  0.00     0.223 A 
ENDROOT
BRANCH   1  11
ATOM     11  C   UNL     1      15.367 -19.472  17.024  1.00  0.00     0.091 A 
ATOM     12  C   UNL     1      14.152 -19.010  17.554  1.00  0.00     0.068 A 
ATOM     13  C   UNL     1      13.222 -19.909  18.093  1.00  0.00     0.162 A 
ATOM     14  C   UNL     1      15.656 -20.846  17.074  1.00  0.00     0.068 A 
ATOM     15  C   UNL     1      13.507 -21.280  18.121  1.00  0.00     0.200 A 
ATOM     16  C   UNL     1      14.731 -21.751  17.614  1.00  0.00     0.162 A 
BRANCH  13  17
ATOM     17  O   UNL     1      12.010 -19.447  18.604  1.00  0.00    -0.504 OA
ATOM     18  H   UNL     1      11.316 -19.009  18.010  1.00  0.00     0.293 HD
ENDBRANCH  13  17
BRANCH  15  19
ATOM     19  O   UNL     1      12.568 -22.161  18.658  1.00  0.00    -0.502 OA
ATOM     20  H   UNL     1      12.767 -23.146  18.792  1.00  0.00     0.293 HD
ENDBRANCH  15  19
BRANCH  16  21
ATOM     21  O   UNL     1      15.024 -23.112  17.652  1.00  0.00    -0.504 OA
ATOM     22  H   UNL     1      14.636 -23.759  16.974  1.00  0.00     0.293 HD
ENDBRANCH  16  21
ENDBRANCH   1  11
BRANCH  10  23
ATOM     23  O   UNL     1      15.537 -18.790  14.196  1.00  0.00    -0.500 OA
ATOM     24  H   UNL     1      15.513 -19.792  14.049  1.00  0.00     0.294 HD
ENDBRANCH  10  23
BRANCH   5  25
ATOM     25  O   UNL     1      20.644 -14.875  18.537  1.00  0.00    -0.507 OA
ATOM     26  H   UNL     1      20.777 -15.312  19.442  1.00  0.00     0.293 HD
ENDBRANCH   5  25
BRANCH   7  27
ATOM     27  O   UNL     1      19.452 -15.329  13.892  1.00  0.00    -0.507 OA
ATOM     28  H   UNL     1      19.724 -15.961  13.153  1.00  0.00     0.293 HD
ENDBRANCH   7  27
TORSDOF 7
ENDMDL
MODEL 5
REMARK VINA RESULT:    -6.467      1.413      7.035
REMARK INTER + INTRA:          -7.920
REMARK INTER:                  -7.574
REMARK INTRA:                  -0.347
REMARK UNBOUND:                 0.059
REMARK SMILES Oc1cc(O)c2cc(O)c(-c3cc(O)c(O)c(O)c3)[o+]c2c1
REMARK SMILES IDX 10 1 20 2 21 3 22 4 2 5 3 6 4 7 6 8 7 9 8 10 11 11 12 12
REMARK SMILES IDX 13 13 19 14 15 15 17 16 14 17 16 19 18 21 9 23 1 25 5 27
REMARK H PARENT 14 18 16 20 18 22 9 24 1 26 5 28
REMARK Flexibility Score: inf
ROOT
ATOM      1  C   UNL     1      15.563 -20.348  17.255  1.00  0.00     0.402 A 
ATOM      2  O   UNL     1      14.596 -20.242  18.163  1.00  0.00    -0.202 OA
ATOM      3  C   UNL     1      13.962 -21.291  18.678  1.00  0.00     0.368 A 
ATOM      4  C   UNL     1      12.957 -21.078  19.625  1.00  0.00     0.162 A 
ATOM      5  C   UNL     1      12.272 -22.160  20.181  1.00  0.00     0.128 A 
ATOM      6  C   UNL     1      12.592 -23.464  19.788  1.00  0.00     0.093 A 
ATOM      7  C   UNL     1      13.595 -23.702  18.840  1.00  0.00     0.136 A 
ATOM      8  C   UNL     1      14.296 -22.606  18.275  1.00  0.00     0.125 A 
ATOM      9  C   UNL     1      15.324 -22.750  17.329  1.00  0.00     0.078 A 
ATOM     10  C   UNL     1      15.973 -21.621  16.820  1.00  0.00     0.223 A 
ENDROOT
BRANCH   1  11
ATOM     11  C   UNL     1      16.187 -19.104  16.749  1.00  0.00     0.091 A 
ATOM     12  C   UNL     1      17.064 -18.386  17.576  1.00  0.00     0.068 A 
ATOM     13  C   UNL     1      17.653 -17.196  17.129  1.00  0.00     0.162 A 
ATOM     14  C   UNL     1      15.876 -18.595  15.476  1.00  0.00     0.068 A 
ATOM     15  C   UNL     1      17.355 -16.704  15.851  1.00  0.00     0.200 A 
ATOM     16  C   UNL     1      16.460 -17.403  15.023  1.00  0.00     0.162 A 
BRANCH  13  17
ATOM     17  O   UNL     1      18.535 -16.495  17.949  1.00  0.00    -0.504 OA
ATOM     18  H   UNL     1      19.523 -16.715  17.976  1.00  0.00     0.293 HD
ENDBRANCH  13  17
BRANCH  15  19
ATOM     19  O   UNL     1      17.952 -15.519  15.421  1.00  0.00    -0.502 OA
ATOM     20  H   UNL     1      18.213 -15.366  14.454  1.00  0.00     0.293 HD
ENDBRANCH  15  19
BRANCH  16  21
ATOM     21  O   UNL     1      16.151 -16.909  13.758  1.00  0.00    -0.504 OA
ATOM     22  H   UNL     1      15.645 -16.039  13.635  1.00  0.00     0.293 HD
ENDBRANCH  16  21
ENDBRANCH   1  11
BRANCH  10  23
ATOM     23  O   UNL     1      17.027 -21.768  15.918  1.00  0.00    -0.500 OA
ATOM     24  H   UNL     1      17.064 -22.539  15.263  1.00  0.00     0.294 HD
ENDBRANCH  10  23
BRANCH   5  25
ATOM     25  O   UNL     1      11.272 -21.927  21.124  1.00  0.00    -0.507 OA
ATOM     26  H   UNL     1      11.450 -21.385  21.962  1.00  0.00     0.293 HD
ENDBRANCH   5  25
BRANCH   7  27
ATOM     27  O   UNL     1      13.854 -25.033  18.498  1.00  0.00    -0.507 OA
ATOM     28  H   UNL     1      14.646 -25.564  18.831  1.00  0.00     0.293 HD
ENDBRANCH   7  27
TORSDOF 7
ENDMDL
MODEL 6
REMARK VINA RESULT:    -6.443      1.686      7.425
REMARK INTER + INTRA:          -7.891
REMARK INTER:                  -7.614
REMARK INTRA:                  -0.277
REMARK UNBOUND:                 0.059
REMARK SMILES Oc1cc(O)c2cc(O)c(-c3cc(O)c(O)c(O)c3)[o+]c2c1
REMARK SMILES IDX 10 1 20 2 21 3 22 4 2 5 3 6 4 7 6 8 7 9 8 10 11 11 12 12
REMARK SMILES IDX 13 13 19 14 15 15 17 16 14 17 16 19 18 21 9 23 1 25 5 27
REMARK H PARENT 14 18 16 20 18 22 9 24 1 26 5 28
REMARK Flexibility Score: inf
ROOT
ATOM      1  C   UNL     1      14.828 -20.095  17.392  1.00  0.00     0.402 A 
ATOM      2  O   UNL     1      14.964 -21.415  17.480  1.00  0.00    -0.202 OA
ATOM      3  C   UNL     1      14.241 -22.170  18.302  1.00  0.00     0.368 A 
ATOM      4  C   UNL     1      14.459 -23.549  18.325  1.00  0.00     0.162 A 
ATOM      5  C   UNL     1      13.716 -24.366  19.179  1.00  0.00     0.128 A 
ATOM      6  C   UNL     1      12.749 -23.801  20.017  1.00  0.00     0.093 A 
ATOM      7  C   UNL     1      12.512 -22.421  20.012  1.00  0.00     0.136 A 
ATOM      8  C   UNL     1      13.263 -21.587  19.143  1.00  0.00     0.125 A 
ATOM      9  C   UNL     1      13.084 -20.197  19.061  1.00  0.00     0.078 A 
ATOM     10  C   UNL     1      13.860 -19.441  18.176  1.00  0.00     0.223 A 
ENDROOT
BRANCH   1  11
ATOM     11  C   UNL     1      15.701 -19.363  16.446  1.00  0.00     0.091 A 
ATOM     12  C   UNL     1      16.686 -18.495  16.946  1.00  0.00     0.068 A 
ATOM     13  C   UNL     1      17.512 -17.776  16.073  1.00  0.00     0.162 A 
ATOM     14  C   UNL     1      15.530 -19.474  15.056  1.00  0.00     0.068 A 
ATOM     15  C   UNL     1      17.350 -17.907  14.687  1.00  0.00     0.200 A 
ATOM     16  C   UNL     1      16.352 -18.755  14.176  1.00  0.00     0.162 A 
BRANCH  13  17
ATOM     17  O   UNL     1      18.497 -16.927  16.574  1.00  0.00    -0.504 OA
ATOM     18  H   UNL     1      18.322 -15.941  16.726  1.00  0.00     0.293 HD
ENDBRANCH  13  17
BRANCH  15  19
ATOM     19  O   UNL     1      18.183 -17.185  13.832  1.00  0.00    -0.502 OA
ATOM     20  H   UNL     1      18.006 -17.116  12.837  1.00  0.00     0.293 HD
ENDBRANCH  15  19
BRANCH  16  21
ATOM     21  O   UNL     1      16.179 -18.877  12.800  1.00  0.00    -0.504 OA
ATOM     22  H   UNL     1      15.458 -18.361  12.307  1.00  0.00     0.293 HD
ENDBRANCH  16  21
ENDBRANCH   1  11
BRANCH  10  23
ATOM     23  O   UNL     1      13.648 -18.067  18.058  1.00  0.00    -0.500 OA
ATOM     24  H   UNL     1      13.269 -17.657  17.213  1.00  0.00     0.294 HD
ENDBRANCH  10  23
BRANCH   5  25
ATOM     25  O   UNL     1      13.949 -25.740  19.188  1.00  0.00    -0.507 OA
ATOM     26  H   UNL     1      13.285 -26.392  18.786  1.00  0.00     0.293 HD
ENDBRANCH   5  25
BRANCH   7  27
ATOM     27  O   UNL     1      11.531 -21.933  20.880  1.00  0.00    -0.507 OA
ATOM     28  H   UNL     1      11.198 -22.424  21.698  1.00  0.00     0.293 HD
ENDBRANCH   7  27
TORSDOF 7
ENDMDL
MODEL 7
REMARK VINA RESULT:    -6.256      2.436      3.331
REMARK INTER + INTRA:          -7.659
REMARK INTER:                  -7.291
REMARK INTRA:                  -0.368
REMARK UNBOUND:                 0.059
REMARK SMILES Oc1cc(O)c2cc(O)c(-c3cc(O)c(O)c(O)c3)[o+]c2c1
REMARK SMILES IDX 10 1 20 2 21 3 22 4 2 5 3 6 4 7 6 8 7 9 8 10 11 11 12 12
REMARK SMILES IDX 13 13 19 14 15 15 17 16 14 17 16 19 18 21 9 23 1 25 5 27
REMARK H PARENT 14 18 16 20 18 22 9 24 1 26 5 28
REMARK Flexibility Score: inf
ROOT
ATOM      1  C   UNL     1      16.743 -18.330  17.448  1.00  0.00     0.402 A 
ATOM      2  O   UNL     1      17.073 -18.007  16.200  1.00  0.00    -0.202 OA
ATOM      3  C   UNL     1      18.030 -17.134  15.902  1.00  0.00     0.368 A 
ATOM      4  C   UNL     1      18.302 -16.857  14.560  1.00  0.00     0.162 A 
ATOM      5  C   UNL     1      19.300 -15.944  14.217  1.00  0.00     0.128 A 
ATOM      6  C   UNL     1      20.031 -15.300  15.221  1.00  0.00     0.093 A 
ATOM      7  C   UNL     1      19.777 -15.561  16.574  1.00  0.00     0.136 A 
ATOM      8  C   UNL     1      18.766 -16.492  16.927  1.00  0.00     0.125 A 
ATOM      9  C   UNL     1      18.452 -16.825  18.254  1.00  0.00     0.078 A 
ATOM     10  C   UNL     1      17.444 -17.755  18.524  1.00  0.00     0.223 A 
ENDROOT
BRANCH   1  11
ATOM     11  C   UNL     1      15.650 -19.308  17.652  1.00  0.00     0.091 A 
ATOM     12  C   UNL     1      15.901 -20.675  17.452  1.00  0.00     0.068 A 
ATOM     13  C   UNL     1      14.880 -21.619  17.619  1.00  0.00     0.162 A 
ATOM     14  C   UNL     1      14.350 -18.894  17.988  1.00  0.00     0.068 A 
ATOM     15  C   UNL     1      13.590 -21.202  17.974  1.00  0.00     0.200 A 
ATOM     16  C   UNL     1      13.323 -19.834  18.155  1.00  0.00     0.162 A 
BRANCH  13  17
ATOM     17  O   UNL     1      15.138 -22.976  17.434  1.00  0.00    -0.504 OA
ATOM     18  H   UNL     1      15.083 -23.636  18.200  1.00  0.00     0.293 HD
ENDBRANCH  13  17
BRANCH  15  19
ATOM     19  O   UNL     1      12.586 -22.156  18.139  1.00  0.00    -0.502 OA
ATOM     20  H   UNL     1      12.749 -23.031  18.623  1.00  0.00     0.293 HD
ENDBRANCH  15  19
BRANCH  16  21
ATOM     21  O   UNL     1      12.039 -19.414  18.494  1.00  0.00    -0.504 OA
ATOM     22  H   UNL     1      11.883 -18.633  19.122  1.00  0.00     0.293 HD
ENDBRANCH  16  21
ENDBRANCH   1  11
BRANCH  10  23
ATOM     23  O   UNL     1      17.166 -18.123  19.841  1.00  0.00    -0.500 OA
ATOM     24  H   UNL     1      17.359 -17.504  20.619  1.00  0.00     0.294 HD
ENDBRANCH  10  23
BRANCH   5  25
ATOM     25  O   UNL     1      19.556 -15.680  12.872  1.00  0.00    -0.507 OA
ATOM     26  H   UNL     1      18.877 -15.894  12.151  1.00  0.00     0.293 HD
ENDBRANCH   5  25
BRANCH   7  27
ATOM     27  O   UNL     1      20.549 -14.876  17.517  1.00  0.00    -0.507 OA
ATOM     28  H   UNL     1      21.544 -14.719  17.435  1.00  0.00     0.293 HD
ENDBRANCH   7  27
TORSDOF 7
ENDMDL
MODEL 8
REMARK VINA RESULT:    -6.155      3.293      5.251
REMARK INTER + INTRA:          -7.535
REMARK INTER:                  -7.172
REMARK INTRA:                  -0.363
REMARK UNBOUND:                 0.059
REMARK SMILES Oc1cc(O)c2cc(O)c(-c3cc(O)c(O)c(O)c3)[o+]c2c1
REMARK SMILES IDX 10 1 20 2 21 3 22 4 2 5 3 6 4 7 6 8 7 9 8 10 11 11 12 12
REMARK SMILES IDX 13 13 19 14 15 15 17 16 14 17 16 19 18 21 9 23 1 25 5 27
REMARK H PARENT 14 18 16 20 18 22 9 24 1 26 5 28
REMARK Flexibility Score: inf
ROOT
ATOM      1  C   UNL     1      16.158 -16.537  16.668  1.00  0.00     0.402 A 
ATOM      2  O   UNL     1      17.180 -16.274  17.478  1.00  0.00    -0.202 OA
ATOM      3  C   UNL     1      18.355 -15.825  17.046  1.00  0.00     0.368 A 
ATOM      4  C   UNL     1      19.371 -15.582  17.974  1.00  0.00     0.162 A 
ATOM      5  C   UNL     1      20.615 -15.113  17.550  1.00  0.00     0.128 A 
ATOM      6  C   UNL     1      20.847 -14.886  16.189  1.00  0.00     0.093 A 
ATOM      7  C   UNL     1      19.845 -15.123  15.240  1.00  0.00     0.136 A 
ATOM      8  C   UNL     1      18.578 -15.597  15.667  1.00  0.00     0.125 A 
ATOM      9  C   UNL     1      17.512 -15.850  14.790  1.00  0.00     0.078 A 
ATOM     10  C   UNL     1      16.289 -16.312  15.286  1.00  0.00     0.223 A 
ENDROOT
BRANCH   1  11
ATOM     11  C   UNL     1      14.902 -17.044  17.269  1.00  0.00     0.091 A 
ATOM     12  C   UNL     1      13.873 -16.141  17.581  1.00  0.00     0.068 A 
ATOM     13  C   UNL     1      12.683 -16.592  18.167  1.00  0.00     0.162 A 
ATOM     14  C   UNL     1      14.739 -18.403  17.585  1.00  0.00     0.068 A 
ATOM     15  C   UNL     1      12.518 -17.952  18.462  1.00  0.00     0.200 A 
ATOM     16  C   UNL     1      13.551 -18.860  18.174  1.00  0.00     0.162 A 
BRANCH  13  17
ATOM     17  O   UNL     1      11.659 -15.694  18.460  1.00  0.00    -0.504 OA
ATOM     18  H   UNL     1      11.848 -14.791  18.880  1.00  0.00     0.293 HD
ENDBRANCH  13  17
BRANCH  15  19
ATOM     19  O   UNL     1      11.326 -18.383  19.043  1.00  0.00    -0.502 OA
ATOM     20  H   UNL     1      10.958 -19.315  18.892  1.00  0.00     0.293 HD
ENDBRANCH  15  19
BRANCH  16  21
ATOM     21  O   UNL     1      13.396 -20.211  18.479  1.00  0.00    -0.504 OA
ATOM     22  H   UNL     1      13.803 -20.617  19.314  1.00  0.00     0.293 HD
ENDBRANCH  16  21
ENDBRANCH   1  11
BRANCH  10  23
ATOM     23  O   UNL     1      15.214 -16.515  14.420  1.00  0.00    -0.500 OA
ATOM     24  H   UNL     1      14.558 -15.774  14.202  1.00  0.00     0.294 HD
ENDBRANCH  10  23
BRANCH   5  25
ATOM     25  O   UNL     1      21.616 -14.876  18.491  1.00  0.00    -0.507 OA
ATOM     26  H   UNL     1      22.319 -14.160  18.347  1.00  0.00     0.293 HD
ENDBRANCH   5  25
BRANCH   7  27
ATOM     27  O   UNL     1      20.157 -14.875  13.900  1.00  0.00    -0.507 OA
ATOM     28  H   UNL     1      20.725 -14.104  13.580  1.00  0.00     0.293 HD
ENDBRANCH   7  27
TORSDOF 7
ENDMDL
MODEL 9
REMARK VINA RESULT:    -6.062      1.114      3.151
REMARK INTER + INTRA:          -7.421
REMARK INTER:                  -7.683
REMARK INTRA:                   0.262
REMARK UNBOUND:                 0.059
REMARK SMILES Oc1cc(O)c2cc(O)c(-c3cc(O)c(O)c(O)c3)[o+]c2c1
REMARK SMILES IDX 10 1 20 2 21 3 22 4 2 5 3 6 4 7 6 8 7 9 8 10 11 11 12 12
REMARK SMILES IDX 13 13 19 14 15 15 17 16 14 17 16 19 18 21 9 23 1 25 5 27
REMARK H PARENT 14 18 16 20 18 22 9 24 1 26 5 28
REMARK Flexibility Score: inf
ROOT
ATOM      1  C   UNL     1      14.615 -19.632  17.674  1.00  0.00     0.402 A 
ATOM      2  O   UNL     1      15.793 -19.707  17.060  1.00  0.00    -0.202 OA
ATOM      3  C   UNL     1      16.422 -18.650  16.557  1.00  0.00     0.368 A 
ATOM      4  C   UNL     1      17.655 -18.830  15.926  1.00  0.00     0.162 A 
ATOM      5  C   UNL     1      18.336 -17.738  15.386  1.00  0.00     0.128 A 
ATOM      6  C   UNL     1      17.782 -16.457  15.475  1.00  0.00     0.093 A 
ATOM      7  C   UNL     1      16.547 -16.251  16.102  1.00  0.00     0.136 A 
ATOM      8  C   UNL     1      15.852 -17.357  16.655  1.00  0.00     0.125 A 
ATOM      9  C   UNL     1      14.617 -17.244  17.313  1.00  0.00     0.078 A 
ATOM     10  C   UNL     1      13.994 -18.381  17.837  1.00  0.00     0.223 A 
ENDROOT
BRANCH   1  11
ATOM     11  C   UNL     1      14.011 -20.884  18.184  1.00  0.00     0.091 A 
ATOM     12  C   UNL     1      13.193 -20.842  19.324  1.00  0.00     0.068 A 
ATOM     13  C   UNL     1      12.624 -22.014  19.838  1.00  0.00     0.162 A 
ATOM     14  C   UNL     1      14.282 -22.125  17.583  1.00  0.00     0.068 A 
ATOM     15  C   UNL     1      12.882 -23.246  19.223  1.00  0.00     0.200 A 
ATOM     16  C   UNL     1      13.718 -23.303  18.094  1.00  0.00     0.162 A 
BRANCH  13  17
ATOM     17  O   UNL     1      11.801 -21.964  20.962  1.00  0.00    -0.504 OA
ATOM     18  H   UNL     1      12.037 -21.399  21.768  1.00  0.00     0.293 HD
ENDBRANCH  13  17
BRANCH  15  19
ATOM     19  O   UNL     1      12.305 -24.404  19.746  1.00  0.00    -0.502 OA
ATOM     20  H   UNL     1      12.000 -24.465  20.710  1.00  0.00     0.293 HD
ENDBRANCH  15  19
BRANCH  16  21
ATOM     21  O   UNL     1      13.988 -24.528  17.488  1.00  0.00    -0.504 OA
ATOM     22  H   UNL     1      14.928 -24.789  17.212  1.00  0.00     0.293 HD
ENDBRANCH  16  21
ENDBRANCH   1  11
BRANCH  10  23
ATOM     23  O   UNL     1      12.791 -18.261  18.534  1.00  0.00    -0.500 OA
ATOM     24  H   UNL     1      12.385 -17.357  18.743  1.00  0.00     0.294 HD
ENDBRANCH  10  23
BRANCH   5  25
ATOM     25  O   UNL     1      19.566 -17.938  14.760  1.00  0.00    -0.507 OA
ATOM     26  H   UNL     1      20.231 -17.182  14.646  1.00  0.00     0.293 HD
ENDBRANCH   5  25
BRANCH   7  27
ATOM     27  O   UNL     1      16.059 -14.941  16.148  1.00  0.00    -0.507 OA
ATOM     28  H   UNL     1      16.342 -14.205  15.517  1.00  0.00     0.293 HD
ENDBRANCH   7  27
TORSDOF 7
ENDMDL
