MODEL 1
REMARK VINA RESULT:    16.908      0.000      0.000
REMARK INTER + INTRA:          34.191
REMARK INTER:                  27.781
REMARK INTRA:                   6.410
REMARK UNBOUND:                 6.410
REMARK SMILES COc1ccc([C@@H]2CC(=O)c3c(O)cc(O[C@@H]4O[C@@H](CO[C@@H]5O[C@@H](C)[C@@H](O)[C@@H](O)[C@H]5O)[C@H](O)[C@H](O)[C@@H]4O)cc3O2)cc1O
REMARK SMILES IDX 19 1 32 2 34 3 36 4 17 5 18 6 20 7 21 8 22 9 25 10 24 11
REMARK SMILES IDX 26 12 23 13 28 14 30 15 27 16 29 18 31 20 33 22 35 24 16 26
REMARK SMILES IDX 15 27 14 28 38 29 12 30 39 31 11 32 40 33 9 34 7 35 10 36
REMARK SMILES IDX 8 37 13 38 6 40 41 41 5 42 42 43 4 44 3 45 43 46 2 48 1 49
REMARK SMILES IDX 37 50
REMARK H PARENT 27 17 29 19 31 21 33 23 35 25 13 39 43 47 37 51
REMARK Flexibility Score: inf
ROOT
ATOM      1  C   UNL     1      28.292  23.489  -4.687  1.00  0.00     0.180 C 
ATOM      2  C   UNL     1      26.736  23.477  -4.662  1.00  0.00     0.177 C 
ATOM      3  C   UNL     1      26.216  22.912  -3.326  1.00  0.00     0.180 C 
ATOM      4  C   UNL     1      26.901  21.570  -3.033  1.00  0.00     0.214 C 
ATOM      5  C   UNL     1      28.428  21.695  -3.158  1.00  0.00     0.339 C 
ATOM      6  O   UNL     1      28.807  22.191  -4.431  1.00  0.00    -0.332 OA
ENDROOT
BRANCH   1   7
ATOM      7  C   UNL     1      28.841  23.919  -6.059  1.00  0.00     0.198 C 
BRANCH   7   8
ATOM      8  O   UNL     1      27.873  23.750  -7.077  1.00  0.00    -0.347 OA
BRANCH   8   9
ATOM      9  C   UNL     1      28.467  23.781  -8.367  1.00  0.00     0.281 C 
ATOM     10  C   UNL     1      28.255  27.422  -8.917  1.00  0.00     0.041 C 
ATOM     11  C   UNL     1      27.746  25.993  -8.721  1.00  0.00     0.150 C 
ATOM     12  C   UNL     1      26.743  25.603  -9.833  1.00  0.00     0.174 C 
ATOM     13  O   UNL     1      28.855  25.107  -8.697  1.00  0.00    -0.344 OA
ATOM     14  C   UNL     1      26.306  24.137  -9.663  1.00  0.00     0.179 C 
ATOM     15  C   UNL     1      27.512  23.204  -9.446  1.00  0.00     0.202 C 
BRANCH  12  16
ATOM     16  O   UNL     1      27.255  25.837 -11.125  1.00  0.00    -0.388 OA
ATOM     17  H   UNL     1      28.046  26.432 -11.052  1.00  0.00     0.211 HD
ENDBRANCH  12  16
BRANCH  14  18
ATOM     18  O   UNL     1      25.559  23.729 -10.781  1.00  0.00    -0.387 OA
ATOM     19  H   UNL     1      24.649  24.109 -10.667  1.00  0.00     0.211 HD
ENDBRANCH  14  18
BRANCH  15  20
ATOM     20  O   UNL     1      28.203  23.018 -10.655  1.00  0.00    -0.385 OA
ATOM     21  H   UNL     1      27.980  22.107 -10.978  1.00  0.00     0.211 HD
ENDBRANCH  15  20
ENDBRANCH   8   9
ENDBRANCH   7   8
ENDBRANCH   1   7
BRANCH   2  22
ATOM     22  O   UNL     1      26.184  24.751  -4.895  1.00  0.00    -0.387 OA
ATOM     23  H   UNL     1      26.766  25.421  -4.454  1.00  0.00     0.211 HD
ENDBRANCH   2  22
BRANCH   3  24
ATOM     24  O   UNL     1      26.466  23.812  -2.273  1.00  0.00    -0.387 OA
ATOM     25  H   UNL     1      25.764  24.512  -2.315  1.00  0.00     0.211 HD
ENDBRANCH   3  24
BRANCH   5  26
ATOM     26  O   UNL     1      28.973  22.494  -2.101  1.00  0.00    -0.462 OA
BRANCH  26  27
ATOM     27  C   UNL     1      28.918  23.894  -2.052  1.00  0.00     0.130 A 
ATOM     28  C   UNL     1      29.000  24.695  -3.205  1.00  0.00     0.093 A 
ATOM     29  C   UNL     1      28.801  24.508  -0.804  1.00  0.00     0.094 A 
ATOM     30  C   UNL     1      28.968  26.092  -3.118  1.00  0.00     0.133 A 
ATOM     31  C   UNL     1      28.786  25.899  -0.695  1.00  0.00     0.138 A 
ATOM     32  C   UNL     1      28.813  26.713  -1.848  1.00  0.00     0.102 A 
ATOM     33  O   UNL     1      28.753  26.482   0.576  1.00  0.00    -0.484 OA
ATOM     34  C   UNL     1      28.601  28.179  -1.648  1.00  0.00     0.174 C 
ATOM     35  C   UNL     1      29.125  27.844   0.772  1.00  0.00     0.211 C 
ATOM     36  O   UNL     1      28.446  28.959  -2.624  1.00  0.00    -0.294 OA
ATOM     37  C   UNL     1      28.419  28.732  -0.261  1.00  0.00     0.131 C 
BRANCH  30  38
ATOM     38  O   UNL     1      29.121  26.803  -4.312  1.00  0.00    -0.507 OA
ATOM     39  H   UNL     1      28.433  27.438  -4.690  1.00  0.00     0.293 HD
ENDBRANCH  30  38
BRANCH  35  40
ATOM     40  C   UNL     1      28.800  28.278   2.181  1.00  0.00    -0.003 A 
ATOM     41  C   UNL     1      28.946  29.619   2.571  1.00  0.00     0.057 A 
ATOM     42  C   UNL     1      28.383  27.333   3.130  1.00  0.00     0.011 A 
ATOM     43  C   UNL     1      28.657  30.018   3.882  1.00  0.00     0.158 A 
ATOM     44  C   UNL     1      28.087  27.725   4.437  1.00  0.00     0.051 A 
ATOM     45  C   UNL     1      28.215  29.072   4.826  1.00  0.00     0.160 A 
BRANCH  43  46
ATOM     46  O   UNL     1      28.810  31.359   4.226  1.00  0.00    -0.504 OA
ATOM     47  H   UNL     1      29.722  31.790   4.322  1.00  0.00     0.293 HD
ENDBRANCH  43  46
BRANCH  45  48
ATOM     48  O   UNL     1      27.913  29.500   6.128  1.00  0.00    -0.493 OA
ATOM     49  C   UNL     1      28.813  29.435   7.228  1.00  0.00     0.278 C 
ENDBRANCH  45  48
ENDBRANCH  35  40
ENDBRANCH  26  27
ENDBRANCH   5  26
BRANCH   4  50
ATOM     50  O   UNL     1      26.567  21.114  -1.747  1.00  0.00    -0.384 OA
ATOM     51  H   UNL     1      26.882  20.172  -1.686  1.00  0.00     0.211 HD
ENDBRANCH   4  50
TORSDOF 15
ENDMDL
