MODEL 1
REMARK VINA RESULT:    -1.484      0.000      0.000
REMARK INTER + INTRA:          -2.808
REMARK INTER:                  -2.699
REMARK INTRA:                  -0.109
REMARK UNBOUND:                -0.109
REMARK SMILES CCCCCCCCCCCCCC[C@H](C)C(=O)[O-]
REMARK SMILES IDX 9 1 10 2 11 3 12 4 13 5 14 6 15 7 16 8 17 9 18 10 19 11 8 12
REMARK SMILES IDX 7 13 6 14 5 15 4 16 3 17 2 18 1 19
REMARK H PARENT
REMARK Flexibility Score: inf
ROOT
ATOM      1  C   UNL     1      31.911  22.190  28.343  1.00  0.00     0.000 C 
ENDROOT
BRANCH   1   2
ATOM      2  C   UNL     1      32.710  22.455  27.054  1.00  0.00     0.000 C 
BRANCH   2   3
ATOM      3  C   UNL     1      34.193  22.754  27.332  1.00  0.00     0.000 C 
BRANCH   3   4
ATOM      4  C   UNL     1      34.547  24.234  27.104  1.00  0.00     0.000 C 
BRANCH   4   5
ATOM      5  C   UNL     1      36.029  24.545  27.381  1.00  0.00     0.001 C 
BRANCH   5   6
ATOM      6  C   UNL     1      36.340  25.053  28.805  1.00  0.00     0.009 C 
BRANCH   6   7
ATOM      7  C   UNL     1      35.378  24.532  29.896  1.00  0.00     0.032 C 
ATOM      8  C   UNL     1      33.978  25.124  29.701  1.00  0.00     0.014 C 
BRANCH   7   9
ATOM      9  C   UNL     1      35.879  24.862  31.275  1.00  0.00     0.044 C 
ATOM     10  O   UNL     1      37.106  25.071  31.468  1.00  0.00    -0.550 OA
ATOM     11  O   UNL     1      34.995  24.938  32.345  1.00  0.00    -0.550 OA
ENDBRANCH   7   9
ENDBRANCH   6   7
ENDBRANCH   5   6
ENDBRANCH   4   5
ENDBRANCH   3   4
ENDBRANCH   2   3
ENDBRANCH   1   2
BRANCH   1  12
ATOM     12  C   UNL     1      31.372  23.481  28.979  1.00  0.00     0.000 C 
BRANCH  12  13
ATOM     13  C   UNL     1      30.112  24.010  28.275  1.00  0.00    -0.000 C 
BRANCH  13  14
ATOM     14  C   UNL     1      29.320  24.947  29.199  1.00  0.00    -0.000 C 
BRANCH  14  15
ATOM     15  C   UNL     1      29.974  25.124  30.582  1.00  0.00    -0.000 C 
BRANCH  15  16
ATOM     16  C   UNL     1      29.018  24.986  31.781  1.00  0.00    -0.000 C 
BRANCH  16  17
ATOM     17  C   UNL     1      29.754  24.911  33.129  1.00  0.00    -0.000 C 
BRANCH  17  18
ATOM     18  C   UNL     1      31.259  24.649  32.964  1.00  0.00    -0.003 C 
ATOM     19  C   UNL     1      32.058  24.958  34.230  1.00  0.00     0.004 C 
ENDBRANCH  17  18
ENDBRANCH  16  17
ENDBRANCH  15  16
ENDBRANCH  14  15
ENDBRANCH  13  14
ENDBRANCH  12  13
ENDBRANCH   1  12
TORSDOF 14
ENDMDL
MODEL 2
REMARK VINA RESULT:    -0.938      1.363      5.599
REMARK INTER + INTRA:          -1.816
REMARK INTER:                  -0.800
REMARK INTRA:                  -1.016
REMARK UNBOUND:                -0.109
REMARK SMILES CCCCCCCCCCCCCC[C@H](C)C(=O)[O-]
REMARK SMILES IDX 9 1 10 2 11 3 12 4 13 5 14 6 15 7 16 8 17 9 18 10 19 11 8 12
REMARK SMILES IDX 7 13 6 14 5 15 4 16 3 17 2 18 1 19
REMARK H PARENT
REMARK Flexibility Score: inf
ROOT
ATOM      1  C   UNL     1      30.916  23.164  28.759  1.00  0.00     0.000 C 
ENDROOT
BRANCH   1   2
ATOM      2  C   UNL     1      30.047  24.358  29.193  1.00  0.00     0.000 C 
BRANCH   2   3
ATOM      3  C   UNL     1      30.440  24.898  30.579  1.00  0.00     0.000 C 
BRANCH   3   4
ATOM      4  C   UNL     1      29.443  24.484  31.675  1.00  0.00     0.000 C 
BRANCH   4   5
ATOM      5  C   UNL     1      30.135  23.986  32.957  1.00  0.00     0.001 C 
BRANCH   5   6
ATOM      6  C   UNL     1      31.068  25.008  33.641  1.00  0.00     0.009 C 
BRANCH   6   7
ATOM      7  C   UNL     1      32.373  24.406  34.207  1.00  0.00     0.032 C 
ATOM      8  C   UNL     1      32.706  25.033  35.565  1.00  0.00     0.014 C 
BRANCH   7   9
ATOM      9  C   UNL     1      33.527  24.604  33.262  1.00  0.00     0.044 C 
ATOM     10  O   UNL     1      33.335  25.125  32.132  1.00  0.00    -0.550 OA
ATOM     11  O   UNL     1      34.810  24.214  33.627  1.00  0.00    -0.550 OA
ENDBRANCH   7   9
ENDBRANCH   6   7
ENDBRANCH   5   6
ENDBRANCH   4   5
ENDBRANCH   3   4
ENDBRANCH   2   3
ENDBRANCH   1   2
BRANCH   1  12
ATOM     12  C   UNL     1      31.473  23.327  27.335  1.00  0.00     0.000 C 
BRANCH  12  13
ATOM     13  C   UNL     1      31.913  24.767  27.030  1.00  0.00    -0.000 C 
BRANCH  13  14
ATOM     14  C   UNL     1      33.441  24.858  26.898  1.00  0.00    -0.000 C 
BRANCH  14  15
ATOM     15  C   UNL     1      34.136  23.486  26.990  1.00  0.00    -0.000 C 
BRANCH  15  16
ATOM     16  C   UNL     1      35.675  23.532  27.000  1.00  0.00    -0.000 C 
BRANCH  16  17
ATOM     17  C   UNL     1      36.294  22.630  28.081  1.00  0.00    -0.000 C 
BRANCH  17  18
ATOM     18  C   UNL     1      36.989  23.434  29.192  1.00  0.00    -0.003 C 
ATOM     19  C   UNL     1      36.270  24.743  29.517  1.00  0.00     0.004 C 
ENDBRANCH  17  18
ENDBRANCH  16  17
ENDBRANCH  15  16
ENDBRANCH  14  15
ENDBRANCH  13  14
ENDBRANCH  12  13
ENDBRANCH   1  12
TORSDOF 14
ENDMDL
