MODEL 1
REMARK VINA RESULT:    -4.064      0.000      0.000
REMARK INTER + INTRA:         -13.192
REMARK INTER:                  -9.291
REMARK INTRA:                  -3.901
REMARK UNBOUND:                -3.901
REMARK SMILES CCCCCCCCCCCCCCCCCCCCCCCC(=O)[O-]
REMARK SMILES IDX 13 1 14 2 15 3 16 4 17 5 18 6 19 7 20 8 21 9 22 10 23 11
REMARK SMILES IDX 24 12 25 13 26 14 12 15 11 16 10 17 9 18 8 19 7 20 6 21 5 22
REMARK SMILES IDX 4 23 3 24 2 25 1 26
REMARK H PARENT
REMARK Flexibility Score: inf
ROOT
ATOM      1  C   UNL     1      24.206  -4.219 -10.106  1.00  0.00     0.000 C 
ENDROOT
BRANCH   1   2
ATOM      2  C   UNL     1      24.424  -4.316  -8.589  1.00  0.00     0.000 C 
BRANCH   2   3
ATOM      3  C   UNL     1      24.922  -2.995  -7.979  1.00  0.00     0.000 C 
BRANCH   3   4
ATOM      4  C   UNL     1      24.477  -1.765  -8.790  1.00  0.00     0.000 C 
BRANCH   4   5
ATOM      5  C   UNL     1      25.605  -0.738  -8.975  1.00  0.00     0.000 C 
BRANCH   5   6
ATOM      6  C   UNL     1      26.969  -1.268  -8.499  1.00  0.00     0.000 C 
BRANCH   6   7
ATOM      7  C   UNL     1      27.606  -0.386  -7.410  1.00  0.00     0.000 C 
BRANCH   7   8
ATOM      8  C   UNL     1      28.608  -1.108  -6.486  1.00  0.00     0.000 C 
BRANCH   8   9
ATOM      9  C   UNL     1      29.852  -1.682  -7.191  1.00  0.00     0.000 C 
BRANCH   9  10
ATOM     10  C   UNL     1      30.009  -3.213  -7.093  1.00  0.00     0.006 C 
BRANCH  10  11
ATOM     11  C   UNL     1      29.300  -3.995  -8.210  1.00  0.00     0.053 C 
BRANCH  11  12
ATOM     12  C   UNL     1      28.186  -4.843  -7.678  1.00  0.00     0.041 C 
ATOM     13  O   UNL     1      27.735  -4.644  -6.518  1.00  0.00    -0.550 OA
ATOM     14  O   UNL     1      27.663  -5.871  -8.453  1.00  0.00    -0.550 OA
ENDBRANCH  11  12
ENDBRANCH  10  11
ENDBRANCH   9  10
ENDBRANCH   8   9
ENDBRANCH   7   8
ENDBRANCH   6   7
ENDBRANCH   5   6
ENDBRANCH   4   5
ENDBRANCH   3   4
ENDBRANCH   2   3
ENDBRANCH   1   2
BRANCH   1  15
ATOM     15  C   UNL     1      25.430  -4.744 -10.872  1.00  0.00     0.000 C 
BRANCH  15  16
ATOM     16  C   UNL     1      26.003  -3.719 -11.867  1.00  0.00     0.000 C 
BRANCH  16  17
ATOM     17  C   UNL     1      27.317  -3.048 -11.427  1.00  0.00     0.000 C 
BRANCH  17  18
ATOM     18  C   UNL     1      27.927  -2.152 -12.515  1.00  0.00    -0.000 C 
BRANCH  18  19
ATOM     19  C   UNL     1      27.485  -2.610 -13.912  1.00  0.00    -0.000 C 
BRANCH  19  20
ATOM     20  C   UNL     1      27.256  -1.435 -14.877  1.00  0.00    -0.000 C 
BRANCH  20  21
ATOM     21  C   UNL     1      25.966  -1.590 -15.700  1.00  0.00    -0.000 C 
BRANCH  21  22
ATOM     22  C   UNL     1      25.072  -0.337 -15.650  1.00  0.00    -0.000 C 
BRANCH  22  23
ATOM     23  C   UNL     1      25.684   0.875 -14.921  1.00  0.00    -0.000 C 
BRANCH  23  24
ATOM     24  C   UNL     1      24.941   1.315 -13.643  1.00  0.00    -0.000 C 
BRANCH  24  25
ATOM     25  C   UNL     1      25.099   0.363 -12.445  1.00  0.00    -0.003 C 
ATOM     26  C   UNL     1      23.962  -0.652 -12.337  1.00  0.00     0.004 C 
ENDBRANCH  24  25
ENDBRANCH  23  24
ENDBRANCH  22  23
ENDBRANCH  21  22
ENDBRANCH  20  21
ENDBRANCH  19  20
ENDBRANCH  18  19
ENDBRANCH  17  18
ENDBRANCH  16  17
ENDBRANCH  15  16
ENDBRANCH   1  15
TORSDOF 22
ENDMDL
MODEL 2
REMARK VINA RESULT:    -3.973      3.108      7.323
REMARK INTER + INTRA:         -12.983
REMARK INTER:                  -8.915
REMARK INTRA:                  -4.068
REMARK UNBOUND:                -3.901
REMARK SMILES CCCCCCCCCCCCCCCCCCCCCCCC(=O)[O-]
REMARK SMILES IDX 13 1 14 2 15 3 16 4 17 5 18 6 19 7 20 8 21 9 22 10 23 11
REMARK SMILES IDX 24 12 25 13 26 14 12 15 11 16 10 17 9 18 8 19 7 20 6 21 5 22
REMARK SMILES IDX 4 23 3 24 2 25 1 26
REMARK H PARENT
REMARK Flexibility Score: inf
ROOT
ATOM      1  C   UNL     1      24.661  -1.526  -8.739  1.00  0.00     0.000 C 
ENDROOT
BRANCH   1   2
ATOM      2  C   UNL     1      24.918  -2.762  -7.864  1.00  0.00     0.000 C 
BRANCH   2   3
ATOM      3  C   UNL     1      24.467  -4.067  -8.540  1.00  0.00     0.000 C 
BRANCH   3   4
ATOM      4  C   UNL     1      24.184  -3.888 -10.042  1.00  0.00     0.000 C 
BRANCH   4   5
ATOM      5  C   UNL     1      25.172  -4.663 -10.928  1.00  0.00     0.000 C 
BRANCH   5   6
ATOM      6  C   UNL     1      26.635  -4.265 -10.668  1.00  0.00     0.000 C 
BRANCH   6   7
ATOM      7  C   UNL     1      27.315  -3.647 -11.903  1.00  0.00     0.000 C 
BRANCH   7   8
ATOM      8  C   UNL     1      27.266  -2.107 -11.975  1.00  0.00     0.000 C 
BRANCH   8   9
ATOM      9  C   UNL     1      26.228  -1.531 -12.958  1.00  0.00     0.000 C 
BRANCH   9  10
ATOM     10  C   UNL     1      24.954  -0.962 -12.302  1.00  0.00     0.006 C 
BRANCH  10  11
ATOM     11  C   UNL     1      24.122  -0.051 -13.220  1.00  0.00     0.053 C 
BRANCH  11  12
ATOM     12  C   UNL     1      24.987   0.864 -14.031  1.00  0.00     0.041 C 
ATOM     13  O   UNL     1      25.510   1.880 -13.499  1.00  0.00    -0.550 OA
ATOM     14  O   UNL     1      25.195   0.611 -15.381  1.00  0.00    -0.550 OA
ENDBRANCH  11  12
ENDBRANCH  10  11
ENDBRANCH   9  10
ENDBRANCH   8   9
ENDBRANCH   7   8
ENDBRANCH   6   7
ENDBRANCH   5   6
ENDBRANCH   4   5
ENDBRANCH   3   4
ENDBRANCH   2   3
ENDBRANCH   1   2
BRANCH   1  15
ATOM     15  C   UNL     1      25.913  -0.640  -8.820  1.00  0.00     0.000 C 
BRANCH  15  16
ATOM     16  C   UNL     1      27.198  -1.374  -8.395  1.00  0.00     0.000 C 
BRANCH  16  17
ATOM     17  C   UNL     1      27.959  -0.730  -7.222  1.00  0.00     0.000 C 
BRANCH  17  18
ATOM     18  C   UNL     1      29.085  -1.620  -6.675  1.00  0.00    -0.000 C 
BRANCH  18  19
ATOM     19  C   UNL     1      29.084  -2.991  -7.369  1.00  0.00    -0.000 C 
BRANCH  19  20
ATOM     20  C   UNL     1      28.593  -4.120  -6.450  1.00  0.00    -0.000 C 
BRANCH  20  21
ATOM     21  C   UNL     1      27.745  -5.163  -7.199  1.00  0.00    -0.000 C 
BRANCH  21  22
ATOM     22  C   UNL     1      28.158  -6.611  -6.876  1.00  0.00    -0.000 C 
BRANCH  22  23
ATOM     23  C   UNL     1      27.054  -7.668  -7.073  1.00  0.00    -0.000 C 
BRANCH  23  24
ATOM     24  C   UNL     1      25.812  -7.181  -7.848  1.00  0.00    -0.000 C 
BRANCH  24  25
ATOM     25  C   UNL     1      25.452  -8.024  -9.084  1.00  0.00    -0.003 C 
ATOM     26  C   UNL     1      26.555  -8.029 -10.141  1.00  0.00     0.004 C 
ENDBRANCH  24  25
ENDBRANCH  23  24
ENDBRANCH  22  23
ENDBRANCH  21  22
ENDBRANCH  20  21
ENDBRANCH  19  20
ENDBRANCH  18  19
ENDBRANCH  17  18
ENDBRANCH  16  17
ENDBRANCH  15  16
ENDBRANCH   1  15
TORSDOF 22
ENDMDL
MODEL 3
REMARK VINA RESULT:    -3.958      1.624      6.009
REMARK INTER + INTRA:         -12.949
REMARK INTER:                  -8.289
REMARK INTRA:                  -4.661
REMARK UNBOUND:                -3.901
REMARK SMILES CCCCCCCCCCCCCCCCCCCCCCCC(=O)[O-]
REMARK SMILES IDX 13 1 14 2 15 3 16 4 17 5 18 6 19 7 20 8 21 9 22 10 23 11
REMARK SMILES IDX 24 12 25 13 26 14 12 15 11 16 10 17 9 18 8 19 7 20 6 21 5 22
REMARK SMILES IDX 4 23 3 24 2 25 1 26
REMARK H PARENT
REMARK Flexibility Score: inf
ROOT
ATOM      1  C   UNL     1      24.999   0.671 -13.332  1.00  0.00     0.000 C 
ENDROOT
BRANCH   1   2
ATOM      2  C   UNL     1      25.336   0.271 -14.776  1.00  0.00     0.000 C 
BRANCH   2   3
ATOM      3  C   UNL     1      26.005  -1.110 -14.865  1.00  0.00     0.000 C 
BRANCH   3   4
ATOM      4  C   UNL     1      27.447  -1.105 -14.325  1.00  0.00     0.000 C 
BRANCH   4   5
ATOM      5  C   UNL     1      27.689  -2.199 -13.273  1.00  0.00     0.000 C 
BRANCH   5   6
ATOM      6  C   UNL     1      26.792  -3.430 -13.486  1.00  0.00     0.000 C 
BRANCH   6   7
ATOM      7  C   UNL     1      26.457  -4.160 -12.172  1.00  0.00     0.000 C 
BRANCH   7   8
ATOM      8  C   UNL     1      27.164  -3.608 -10.918  1.00  0.00     0.000 C 
BRANCH   8   9
ATOM      9  C   UNL     1      27.996  -4.638 -10.129  1.00  0.00     0.000 C 
BRANCH   9  10
ATOM     10  C   UNL     1      28.539  -4.136  -8.775  1.00  0.00     0.006 C 
BRANCH  10  11
ATOM     11  C   UNL     1      28.564  -2.607  -8.630  1.00  0.00     0.053 C 
BRANCH  11  12
ATOM     12  C   UNL     1      28.519  -2.181  -7.195  1.00  0.00     0.041 C 
ATOM     13  O   UNL     1      28.639  -3.034  -6.276  1.00  0.00    -0.550 OA
ATOM     14  O   UNL     1      28.318  -0.845  -6.871  1.00  0.00    -0.550 OA
ENDBRANCH  11  12
ENDBRANCH  10  11
ENDBRANCH   9  10
ENDBRANCH   8   9
ENDBRANCH   7   8
ENDBRANCH   6   7
ENDBRANCH   5   6
ENDBRANCH   4   5
ENDBRANCH   3   4
ENDBRANCH   2   3
ENDBRANCH   1   2
BRANCH   1  15
ATOM     15  C   UNL     1      23.922  -0.253 -12.743  1.00  0.00     0.000 C 
BRANCH  15  16
ATOM     16  C   UNL     1      24.422  -1.068 -11.537  1.00  0.00     0.000 C 
BRANCH  16  17
ATOM     17  C   UNL     1      25.590  -0.433 -10.760  1.00  0.00     0.000 C 
BRANCH  17  18
ATOM     18  C   UNL     1      25.477  -0.627  -9.241  1.00  0.00    -0.000 C 
BRANCH  18  19
ATOM     19  C   UNL     1      24.454  -1.723  -8.905  1.00  0.00    -0.000 C 
BRANCH  19  20
ATOM     20  C   UNL     1      24.985  -2.734  -7.876  1.00  0.00    -0.000 C 
BRANCH  20  21
ATOM     21  C   UNL     1      24.770  -4.192  -8.318  1.00  0.00    -0.000 C 
BRANCH  21  22
ATOM     22  C   UNL     1      23.787  -4.320  -9.496  1.00  0.00    -0.000 C 
BRANCH  22  23
ATOM     23  C   UNL     1      23.254  -5.743  -9.754  1.00  0.00    -0.000 C 
BRANCH  23  24
ATOM     24  C   UNL     1      24.237  -6.883  -9.418  1.00  0.00    -0.000 C 
BRANCH  24  25
ATOM     25  C   UNL     1      25.206  -7.254 -10.555  1.00  0.00    -0.003 C 
ATOM     26  C   UNL     1      26.463  -7.965 -10.056  1.00  0.00     0.004 C 
ENDBRANCH  24  25
ENDBRANCH  23  24
ENDBRANCH  22  23
ENDBRANCH  21  22
ENDBRANCH  20  21
ENDBRANCH  19  20
ENDBRANCH  18  19
ENDBRANCH  17  18
ENDBRANCH  16  17
ENDBRANCH  15  16
ENDBRANCH   1  15
TORSDOF 22
ENDMDL
MODEL 4
REMARK VINA RESULT:    -3.950      2.777      6.638
REMARK INTER + INTRA:         -12.931
REMARK INTER:                  -8.322
REMARK INTRA:                  -4.608
REMARK UNBOUND:                -3.901
REMARK SMILES CCCCCCCCCCCCCCCCCCCCCCCC(=O)[O-]
REMARK SMILES IDX 13 1 14 2 15 3 16 4 17 5 18 6 19 7 20 8 21 9 22 10 23 11
REMARK SMILES IDX 24 12 25 13 26 14 12 15 11 16 10 17 9 18 8 19 7 20 6 21 5 22
REMARK SMILES IDX 4 23 3 24 2 25 1 26
REMARK H PARENT
REMARK Flexibility Score: inf
ROOT
ATOM      1  C   UNL     1      23.376  -5.123  -8.975  1.00  0.00     0.000 C 
ENDROOT
BRANCH   1   2
ATOM      2  C   UNL     1      23.374  -6.451  -9.747  1.00  0.00     0.000 C 
BRANCH   2   3
ATOM      3  C   UNL     1      24.710  -7.203  -9.630  1.00  0.00     0.000 C 
BRANCH   3   4
ATOM      4  C   UNL     1      25.285  -7.604 -11.001  1.00  0.00     0.000 C 
BRANCH   4   5
ATOM      5  C   UNL     1      26.398  -6.657 -11.476  1.00  0.00     0.000 C 
BRANCH   5   6
ATOM      6  C   UNL     1      27.276  -6.152 -10.319  1.00  0.00     0.000 C 
BRANCH   6   7
ATOM      7  C   UNL     1      27.541  -4.636 -10.386  1.00  0.00     0.000 C 
BRANCH   7   8
ATOM      8  C   UNL     1      27.178  -3.967 -11.727  1.00  0.00     0.000 C 
BRANCH   8   9
ATOM      9  C   UNL     1      27.710  -2.532 -11.908  1.00  0.00     0.000 C 
BRANCH   9  10
ATOM     10  C   UNL     1      26.905  -1.658 -12.891  1.00  0.00     0.006 C 
BRANCH  10  11
ATOM     11  C   UNL     1      25.381  -1.770 -12.736  1.00  0.00     0.053 C 
BRANCH  11  12
ATOM     12  C   UNL     1      24.676  -0.551 -13.247  1.00  0.00     0.041 C 
ATOM     13  O   UNL     1      24.888  -0.140 -14.419  1.00  0.00    -0.550 OA
ATOM     14  O   UNL     1      23.805   0.147 -12.420  1.00  0.00    -0.550 OA
ENDBRANCH  11  12
ENDBRANCH  10  11
ENDBRANCH   9  10
ENDBRANCH   8   9
ENDBRANCH   7   8
ENDBRANCH   6   7
ENDBRANCH   5   6
ENDBRANCH   4   5
ENDBRANCH   3   4
ENDBRANCH   2   3
ENDBRANCH   1   2
BRANCH   1  15
ATOM     15  C   UNL     1      23.961  -3.990  -9.832  1.00  0.00     0.000 C 
BRANCH  15  16
ATOM     16  C   UNL     1      24.698  -2.925  -8.999  1.00  0.00     0.000 C 
BRANCH  16  17
ATOM     17  C   UNL     1      24.322  -1.468  -9.324  1.00  0.00     0.000 C 
BRANCH  17  18
ATOM     18  C   UNL     1      25.508  -0.500  -9.204  1.00  0.00    -0.000 C 
BRANCH  18  19
ATOM     19  C   UNL     1      26.745  -1.219  -8.645  1.00  0.00    -0.000 C 
BRANCH  19  20
ATOM     20  C   UNL     1      27.423  -0.437  -7.509  1.00  0.00    -0.000 C 
BRANCH  20  21
ATOM     21  C   UNL     1      28.850  -0.934  -7.219  1.00  0.00    -0.000 C 
BRANCH  21  22
ATOM     22  C   UNL     1      29.167  -2.272  -7.911  1.00  0.00    -0.000 C 
BRANCH  22  23
ATOM     23  C   UNL     1      29.702  -3.380  -6.983  1.00  0.00    -0.000 C 
BRANCH  23  24
ATOM     24  C   UNL     1      28.785  -4.611  -6.833  1.00  0.00    -0.000 C 
BRANCH  24  25
ATOM     25  C   UNL     1      27.282  -4.288  -6.746  1.00  0.00    -0.003 C 
ATOM     26  C   UNL     1      26.400  -5.530  -6.854  1.00  0.00     0.004 C 
ENDBRANCH  24  25
ENDBRANCH  23  24
ENDBRANCH  22  23
ENDBRANCH  21  22
ENDBRANCH  20  21
ENDBRANCH  19  20
ENDBRANCH  18  19
ENDBRANCH  17  18
ENDBRANCH  16  17
ENDBRANCH  15  16
ENDBRANCH   1  15
TORSDOF 22
ENDMDL
MODEL 5
REMARK VINA RESULT:    -3.900      1.668      4.313
REMARK INTER + INTRA:         -12.816
REMARK INTER:                  -8.769
REMARK INTRA:                  -4.047
REMARK UNBOUND:                -3.901
REMARK SMILES CCCCCCCCCCCCCCCCCCCCCCCC(=O)[O-]
REMARK SMILES IDX 13 1 14 2 15 3 16 4 17 5 18 6 19 7 20 8 21 9 22 10 23 11
REMARK SMILES IDX 24 12 25 13 26 14 12 15 11 16 10 17 9 18 8 19 7 20 6 21 5 22
REMARK SMILES IDX 4 23 3 24 2 25 1 26
REMARK H PARENT
REMARK Flexibility Score: inf
ROOT
ATOM      1  C   UNL     1      26.273  -1.279  -8.250  1.00  0.00     0.000 C 
ENDROOT
BRANCH   1   2
ATOM      2  C   UNL     1      27.367  -0.341  -7.718  1.00  0.00     0.000 C 
BRANCH   2   3
ATOM      3  C   UNL     1      28.250  -1.010  -6.652  1.00  0.00     0.000 C 
BRANCH   3   4
ATOM      4  C   UNL     1      29.654  -1.355  -7.181  1.00  0.00     0.000 C 
BRANCH   4   5
ATOM      5  C   UNL     1      29.935  -2.866  -7.170  1.00  0.00     0.000 C 
BRANCH   5   6
ATOM      6  C   UNL     1      29.348  -3.583  -8.398  1.00  0.00     0.000 C 
BRANCH   6   7
ATOM      7  C   UNL     1      28.484  -4.801  -8.022  1.00  0.00     0.000 C 
BRANCH   7   8
ATOM      8  C   UNL     1      27.515  -4.577  -6.844  1.00  0.00     0.000 C 
BRANCH   8   9
ATOM      9  C   UNL     1      26.027  -4.821  -7.163  1.00  0.00     0.000 C 
BRANCH   9  10
ATOM     10  C   UNL     1      25.698  -4.964  -8.663  1.00  0.00     0.006 C 
BRANCH  10  11
ATOM     11  C   UNL     1      24.221  -4.720  -9.013  1.00  0.00     0.053 C 
BRANCH  11  12
ATOM     12  C   UNL     1      23.598  -5.914  -9.668  1.00  0.00     0.041 C 
ATOM     13  O   UNL     1      24.264  -6.614 -10.477  1.00  0.00    -0.550 OA
ATOM     14  O   UNL     1      22.273  -6.241  -9.405  1.00  0.00    -0.550 OA
ENDBRANCH  11  12
ENDBRANCH  10  11
ENDBRANCH   9  10
ENDBRANCH   8   9
ENDBRANCH   7   8
ENDBRANCH   6   7
ENDBRANCH   5   6
ENDBRANCH   4   5
ENDBRANCH   3   4
ENDBRANCH   2   3
ENDBRANCH   1   2
BRANCH   1  15
ATOM     15  C   UNL     1      26.465  -1.553  -9.749  1.00  0.00     0.000 C 
BRANCH  15  16
ATOM     16  C   UNL     1      25.610  -0.637 -10.643  1.00  0.00     0.000 C 
BRANCH  16  17
ATOM     17  C   UNL     1      24.500  -1.352 -11.435  1.00  0.00     0.000 C 
BRANCH  17  18
ATOM     18  C   UNL     1      23.774  -0.425 -12.422  1.00  0.00    -0.000 C 
BRANCH  18  19
ATOM     19  C   UNL     1      24.659   0.773 -12.797  1.00  0.00    -0.000 C 
BRANCH  19  20
ATOM     20  C   UNL     1      25.198   0.685 -14.234  1.00  0.00    -0.000 C 
BRANCH  20  21
ATOM     21  C   UNL     1      24.871  -0.660 -14.905  1.00  0.00    -0.000 C 
BRANCH  21  22
ATOM     22  C   UNL     1      26.118  -1.539 -15.120  1.00  0.00    -0.000 C 
BRANCH  22  23
ATOM     23  C   UNL     1      27.315  -1.211 -14.206  1.00  0.00    -0.000 C 
BRANCH  23  24
ATOM     24  C   UNL     1      27.771  -2.361 -13.285  1.00  0.00    -0.000 C 
BRANCH  24  25
ATOM     25  C   UNL     1      27.020  -3.689 -13.491  1.00  0.00    -0.003 C 
ATOM     26  C   UNL     1      26.566  -4.325 -12.179  1.00  0.00     0.004 C 
ENDBRANCH  24  25
ENDBRANCH  23  24
ENDBRANCH  22  23
ENDBRANCH  21  22
ENDBRANCH  20  21
ENDBRANCH  19  20
ENDBRANCH  18  19
ENDBRANCH  17  18
ENDBRANCH  16  17
ENDBRANCH  15  16
ENDBRANCH   1  15
TORSDOF 22
ENDMDL
MODEL 6
REMARK VINA RESULT:    -3.889      3.002      5.795
REMARK INTER + INTRA:         -12.793
REMARK INTER:                  -8.306
REMARK INTRA:                  -4.486
REMARK UNBOUND:                -3.901
REMARK SMILES CCCCCCCCCCCCCCCCCCCCCCCC(=O)[O-]
REMARK SMILES IDX 13 1 14 2 15 3 16 4 17 5 18 6 19 7 20 8 21 9 22 10 23 11
REMARK SMILES IDX 24 12 25 13 26 14 12 15 11 16 10 17 9 18 8 19 7 20 6 21 5 22
REMARK SMILES IDX 4 23 3 24 2 25 1 26
REMARK H PARENT
REMARK Flexibility Score: inf
ROOT
ATOM      1  C   UNL     1      24.328  -3.977  -8.486  1.00  0.00     0.000 C 
ENDROOT
BRANCH   1   2
ATOM      2  C   UNL     1      25.581  -4.630  -7.885  1.00  0.00     0.000 C 
BRANCH   2   3
ATOM      3  C   UNL     1      26.462  -3.627  -7.124  1.00  0.00     0.000 C 
BRANCH   3   4
ATOM      4  C   UNL     1      27.747  -3.268  -7.892  1.00  0.00     0.000 C 
BRANCH   4   5
ATOM      5  C   UNL     1      27.569  -2.044  -8.804  1.00  0.00     0.000 C 
BRANCH   5   6
ATOM      6  C   UNL     1      26.808  -0.900  -8.114  1.00  0.00     0.000 C 
BRANCH   6   7
ATOM      7  C   UNL     1      25.638  -0.365  -8.959  1.00  0.00     0.000 C 
BRANCH   7   8
ATOM      8  C   UNL     1      25.647  -0.798 -10.439  1.00  0.00     0.000 C 
BRANCH   8   9
ATOM      9  C   UNL     1      24.286  -1.264 -10.993  1.00  0.00     0.000 C 
BRANCH   9  10
ATOM     10  C   UNL     1      23.826  -0.547 -12.279  1.00  0.00     0.006 C 
BRANCH  10  11
ATOM     11  C   UNL     1      24.820   0.498 -12.810  1.00  0.00     0.053 C 
BRANCH  11  12
ATOM     12  C   UNL     1      25.242   0.203 -14.217  1.00  0.00     0.041 C 
ATOM     13  O   UNL     1      24.788  -0.807 -14.817  1.00  0.00    -0.550 OA
ATOM     14  O   UNL     1      26.156   1.030 -14.857  1.00  0.00    -0.550 OA
ENDBRANCH  11  12
ENDBRANCH  10  11
ENDBRANCH   9  10
ENDBRANCH   8   9
ENDBRANCH   7   8
ENDBRANCH   6   7
ENDBRANCH   5   6
ENDBRANCH   4   5
ENDBRANCH   3   4
ENDBRANCH   2   3
ENDBRANCH   1   2
BRANCH   1  15
ATOM     15  C   UNL     1      23.831  -4.762  -9.709  1.00  0.00     0.000 C 
BRANCH  15  16
ATOM     16  C   UNL     1      22.907  -5.935  -9.337  1.00  0.00     0.000 C 
BRANCH  16  17
ATOM     17  C   UNL     1      23.217  -7.262 -10.054  1.00  0.00     0.000 C 
BRANCH  17  18
ATOM     18  C   UNL     1      24.722  -7.509 -10.236  1.00  0.00    -0.000 C 
BRANCH  18  19
ATOM     19  C   UNL     1      25.068  -7.702 -11.720  1.00  0.00    -0.000 C 
BRANCH  19  20
ATOM     20  C   UNL     1      26.345  -6.952 -12.134  1.00  0.00    -0.000 C 
BRANCH  20  21
ATOM     21  C   UNL     1      27.036  -6.263 -10.944  1.00  0.00    -0.000 C 
BRANCH  21  22
ATOM     22  C   UNL     1      27.275  -4.761 -11.182  1.00  0.00    -0.000 C 
BRANCH  22  23
ATOM     23  C   UNL     1      26.303  -4.091 -12.173  1.00  0.00    -0.000 C 
BRANCH  23  24
ATOM     24  C   UNL     1      26.971  -3.254 -13.283  1.00  0.00    -0.000 C 
BRANCH  24  25
ATOM     25  C   UNL     1      27.887  -2.126 -12.777  1.00  0.00    -0.003 C 
ATOM     26  C   UNL     1      29.357  -2.350 -13.130  1.00  0.00     0.004 C 
ENDBRANCH  24  25
ENDBRANCH  23  24
ENDBRANCH  22  23
ENDBRANCH  21  22
ENDBRANCH  20  21
ENDBRANCH  19  20
ENDBRANCH  18  19
ENDBRANCH  17  18
ENDBRANCH  16  17
ENDBRANCH  15  16
ENDBRANCH   1  15
TORSDOF 22
ENDMDL
MODEL 7
REMARK VINA RESULT:    -3.858      1.344      3.737
REMARK INTER + INTRA:         -12.722
REMARK INTER:                  -8.451
REMARK INTRA:                  -4.271
REMARK UNBOUND:                -3.901
REMARK SMILES CCCCCCCCCCCCCCCCCCCCCCCC(=O)[O-]
REMARK SMILES IDX 13 1 14 2 15 3 16 4 17 5 18 6 19 7 20 8 21 9 22 10 23 11
REMARK SMILES IDX 24 12 25 13 26 14 12 15 11 16 10 17 9 18 8 19 7 20 6 21 5 22
REMARK SMILES IDX 4 23 3 24 2 25 1 26
REMARK H PARENT
REMARK Flexibility Score: inf
ROOT
ATOM      1  C   UNL     1      24.924  -2.607  -7.859  1.00  0.00     0.000 C 
ENDROOT
BRANCH   1   2
ATOM      2  C   UNL     1      24.811  -4.089  -8.244  1.00  0.00     0.000 C 
BRANCH   2   3
ATOM      3  C   UNL     1      23.729  -4.342  -9.306  1.00  0.00     0.000 C 
BRANCH   3   4
ATOM      4  C   UNL     1      23.681  -5.811  -9.763  1.00  0.00     0.000 C 
BRANCH   4   5
ATOM      5  C   UNL     1      25.045  -6.324 -10.251  1.00  0.00     0.000 C 
BRANCH   5   6
ATOM      6  C   UNL     1      25.499  -5.645 -11.554  1.00  0.00     0.000 C 
BRANCH   6   7
ATOM      7  C   UNL     1      26.808  -4.851 -11.391  1.00  0.00     0.000 C 
BRANCH   7   8
ATOM      8  C   UNL     1      27.677  -5.263 -10.186  1.00  0.00     0.000 C 
BRANCH   8   9
ATOM      9  C   UNL     1      28.813  -4.284  -9.832  1.00  0.00     0.000 C 
BRANCH   9  10
ATOM     10  C   UNL     1      28.351  -2.937  -9.239  1.00  0.00     0.006 C 
BRANCH  10  11
ATOM     11  C   UNL     1      29.261  -2.388  -8.129  1.00  0.00     0.053 C 
BRANCH  11  12
ATOM     12  C   UNL     1      28.669  -2.592  -6.769  1.00  0.00     0.041 C 
ATOM     13  O   UNL     1      28.618  -1.636  -5.949  1.00  0.00    -0.550 OA
ATOM     14  O   UNL     1      28.195  -3.843  -6.396  1.00  0.00    -0.550 OA
ENDBRANCH  11  12
ENDBRANCH  10  11
ENDBRANCH   9  10
ENDBRANCH   8   9
ENDBRANCH   7   8
ENDBRANCH   6   7
ENDBRANCH   5   6
ENDBRANCH   4   5
ENDBRANCH   3   4
ENDBRANCH   2   3
ENDBRANCH   1   2
BRANCH   1  15
ATOM     15  C   UNL     1      24.428  -1.704  -8.998  1.00  0.00     0.000 C 
BRANCH  15  16
ATOM     16  C   UNL     1      25.485  -0.686  -9.463  1.00  0.00     0.000 C 
BRANCH  16  17
ATOM     17  C   UNL     1      25.919  -0.824 -10.934  1.00  0.00     0.000 C 
BRANCH  17  18
ATOM     18  C   UNL     1      24.908  -1.605 -11.788  1.00  0.00    -0.000 C 
BRANCH  18  19
ATOM     19  C   UNL     1      24.008  -0.647 -12.581  1.00  0.00    -0.000 C 
BRANCH  19  20
ATOM     20  C   UNL     1      24.667   0.719 -12.829  1.00  0.00    -0.000 C 
BRANCH  20  21
ATOM     21  C   UNL     1      25.331   0.812 -14.214  1.00  0.00    -0.000 C 
BRANCH  21  22
ATOM     22  C   UNL     1      24.882  -0.311 -15.167  1.00  0.00    -0.000 C 
BRANCH  22  23
ATOM     23  C   UNL     1      25.987  -1.305 -15.575  1.00  0.00    -0.000 C 
BRANCH  23  24
ATOM     24  C   UNL     1      27.367  -1.050 -14.936  1.00  0.00    -0.000 C 
BRANCH  24  25
ATOM     25  C   UNL     1      28.061  -2.305 -14.377  1.00  0.00    -0.003 C 
ATOM     26  C   UNL     1      28.585  -2.111 -12.955  1.00  0.00     0.004 C 
ENDBRANCH  24  25
ENDBRANCH  23  24
ENDBRANCH  22  23
ENDBRANCH  21  22
ENDBRANCH  20  21
ENDBRANCH  19  20
ENDBRANCH  18  19
ENDBRANCH  17  18
ENDBRANCH  16  17
ENDBRANCH  15  16
ENDBRANCH   1  15
TORSDOF 22
ENDMDL
MODEL 8
REMARK VINA RESULT:    -3.854      2.819      6.844
REMARK INTER + INTRA:         -12.713
REMARK INTER:                  -8.345
REMARK INTRA:                  -4.368
REMARK UNBOUND:                -3.901
REMARK SMILES CCCCCCCCCCCCCCCCCCCCCCCC(=O)[O-]
REMARK SMILES IDX 13 1 14 2 15 3 16 4 17 5 18 6 19 7 20 8 21 9 22 10 23 11
REMARK SMILES IDX 24 12 25 13 26 14 12 15 11 16 10 17 9 18 8 19 7 20 6 21 5 22
REMARK SMILES IDX 4 23 3 24 2 25 1 26
REMARK H PARENT
REMARK Flexibility Score: inf
ROOT
ATOM      1  C   UNL     1      28.124  -0.630  -7.740  1.00  0.00     0.000 C 
ENDROOT
BRANCH   1   2
ATOM      2  C   UNL     1      28.379  -1.369  -6.418  1.00  0.00     0.000 C 
BRANCH   2   3
ATOM      3  C   UNL     1      28.638  -2.871  -6.622  1.00  0.00     0.000 C 
BRANCH   3   4
ATOM      4  C   UNL     1      29.779  -3.144  -7.619  1.00  0.00     0.000 C 
BRANCH   4   5
ATOM      5  C   UNL     1      29.546  -4.415  -8.450  1.00  0.00     0.000 C 
BRANCH   5   6
ATOM      6  C   UNL     1      29.315  -4.111  -9.940  1.00  0.00     0.000 C 
BRANCH   6   7
ATOM      7  C   UNL     1      27.937  -3.481 -10.215  1.00  0.00     0.000 C 
BRANCH   7   8
ATOM      8  C   UNL     1      27.089  -4.202 -11.282  1.00  0.00     0.000 C 
BRANCH   8   9
ATOM      9  C   UNL     1      26.070  -3.312 -12.020  1.00  0.00     0.000 C 
BRANCH   9  10
ATOM     10  C   UNL     1      26.562  -1.886 -12.341  1.00  0.00     0.006 C 
BRANCH  10  11
ATOM     11  C   UNL     1      25.786  -1.188 -13.469  1.00  0.00     0.053 C 
BRANCH  11  12
ATOM     12  C   UNL     1      24.870  -0.127 -12.943  1.00  0.00     0.041 C 
ATOM     13  O   UNL     1      25.105   1.088 -13.180  1.00  0.00    -0.550 OA
ATOM     14  O   UNL     1      23.771  -0.476 -12.169  1.00  0.00    -0.550 OA
ENDBRANCH  11  12
ENDBRANCH  10  11
ENDBRANCH   9  10
ENDBRANCH   8   9
ENDBRANCH   7   8
ENDBRANCH   6   7
ENDBRANCH   5   6
ENDBRANCH   4   5
ENDBRANCH   3   4
ENDBRANCH   2   3
ENDBRANCH   1   2
BRANCH   1  15
ATOM     15  C   UNL     1      26.654  -0.200  -7.854  1.00  0.00     0.000 C 
BRANCH  15  16
ATOM     16  C   UNL     1      25.986  -0.680  -9.155  1.00  0.00     0.000 C 
BRANCH  16  17
ATOM     17  C   UNL     1      24.774  -1.610  -8.960  1.00  0.00     0.000 C 
BRANCH  17  18
ATOM     18  C   UNL     1      24.938  -2.569  -7.771  1.00  0.00    -0.000 C 
BRANCH  18  19
ATOM     19  C   UNL     1      24.880  -4.031  -8.236  1.00  0.00    -0.000 C 
BRANCH  19  20
ATOM     20  C   UNL     1      23.778  -4.279  -9.279  1.00  0.00    -0.000 C 
BRANCH  20  21
ATOM     21  C   UNL     1      23.353  -5.756  -9.348  1.00  0.00    -0.000 C 
BRANCH  21  22
ATOM     22  C   UNL     1      24.282  -6.603 -10.238  1.00  0.00    -0.000 C 
BRANCH  22  23
ATOM     23  C   UNL     1      24.859  -7.866  -9.569  1.00  0.00    -0.000 C 
BRANCH  23  24
ATOM     24  C   UNL     1      25.651  -7.616  -8.269  1.00  0.00    -0.000 C 
BRANCH  24  25
ATOM     25  C   UNL     1      27.066  -7.047  -8.476  1.00  0.00    -0.003 C 
ATOM     26  C   UNL     1      27.721  -7.537  -9.766  1.00  0.00     0.004 C 
ENDBRANCH  24  25
ENDBRANCH  23  24
ENDBRANCH  22  23
ENDBRANCH  21  22
ENDBRANCH  20  21
ENDBRANCH  19  20
ENDBRANCH  18  19
ENDBRANCH  17  18
ENDBRANCH  16  17
ENDBRANCH  15  16
ENDBRANCH   1  15
TORSDOF 22
ENDMDL
MODEL 9
REMARK VINA RESULT:    -3.823      1.844      4.357
REMARK INTER + INTRA:         -12.641
REMARK INTER:                  -9.003
REMARK INTRA:                  -3.638
REMARK UNBOUND:                -3.901
REMARK SMILES CCCCCCCCCCCCCCCCCCCCCCCC(=O)[O-]
REMARK SMILES IDX 13 1 14 2 15 3 16 4 17 5 18 6 19 7 20 8 21 9 22 10 23 11
REMARK SMILES IDX 24 12 25 13 26 14 12 15 11 16 10 17 9 18 8 19 7 20 6 21 5 22
REMARK SMILES IDX 4 23 3 24 2 25 1 26
REMARK H PARENT
REMARK Flexibility Score: inf
ROOT
ATOM      1  C   UNL     1      24.307  -1.344 -10.591  1.00  0.00     0.000 C 
ENDROOT
BRANCH   1   2
ATOM      2  C   UNL     1      24.888  -1.361  -9.169  1.00  0.00     0.000 C 
BRANCH   2   3
ATOM      3  C   UNL     1      26.398  -1.071  -9.146  1.00  0.00     0.000 C 
BRANCH   3   4
ATOM      4  C   UNL     1      26.827  -0.267  -7.906  1.00  0.00     0.000 C 
BRANCH   4   5
ATOM      5  C   UNL     1      28.115  -0.807  -7.266  1.00  0.00     0.000 C 
BRANCH   5   6
ATOM      6  C   UNL     1      28.461  -2.227  -7.746  1.00  0.00     0.000 C 
BRANCH   6   7
ATOM      7  C   UNL     1      28.424  -3.268  -6.611  1.00  0.00     0.000 C 
BRANCH   7   8
ATOM      8  C   UNL     1      27.648  -4.560  -6.934  1.00  0.00     0.000 C 
BRANCH   8   9
ATOM      9  C   UNL     1      26.226  -4.349  -7.490  1.00  0.00     0.000 C 
BRANCH   9  10
ATOM     10  C   UNL     1      25.913  -5.117  -8.790  1.00  0.00     0.006 C 
BRANCH  10  11
ATOM     11  C   UNL     1      24.791  -6.158  -8.656  1.00  0.00     0.053 C 
BRANCH  11  12
ATOM     12  C   UNL     1      23.554  -5.743  -9.392  1.00  0.00     0.041 C 
ATOM     13  O   UNL     1      23.351  -4.528  -9.658  1.00  0.00    -0.550 OA
ATOM     14  O   UNL     1      22.612  -6.695  -9.762  1.00  0.00    -0.550 OA
ENDBRANCH  11  12
ENDBRANCH  10  11
ENDBRANCH   9  10
ENDBRANCH   8   9
ENDBRANCH   7   8
ENDBRANCH   6   7
ENDBRANCH   5   6
ENDBRANCH   4   5
ENDBRANCH   3   4
ENDBRANCH   2   3
ENDBRANCH   1   2
BRANCH   1  15
ATOM     15  C   UNL     1      24.991  -0.272 -11.452  1.00  0.00     0.000 C 
BRANCH  15  16
ATOM     16  C   UNL     1      24.195   0.077 -12.723  1.00  0.00     0.000 C 
BRANCH  16  17
ATOM     17  C   UNL     1      24.770   1.240 -13.552  1.00  0.00     0.000 C 
BRANCH  17  18
ATOM     18  C   UNL     1      25.226   0.811 -14.954  1.00  0.00    -0.000 C 
BRANCH  18  19
ATOM     19  C   UNL     1      24.847  -0.653 -15.228  1.00  0.00    -0.000 C 
BRANCH  19  20
ATOM     20  C   UNL     1      26.053  -1.511 -15.640  1.00  0.00    -0.000 C 
BRANCH  20  21
ATOM     21  C   UNL     1      27.239  -1.367 -14.670  1.00  0.00    -0.000 C 
BRANCH  21  22
ATOM     22  C   UNL     1      27.405  -2.586 -13.745  1.00  0.00    -0.000 C 
BRANCH  22  23
ATOM     23  C   UNL     1      27.756  -2.255 -12.281  1.00  0.00    -0.000 C 
BRANCH  23  24
ATOM     24  C   UNL     1      27.906  -3.475 -11.350  1.00  0.00    -0.000 C 
BRANCH  24  25
ATOM     25  C   UNL     1      29.338  -4.029 -11.240  1.00  0.00    -0.003 C 
ATOM     26  C   UNL     1      29.517  -4.984 -10.061  1.00  0.00     0.004 C 
ENDBRANCH  24  25
ENDBRANCH  23  24
ENDBRANCH  22  23
ENDBRANCH  21  22
ENDBRANCH  20  21
ENDBRANCH  19  20
ENDBRANCH  18  19
ENDBRANCH  17  18
ENDBRANCH  16  17
ENDBRANCH  15  16
ENDBRANCH   1  15
TORSDOF 22
ENDMDL
