MODEL 1
REMARK VINA RESULT:    -2.672      0.000      0.000
REMARK INTER + INTRA:          -3.225
REMARK INTER:                  -3.141
REMARK INTRA:                  -0.085
REMARK UNBOUND:                -0.085
REMARK SMILES O=C([O-])CCC(=O)[O-]
REMARK SMILES IDX 4 1 2 2 1 3 3 4 5 5 6 6 7 7 8 8
REMARK H PARENT
REMARK Flexibility Score: inf
ROOT
ATOM      1  C   UNL     1       7.280 -19.216  11.112  1.00  0.00     0.059 C 
ENDROOT
BRANCH   1   2
ATOM      2  C   UNL     1       6.883 -19.596   9.719  1.00  0.00     0.042 C 
ATOM      3  O   UNL     1       7.216 -20.716   9.248  1.00  0.00    -0.550 OA
ATOM      4  O   UNL     1       6.181 -18.699   8.925  1.00  0.00    -0.550 OA
ENDBRANCH   1   2
BRANCH   1   5
ATOM      5  C   UNL     1       8.614 -19.855  11.513  1.00  0.00     0.059 C 
BRANCH   5   6
ATOM      6  C   UNL     1       8.519 -20.535  12.845  1.00  0.00     0.042 C 
ATOM      7  O   UNL     1       7.875 -21.611  12.964  1.00  0.00    -0.550 OA
ATOM      8  O   UNL     1       9.109 -19.958  13.964  1.00  0.00    -0.550 OA
ENDBRANCH   5   6
ENDBRANCH   1   5
TORSDOF 3
ENDMDL
MODEL 2
REMARK VINA RESULT:    -2.613      0.343      4.006
REMARK INTER + INTRA:          -3.156
REMARK INTER:                  -3.034
REMARK INTRA:                  -0.122
REMARK UNBOUND:                -0.085
REMARK SMILES O=C([O-])CCC(=O)[O-]
REMARK SMILES IDX 4 1 2 2 1 3 3 4 5 5 6 6 7 7 8 8
REMARK H PARENT
REMARK Flexibility Score: inf
ROOT
ATOM      1  C   UNL     1       8.573 -19.832  11.534  1.00  0.00     0.059 C 
ENDROOT
BRANCH   1   2
ATOM      2  C   UNL     1       8.370 -20.812  12.647  1.00  0.00     0.042 C 
ATOM      3  O   UNL     1       7.813 -21.920  12.424  1.00  0.00    -0.550 OA
ATOM      4  O   UNL     1       8.758 -20.486  13.941  1.00  0.00    -0.550 OA
ENDBRANCH   1   2
BRANCH   1   5
ATOM      5  C   UNL     1       7.253 -19.183  11.105  1.00  0.00     0.059 C 
BRANCH   5   6
ATOM      6  C   UNL     1       6.883 -19.559   9.703  1.00  0.00     0.042 C 
ATOM      7  O   UNL     1       7.228 -20.675   9.234  1.00  0.00    -0.550 OA
ATOM      8  O   UNL     1       6.193 -18.658   8.900  1.00  0.00    -0.550 OA
ENDBRANCH   5   6
ENDBRANCH   1   5
TORSDOF 3
ENDMDL
MODEL 3
REMARK VINA RESULT:    -2.540      0.633      1.681
REMARK INTER + INTRA:          -3.071
REMARK INTER:                  -3.038
REMARK INTRA:                  -0.033
REMARK UNBOUND:                -0.085
REMARK SMILES O=C([O-])CCC(=O)[O-]
REMARK SMILES IDX 4 1 2 2 1 3 3 4 5 5 6 6 7 7 8 8
REMARK H PARENT
REMARK Flexibility Score: inf
ROOT
ATOM      1  C   UNL     1       7.267 -20.001  11.253  1.00  0.00     0.059 C 
ENDROOT
BRANCH   1   2
ATOM      2  C   UNL     1       7.280 -19.785   9.771  1.00  0.00     0.042 C 
ATOM      3  O   UNL     1       6.477 -18.971   9.242  1.00  0.00    -0.550 OA
ATOM      4  O   UNL     1       8.150 -20.512   8.969  1.00  0.00    -0.550 OA
ENDBRANCH   1   2
BRANCH   1   5
ATOM      5  C   UNL     1       8.645 -19.742  11.872  1.00  0.00     0.059 C 
BRANCH   5   6
ATOM      6  C   UNL     1       8.775 -20.391  13.216  1.00  0.00     0.042 C 
ATOM      7  O   UNL     1       9.125 -19.712  14.217  1.00  0.00    -0.550 OA
ATOM      8  O   UNL     1       8.549 -21.756  13.355  1.00  0.00    -0.550 OA
ENDBRANCH   5   6
ENDBRANCH   1   5
TORSDOF 3
ENDMDL
MODEL 4
REMARK VINA RESULT:    -2.451      1.859      2.623
REMARK INTER + INTRA:          -2.965
REMARK INTER:                  -2.791
REMARK INTRA:                  -0.174
REMARK UNBOUND:                -0.085
REMARK SMILES O=C([O-])CCC(=O)[O-]
REMARK SMILES IDX 4 1 2 2 1 3 3 4 5 5 6 6 7 7 8 8
REMARK H PARENT
REMARK Flexibility Score: inf
ROOT
ATOM      1  C   UNL     1       8.259 -20.792  10.669  1.00  0.00     0.059 C 
ENDROOT
BRANCH   1   2
ATOM      2  C   UNL     1       7.813 -19.502  11.284  1.00  0.00     0.042 C 
ATOM      3  O   UNL     1       6.825 -18.881  10.810  1.00  0.00    -0.550 OA
ATOM      4  O   UNL     1       8.512 -18.964  12.357  1.00  0.00    -0.550 OA
ENDBRANCH   1   2
BRANCH   1   5
ATOM      5  C   UNL     1       7.205 -21.892  10.838  1.00  0.00     0.059 C 
BRANCH   5   6
ATOM      6  C   UNL     1       6.988 -22.230  12.282  1.00  0.00     0.042 C 
ATOM      7  O   UNL     1       5.823 -22.274  12.755  1.00  0.00    -0.550 OA
ATOM      8  O   UNL     1       8.079 -22.455  13.114  1.00  0.00    -0.550 OA
ENDBRANCH   5   6
ENDBRANCH   1   5
TORSDOF 3
ENDMDL
MODEL 5
REMARK VINA RESULT:    -2.401      1.984      3.562
REMARK INTER + INTRA:          -2.906
REMARK INTER:                  -2.800
REMARK INTRA:                  -0.107
REMARK UNBOUND:                -0.085
REMARK SMILES O=C([O-])CCC(=O)[O-]
REMARK SMILES IDX 4 1 2 2 1 3 3 4 5 5 6 6 7 7 8 8
REMARK H PARENT
REMARK Flexibility Score: inf
ROOT
ATOM      1  C   UNL     1       6.993 -22.010  11.213  1.00  0.00     0.059 C 
ENDROOT
BRANCH   1   2
ATOM      2  C   UNL     1       6.641 -22.273  12.644  1.00  0.00     0.042 C 
ATOM      3  O   UNL     1       5.455 -22.551  12.965  1.00  0.00    -0.550 OA
ATOM      4  O   UNL     1       7.614 -22.172  13.630  1.00  0.00    -0.550 OA
ENDBRANCH   1   2
BRANCH   1   5
ATOM      5  C   UNL     1       8.190 -21.061  11.092  1.00  0.00     0.059 C 
BRANCH   5   6
ATOM      6  C   UNL     1       7.807 -19.647  11.410  1.00  0.00     0.042 C 
ATOM      7  O   UNL     1       6.905 -19.070  10.748  1.00  0.00    -0.550 OA
ATOM      8  O   UNL     1       8.476 -18.955  12.412  1.00  0.00    -0.550 OA
ENDBRANCH   5   6
ENDBRANCH   1   5
TORSDOF 3
ENDMDL
MODEL 6
REMARK VINA RESULT:    -2.335     17.860     18.272
REMARK INTER + INTRA:          -2.829
REMARK INTER:                  -2.711
REMARK INTRA:                  -0.118
REMARK UNBOUND:                -0.085
REMARK SMILES O=C([O-])CCC(=O)[O-]
REMARK SMILES IDX 4 1 2 2 1 3 3 4 5 5 6 6 7 7 8 8
REMARK H PARENT
REMARK Flexibility Score: inf
ROOT
ATOM      1  C   UNL     1     -10.398 -20.141  16.584  1.00  0.00     0.059 C 
ENDROOT
BRANCH   1   2
ATOM      2  C   UNL     1      -9.935 -20.437  15.190  1.00  0.00     0.042 C 
ATOM      3  O   UNL     1     -10.750 -20.405  14.230  1.00  0.00    -0.550 OA
ATOM      4  O   UNL     1      -8.611 -20.787  14.957  1.00  0.00    -0.550 OA
ENDBRANCH   1   2
BRANCH   1   5
ATOM      5  C   UNL     1     -10.321 -21.382  17.479  1.00  0.00     0.059 C 
BRANCH   5   6
ATOM      6  C   UNL     1      -9.232 -21.257  18.501  1.00  0.00     0.042 C 
ATOM      7  O   UNL     1      -8.083 -21.712  18.263  1.00  0.00    -0.550 OA
ATOM      8  O   UNL     1      -9.500 -20.673  19.734  1.00  0.00    -0.550 OA
ENDBRANCH   5   6
ENDBRANCH   1   5
TORSDOF 3
ENDMDL
MODEL 7
REMARK VINA RESULT:    -2.327     17.897     18.665
REMARK INTER + INTRA:          -2.820
REMARK INTER:                  -2.702
REMARK INTRA:                  -0.118
REMARK UNBOUND:                -0.085
REMARK SMILES O=C([O-])CCC(=O)[O-]
REMARK SMILES IDX 4 1 2 2 1 3 3 4 5 5 6 6 7 7 8 8
REMARK H PARENT
REMARK Flexibility Score: inf
ROOT
ATOM      1  C   UNL     1     -10.370 -21.334  17.487  1.00  0.00     0.059 C 
ENDROOT
BRANCH   1   2
ATOM      2  C   UNL     1      -9.269 -21.203  18.493  1.00  0.00     0.042 C 
ATOM      3  O   UNL     1      -8.129 -21.682  18.254  1.00  0.00    -0.550 OA
ATOM      4  O   UNL     1      -9.512 -20.585  19.714  1.00  0.00    -0.550 OA
ENDBRANCH   1   2
BRANCH   1   5
ATOM      5  C   UNL     1     -10.447 -20.108  16.571  1.00  0.00     0.059 C 
BRANCH   5   6
ATOM      6  C   UNL     1      -9.987 -20.428  15.182  1.00  0.00     0.042 C 
ATOM      7  O   UNL     1     -10.811 -20.453  14.230  1.00  0.00    -0.550 OA
ATOM      8  O   UNL     1      -8.653 -20.739  14.946  1.00  0.00    -0.550 OA
ENDBRANCH   5   6
ENDBRANCH   1   5
TORSDOF 3
ENDMDL
MODEL 8
REMARK VINA RESULT:    -2.273      1.724      2.377
REMARK INTER + INTRA:          -2.756
REMARK INTER:                  -2.673
REMARK INTRA:                  -0.084
REMARK UNBOUND:                -0.085
REMARK SMILES O=C([O-])CCC(=O)[O-]
REMARK SMILES IDX 4 1 2 2 1 3 3 4 5 5 6 6 7 7 8 8
REMARK H PARENT
REMARK Flexibility Score: inf
ROOT
ATOM      1  C   UNL     1       7.800 -20.461   9.251  1.00  0.00     0.059 C 
ENDROOT
BRANCH   1   2
ATOM      2  C   UNL     1       6.915 -19.344   9.711  1.00  0.00     0.042 C 
ATOM      3  O   UNL     1       6.171 -18.745   8.891  1.00  0.00    -0.550 OA
ATOM      4  O   UNL     1       6.942 -18.937  11.039  1.00  0.00    -0.550 OA
ENDBRANCH   1   2
BRANCH   1   5
ATOM      5  C   UNL     1       9.089 -20.537  10.077  1.00  0.00     0.059 C 
BRANCH   5   6
ATOM      6  C   UNL     1       9.039 -21.655  11.073  1.00  0.00     0.042 C 
ATOM      7  O   UNL     1       9.124 -21.411  12.305  1.00  0.00    -0.550 OA
ATOM      8  O   UNL     1       8.940 -22.971  10.637  1.00  0.00    -0.550 OA
ENDBRANCH   5   6
ENDBRANCH   1   5
TORSDOF 3
ENDMDL
MODEL 9
REMARK VINA RESULT:    -2.223      2.266      4.637
REMARK INTER + INTRA:          -2.697
REMARK INTER:                  -2.582
REMARK INTRA:                  -0.115
REMARK UNBOUND:                -0.085
REMARK SMILES O=C([O-])CCC(=O)[O-]
REMARK SMILES IDX 4 1 2 2 1 3 3 4 5 5 6 6 7 7 8 8
REMARK H PARENT
REMARK Flexibility Score: inf
ROOT
ATOM      1  C   UNL     1       8.761 -20.596  14.496  1.00  0.00     0.059 C 
ENDROOT
BRANCH   1   2
ATOM      2  C   UNL     1       8.050 -21.591  15.360  1.00  0.00     0.042 C 
ATOM      3  O   UNL     1       7.788 -22.741  14.919  1.00  0.00    -0.550 OA
ATOM      4  O   UNL     1       7.640 -21.236  16.639  1.00  0.00    -0.550 OA
ENDBRANCH   1   2
BRANCH   1   5
ATOM      5  C   UNL     1       8.966 -21.127  13.074  1.00  0.00     0.059 C 
BRANCH   5   6
ATOM      6  C   UNL     1       7.926 -20.599  12.133  1.00  0.00     0.042 C 
ATOM      7  O   UNL     1       6.904 -21.285  11.867  1.00  0.00    -0.550 OA
ATOM      8  O   UNL     1       8.106 -19.365  11.519  1.00  0.00    -0.550 OA
ENDBRANCH   5   6
ENDBRANCH   1   5
TORSDOF 3
ENDMDL
