MODEL 1
REMARK VINA RESULT:    -3.458      0.000      0.000
REMARK INTER + INTRA:          -5.111
REMARK INTER:                  -4.671
REMARK INTRA:                  -0.440
REMARK UNBOUND:                -0.440
REMARK SMILES CCCCCCCC(=O)[O-]
REMARK SMILES IDX 5 1 6 2 7 3 8 4 9 5 10 6 4 7 3 8 2 9 1 10
REMARK H PARENT
REMARK Flexibility Score: inf
ROOT
ATOM      1  C   UNL     1      18.598 130.742  65.219  1.00  0.00     0.000 C 
ENDROOT
BRANCH   1   2
ATOM      2  C   UNL     1      18.622 131.970  64.291  1.00  0.00     0.006 C 
BRANCH   2   3
ATOM      3  C   UNL     1      19.740 131.879  63.243  1.00  0.00     0.053 C 
BRANCH   3   4
ATOM      4  C   UNL     1      19.540 132.857  62.126  1.00  0.00     0.041 C 
ATOM      5  O   UNL     1      20.353 132.895  61.164  1.00  0.00    -0.550 OA
ATOM      6  O   UNL     1      18.473 133.746  62.161  1.00  0.00    -0.550 OA
ENDBRANCH   3   4
ENDBRANCH   2   3
ENDBRANCH   1   2
BRANCH   1   7
ATOM      7  C   UNL     1      17.512 129.726  64.828  1.00  0.00     0.000 C 
BRANCH   7   8
ATOM      8  C   UNL     1      18.078 128.529  64.043  1.00  0.00    -0.000 C 
BRANCH   8   9
ATOM      9  C   UNL     1      19.486 128.132  64.513  1.00  0.00    -0.003 C 
ATOM     10  C   UNL     1      20.515 128.143  63.382  1.00  0.00     0.004 C 
ENDBRANCH   8   9
ENDBRANCH   7   8
ENDBRANCH   1   7
TORSDOF 6
ENDMDL
MODEL 2
REMARK VINA RESULT:    -3.397      0.824      1.250
REMARK INTER + INTRA:          -5.028
REMARK INTER:                  -4.668
REMARK INTRA:                  -0.360
REMARK UNBOUND:                -0.440
REMARK SMILES CCCCCCCC(=O)[O-]
REMARK SMILES IDX 5 1 6 2 7 3 8 4 9 5 10 6 4 7 3 8 2 9 1 10
REMARK H PARENT
REMARK Flexibility Score: inf
ROOT
ATOM      1  C   UNL     1      18.832 131.823  64.965  1.00  0.00     0.000 C 
ENDROOT
BRANCH   1   2
ATOM      2  C   UNL     1      19.462 131.815  63.560  1.00  0.00     0.006 C 
BRANCH   2   3
ATOM      3  C   UNL     1      18.738 132.766  62.597  1.00  0.00     0.053 C 
BRANCH   3   4
ATOM      4  C   UNL     1      19.633 133.229  61.490  1.00  0.00     0.041 C 
ATOM      5  O   UNL     1      20.775 132.716  61.343  1.00  0.00    -0.550 OA
ATOM      6  O   UNL     1      19.221 134.246  60.639  1.00  0.00    -0.550 OA
ENDBRANCH   3   4
ENDBRANCH   2   3
ENDBRANCH   1   2
BRANCH   1   7
ATOM      7  C   UNL     1      18.343 130.432  65.402  1.00  0.00     0.000 C 
BRANCH   7   8
ATOM      8  C   UNL     1      17.555 129.708  64.296  1.00  0.00    -0.000 C 
BRANCH   8   9
ATOM      9  C   UNL     1      18.015 128.255  64.103  1.00  0.00    -0.003 C 
ATOM     10  C   UNL     1      19.534 128.122  63.994  1.00  0.00     0.004 C 
ENDBRANCH   8   9
ENDBRANCH   7   8
ENDBRANCH   1   7
TORSDOF 6
ENDMDL
MODEL 3
REMARK VINA RESULT:    -3.123      1.811      3.235
REMARK INTER + INTRA:          -4.658
REMARK INTER:                  -4.159
REMARK INTRA:                  -0.499
REMARK UNBOUND:                -0.440
REMARK SMILES CCCCCCCC(=O)[O-]
REMARK SMILES IDX 5 1 6 2 7 3 8 4 9 5 10 6 4 7 3 8 2 9 1 10
REMARK H PARENT
REMARK Flexibility Score: inf
ROOT
ATOM      1  C   UNL     1      17.368 129.829  64.159  1.00  0.00     0.000 C 
ENDROOT
BRANCH   1   2
ATOM      2  C   UNL     1      18.848 130.144  64.442  1.00  0.00     0.006 C 
BRANCH   2   3
ATOM      3  C   UNL     1      19.143 131.648  64.366  1.00  0.00     0.053 C 
BRANCH   3   4
ATOM      4  C   UNL     1      19.666 132.048  63.020  1.00  0.00     0.041 C 
ATOM      5  O   UNL     1      18.932 132.689  62.221  1.00  0.00    -0.550 OA
ATOM      6  O   UNL     1      20.951 131.687  62.636  1.00  0.00    -0.550 OA
ENDBRANCH   3   4
ENDBRANCH   2   3
ENDBRANCH   1   2
BRANCH   1   7
ATOM      7  C   UNL     1      16.408 130.715  64.970  1.00  0.00     0.000 C 
BRANCH   7   8
ATOM      8  C   UNL     1      16.066 130.111  66.344  1.00  0.00    -0.000 C 
BRANCH   8   9
ATOM      9  C   UNL     1      16.230 131.124  67.488  1.00  0.00    -0.003 C 
ATOM     10  C   UNL     1      17.694 131.403  67.829  1.00  0.00     0.004 C 
ENDBRANCH   8   9
ENDBRANCH   7   8
ENDBRANCH   1   7
TORSDOF 6
ENDMDL
MODEL 4
REMARK VINA RESULT:    -3.112      2.725      3.672
REMARK INTER + INTRA:          -4.643
REMARK INTER:                  -4.199
REMARK INTRA:                  -0.443
REMARK UNBOUND:                -0.440
REMARK SMILES CCCCCCCC(=O)[O-]
REMARK SMILES IDX 5 1 6 2 7 3 8 4 9 5 10 6 4 7 3 8 2 9 1 10
REMARK H PARENT
REMARK Flexibility Score: inf
ROOT
ATOM      1  C   UNL     1      18.810 131.663  65.084  1.00  0.00     0.000 C 
ENDROOT
BRANCH   1   2
ATOM      2  C   UNL     1      18.188 131.128  66.387  1.00  0.00     0.006 C 
BRANCH   2   3
ATOM      3  C   UNL     1      16.959 131.940  66.817  1.00  0.00     0.053 C 
BRANCH   3   4
ATOM      4  C   UNL     1      15.816 131.772  65.863  1.00  0.00     0.041 C 
ATOM      5  O   UNL     1      15.466 132.729  65.121  1.00  0.00    -0.550 OA
ATOM      6  O   UNL     1      15.119 130.572  65.814  1.00  0.00    -0.550 OA
ENDBRANCH   3   4
ENDBRANCH   2   3
ENDBRANCH   1   2
BRANCH   1   7
ATOM      7  C   UNL     1      18.991 130.568  64.021  1.00  0.00     0.000 C 
BRANCH   7   8
ATOM      8  C   UNL     1      18.134 129.321  64.304  1.00  0.00    -0.000 C 
BRANCH   8   9
ATOM      9  C   UNL     1      18.907 128.013  64.074  1.00  0.00    -0.003 C 
ATOM     10  C   UNL     1      20.332 128.245  63.571  1.00  0.00     0.004 C 
ENDBRANCH   8   9
ENDBRANCH   7   8
ENDBRANCH   1   7
TORSDOF 6
ENDMDL
MODEL 5
REMARK VINA RESULT:    -3.082      2.854      4.453
REMARK INTER + INTRA:          -4.603
REMARK INTER:                  -4.158
REMARK INTRA:                  -0.446
REMARK UNBOUND:                -0.440
REMARK SMILES CCCCCCCC(=O)[O-]
REMARK SMILES IDX 5 1 6 2 7 3 8 4 9 5 10 6 4 7 3 8 2 9 1 10
REMARK H PARENT
REMARK Flexibility Score: inf
ROOT
ATOM      1  C   UNL     1      16.955 131.155  63.864  1.00  0.00     0.000 C 
ENDROOT
BRANCH   1   2
ATOM      2  C   UNL     1      17.395 130.001  64.783  1.00  0.00     0.006 C 
BRANCH   2   3
ATOM      3  C   UNL     1      18.890 129.685  64.638  1.00  0.00     0.053 C 
BRANCH   3   4
ATOM      4  C   UNL     1      19.120 128.358  63.984  1.00  0.00     0.041 C 
ATOM      5  O   UNL     1      18.142 127.621  63.687  1.00  0.00    -0.550 OA
ATOM      6  O   UNL     1      20.413 127.920  63.731  1.00  0.00    -0.550 OA
ENDBRANCH   3   4
ENDBRANCH   2   3
ENDBRANCH   1   2
BRANCH   1   7
ATOM      7  C   UNL     1      17.157 132.536  64.509  1.00  0.00     0.000 C 
BRANCH   7   8
ATOM      8  C   UNL     1      18.431 133.241  64.009  1.00  0.00    -0.000 C 
BRANCH   8   9
ATOM      9  C   UNL     1      18.726 132.942  62.531  1.00  0.00    -0.003 C 
ATOM     10  C   UNL     1      20.129 132.379  62.307  1.00  0.00     0.004 C 
ENDBRANCH   8   9
ENDBRANCH   7   8
ENDBRANCH   1   7
TORSDOF 6
ENDMDL
MODEL 6
REMARK VINA RESULT:    -3.074      3.372      4.455
REMARK INTER + INTRA:          -4.592
REMARK INTER:                  -4.125
REMARK INTRA:                  -0.467
REMARK UNBOUND:                -0.440
REMARK SMILES CCCCCCCC(=O)[O-]
REMARK SMILES IDX 5 1 6 2 7 3 8 4 9 5 10 6 4 7 3 8 2 9 1 10
REMARK H PARENT
REMARK Flexibility Score: inf
ROOT
ATOM      1  C   UNL     1      18.578 131.275  66.682  1.00  0.00     0.000 C 
ENDROOT
BRANCH   1   2
ATOM      2  C   UNL     1      17.289 131.717  67.399  1.00  0.00     0.006 C 
BRANCH   2   3
ATOM      3  C   UNL     1      16.126 131.928  66.419  1.00  0.00     0.053 C 
BRANCH   3   4
ATOM      4  C   UNL     1      15.334 130.674  66.214  1.00  0.00     0.041 C 
ATOM      5  O   UNL     1      15.492 129.691  66.987  1.00  0.00    -0.550 OA
ATOM      6  O   UNL     1      14.444 130.577  65.151  1.00  0.00    -0.550 OA
ENDBRANCH   3   4
ENDBRANCH   2   3
ENDBRANCH   1   2
BRANCH   1   7
ATOM      7  C   UNL     1      18.792 132.005  65.346  1.00  0.00     0.000 C 
BRANCH   7   8
ATOM      8  C   UNL     1      18.987 131.035  64.167  1.00  0.00    -0.000 C 
BRANCH   8   9
ATOM      9  C   UNL     1      18.480 129.619  64.482  1.00  0.00    -0.003 C 
ATOM     10  C   UNL     1      19.508 128.534  64.161  1.00  0.00     0.004 C 
ENDBRANCH   8   9
ENDBRANCH   7   8
ENDBRANCH   1   7
TORSDOF 6
ENDMDL
MODEL 7
REMARK VINA RESULT:    -3.070      2.855      4.765
REMARK INTER + INTRA:          -4.587
REMARK INTER:                  -4.290
REMARK INTRA:                  -0.297
REMARK UNBOUND:                -0.440
REMARK SMILES CCCCCCCC(=O)[O-]
REMARK SMILES IDX 5 1 6 2 7 3 8 4 9 5 10 6 4 7 3 8 2 9 1 10
REMARK H PARENT
REMARK Flexibility Score: inf
ROOT
ATOM      1  C   UNL     1      17.914 131.645  63.276  1.00  0.00     0.000 C 
ENDROOT
BRANCH   1   2
ATOM      2  C   UNL     1      17.632 130.627  64.396  1.00  0.00     0.006 C 
BRANCH   2   3
ATOM      3  C   UNL     1      18.889 129.838  64.789  1.00  0.00     0.053 C 
BRANCH   3   4
ATOM      4  C   UNL     1      18.958 128.513  64.094  1.00  0.00     0.041 C 
ATOM      5  O   UNL     1      20.072 128.038  63.747  1.00  0.00    -0.550 OA
ATOM      6  O   UNL     1      17.792 127.817  63.802  1.00  0.00    -0.550 OA
ENDBRANCH   3   4
ENDBRANCH   2   3
ENDBRANCH   1   2
BRANCH   1   7
ATOM      7  C   UNL     1      19.325 132.248  63.366  1.00  0.00     0.000 C 
BRANCH   7   8
ATOM      8  C   UNL     1      19.855 132.718  61.999  1.00  0.00    -0.000 C 
BRANCH   8   9
ATOM      9  C   UNL     1      18.880 133.669  61.287  1.00  0.00    -0.003 C 
ATOM     10  C   UNL     1      18.555 133.227  59.860  1.00  0.00     0.004 C 
ENDBRANCH   8   9
ENDBRANCH   7   8
ENDBRANCH   1   7
TORSDOF 6
ENDMDL
MODEL 8
REMARK VINA RESULT:    -3.069      3.157      4.343
REMARK INTER + INTRA:          -4.585
REMARK INTER:                  -4.116
REMARK INTRA:                  -0.469
REMARK UNBOUND:                -0.440
REMARK SMILES CCCCCCCC(=O)[O-]
REMARK SMILES IDX 5 1 6 2 7 3 8 4 9 5 10 6 4 7 3 8 2 9 1 10
REMARK H PARENT
REMARK Flexibility Score: inf
ROOT
ATOM      1  C   UNL     1      18.836 132.044  65.363  1.00  0.00     0.000 C 
ENDROOT
BRANCH   1   2
ATOM      2  C   UNL     1      18.423 131.190  64.151  1.00  0.00     0.006 C 
BRANCH   2   3
ATOM      3  C   UNL     1      19.467 130.114  63.820  1.00  0.00     0.053 C 
BRANCH   3   4
ATOM      4  C   UNL     1      19.006 128.746  64.217  1.00  0.00     0.041 C 
ATOM      5  O   UNL     1      19.847 127.852  64.503  1.00  0.00    -0.550 OA
ATOM      6  O   UNL     1      17.650 128.448  64.243  1.00  0.00    -0.550 OA
ENDBRANCH   3   4
ENDBRANCH   2   3
ENDBRANCH   1   2
BRANCH   1   7
ATOM      7  C   UNL     1      18.489 131.375  66.704  1.00  0.00     0.000 C 
BRANCH   7   8
ATOM      8  C   UNL     1      17.045 131.666  67.153  1.00  0.00    -0.000 C 
BRANCH   8   9
ATOM      9  C   UNL     1      16.132 130.437  67.022  1.00  0.00    -0.003 C 
ATOM     10  C   UNL     1      15.158 130.543  65.848  1.00  0.00     0.004 C 
ENDBRANCH   8   9
ENDBRANCH   7   8
ENDBRANCH   1   7
TORSDOF 6
ENDMDL
MODEL 9
REMARK VINA RESULT:    -2.974      3.111      4.675
REMARK INTER + INTRA:          -4.456
REMARK INTER:                  -3.832
REMARK INTRA:                  -0.625
REMARK UNBOUND:                -0.440
REMARK SMILES CCCCCCCC(=O)[O-]
REMARK SMILES IDX 5 1 6 2 7 3 8 4 9 5 10 6 4 7 3 8 2 9 1 10
REMARK H PARENT
REMARK Flexibility Score: inf
ROOT
ATOM      1  C   UNL     1      18.889 132.573  64.452  1.00  0.00     0.000 C 
ENDROOT
BRANCH   1   2
ATOM      2  C   UNL     1      18.626 131.275  65.237  1.00  0.00     0.006 C 
BRANCH   2   3
ATOM      3  C   UNL     1      18.870 130.023  64.383  1.00  0.00     0.053 C 
BRANCH   3   4
ATOM      4  C   UNL     1      17.698 129.091  64.410  1.00  0.00     0.041 C 
ATOM      5  O   UNL     1      16.662 129.396  65.060  1.00  0.00    -0.550 OA
ATOM      6  O   UNL     1      17.760 127.874  63.745  1.00  0.00    -0.550 OA
ENDBRANCH   3   4
ENDBRANCH   2   3
ENDBRANCH   1   2
BRANCH   1   7
ATOM      7  C   UNL     1      18.853 132.361  62.930  1.00  0.00     0.000 C 
BRANCH   7   8
ATOM      8  C   UNL     1      17.576 132.929  62.284  1.00  0.00    -0.000 C 
BRANCH   8   9
ATOM      9  C   UNL     1      16.449 131.888  62.197  1.00  0.00    -0.003 C 
ATOM     10  C   UNL     1      15.345 132.121  63.228  1.00  0.00     0.004 C 
ENDBRANCH   8   9
ENDBRANCH   7   8
ENDBRANCH   1   7
TORSDOF 6
ENDMDL
