MODEL 1
REMARK VINA RESULT:    -4.996      0.000      0.000
REMARK INTER + INTRA:          -8.748
REMARK INTER:                  -7.624
REMARK INTRA:                  -1.123
REMARK UNBOUND:                -1.123
REMARK SMILES CCCCCCCCCCC(=O)[O-]
REMARK SMILES IDX 7 1 8 2 9 3 10 4 11 5 12 6 13 7 6 8 5 9 4 10 3 11 2 12 1 13
REMARK H PARENT
REMARK Flexibility Score: inf
ROOT
ATOM      1  C   UNL     1      -7.303   7.441  -9.625  1.00  0.00     0.000 C 
ENDROOT
BRANCH   1   2
ATOM      2  C   UNL     1      -6.385   7.301  -8.401  1.00  0.00     0.000 C 
BRANCH   2   3
ATOM      3  C   UNL     1      -4.902   7.509  -8.745  1.00  0.00     0.006 C 
BRANCH   3   4
ATOM      4  C   UNL     1      -4.217   8.522  -7.819  1.00  0.00     0.053 C 
BRANCH   4   5
ATOM      5  C   UNL     1      -3.260   7.826  -6.902  1.00  0.00     0.041 C 
ATOM      6  O   UNL     1      -3.494   6.652  -6.514  1.00  0.00    -0.550 OA
ATOM      7  O   UNL     1      -2.133   8.493  -6.438  1.00  0.00    -0.550 OA
ENDBRANCH   4   5
ENDBRANCH   3   4
ENDBRANCH   2   3
ENDBRANCH   1   2
BRANCH   1   8
ATOM      8  C   UNL     1      -6.518   7.959 -10.841  1.00  0.00     0.000 C 
BRANCH   8   9
ATOM      9  C   UNL     1      -7.003   9.337 -11.320  1.00  0.00    -0.000 C 
BRANCH   9  10
ATOM     10  C   UNL     1      -8.119   9.911 -10.428  1.00  0.00    -0.000 C 
BRANCH  10  11
ATOM     11  C   UNL     1      -7.750  11.279  -9.831  1.00  0.00    -0.000 C 
BRANCH  11  12
ATOM     12  C   UNL     1      -6.611  11.190  -8.805  1.00  0.00    -0.003 C 
ATOM     13  C   UNL     1      -5.317  11.772  -9.369  1.00  0.00     0.004 C 
ENDBRANCH  11  12
ENDBRANCH  10  11
ENDBRANCH   9  10
ENDBRANCH   8   9
ENDBRANCH   1   8
TORSDOF 9
ENDMDL
MODEL 2
REMARK VINA RESULT:    -4.985      2.628      4.454
REMARK INTER + INTRA:          -8.731
REMARK INTER:                  -7.710
REMARK INTRA:                  -1.021
REMARK UNBOUND:                -1.123
REMARK SMILES CCCCCCCCCCC(=O)[O-]
REMARK SMILES IDX 7 1 8 2 9 3 10 4 11 5 12 6 13 7 6 8 5 9 4 10 3 11 2 12 1 13
REMARK H PARENT
REMARK Flexibility Score: inf
ROOT
ATOM      1  C   UNL     1      -7.680   8.069  -9.700  1.00  0.00     0.000 C 
ENDROOT
BRANCH   1   2
ATOM      2  C   UNL     1      -6.624   8.471 -10.742  1.00  0.00     0.000 C 
BRANCH   2   3
ATOM      3  C   UNL     1      -6.237   9.955 -10.651  1.00  0.00     0.006 C 
BRANCH   3   4
ATOM      4  C   UNL     1      -7.215  10.769  -9.795  1.00  0.00     0.053 C 
BRANCH   4   5
ATOM      5  C   UNL     1      -6.509  11.922  -9.150  1.00  0.00     0.041 C 
ATOM      6  O   UNL     1      -7.108  12.639  -8.307  1.00  0.00    -0.550 OA
ATOM      7  O   UNL     1      -5.207  12.233  -9.518  1.00  0.00    -0.550 OA
ENDBRANCH   4   5
ENDBRANCH   3   4
ENDBRANCH   2   3
ENDBRANCH   1   2
BRANCH   1   8
ATOM      8  C   UNL     1      -7.379   6.675  -9.126  1.00  0.00     0.000 C 
BRANCH   8   9
ATOM      9  C   UNL     1      -5.888   6.309  -9.200  1.00  0.00    -0.000 C 
BRANCH   9  10
ATOM     10  C   UNL     1      -5.105   6.772  -7.958  1.00  0.00    -0.000 C 
BRANCH  10  11
ATOM     11  C   UNL     1      -3.897   7.653  -8.318  1.00  0.00    -0.000 C 
BRANCH  11  12
ATOM     12  C   UNL     1      -3.556   8.669  -7.219  1.00  0.00    -0.003 C 
ATOM     13  C   UNL     1      -4.654   9.720  -7.083  1.00  0.00     0.004 C 
ENDBRANCH  11  12
ENDBRANCH  10  11
ENDBRANCH   9  10
ENDBRANCH   8   9
ENDBRANCH   1   8
TORSDOF 9
ENDMDL
MODEL 3
REMARK VINA RESULT:    -4.976      0.832      3.060
REMARK INTER + INTRA:          -8.717
REMARK INTER:                  -7.364
REMARK INTRA:                  -1.353
REMARK UNBOUND:                -1.123
REMARK SMILES CCCCCCCCCCC(=O)[O-]
REMARK SMILES IDX 7 1 8 2 9 3 10 4 11 5 12 6 13 7 6 8 5 9 4 10 3 11 2 12 1 13
REMARK H PARENT
REMARK Flexibility Score: inf
ROOT
ATOM      1  C   UNL     1      -6.710  11.215  -9.211  1.00  0.00     0.000 C 
ENDROOT
BRANCH   1   2
ATOM      2  C   UNL     1      -5.208  10.895  -9.258  1.00  0.00     0.000 C 
BRANCH   2   3
ATOM      3  C   UNL     1      -4.736  10.085  -8.041  1.00  0.00     0.006 C 
BRANCH   3   4
ATOM      4  C   UNL     1      -4.026   8.784  -8.436  1.00  0.00     0.053 C 
BRANCH   4   5
ATOM      5  C   UNL     1      -3.462   8.109  -7.225  1.00  0.00     0.041 C 
ATOM      6  O   UNL     1      -2.502   8.629  -6.599  1.00  0.00    -0.550 OA
ATOM      7  O   UNL     1      -3.964   6.879  -6.818  1.00  0.00    -0.550 OA
ENDBRANCH   4   5
ENDBRANCH   3   4
ENDBRANCH   2   3
ENDBRANCH   1   2
BRANCH   1   8
ATOM      8  C   UNL     1      -7.499  10.279 -10.141  1.00  0.00     0.000 C 
BRANCH   8   9
ATOM      9  C   UNL     1      -6.597   9.530 -11.135  1.00  0.00    -0.000 C 
BRANCH   9  10
ATOM     10  C   UNL     1      -6.606   8.007 -10.906  1.00  0.00    -0.000 C 
BRANCH  10  11
ATOM     11  C   UNL     1      -7.659   7.573  -9.872  1.00  0.00    -0.000 C 
BRANCH  11  12
ATOM     12  C   UNL     1      -7.046   6.829  -8.678  1.00  0.00    -0.003 C 
ATOM     13  C   UNL     1      -7.437   7.490  -7.359  1.00  0.00     0.004 C 
ENDBRANCH  11  12
ENDBRANCH  10  11
ENDBRANCH   9  10
ENDBRANCH   8   9
ENDBRANCH   1   8
TORSDOF 9
ENDMDL
MODEL 4
REMARK VINA RESULT:    -4.972      2.733      4.225
REMARK INTER + INTRA:          -8.711
REMARK INTER:                  -7.507
REMARK INTRA:                  -1.204
REMARK UNBOUND:                -1.123
REMARK SMILES CCCCCCCCCCC(=O)[O-]
REMARK SMILES IDX 7 1 8 2 9 3 10 4 11 5 12 6 13 7 6 8 5 9 4 10 3 11 2 12 1 13
REMARK H PARENT
REMARK Flexibility Score: inf
ROOT
ATOM      1  C   UNL     1      -3.969   7.892  -8.382  1.00  0.00     0.000 C 
ENDROOT
BRANCH   1   2
ATOM      2  C   UNL     1      -3.801   8.976  -7.305  1.00  0.00     0.000 C 
BRANCH   2   3
ATOM      3  C   UNL     1      -4.703  10.196  -7.547  1.00  0.00     0.006 C 
BRANCH   3   4
ATOM      4  C   UNL     1      -4.868  10.523  -9.036  1.00  0.00     0.053 C 
BRANCH   4   5
ATOM      5  C   UNL     1      -5.736  11.730  -9.212  1.00  0.00     0.041 C 
ATOM      6  O   UNL     1      -5.217  12.859  -9.416  1.00  0.00    -0.550 OA
ATOM      7  O   UNL     1      -7.116  11.617  -9.100  1.00  0.00    -0.550 OA
ENDBRANCH   4   5
ENDBRANCH   3   4
ENDBRANCH   2   3
ENDBRANCH   1   2
BRANCH   1   8
ATOM      8  C   UNL     1      -4.906   6.776  -7.893  1.00  0.00     0.000 C 
BRANCH   8   9
ATOM      9  C   UNL     1      -6.075   6.515  -8.856  1.00  0.00    -0.000 C 
BRANCH   9  10
ATOM     10  C   UNL     1      -7.251   7.483  -8.630  1.00  0.00    -0.000 C 
BRANCH  10  11
ATOM     11  C   UNL     1      -7.629   8.258  -9.904  1.00  0.00    -0.000 C 
BRANCH  11  12
ATOM     12  C   UNL     1      -6.592   8.098 -11.025  1.00  0.00    -0.003 C 
ATOM     13  C   UNL     1      -6.616   9.296 -11.970  1.00  0.00     0.004 C 
ENDBRANCH  11  12
ENDBRANCH  10  11
ENDBRANCH   9  10
ENDBRANCH   8   9
ENDBRANCH   1   8
TORSDOF 9
ENDMDL
MODEL 5
REMARK VINA RESULT:    -4.916      2.926      4.867
REMARK INTER + INTRA:          -8.626
REMARK INTER:                  -7.646
REMARK INTRA:                  -0.980
REMARK UNBOUND:                -1.123
REMARK SMILES CCCCCCCCCCC(=O)[O-]
REMARK SMILES IDX 7 1 8 2 9 3 10 4 11 5 12 6 13 7 6 8 5 9 4 10 3 11 2 12 1 13
REMARK H PARENT
REMARK Flexibility Score: inf
ROOT
ATOM      1  C   UNL     1      -3.741   8.881  -7.285  1.00  0.00     0.000 C 
ENDROOT
BRANCH   1   2
ATOM      2  C   UNL     1      -4.754   9.989  -7.611  1.00  0.00     0.000 C 
BRANCH   2   3
ATOM      3  C   UNL     1      -4.810  10.318  -9.111  1.00  0.00     0.006 C 
BRANCH   3   4
ATOM      4  C   UNL     1      -5.200  11.776  -9.382  1.00  0.00     0.053 C 
BRANCH   4   5
ATOM      5  C   UNL     1      -6.660  11.983  -9.124  1.00  0.00     0.041 C 
ATOM      6  O   UNL     1      -7.039  12.841  -8.285  1.00  0.00    -0.550 OA
ATOM      7  O   UNL     1      -7.599  11.193  -9.774  1.00  0.00    -0.550 OA
ENDBRANCH   4   5
ENDBRANCH   3   4
ENDBRANCH   2   3
ENDBRANCH   1   2
BRANCH   1   8
ATOM      8  C   UNL     1      -3.949   7.663  -8.200  1.00  0.00     0.000 C 
BRANCH   8   9
ATOM      9  C   UNL     1      -5.040   6.710  -7.684  1.00  0.00    -0.000 C 
BRANCH   9  10
ATOM     10  C   UNL     1      -5.755   5.963  -8.824  1.00  0.00    -0.000 C 
BRANCH  10  11
ATOM     11  C   UNL     1      -7.242   6.341  -8.934  1.00  0.00    -0.000 C 
BRANCH  11  12
ATOM     12  C   UNL     1      -7.456   7.723  -9.568  1.00  0.00    -0.003 C 
ATOM     13  C   UNL     1      -6.610   7.886 -10.828  1.00  0.00     0.004 C 
ENDBRANCH  11  12
ENDBRANCH  10  11
ENDBRANCH   9  10
ENDBRANCH   8   9
ENDBRANCH   1   8
TORSDOF 9
ENDMDL
MODEL 6
REMARK VINA RESULT:    -4.880      3.016      4.459
REMARK INTER + INTRA:          -8.571
REMARK INTER:                  -7.361
REMARK INTRA:                  -1.210
REMARK UNBOUND:                -1.123
REMARK SMILES CCCCCCCCCCC(=O)[O-]
REMARK SMILES IDX 7 1 8 2 9 3 10 4 11 5 12 6 13 7 6 8 5 9 4 10 3 11 2 12 1 13
REMARK H PARENT
REMARK Flexibility Score: inf
ROOT
ATOM      1  C   UNL     1      -5.611   6.278  -8.538  1.00  0.00     0.000 C 
ENDROOT
BRANCH   1   2
ATOM      2  C   UNL     1      -7.123   6.535  -8.446  1.00  0.00     0.000 C 
BRANCH   2   3
ATOM      3  C   UNL     1      -7.637   7.451  -9.567  1.00  0.00     0.006 C 
BRANCH   3   4
ATOM      4  C   UNL     1      -6.524   7.898 -10.522  1.00  0.00     0.053 C 
BRANCH   4   5
ATOM      5  C   UNL     1      -6.949   9.113 -11.286  1.00  0.00     0.041 C 
ATOM      6  O   UNL     1      -6.320   9.463 -12.319  1.00  0.00    -0.550 OA
ATOM      7  O   UNL     1      -8.008   9.887 -10.829  1.00  0.00    -0.550 OA
ENDBRANCH   4   5
ENDBRANCH   3   4
ENDBRANCH   2   3
ENDBRANCH   1   2
BRANCH   1   8
ATOM      8  C   UNL     1      -4.917   6.609  -7.207  1.00  0.00     0.000 C 
BRANCH   8   9
ATOM      9  C   UNL     1      -3.666   7.483  -7.390  1.00  0.00    -0.000 C 
BRANCH   9  10
ATOM     10  C   UNL     1      -3.977   8.818  -8.090  1.00  0.00    -0.000 C 
BRANCH  10  11
ATOM     11  C   UNL     1      -4.825   9.757  -7.216  1.00  0.00    -0.000 C 
BRANCH  11  12
ATOM     12  C   UNL     1      -5.870  10.539  -8.025  1.00  0.00    -0.003 C 
ATOM     13  C   UNL     1      -5.206  11.369  -9.121  1.00  0.00     0.004 C 
ENDBRANCH  11  12
ENDBRANCH  10  11
ENDBRANCH   9  10
ENDBRANCH   8   9
ENDBRANCH   1   8
TORSDOF 9
ENDMDL
MODEL 7
REMARK VINA RESULT:    -4.776      2.682      4.120
REMARK INTER + INTRA:          -8.413
REMARK INTER:                  -7.089
REMARK INTRA:                  -1.324
REMARK UNBOUND:                -1.123
REMARK SMILES CCCCCCCCCCC(=O)[O-]
REMARK SMILES IDX 7 1 8 2 9 3 10 4 11 5 12 6 13 7 6 8 5 9 4 10 3 11 2 12 1 13
REMARK H PARENT
REMARK Flexibility Score: inf
ROOT
ATOM      1  C   UNL     1      -5.005   6.919  -7.988  1.00  0.00     0.000 C 
ENDROOT
BRANCH   1   2
ATOM      2  C   UNL     1      -5.941   6.519  -9.138  1.00  0.00     0.000 C 
BRANCH   2   3
ATOM      3  C   UNL     1      -7.411   6.867  -8.854  1.00  0.00     0.006 C 
BRANCH   3   4
ATOM      4  C   UNL     1      -7.615   7.477  -7.462  1.00  0.00     0.053 C 
BRANCH   4   5
ATOM      5  C   UNL     1      -8.658   6.715  -6.706  1.00  0.00     0.041 C 
ATOM      6  O   UNL     1      -8.672   6.738  -5.448  1.00  0.00    -0.550 OA
ATOM      7  O   UNL     1      -9.584   5.938  -7.391  1.00  0.00    -0.550 OA
ENDBRANCH   4   5
ENDBRANCH   3   4
ENDBRANCH   2   3
ENDBRANCH   1   2
BRANCH   1   8
ATOM      8  C   UNL     1      -3.946   7.924  -8.469  1.00  0.00     0.000 C 
BRANCH   8   9
ATOM      9  C   UNL     1      -3.955   9.231  -7.660  1.00  0.00    -0.000 C 
BRANCH   9  10
ATOM     10  C   UNL     1      -5.154  10.131  -8.009  1.00  0.00    -0.000 C 
BRANCH  10  11
ATOM     11  C   UNL     1      -5.176  10.533  -9.494  1.00  0.00    -0.000 C 
BRANCH  11  12
ATOM     12  C   UNL     1      -6.550  10.318 -10.145  1.00  0.00    -0.003 C 
ATOM     13  C   UNL     1      -6.443   9.404 -11.363  1.00  0.00     0.004 C 
ENDBRANCH  11  12
ENDBRANCH  10  11
ENDBRANCH   9  10
ENDBRANCH   8   9
ENDBRANCH   1   8
TORSDOF 9
ENDMDL
MODEL 8
REMARK VINA RESULT:    -4.773      3.028      5.045
REMARK INTER + INTRA:          -8.407
REMARK INTER:                  -7.285
REMARK INTRA:                  -1.122
REMARK UNBOUND:                -1.123
REMARK SMILES CCCCCCCCCCC(=O)[O-]
REMARK SMILES IDX 7 1 8 2 9 3 10 4 11 5 12 6 13 7 6 8 5 9 4 10 3 11 2 12 1 13
REMARK H PARENT
REMARK Flexibility Score: inf
ROOT
ATOM      1  C   UNL     1      -4.000   9.362  -7.554  1.00  0.00     0.000 C 
ENDROOT
BRANCH   1   2
ATOM      2  C   UNL     1      -5.487   9.749  -7.533  1.00  0.00     0.000 C 
BRANCH   2   3
ATOM      3  C   UNL     1      -5.842  10.795  -8.601  1.00  0.00     0.006 C 
BRANCH   3   4
ATOM      4  C   UNL     1      -5.546  10.309 -10.026  1.00  0.00     0.053 C 
BRANCH   4   5
ATOM      5  C   UNL     1      -6.819  10.144 -10.796  1.00  0.00     0.041 C 
ATOM      6  O   UNL     1      -7.908  10.553 -10.314  1.00  0.00    -0.550 OA
ATOM      7  O   UNL     1      -6.810   9.494 -12.023  1.00  0.00    -0.550 OA
ENDBRANCH   4   5
ENDBRANCH   3   4
ENDBRANCH   2   3
ENDBRANCH   1   2
BRANCH   1   8
ATOM      8  C   UNL     1      -3.830   7.854  -7.793  1.00  0.00     0.000 C 
BRANCH   8   9
ATOM      9  C   UNL     1      -5.141   7.071  -7.614  1.00  0.00    -0.000 C 
BRANCH   9  10
ATOM     10  C   UNL     1      -5.468   6.185  -8.829  1.00  0.00    -0.000 C 
BRANCH  10  11
ATOM     11  C   UNL     1      -6.602   6.764  -9.692  1.00  0.00    -0.000 C 
BRANCH  11  12
ATOM     12  C   UNL     1      -7.852   7.113  -8.872  1.00  0.00    -0.003 C 
ATOM     13  C   UNL     1      -9.040   6.250  -9.289  1.00  0.00     0.004 C 
ENDBRANCH  11  12
ENDBRANCH  10  11
ENDBRANCH   9  10
ENDBRANCH   8   9
ENDBRANCH   1   8
TORSDOF 9
ENDMDL
MODEL 9
REMARK VINA RESULT:    -4.752      1.967      3.899
REMARK INTER + INTRA:          -8.376
REMARK INTER:                  -7.097
REMARK INTRA:                  -1.279
REMARK UNBOUND:                -1.123
REMARK SMILES CCCCCCCCCCC(=O)[O-]
REMARK SMILES IDX 7 1 8 2 9 3 10 4 11 5 12 6 13 7 6 8 5 9 4 10 3 11 2 12 1 13
REMARK H PARENT
REMARK Flexibility Score: inf
ROOT
ATOM      1  C   UNL     1      -7.739  10.110 -10.431  1.00  0.00     0.000 C 
ENDROOT
BRANCH   1   2
ATOM      2  C   UNL     1      -6.658   9.282 -11.141  1.00  0.00     0.000 C 
BRANCH   2   3
ATOM      3  C   UNL     1      -6.603   7.829 -10.644  1.00  0.00     0.006 C 
BRANCH   3   4
ATOM      4  C   UNL     1      -7.681   7.521  -9.598  1.00  0.00     0.053 C 
BRANCH   4   5
ATOM      5  C   UNL     1      -7.110   6.694  -8.488  1.00  0.00     0.041 C 
ATOM      6  O   UNL     1      -7.346   6.995  -7.289  1.00  0.00    -0.550 OA
ATOM      7  O   UNL     1      -6.277   5.621  -8.778  1.00  0.00    -0.550 OA
ENDBRANCH   4   5
ENDBRANCH   3   4
ENDBRANCH   2   3
ENDBRANCH   1   2
BRANCH   1   8
ATOM      8  C   UNL     1      -7.103  11.169  -9.515  1.00  0.00     0.000 C 
BRANCH   8   9
ATOM      9  C   UNL     1      -5.575  11.243  -9.662  1.00  0.00    -0.000 C 
BRANCH   9  10
ATOM     10  C   UNL     1      -4.845  11.076  -8.317  1.00  0.00    -0.000 C 
BRANCH  10  11
ATOM     11  C   UNL     1      -5.004   9.661  -7.733  1.00  0.00    -0.000 C 
BRANCH  11  12
ATOM     12  C   UNL     1      -3.959   8.676  -8.275  1.00  0.00    -0.003 C 
ATOM     13  C   UNL     1      -3.635   7.598  -7.244  1.00  0.00     0.004 C 
ENDBRANCH  11  12
ENDBRANCH  10  11
ENDBRANCH   9  10
ENDBRANCH   8   9
ENDBRANCH   1   8
TORSDOF 9
ENDMDL
