MODEL 1
REMARK VINA RESULT:    43.343      0.000      0.000
REMARK INTER + INTRA:          61.236
REMARK INTER:                  59.814
REMARK INTRA:                   1.423
REMARK UNBOUND:                 1.423
REMARK SMILES C=C(CC[C@@H](C(=O)[O-])[C@H]1CC[C@]2(C)C3=C(CC[C@@]12C)[C@@]1(C)CC[C@@H](O)C(C)(C)[C@@H]1CC3)C(C)C
REMARK SMILES IDX 4 1 5 2 6 3 7 4 8 5 9 6 10 7 18 8 11 9 12 10 17 11 19 12
REMARK SMILES IDX 13 13 14 14 16 15 15 16 31 17 20 18 30 19 29 20 22 21 21 22
REMARK SMILES IDX 26 23 23 24 24 25 27 26 28 27 25 28 3 30 2 31 1 32 32 33
REMARK SMILES IDX 33 34 34 35
REMARK H PARENT 25 29
REMARK Flexibility Score: inf
ROOT
ATOM      1  C   UNL     1      28.789  25.822  24.600  1.00  0.00     0.014 C 
ENDROOT
BRANCH   1   2
ATOM      2  C   UNL     1      28.191  24.888  23.510  1.00  0.00     0.039 C 
BRANCH   2   3
ATOM      3  C   UNL     1      28.812  23.512  23.620  1.00  0.00     0.045 C 
ATOM      4  O   UNL     1      29.125  22.875  22.576  1.00  0.00    -0.550 OA
ATOM      5  O   UNL     1      28.981  22.903  24.858  1.00  0.00    -0.550 OA
ENDBRANCH   2   3
BRANCH   2   6
ATOM      6  C   UNL     1      26.626  24.721  23.490  1.00  0.00     0.004 C 
ATOM      7  C   UNL     1      26.096  23.284  23.250  1.00  0.00     0.006 C 
ATOM      8  C   UNL     1      25.748  25.296  24.659  1.00  0.00    -0.020 C 
ATOM      9  C   UNL     1      24.897  23.087  24.194  1.00  0.00     0.012 C 
ATOM     10  C   UNL     1      25.180  24.034  25.373  1.00  0.00    -0.006 C 
ATOM     11  C   UNL     1      26.395  26.216  25.714  1.00  0.00     0.012 C 
ATOM     12  C   UNL     1      24.613  26.155  23.977  1.00  0.00     0.012 C 
ATOM     13  C   UNL     1      26.146  23.274  26.338  1.00  0.00     0.017 C 
ATOM     14  C   UNL     1      24.015  24.464  26.250  1.00  0.00    -0.064 C 
ATOM     15  C   UNL     1      25.460  26.438  26.946  1.00  0.00     0.032 C 
ATOM     16  C   UNL     1      24.165  25.579  27.042  1.00  0.00    -0.064 C 
ATOM     17  C   UNL     1      22.736  23.650  26.212  1.00  0.00     0.032 C 
ATOM     18  C   UNL     1      23.173  25.866  28.204  1.00  0.00    -0.008 C 
ATOM     19  C   UNL     1      21.940  23.736  27.506  1.00  0.00     0.009 C 
ATOM     20  C   UNL     1      21.778  25.212  27.915  1.00  0.00     0.007 C 
ATOM     21  C   UNL     1      22.961  27.408  28.351  1.00  0.00     0.014 C 
ATOM     22  C   UNL     1      23.860  25.280  29.473  1.00  0.00     0.016 C 
ATOM     23  C   UNL     1      20.645  25.473  29.003  1.00  0.00    -0.006 C 
ATOM     24  C   UNL     1      21.622  27.855  28.981  1.00  0.00     0.033 C 
ATOM     25  C   UNL     1      20.939  26.776  29.831  1.00  0.00     0.120 C 
ATOM     26  C   UNL     1      19.289  25.624  28.255  1.00  0.00     0.014 C 
ATOM     27  C   UNL     1      20.472  24.286  29.987  1.00  0.00     0.014 C 
BRANCH  25  28
ATOM     28  O   UNL     1      19.755  27.326  30.361  1.00  0.00    -0.393 OA
ATOM     29  H   UNL     1      19.576  28.170  29.872  1.00  0.00     0.210 HD
ENDBRANCH  25  28
ENDBRANCH   2   6
ENDBRANCH   1   2
BRANCH   1  30
ATOM     30  C   UNL     1      29.121  27.248  24.100  1.00  0.00     0.031 C 
BRANCH  30  31
ATOM     31  C   UNL     1      28.204  28.330  24.665  1.00  0.00    -0.075 C 
ATOM     32  C   UNL     1      27.270  28.872  23.859  1.00  0.00     0.008 C 
BRANCH  31  33
ATOM     33  C   UNL     1      28.215  28.756  26.138  1.00  0.00     0.008 C 
ATOM     34  C   UNL     1      28.982  30.054  26.421  1.00  0.00     0.012 C 
ATOM     35  C   UNL     1      28.770  27.625  27.022  1.00  0.00     0.012 C 
ENDBRANCH  31  33
ENDBRANCH  30  31
ENDBRANCH   1  30
TORSDOF 7
ENDMDL
MODEL 2
REMARK VINA RESULT:    43.652      2.609      8.869
REMARK INTER + INTRA:          61.662
REMARK INTER:                  60.343
REMARK INTRA:                   1.319
REMARK UNBOUND:                 1.423
REMARK SMILES C=C(CC[C@@H](C(=O)[O-])[C@H]1CC[C@]2(C)C3=C(CC[C@@]12C)[C@@]1(C)CC[C@@H](O)C(C)(C)[C@@H]1CC3)C(C)C
REMARK SMILES IDX 4 1 5 2 6 3 7 4 8 5 9 6 10 7 18 8 11 9 12 10 17 11 19 12
REMARK SMILES IDX 13 13 14 14 16 15 15 16 31 17 20 18 30 19 29 20 22 21 21 22
REMARK SMILES IDX 26 23 23 24 24 25 27 26 28 27 25 28 3 30 2 31 1 32 32 33
REMARK SMILES IDX 33 34 34 35
REMARK H PARENT 25 29
REMARK Flexibility Score: inf
ROOT
ATOM      1  C   UNL     1      19.024  27.476  30.260  1.00  0.00     0.014 C 
ENDROOT
BRANCH   1   2
ATOM      2  C   UNL     1      19.646  26.662  29.090  1.00  0.00     0.039 C 
BRANCH   2   3
ATOM      3  C   UNL     1      18.581  26.352  28.060  1.00  0.00     0.045 C 
ATOM      4  O   UNL     1      18.864  25.650  27.050  1.00  0.00    -0.550 OA
ATOM      5  O   UNL     1      17.305  26.892  28.171  1.00  0.00    -0.550 OA
ENDBRANCH   2   3
BRANCH   2   6
ATOM      6  C   UNL     1      20.878  27.301  28.348  1.00  0.00     0.004 C 
ATOM      7  C   UNL     1      21.730  28.300  29.173  1.00  0.00     0.006 C 
ATOM      8  C   UNL     1      21.916  26.392  27.599  1.00  0.00    -0.020 C 
ATOM      9  C   UNL     1      23.203  28.018  28.830  1.00  0.00     0.012 C 
ATOM     10  C   UNL     1      23.225  26.533  28.430  1.00  0.00    -0.006 C 
ATOM     11  C   UNL     1      21.612  24.894  27.401  1.00  0.00     0.012 C 
ATOM     12  C   UNL     1      22.066  26.995  26.147  1.00  0.00     0.012 C 
ATOM     13  C   UNL     1      23.311  25.711  29.756  1.00  0.00     0.017 C 
ATOM     14  C   UNL     1      24.385  26.029  27.586  1.00  0.00    -0.064 C 
ATOM     15  C   UNL     1      22.868  24.101  26.917  1.00  0.00     0.032 C 
ATOM     16  C   UNL     1      24.237  24.843  26.906  1.00  0.00    -0.064 C 
ATOM     17  C   UNL     1      25.654  26.858  27.524  1.00  0.00     0.032 C 
ATOM     18  C   UNL     1      25.474  24.101  26.325  1.00  0.00    -0.008 C 
ATOM     19  C   UNL     1      26.894  26.023  27.238  1.00  0.00     0.009 C 
ATOM     20  C   UNL     1      26.634  25.112  26.024  1.00  0.00     0.007 C 
ATOM     21  C   UNL     1      25.088  23.398  24.983  1.00  0.00     0.014 C 
ATOM     22  C   UNL     1      25.858  23.051  27.408  1.00  0.00     0.016 C 
ATOM     23  C   UNL     1      27.948  24.493  25.373  1.00  0.00    -0.006 C 
ATOM     24  C   UNL     1      26.243  23.154  23.985  1.00  0.00     0.033 C 
ATOM     25  C   UNL     1      27.635  23.145  24.628  1.00  0.00     0.120 C 
ATOM     26  C   UNL     1      28.514  25.530  24.360  1.00  0.00     0.014 C 
ATOM     27  C   UNL     1      29.072  24.239  26.412  1.00  0.00     0.014 C 
BRANCH  25  28
ATOM     28  O   UNL     1      28.579  22.887  23.615  1.00  0.00    -0.393 OA
ATOM     29  H   UNL     1      28.142  22.300  22.945  1.00  0.00     0.210 HD
ENDBRANCH  25  28
ENDBRANCH   2   6
ENDBRANCH   1   2
BRANCH   1  30
ATOM     30  C   UNL     1      18.495  28.872  29.850  1.00  0.00     0.031 C 
BRANCH  30  31
ATOM     31  C   UNL     1      16.979  29.015  29.964  1.00  0.00    -0.075 C 
ATOM     32  C   UNL     1      16.291  28.084  30.653  1.00  0.00     0.008 C 
BRANCH  31  33
ATOM     33  C   UNL     1      16.207  30.227  29.429  1.00  0.00     0.008 C 
ATOM     34  C   UNL     1      16.681  31.580  29.977  1.00  0.00     0.012 C 
ATOM     35  C   UNL     1      14.699  30.064  29.689  1.00  0.00     0.012 C 
ENDBRANCH  31  33
ENDBRANCH  30  31
ENDBRANCH   1  30
TORSDOF 7
ENDMDL
MODEL 3
REMARK VINA RESULT:    44.275      3.131      5.557
REMARK INTER + INTRA:          62.522
REMARK INTER:                  62.927
REMARK INTRA:                  -0.405
REMARK UNBOUND:                 1.423
REMARK SMILES C=C(CC[C@@H](C(=O)[O-])[C@H]1CC[C@]2(C)C3=C(CC[C@@]12C)[C@@]1(C)CC[C@@H](O)C(C)(C)[C@@H]1CC3)C(C)C
REMARK SMILES IDX 4 1 5 2 6 3 7 4 8 5 9 6 10 7 18 8 11 9 12 10 17 11 19 12
REMARK SMILES IDX 13 13 14 14 16 15 15 16 31 17 20 18 30 19 29 20 22 21 21 22
REMARK SMILES IDX 26 23 23 24 24 25 27 26 28 27 25 28 3 30 2 31 1 32 32 33
REMARK SMILES IDX 33 34 34 35
REMARK H PARENT 25 29
REMARK Flexibility Score: inf
ROOT
ATOM      1  C   UNL     1      26.005  26.093  23.117  1.00  0.00     0.014 C 
ENDROOT
BRANCH   1   2
ATOM      2  C   UNL     1      27.307  26.851  23.502  1.00  0.00     0.039 C 
BRANCH   2   3
ATOM      3  C   UNL     1      27.171  28.315  23.140  1.00  0.00     0.045 C 
ATOM      4  O   UNL     1      26.028  28.818  22.961  1.00  0.00    -0.550 OA
ATOM      5  O   UNL     1      28.297  29.103  22.929  1.00  0.00    -0.550 OA
ENDBRANCH   2   3
BRANCH   2   6
ATOM      6  C   UNL     1      27.775  26.756  25.001  1.00  0.00     0.004 C 
ATOM      7  C   UNL     1      29.125  27.439  25.340  1.00  0.00     0.006 C 
ATOM      8  C   UNL     1      26.803  27.161  26.166  1.00  0.00    -0.020 C 
ATOM      9  C   UNL     1      28.944  28.135  26.700  1.00  0.00     0.012 C 
ATOM     10  C   UNL     1      27.439  28.447  26.773  1.00  0.00    -0.006 C 
ATOM     11  C   UNL     1      25.318  27.441  25.856  1.00  0.00     0.012 C 
ATOM     12  C   UNL     1      26.809  25.957  27.187  1.00  0.00     0.012 C 
ATOM     13  C   UNL     1      27.218  29.780  25.989  1.00  0.00     0.017 C 
ATOM     14  C   UNL     1      26.817  28.691  28.138  1.00  0.00    -0.064 C 
ATOM     15  C   UNL     1      24.586  28.115  27.061  1.00  0.00     0.032 C 
ATOM     16  C   UNL     1      25.451  28.586  28.267  1.00  0.00    -0.064 C 
ATOM     17  C   UNL     1      27.727  29.035  29.301  1.00  0.00     0.032 C 
ATOM     18  C   UNL     1      24.725  29.159  29.516  1.00  0.00    -0.008 C 
ATOM     19  C   UNL     1      27.031  29.860  30.375  1.00  0.00     0.009 C 
ATOM     20  C   UNL     1      25.693  29.196  30.749  1.00  0.00     0.007 C 
ATOM     21  C   UNL     1      23.509  28.249  29.886  1.00  0.00     0.014 C 
ATOM     22  C   UNL     1      24.244  30.576  29.088  1.00  0.00     0.016 C 
ATOM     23  C   UNL     1      25.062  29.713  32.117  1.00  0.00    -0.006 C 
ATOM     24  C   UNL     1      23.063  28.275  31.366  1.00  0.00     0.033 C 
ATOM     25  C   UNL     1      23.501  29.532  32.129  1.00  0.00     0.120 C 
ATOM     26  C   UNL     1      25.694  28.889  33.276  1.00  0.00     0.014 C 
ATOM     27  C   UNL     1      25.394  31.200  32.408  1.00  0.00     0.014 C 
BRANCH  25  28
ATOM     28  O   UNL     1      23.007  29.434  33.445  1.00  0.00    -0.393 OA
ATOM     29  H   UNL     1      23.763  29.159  34.027  1.00  0.00     0.210 HD
ENDBRANCH  25  28
ENDBRANCH   2   6
ENDBRANCH   1   2
BRANCH   1  30
ATOM     30  C   UNL     1      26.192  24.569  22.922  1.00  0.00     0.031 C 
BRANCH  30  31
ATOM     31  C   UNL     1      26.395  23.800  24.224  1.00  0.00    -0.075 C 
ATOM     32  C   UNL     1      27.628  23.347  24.524  1.00  0.00     0.008 C 
BRANCH  31  33
ATOM     33  C   UNL     1      25.288  23.609  25.268  1.00  0.00     0.008 C 
ATOM     34  C   UNL     1      25.730  22.875  26.542  1.00  0.00     0.012 C 
ATOM     35  C   UNL     1      24.080  22.884  24.648  1.00  0.00     0.012 C 
ENDBRANCH  31  33
ENDBRANCH  30  31
ENDBRANCH   1  30
TORSDOF 7
ENDMDL
MODEL 4
REMARK VINA RESULT:    45.512      3.476      7.811
REMARK INTER + INTRA:          64.229
REMARK INTER:                  63.891
REMARK INTRA:                   0.338
REMARK UNBOUND:                 1.423
REMARK SMILES C=C(CC[C@@H](C(=O)[O-])[C@H]1CC[C@]2(C)C3=C(CC[C@@]12C)[C@@]1(C)CC[C@@H](O)C(C)(C)[C@@H]1CC3)C(C)C
REMARK SMILES IDX 4 1 5 2 6 3 7 4 8 5 9 6 10 7 18 8 11 9 12 10 17 11 19 12
REMARK SMILES IDX 13 13 14 14 16 15 15 16 31 17 20 18 30 19 29 20 22 21 21 22
REMARK SMILES IDX 26 23 23 24 24 25 27 26 28 27 25 28 3 30 2 31 1 32 32 33
REMARK SMILES IDX 33 34 34 35
REMARK H PARENT 25 29
REMARK Flexibility Score: inf
ROOT
ATOM      1  C   UNL     1      24.548  25.686  26.918  1.00  0.00     0.014 C 
ENDROOT
BRANCH   1   2
ATOM      2  C   UNL     1      26.022  25.249  27.149  1.00  0.00     0.039 C 
BRANCH   2   3
ATOM      3  C   UNL     1      26.421  24.226  26.106  1.00  0.00     0.045 C 
ATOM      4  O   UNL     1      27.379  23.435  26.330  1.00  0.00    -0.550 OA
ATOM      5  O   UNL     1      25.792  24.191  24.867  1.00  0.00    -0.550 OA
ENDBRANCH   2   3
BRANCH   2   6
ATOM      6  C   UNL     1      27.112  26.384  27.167  1.00  0.00     0.004 C 
ATOM      7  C   UNL     1      28.501  26.007  26.592  1.00  0.00     0.006 C 
ATOM      8  C   UNL     1      26.792  27.804  26.578  1.00  0.00    -0.020 C 
ATOM      9  C   UNL     1      28.989  27.215  25.775  1.00  0.00     0.012 C 
ATOM     10  C   UNL     1      27.697  27.913  25.315  1.00  0.00    -0.006 C 
ATOM     11  C   UNL     1      25.344  28.156  26.184  1.00  0.00     0.012 C 
ATOM     12  C   UNL     1      27.200  28.847  27.692  1.00  0.00     0.012 C 
ATOM     13  C   UNL     1      27.213  27.161  24.034  1.00  0.00     0.017 C 
ATOM     14  C   UNL     1      27.772  29.374  24.903  1.00  0.00    -0.064 C 
ATOM     15  C   UNL     1      25.270  29.474  25.348  1.00  0.00     0.032 C 
ATOM     16  C   UNL     1      26.608  30.107  24.866  1.00  0.00    -0.064 C 
ATOM     17  C   UNL     1      29.125  29.964  24.556  1.00  0.00     0.032 C 
ATOM     18  C   UNL     1      26.555  31.474  24.127  1.00  0.00    -0.008 C 
ATOM     19  C   UNL     1      29.031  31.132  23.584  1.00  0.00     0.009 C 
ATOM     20  C   UNL     1      27.975  32.135  24.084  1.00  0.00     0.007 C 
ATOM     21  C   UNL     1      25.593  32.447  24.884  1.00  0.00     0.014 C 
ATOM     22  C   UNL     1      26.003  31.144  22.710  1.00  0.00     0.016 C 
ATOM     23  C   UNL     1      28.057  33.571  23.401  1.00  0.00    -0.006 C 
ATOM     24  C   UNL     1      25.866  33.957  24.695  1.00  0.00     0.033 C 
ATOM     25  C   UNL     1      26.664  34.296  23.430  1.00  0.00     0.120 C 
ATOM     26  C   UNL     1      29.102  34.415  24.186  1.00  0.00     0.014 C 
ATOM     27  C   UNL     1      28.558  33.511  21.934  1.00  0.00     0.014 C 
BRANCH  25  28
ATOM     28  O   UNL     1      26.812  35.696  23.373  1.00  0.00    -0.393 OA
ATOM     29  H   UNL     1      27.298  35.909  22.535  1.00  0.00     0.210 HD
ENDBRANCH  25  28
ENDBRANCH   2   6
ENDBRANCH   1   2
BRANCH   1  30
ATOM     30  C   UNL     1      23.525  24.977  27.838  1.00  0.00     0.031 C 
BRANCH  30  31
ATOM     31  C   UNL     1      22.276  25.806  28.126  1.00  0.00    -0.075 C 
ATOM     32  C   UNL     1      21.074  25.198  28.098  1.00  0.00     0.008 C 
BRANCH  31  33
ATOM     33  C   UNL     1      22.325  27.278  28.555  1.00  0.00     0.008 C 
ATOM     34  C   UNL     1      23.673  27.730  29.131  1.00  0.00     0.012 C 
ATOM     35  C   UNL     1      21.204  27.583  29.565  1.00  0.00     0.012 C 
ENDBRANCH  31  33
ENDBRANCH  30  31
ENDBRANCH   1  30
TORSDOF 7
ENDMDL
MODEL 5
REMARK VINA RESULT:    45.956      2.477      5.323
REMARK INTER + INTRA:          64.842
REMARK INTER:                  56.643
REMARK INTRA:                   8.198
REMARK UNBOUND:                 1.423
REMARK SMILES C=C(CC[C@@H](C(=O)[O-])[C@H]1CC[C@]2(C)C3=C(CC[C@@]12C)[C@@]1(C)CC[C@@H](O)C(C)(C)[C@@H]1CC3)C(C)C
REMARK SMILES IDX 4 1 5 2 6 3 7 4 8 5 9 6 10 7 18 8 11 9 12 10 17 11 19 12
REMARK SMILES IDX 13 13 14 14 16 15 15 16 31 17 20 18 30 19 29 20 22 21 21 22
REMARK SMILES IDX 26 23 23 24 24 25 27 26 28 27 25 28 3 30 2 31 1 32 32 33
REMARK SMILES IDX 33 34 34 35
REMARK H PARENT 25 29
REMARK Flexibility Score: inf
ROOT
ATOM      1  C   UNL     1      25.074  24.048  23.750  1.00  0.00     0.014 C 
ENDROOT
BRANCH   1   2
ATOM      2  C   UNL     1      26.489  23.509  24.101  1.00  0.00     0.039 C 
BRANCH   2   3
ATOM      3  C   UNL     1      27.361  23.520  22.863  1.00  0.00     0.045 C 
ATOM      4  O   UNL     1      28.597  23.283  22.959  1.00  0.00    -0.550 OA
ATOM      5  O   UNL     1      26.832  23.858  21.623  1.00  0.00    -0.550 OA
ENDBRANCH   2   3
BRANCH   2   6
ATOM      6  C   UNL     1      27.268  24.239  25.257  1.00  0.00     0.004 C 
ATOM      7  C   UNL     1      28.470  25.117  24.824  1.00  0.00     0.006 C 
ATOM      8  C   UNL     1      26.494  25.095  26.322  1.00  0.00    -0.020 C 
ATOM      9  C   UNL     1      28.423  26.392  25.683  1.00  0.00     0.012 C 
ATOM     10  C   UNL     1      26.936  26.560  26.038  1.00  0.00    -0.006 C 
ATOM     11  C   UNL     1      24.953  25.041  26.368  1.00  0.00     0.012 C 
ATOM     12  C   UNL     1      26.983  24.590  27.736  1.00  0.00     0.012 C 
ATOM     13  C   UNL     1      26.263  27.278  24.824  1.00  0.00     0.017 C 
ATOM     14  C   UNL     1      26.573  27.413  27.243  1.00  0.00    -0.064 C 
ATOM     15  C   UNL     1      24.355  26.168  27.270  1.00  0.00     0.032 C 
ATOM     16  C   UNL     1      25.323  27.266  27.799  1.00  0.00    -0.064 C 
ATOM     17  C   UNL     1      27.603  28.385  27.784  1.00  0.00     0.032 C 
ATOM     18  C   UNL     1      24.763  28.331  28.784  1.00  0.00    -0.008 C 
ATOM     19  C   UNL     1      26.978  29.577  28.495  1.00  0.00     0.009 C 
ATOM     20  C   UNL     1      25.932  29.082  29.510  1.00  0.00     0.007 C 
ATOM     21  C   UNL     1      23.887  27.634  29.876  1.00  0.00     0.014 C 
ATOM     22  C   UNL     1      23.896  29.278  27.903  1.00  0.00     0.016 C 
ATOM     23  C   UNL     1      25.499  30.167  30.592  1.00  0.00    -0.006 C 
ATOM     24  C   UNL     1      23.764  28.375  31.227  1.00  0.00     0.033 C 
ATOM     25  C   UNL     1      24.057  29.879  31.145  1.00  0.00     0.120 C 
ATOM     26  C   UNL     1      26.527  30.115  31.759  1.00  0.00     0.014 C 
ATOM     27  C   UNL     1      25.541  31.616  30.039  1.00  0.00     0.014 C 
BRANCH  25  28
ATOM     28  O   UNL     1      23.882  30.425  32.431  1.00  0.00    -0.393 OA
ATOM     29  H   UNL     1      24.401  29.865  33.065  1.00  0.00     0.210 HD
ENDBRANCH  25  28
ENDBRANCH   2   6
ENDBRANCH   1   2
BRANCH   1  30
ATOM     30  C   UNL     1      23.913  23.167  24.270  1.00  0.00     0.031 C 
BRANCH  30  31
ATOM     31  C   UNL     1      23.942  22.935  25.779  1.00  0.00    -0.075 C 
ATOM     32  C   UNL     1      25.134  22.875  26.402  1.00  0.00     0.008 C 
BRANCH  31  33
ATOM     33  C   UNL     1      22.677  22.877  26.644  1.00  0.00     0.008 C 
ATOM     34  C   UNL     1      21.659  23.991  26.364  1.00  0.00     0.012 C 
ATOM     35  C   UNL     1      23.045  22.878  28.139  1.00  0.00     0.012 C 
ENDBRANCH  31  33
ENDBRANCH  30  31
ENDBRANCH   1  30
TORSDOF 7
ENDMDL
