MODEL 1
REMARK VINA RESULT:    -6.732      0.000      0.000
REMARK INTER + INTRA:          -8.331
REMARK INTER:                  -7.716
REMARK INTRA:                  -0.615
REMARK UNBOUND:                -0.615
REMARK SMILES C=C(C)[C@@H]1CC[C@]2(C(=O)[O-])CC[C@@]3(C)[C@@H](CC[C@@H]4[C@]5(C)CC[C@@H](O)C(C)(C)[C@@H]5CC[C@]43C)[C@H]12
REMARK SMILES IDX 7 1 6 2 33 3 11 4 5 5 15 6 4 7 12 8 16 9 13 10 17 11 31 12
REMARK SMILES IDX 14 13 18 14 30 15 32 16 19 17 29 18 21 19 20 20 28 21 22 22
REMARK SMILES IDX 25 23 23 24 26 25 27 26 8 27 9 28 10 29 2 30 3 31 1 32 24 33
REMARK H PARENT 24 34
REMARK Flexibility Score: inf
ROOT
ATOM      1  C   UNL     1     -23.536  -8.291  -1.361  1.00  0.00     0.014 C 
ATOM      2  C   UNL     1     -24.495  -9.310  -1.991  1.00  0.00     0.014 C 
ATOM      3  C   UNL     1     -22.154  -8.660  -2.004  1.00  0.00     0.012 C 
ATOM      4  C   UNL     1     -24.031  -6.840  -1.596  1.00  0.00     0.014 C 
ATOM      5  C   UNL     1     -23.726 -10.619  -1.991  1.00  0.00     0.009 C 
ATOM      6  C   UNL     1     -21.811  -7.890  -3.342  1.00  0.00     0.000 C 
ATOM      7  C   UNL     1     -22.241 -10.230  -2.134  1.00  0.00     0.018 C 
ATOM      8  C   UNL     1     -23.729  -6.290  -2.988  1.00  0.00     0.008 C 
ATOM      9  C   UNL     1     -20.287  -8.015  -3.694  1.00  0.00     0.005 C 
ATOM     10  C   UNL     1     -22.226  -6.373  -3.384  1.00  0.00    -0.024 C 
ATOM     11  C   UNL     1     -19.808  -7.077  -4.824  1.00  0.00     0.005 C 
ATOM     12  C   UNL     1     -21.972  -5.736  -4.888  1.00  0.00    -0.024 C 
ATOM     13  C   UNL     1     -21.407  -5.622  -2.268  1.00  0.00     0.012 C 
ATOM     14  C   UNL     1     -20.996  -6.666  -5.723  1.00  0.00     0.002 C 
ATOM     15  C   UNL     1     -23.261  -5.678  -5.753  1.00  0.00     0.008 C 
ATOM     16  C   UNL     1     -21.457  -4.263  -4.737  1.00  0.00     0.012 C 
ATOM     17  C   UNL     1     -20.658  -6.293  -7.235  1.00  0.00    -0.026 C 
ATOM     18  C   UNL     1     -23.035  -5.119  -7.166  1.00  0.00     0.005 C 
ATOM     19  C   UNL     1     -19.533  -5.218  -7.305  1.00  0.00     0.010 C 
ATOM     20  C   UNL     1     -20.101  -7.598  -7.905  1.00  0.00     0.012 C 
ATOM     21  C   UNL     1     -21.982  -5.876  -8.032  1.00  0.00     0.003 C 
ATOM     22  C   UNL     1     -19.319  -4.620  -8.695  1.00  0.00     0.033 C 
ATOM     23  C   UNL     1     -21.734  -5.140  -9.437  1.00  0.00    -0.006 C 
ATOM     24  C   UNL     1     -20.621  -4.059  -9.286  1.00  0.00     0.120 C 
ATOM     25  C   UNL     1     -21.376  -6.157 -10.570  1.00  0.00     0.014 C 
ATOM     26  C   UNL     1     -23.025  -4.424  -9.946  1.00  0.00     0.014 C 
ENDROOT
BRANCH   1  27
ATOM     27  C   UNL     1     -23.530  -8.521   0.152  1.00  0.00     0.048 C 
ATOM     28  O   UNL     1     -22.461  -8.376   0.802  1.00  0.00    -0.550 OA
ATOM     29  O   UNL     1     -24.686  -8.862   0.844  1.00  0.00    -0.550 OA
ENDBRANCH   1  27
BRANCH   7  30
ATOM     30  C   UNL     1     -21.590 -10.909  -3.343  1.00  0.00    -0.077 C 
ATOM     31  C   UNL     1     -22.263 -10.966  -4.699  1.00  0.00     0.039 C 
ATOM     32  C   UNL     1     -20.393 -11.505  -3.207  1.00  0.00     0.008 C 
ENDBRANCH   7  30
BRANCH  24  33
ATOM     33  O   UNL     1     -20.346  -3.474 -10.535  1.00  0.00    -0.393 OA
ATOM     34  H   UNL     1     -20.595  -4.139 -11.229  1.00  0.00     0.210 HD
ENDBRANCH  24  33
TORSDOF 3
ENDMDL
MODEL 2
REMARK VINA RESULT:    -6.687      2.562      3.706
REMARK INTER + INTRA:          -8.279
REMARK INTER:                  -7.679
REMARK INTRA:                  -0.600
REMARK UNBOUND:                -0.615
REMARK SMILES C=C(C)[C@@H]1CC[C@]2(C(=O)[O-])CC[C@@]3(C)[C@@H](CC[C@@H]4[C@]5(C)CC[C@@H](O)C(C)(C)[C@@H]5CC[C@]43C)[C@H]12
REMARK SMILES IDX 7 1 6 2 33 3 11 4 5 5 15 6 4 7 12 8 16 9 13 10 17 11 31 12
REMARK SMILES IDX 14 13 18 14 30 15 32 16 19 17 29 18 21 19 20 20 28 21 22 22
REMARK SMILES IDX 25 23 23 24 26 25 27 26 8 27 9 28 10 29 2 30 3 31 1 32 24 33
REMARK H PARENT 24 34
REMARK Flexibility Score: inf
ROOT
ATOM      1  C   UNL     1     -23.046 -12.784  -3.117  1.00  0.00     0.014 C 
ATOM      2  C   UNL     1     -24.116 -13.226  -4.123  1.00  0.00     0.014 C 
ATOM      3  C   UNL     1     -21.766 -12.622  -4.008  1.00  0.00     0.012 C 
ATOM      4  C   UNL     1     -23.498 -11.520  -2.340  1.00  0.00     0.014 C 
ATOM      5  C   UNL     1     -23.413 -14.222  -5.027  1.00  0.00     0.009 C 
ATOM      6  C   UNL     1     -21.546 -11.176  -4.608  1.00  0.00     0.000 C 
ATOM      7  C   UNL     1     -21.939 -13.774  -5.073  1.00  0.00     0.018 C 
ATOM      8  C   UNL     1     -23.335 -10.214  -3.114  1.00  0.00     0.008 C 
ATOM      9  C   UNL     1     -20.080 -10.999  -5.141  1.00  0.00     0.005 C 
ATOM     10  C   UNL     1     -21.894  -9.978  -3.651  1.00  0.00    -0.024 C 
ATOM     11  C   UNL     1     -19.694  -9.545  -5.491  1.00  0.00     0.005 C 
ATOM     12  C   UNL     1     -21.787  -8.536  -4.452  1.00  0.00    -0.024 C 
ATOM     13  C   UNL     1     -20.917 -10.052  -2.417  1.00  0.00     0.012 C 
ATOM     14  C   UNL     1     -20.957  -8.709  -5.791  1.00  0.00     0.002 C 
ATOM     15  C   UNL     1     -23.164  -8.000  -4.932  1.00  0.00     0.008 C 
ATOM     16  C   UNL     1     -21.192  -7.457  -3.481  1.00  0.00     0.012 C 
ATOM     17  C   UNL     1     -20.781  -7.465  -6.773  1.00  0.00    -0.026 C 
ATOM     18  C   UNL     1     -23.078  -6.677  -5.708  1.00  0.00     0.005 C 
ATOM     19  C   UNL     1     -19.624  -6.539  -6.293  1.00  0.00     0.010 C 
ATOM     20  C   UNL     1     -20.365  -8.050  -8.168  1.00  0.00     0.012 C 
ATOM     21  C   UNL     1     -22.168  -6.692  -6.974  1.00  0.00     0.003 C 
ATOM     22  C   UNL     1     -19.545  -5.199  -7.025  1.00  0.00     0.033 C 
ATOM     23  C   UNL     1     -22.051  -5.235  -7.636  1.00  0.00    -0.006 C 
ATOM     24  C   UNL     1     -20.881  -4.441  -6.980  1.00  0.00     0.120 C 
ATOM     25  C   UNL     1     -21.874  -5.313  -9.188  1.00  0.00     0.014 C 
ATOM     26  C   UNL     1     -23.359  -4.406  -7.433  1.00  0.00     0.014 C 
ENDROOT
BRANCH   1  27
ATOM     27  C   UNL     1     -22.875 -13.903  -2.088  1.00  0.00     0.048 C 
ATOM     28  O   UNL     1     -23.890 -14.429  -1.560  1.00  0.00    -0.550 OA
ATOM     29  O   UNL     1     -21.619 -14.382  -1.730  1.00  0.00    -0.550 OA
ENDBRANCH   1  27
BRANCH   7  30
ATOM     30  C   UNL     1     -21.464 -13.531  -6.509  1.00  0.00    -0.077 C 
ATOM     31  C   UNL     1     -22.305 -12.787  -7.525  1.00  0.00     0.039 C 
ATOM     32  C   UNL     1     -20.273 -14.012  -6.907  1.00  0.00     0.008 C 
ENDBRANCH   7  30
BRANCH  24  33
ATOM     33  O   UNL     1     -20.726  -3.197  -7.618  1.00  0.00    -0.393 OA
ATOM     34  H   UNL     1     -20.020  -3.310  -8.307  1.00  0.00     0.210 HD
ENDBRANCH  24  33
TORSDOF 3
ENDMDL
MODEL 3
REMARK VINA RESULT:    -6.537      1.769      2.403
REMARK INTER + INTRA:          -8.108
REMARK INTER:                  -7.491
REMARK INTRA:                  -0.617
REMARK UNBOUND:                -0.615
REMARK SMILES C=C(C)[C@@H]1CC[C@]2(C(=O)[O-])CC[C@@]3(C)[C@@H](CC[C@@H]4[C@]5(C)CC[C@@H](O)C(C)(C)[C@@H]5CC[C@]43C)[C@H]12
REMARK SMILES IDX 7 1 6 2 33 3 11 4 5 5 15 6 4 7 12 8 16 9 13 10 17 11 31 12
REMARK SMILES IDX 14 13 18 14 30 15 32 16 19 17 29 18 21 19 20 20 28 21 22 22
REMARK SMILES IDX 25 23 23 24 26 25 27 26 8 27 9 28 10 29 2 30 3 31 1 32 24 33
REMARK H PARENT 24 34
REMARK Flexibility Score: inf
ROOT
ATOM      1  C   UNL     1     -22.331 -10.959  -2.520  1.00  0.00     0.014 C 
ATOM      2  C   UNL     1     -23.551 -11.571  -3.219  1.00  0.00     0.014 C 
ATOM      3  C   UNL     1     -21.191 -11.127  -3.584  1.00  0.00     0.012 C 
ATOM      4  C   UNL     1     -22.622  -9.508  -2.058  1.00  0.00     0.014 C 
ATOM      5  C   UNL     1     -23.022 -12.816  -3.907  1.00  0.00     0.009 C 
ATOM      6  C   UNL     1     -21.014  -9.907  -4.574  1.00  0.00     0.000 C 
ATOM      7  C   UNL     1     -21.556 -12.501  -4.268  1.00  0.00     0.018 C 
ATOM      8  C   UNL     1     -22.531  -8.464  -3.168  1.00  0.00     0.008 C 
ATOM      9  C   UNL     1     -19.638  -9.980  -5.325  1.00  0.00     0.005 C 
ATOM     10  C   UNL     1     -21.178  -8.479  -3.936  1.00  0.00    -0.024 C 
ATOM     11  C   UNL     1     -19.259  -8.698  -6.101  1.00  0.00     0.005 C 
ATOM     12  C   UNL     1     -21.143  -7.307  -5.102  1.00  0.00    -0.024 C 
ATOM     13  C   UNL     1     -20.033  -8.297  -2.869  1.00  0.00     0.012 C 
ATOM     14  C   UNL     1     -20.525  -7.882  -6.444  1.00  0.00     0.002 C 
ATOM     15  C   UNL     1     -22.557  -6.819  -5.521  1.00  0.00     0.008 C 
ATOM     16  C   UNL     1     -20.376  -6.058  -4.545  1.00  0.00     0.012 C 
ATOM     17  C   UNL     1     -20.455  -6.954  -7.737  1.00  0.00    -0.026 C 
ATOM     18  C   UNL     1     -22.543  -5.754  -6.627  1.00  0.00     0.005 C 
ATOM     19  C   UNL     1     -19.210  -6.019  -7.682  1.00  0.00     0.010 C 
ATOM     20  C   UNL     1     -20.268  -7.911  -8.967  1.00  0.00     0.012 C 
ATOM     21  C   UNL     1     -21.830  -6.164  -7.952  1.00  0.00     0.003 C 
ATOM     22  C   UNL     1     -19.196  -4.926  -8.751  1.00  0.00     0.033 C 
ATOM     23  C   UNL     1     -21.764  -4.941  -8.990  1.00  0.00    -0.006 C 
ATOM     24  C   UNL     1     -20.484  -4.089  -8.734  1.00  0.00     0.120 C 
ATOM     25  C   UNL     1     -21.820  -5.435 -10.473  1.00  0.00     0.014 C 
ATOM     26  C   UNL     1     -23.000  -3.998  -8.845  1.00  0.00     0.014 C 
ENDROOT
BRANCH   1  27
ATOM     27  C   UNL     1     -22.046 -11.780  -1.260  1.00  0.00     0.048 C 
ATOM     28  O   UNL     1     -20.856 -11.999  -0.911  1.00  0.00    -0.550 OA
ATOM     29  O   UNL     1     -23.072 -12.277  -0.464  1.00  0.00    -0.550 OA
ENDBRANCH   1  27
BRANCH   7  30
ATOM     30  C   UNL     1     -21.290 -12.676  -5.767  1.00  0.00    -0.077 C 
ATOM     31  C   UNL     1     -22.250 -12.170  -6.823  1.00  0.00     0.039 C 
ATOM     32  C   UNL     1     -20.185 -13.323  -6.175  1.00  0.00     0.008 C 
ENDBRANCH   7  30
BRANCH  24  33
ATOM     33  O   UNL     1     -20.384  -3.069  -9.697  1.00  0.00    -0.393 OA
ATOM     34  H   UNL     1     -21.231  -3.076 -10.216  1.00  0.00     0.210 HD
ENDBRANCH  24  33
TORSDOF 3
ENDMDL
MODEL 4
REMARK VINA RESULT:    -6.533      1.676      3.435
REMARK INTER + INTRA:          -8.104
REMARK INTER:                  -7.592
REMARK INTRA:                  -0.512
REMARK UNBOUND:                -0.615
REMARK SMILES C=C(C)[C@@H]1CC[C@]2(C(=O)[O-])CC[C@@]3(C)[C@@H](CC[C@@H]4[C@]5(C)CC[C@@H](O)C(C)(C)[C@@H]5CC[C@]43C)[C@H]12
REMARK SMILES IDX 7 1 6 2 33 3 11 4 5 5 15 6 4 7 12 8 16 9 13 10 17 11 31 12
REMARK SMILES IDX 14 13 18 14 30 15 32 16 19 17 29 18 21 19 20 20 28 21 22 22
REMARK SMILES IDX 25 23 23 24 26 25 27 26 8 27 9 28 10 29 2 30 3 31 1 32 24 33
REMARK H PARENT 24 34
REMARK Flexibility Score: inf
ROOT
ATOM      1  C   UNL     1     -22.039  -8.782  -0.743  1.00  0.00     0.014 C 
ATOM      2  C   UNL     1     -20.573  -9.233  -0.782  1.00  0.00     0.014 C 
ATOM      3  C   UNL     1     -21.939  -7.231  -0.950  1.00  0.00     0.012 C 
ATOM      4  C   UNL     1     -22.888  -9.555  -1.786  1.00  0.00     0.014 C 
ATOM      5  C   UNL     1     -19.821  -8.180   0.012  1.00  0.00     0.009 C 
ATOM      6  C   UNL     1     -22.016  -6.750  -2.454  1.00  0.00     0.000 C 
ATOM      7  C   UNL     1     -20.603  -6.867  -0.194  1.00  0.00     0.018 C 
ATOM      8  C   UNL     1     -22.749  -9.039  -3.216  1.00  0.00     0.008 C 
ATOM      9  C   UNL     1     -22.303  -5.209  -2.543  1.00  0.00     0.005 C 
ATOM     10  C   UNL     1     -23.040  -7.518  -3.367  1.00  0.00    -0.024 C 
ATOM     11  C   UNL     1     -22.665  -4.703  -3.957  1.00  0.00     0.005 C 
ATOM     12  C   UNL     1     -22.898  -7.039  -4.943  1.00  0.00    -0.024 C 
ATOM     13  C   UNL     1     -24.483  -7.259  -2.790  1.00  0.00     0.012 C 
ATOM     14  C   UNL     1     -22.112  -5.665  -5.032  1.00  0.00     0.002 C 
ATOM     15  C   UNL     1     -22.046  -8.013  -5.803  1.00  0.00     0.008 C 
ATOM     16  C   UNL     1     -24.325  -6.988  -5.590  1.00  0.00     0.012 C 
ATOM     17  C   UNL     1     -21.787  -5.037  -6.461  1.00  0.00    -0.026 C 
ATOM     18  C   UNL     1     -21.876  -7.564  -7.262  1.00  0.00     0.005 C 
ATOM     19  C   UNL     1     -23.016  -4.257  -7.017  1.00  0.00     0.010 C 
ATOM     20  C   UNL     1     -20.632  -3.999  -6.243  1.00  0.00     0.012 C 
ATOM     21  C   UNL     1     -21.240  -6.155  -7.467  1.00  0.00     0.003 C 
ATOM     22  C   UNL     1     -22.883  -3.836  -8.481  1.00  0.00     0.033 C 
ATOM     23  C   UNL     1     -21.222  -5.735  -9.016  1.00  0.00    -0.006 C 
ATOM     24  C   UNL     1     -22.558  -5.027  -9.394  1.00  0.00     0.120 C 
ATOM     25  C   UNL     1     -19.993  -4.830  -9.358  1.00  0.00     0.014 C 
ATOM     26  C   UNL     1     -21.063  -6.979  -9.947  1.00  0.00     0.014 C 
ENDROOT
BRANCH   1  27
ATOM     27  C   UNL     1     -22.603  -9.129   0.637  1.00  0.00     0.048 C 
ATOM     28  O   UNL     1     -23.451  -8.368   1.175  1.00  0.00    -0.550 OA
ATOM     29  O   UNL     1     -22.225 -10.284   1.312  1.00  0.00    -0.550 OA
ENDBRANCH   1  27
BRANCH   7  30
ATOM     30  C   UNL     1     -19.711  -5.757  -0.760  1.00  0.00    -0.077 C 
ATOM     31  C   UNL     1     -19.754  -4.337  -0.234  1.00  0.00     0.039 C 
ATOM     32  C   UNL     1     -18.875  -6.029  -1.777  1.00  0.00     0.008 C 
ENDBRANCH   7  30
BRANCH  24  33
ATOM     33  O   UNL     1     -22.508  -4.585 -10.729  1.00  0.00    -0.393 OA
ATOM     34  H   UNL     1     -22.948  -5.282 -11.282  1.00  0.00     0.210 HD
ENDBRANCH  24  33
TORSDOF 3
ENDMDL
MODEL 5
REMARK VINA RESULT:    -6.435      1.572      7.735
REMARK INTER + INTRA:          -7.991
REMARK INTER:                  -7.722
REMARK INTRA:                  -0.269
REMARK UNBOUND:                -0.615
REMARK SMILES C=C(C)[C@@H]1CC[C@]2(C(=O)[O-])CC[C@@]3(C)[C@@H](CC[C@@H]4[C@]5(C)CC[C@@H](O)C(C)(C)[C@@H]5CC[C@]43C)[C@H]12
REMARK SMILES IDX 7 1 6 2 33 3 11 4 5 5 15 6 4 7 12 8 16 9 13 10 17 11 31 12
REMARK SMILES IDX 14 13 18 14 30 15 32 16 19 17 29 18 21 19 20 20 28 21 22 22
REMARK SMILES IDX 25 23 23 24 26 25 27 26 8 27 9 28 10 29 2 30 3 31 1 32 24 33
REMARK H PARENT 24 34
REMARK Flexibility Score: inf
ROOT
ATOM      1  C   UNL     1     -21.737  -4.074  -7.774  1.00  0.00     0.014 C 
ATOM      2  C   UNL     1     -20.276  -3.660  -7.559  1.00  0.00     0.014 C 
ATOM      3  C   UNL     1     -21.653  -5.638  -7.865  1.00  0.00     0.012 C 
ATOM      4  C   UNL     1     -22.648  -3.506  -6.655  1.00  0.00     0.014 C 
ATOM      5  C   UNL     1     -19.477  -4.551  -8.494  1.00  0.00     0.009 C 
ATOM      6  C   UNL     1     -21.825  -6.399  -6.490  1.00  0.00     0.000 C 
ATOM      7  C   UNL     1     -20.273  -5.868  -8.595  1.00  0.00     0.018 C 
ATOM      8  C   UNL     1     -22.600  -4.290  -5.346  1.00  0.00     0.008 C 
ATOM      9  C   UNL     1     -22.120  -7.924  -6.718  1.00  0.00     0.005 C 
ATOM     10  C   UNL     1     -22.903  -5.807  -5.510  1.00  0.00    -0.024 C 
ATOM     11  C   UNL     1     -22.571  -8.688  -5.453  1.00  0.00     0.005 C 
ATOM     12  C   UNL     1     -22.861  -6.583  -4.051  1.00  0.00    -0.024 C 
ATOM     13  C   UNL     1     -24.308  -5.930  -6.214  1.00  0.00     0.012 C 
ATOM     14  C   UNL     1     -22.085  -7.959  -4.181  1.00  0.00     0.002 C 
ATOM     15  C   UNL     1     -22.062  -5.805  -2.969  1.00  0.00     0.008 C 
ATOM     16  C   UNL     1     -24.326  -6.738  -3.514  1.00  0.00     0.012 C 
ATOM     17  C   UNL     1     -21.851  -8.855  -2.884  1.00  0.00    -0.026 C 
ATOM     18  C   UNL     1     -21.985  -6.530  -1.616  1.00  0.00     0.005 C 
ATOM     19  C   UNL     1     -23.113  -9.711  -2.565  1.00  0.00     0.010 C 
ATOM     20  C   UNL     1     -20.686  -9.848  -3.228  1.00  0.00     0.012 C 
ATOM     21  C   UNL     1     -21.365  -7.960  -1.649  1.00  0.00     0.003 C 
ATOM     22  C   UNL     1     -23.074 -10.408  -1.205  1.00  0.00     0.033 C 
ATOM     23  C   UNL     1     -21.445  -8.672  -0.212  1.00  0.00    -0.006 C 
ATOM     24  C   UNL     1     -22.804  -9.420  -0.060  1.00  0.00     0.120 C 
ATOM     25  C   UNL     1     -20.242  -9.643   0.023  1.00  0.00     0.014 C 
ATOM     26  C   UNL     1     -21.343  -7.633   0.950  1.00  0.00     0.014 C 
ENDROOT
BRANCH   1  27
ATOM     27  C   UNL     1     -22.213  -3.461  -9.092  1.00  0.00     0.048 C 
ATOM     28  O   UNL     1     -22.995  -4.108  -9.838  1.00  0.00    -0.550 OA
ATOM     29  O   UNL     1     -21.826  -2.185  -9.487  1.00  0.00    -0.550 OA
ENDBRANCH   1  27
BRANCH   7  30
ATOM     30  C   UNL     1     -19.420  -7.078  -8.200  1.00  0.00    -0.077 C 
ATOM     31  C   UNL     1     -18.875  -7.262  -6.799  1.00  0.00     0.039 C 
ATOM     32  C   UNL     1     -19.114  -8.005  -9.123  1.00  0.00     0.008 C 
ENDBRANCH   7  30
BRANCH  24  33
ATOM     33  O   UNL     1     -22.838 -10.112   1.164  1.00  0.00    -0.393 OA
ATOM     34  H   UNL     1     -23.569  -9.711   1.704  1.00  0.00     0.210 HD
ENDBRANCH  24  33
TORSDOF 3
ENDMDL
MODEL 6
REMARK VINA RESULT:    -6.422      2.549      7.692
REMARK INTER + INTRA:          -7.976
REMARK INTER:                  -7.380
REMARK INTRA:                  -0.596
REMARK UNBOUND:                -0.615
REMARK SMILES C=C(C)[C@@H]1CC[C@]2(C(=O)[O-])CC[C@@]3(C)[C@@H](CC[C@@H]4[C@]5(C)CC[C@@H](O)C(C)(C)[C@@H]5CC[C@]43C)[C@H]12
REMARK SMILES IDX 7 1 6 2 33 3 11 4 5 5 15 6 4 7 12 8 16 9 13 10 17 11 31 12
REMARK SMILES IDX 14 13 18 14 30 15 32 16 19 17 29 18 21 19 20 20 28 21 22 22
REMARK SMILES IDX 25 23 23 24 26 25 27 26 8 27 9 28 10 29 2 30 3 31 1 32 24 33
REMARK H PARENT 24 34
REMARK Flexibility Score: inf
ROOT
ATOM      1  C   UNL     1     -21.335  -5.273  -7.796  1.00  0.00     0.014 C 
ATOM      2  C   UNL     1     -22.853  -5.061  -7.728  1.00  0.00     0.014 C 
ATOM      3  C   UNL     1     -20.929  -5.413  -6.287  1.00  0.00     0.012 C 
ATOM      4  C   UNL     1     -20.979  -6.473  -8.711  1.00  0.00     0.014 C 
ATOM      5  C   UNL     1     -23.062  -4.115  -6.560  1.00  0.00     0.009 C 
ATOM      6  C   UNL     1     -20.932  -6.892  -5.728  1.00  0.00     0.000 C 
ATOM      7  C   UNL     1     -21.921  -4.419  -5.569  1.00  0.00     0.018 C 
ATOM      8  C   UNL     1     -21.158  -7.840  -8.054  1.00  0.00     0.008 C 
ATOM      9  C   UNL     1     -20.153  -6.986  -4.369  1.00  0.00     0.005 C 
ATOM     10  C   UNL     1     -20.392  -7.996  -6.709  1.00  0.00    -0.024 C 
ATOM     11  C   UNL     1     -19.869  -8.427  -3.888  1.00  0.00     0.005 C 
ATOM     12  C   UNL     1     -20.610  -9.506  -6.072  1.00  0.00    -0.024 C 
ATOM     13  C   UNL     1     -18.875  -7.680  -6.996  1.00  0.00     0.012 C 
ATOM     14  C   UNL     1     -20.881  -9.413  -4.513  1.00  0.00     0.002 C 
ATOM     15  C   UNL     1     -21.869 -10.227  -6.627  1.00  0.00     0.008 C 
ATOM     16  C   UNL     1     -19.374 -10.398  -6.440  1.00  0.00     0.012 C 
ATOM     17  C   UNL     1     -21.194 -10.741  -3.689  1.00  0.00    -0.026 C 
ATOM     18  C   UNL     1     -22.105 -11.618  -6.020  1.00  0.00     0.005 C 
ATOM     19  C   UNL     1     -19.878 -11.486  -3.315  1.00  0.00     0.010 C 
ATOM     20  C   UNL     1     -21.874 -10.288  -2.349  1.00  0.00     0.012 C 
ATOM     21  C   UNL     1     -22.244 -11.665  -4.467  1.00  0.00     0.003 C 
ATOM     22  C   UNL     1     -20.089 -12.889  -2.746  1.00  0.00     0.033 C 
ATOM     23  C   UNL     1     -22.363 -13.172  -3.929  1.00  0.00    -0.006 C 
ATOM     24  C   UNL     1     -20.943 -13.763  -3.675  1.00  0.00     0.120 C 
ATOM     25  C   UNL     1     -23.245 -13.261  -2.641  1.00  0.00     0.014 C 
ATOM     26  C   UNL     1     -23.084 -14.095  -4.962  1.00  0.00     0.014 C 
ENDROOT
BRANCH   1  27
ATOM     27  C   UNL     1     -20.712  -4.028  -8.430  1.00  0.00     0.048 C 
ATOM     28  O   UNL     1     -19.541  -3.685  -8.117  1.00  0.00    -0.550 OA
ATOM     29  O   UNL     1     -21.395  -3.268  -9.373  1.00  0.00    -0.550 OA
ENDBRANCH   1  27
BRANCH   7  30
ATOM     30  C   UNL     1     -22.457  -4.783  -4.180  1.00  0.00    -0.077 C 
ATOM     31  C   UNL     1     -23.598  -5.759  -3.984  1.00  0.00     0.039 C 
ATOM     32  C   UNL     1     -21.925  -4.205  -3.089  1.00  0.00     0.008 C 
ENDBRANCH   7  30
BRANCH  24  33
ATOM     33  O   UNL     1     -21.051 -15.053  -3.125  1.00  0.00    -0.393 OA
ATOM     34  H   UNL     1     -20.544 -15.047  -2.271  1.00  0.00     0.210 HD
ENDBRANCH  24  33
TORSDOF 3
ENDMDL
MODEL 7
REMARK VINA RESULT:    -6.378      1.994      4.121
REMARK INTER + INTRA:          -7.926
REMARK INTER:                  -7.320
REMARK INTRA:                  -0.606
REMARK UNBOUND:                -0.615
REMARK SMILES C=C(C)[C@@H]1CC[C@]2(C(=O)[O-])CC[C@@]3(C)[C@@H](CC[C@@H]4[C@]5(C)CC[C@@H](O)C(C)(C)[C@@H]5CC[C@]43C)[C@H]12
REMARK SMILES IDX 7 1 6 2 33 3 11 4 5 5 15 6 4 7 12 8 16 9 13 10 17 11 31 12
REMARK SMILES IDX 14 13 18 14 30 15 32 16 19 17 29 18 21 19 20 20 28 21 22 22
REMARK SMILES IDX 25 23 23 24 26 25 27 26 8 27 9 28 10 29 2 30 3 31 1 32 24 33
REMARK H PARENT 24 34
REMARK Flexibility Score: inf
ROOT
ATOM      1  C   UNL     1     -19.968  -9.480  -3.035  1.00  0.00     0.014 C 
ATOM      2  C   UNL     1     -19.282  -8.501  -2.074  1.00  0.00     0.014 C 
ATOM      3  C   UNL     1     -21.358  -8.803  -3.299  1.00  0.00     0.012 C 
ATOM      4  C   UNL     1     -19.090  -9.742  -4.286  1.00  0.00     0.014 C 
ATOM      5  C   UNL     1     -20.372  -8.079  -1.105  1.00  0.00     0.009 C 
ATOM      6  C   UNL     1     -21.402  -7.827  -4.543  1.00  0.00     0.000 C 
ATOM      7  C   UNL     1     -21.687  -8.136  -1.908  1.00  0.00     0.018 C 
ATOM      8  C   UNL     1     -19.150  -8.638  -5.339  1.00  0.00     0.008 C 
ATOM      9  C   UNL     1     -22.880  -7.512  -4.965  1.00  0.00     0.005 C 
ATOM     10  C   UNL     1     -20.594  -8.295  -5.808  1.00  0.00    -0.024 C 
ATOM     11  C   UNL     1     -23.022  -6.794  -6.326  1.00  0.00     0.005 C 
ATOM     12  C   UNL     1     -20.578  -7.114  -6.965  1.00  0.00    -0.024 C 
ATOM     13  C   UNL     1     -21.247  -9.632  -6.326  1.00  0.00     0.012 C 
ATOM     14  C   UNL     1     -21.716  -6.048  -6.680  1.00  0.00     0.002 C 
ATOM     15  C   UNL     1     -19.271  -6.274  -6.963  1.00  0.00     0.008 C 
ATOM     16  C   UNL     1     -20.688  -7.784  -8.379  1.00  0.00     0.012 C 
ATOM     17  C   UNL     1     -21.851  -4.771  -7.625  1.00  0.00    -0.026 C 
ATOM     18  C   UNL     1     -19.255  -5.151  -8.011  1.00  0.00     0.005 C 
ATOM     19  C   UNL     1     -22.641  -5.120  -8.922  1.00  0.00     0.010 C 
ATOM     20  C   UNL     1     -22.697  -3.714  -6.832  1.00  0.00     0.012 C 
ATOM     21  C   UNL     1     -20.419  -4.117  -7.913  1.00  0.00     0.003 C 
ATOM     22  C   UNL     1     -22.604  -4.031  -9.993  1.00  0.00     0.033 C 
ATOM     23  C   UNL     1     -20.377  -3.064  -9.123  1.00  0.00    -0.006 C 
ATOM     24  C   UNL     1     -21.166  -3.621 -10.346  1.00  0.00     0.120 C 
ATOM     25  C   UNL     1     -20.925  -1.664  -8.694  1.00  0.00     0.014 C 
ATOM     26  C   UNL     1     -18.913  -2.784  -9.590  1.00  0.00     0.014 C 
ENDROOT
BRANCH   1  27
ATOM     27  C   UNL     1     -20.126 -10.820  -2.313  1.00  0.00     0.048 C 
ATOM     28  O   UNL     1     -19.178 -11.271  -1.617  1.00  0.00    -0.550 OA
ATOM     29  O   UNL     1     -21.306 -11.552  -2.380  1.00  0.00    -0.550 OA
ENDBRANCH   1  27
BRANCH   7  30
ATOM     30  C   UNL     1     -22.423  -6.792  -1.887  1.00  0.00    -0.077 C 
ATOM     31  C   UNL     1     -21.706  -5.473  -2.086  1.00  0.00     0.039 C 
ATOM     32  C   UNL     1     -23.747  -6.762  -1.659  1.00  0.00     0.008 C 
ENDBRANCH   7  30
BRANCH  24  33
ATOM     33  O   UNL     1     -21.200  -2.662 -11.375  1.00  0.00    -0.393 OA
ATOM     34  H   UNL     1     -20.266  -2.544 -11.692  1.00  0.00     0.210 HD
ENDBRANCH  24  33
TORSDOF 3
ENDMDL
MODEL 8
REMARK VINA RESULT:    -6.110      1.708      2.618
REMARK INTER + INTRA:          -7.618
REMARK INTER:                  -7.022
REMARK INTRA:                  -0.595
REMARK UNBOUND:                -0.615
REMARK SMILES C=C(C)[C@@H]1CC[C@]2(C(=O)[O-])CC[C@@]3(C)[C@@H](CC[C@@H]4[C@]5(C)CC[C@@H](O)C(C)(C)[C@@H]5CC[C@]43C)[C@H]12
REMARK SMILES IDX 7 1 6 2 33 3 11 4 5 5 15 6 4 7 12 8 16 9 13 10 17 11 31 12
REMARK SMILES IDX 14 13 18 14 30 15 32 16 19 17 29 18 21 19 20 20 28 21 22 22
REMARK SMILES IDX 25 23 23 24 26 25 27 26 8 27 9 28 10 29 2 30 3 31 1 32 24 33
REMARK H PARENT 24 34
REMARK Flexibility Score: inf
ROOT
ATOM      1  C   UNL     1     -24.438 -11.233  -1.280  1.00  0.00     0.014 C 
ATOM      2  C   UNL     1     -25.256 -12.003  -2.325  1.00  0.00     0.014 C 
ATOM      3  C   UNL     1     -22.970 -11.354  -1.818  1.00  0.00     0.012 C 
ATOM      4  C   UNL     1     -24.980  -9.792  -1.099  1.00  0.00     0.014 C 
ATOM      5  C   UNL     1     -24.422 -13.230  -2.644  1.00  0.00     0.009 C 
ATOM      6  C   UNL     1     -22.511 -10.186  -2.779  1.00  0.00     0.000 C 
ATOM      7  C   UNL     1     -22.954 -12.797  -2.457  1.00  0.00     0.018 C 
ATOM      8  C   UNL     1     -24.542  -8.814  -2.187  1.00  0.00     0.008 C 
ATOM      9  C   UNL     1     -20.951 -10.170  -2.948  1.00  0.00     0.005 C 
ATOM     10  C   UNL     1     -23.001  -8.744  -2.386  1.00  0.00    -0.024 C 
ATOM     11  C   UNL     1     -20.391  -8.908  -3.642  1.00  0.00     0.005 C 
ATOM     12  C   UNL     1     -22.602  -7.648  -3.557  1.00  0.00    -0.024 C 
ATOM     13  C   UNL     1     -22.365  -8.387  -0.989  1.00  0.00     0.012 C 
ATOM     14  C   UNL     1     -21.482  -8.241  -4.509  1.00  0.00     0.002 C 
ATOM     15  C   UNL     1     -23.778  -7.327  -4.520  1.00  0.00     0.008 C 
ATOM     16  C   UNL     1     -22.191  -6.298  -2.873  1.00  0.00     0.012 C 
ATOM     17  C   UNL     1     -20.985  -7.392  -5.763  1.00  0.00    -0.026 C 
ATOM     18  C   UNL     1     -23.414  -6.335  -5.635  1.00  0.00     0.005 C 
ATOM     19  C   UNL     1     -19.921  -6.338  -5.333  1.00  0.00     0.010 C 
ATOM     20  C   UNL     1     -20.280  -8.399  -6.737  1.00  0.00     0.012 C 
ATOM     21  C   UNL     1     -22.223  -6.754  -6.551  1.00  0.00     0.003 C 
ATOM     22  C   UNL     1     -19.573  -5.316  -6.415  1.00  0.00     0.033 C 
ATOM     23  C   UNL     1     -21.848  -5.597  -7.598  1.00  0.00    -0.006 C 
ATOM     24  C   UNL     1     -20.823  -4.610  -6.961  1.00  0.00     0.120 C 
ATOM     25  C   UNL     1     -21.301  -6.183  -8.940  1.00  0.00     0.014 C 
ATOM     26  C   UNL     1     -23.106  -4.771  -8.016  1.00  0.00     0.014 C 
ENDROOT
BRANCH   1  27
ATOM     27  C   UNL     1     -24.603 -11.944   0.065  1.00  0.00     0.048 C 
ATOM     28  O   UNL     1     -25.747 -12.309   0.445  1.00  0.00    -0.550 OA
ATOM     29  O   UNL     1     -23.512 -12.226   0.881  1.00  0.00    -0.550 OA
ENDBRANCH   1  27
BRANCH   7  30
ATOM     30  C   UNL     1     -22.125 -13.037  -3.723  1.00  0.00    -0.077 C 
ATOM     31  C   UNL     1     -22.666 -12.754  -5.110  1.00  0.00     0.039 C 
ATOM     32  C   UNL     1     -20.883 -13.540  -3.620  1.00  0.00     0.008 C 
ENDBRANCH   7  30
BRANCH  24  33
ATOM     33  O   UNL     1     -20.431  -3.646  -7.908  1.00  0.00    -0.393 OA
ATOM     34  H   UNL     1     -19.661  -4.025  -8.406  1.00  0.00     0.210 HD
ENDBRANCH  24  33
TORSDOF 3
ENDMDL
