MODEL 1
REMARK VINA RESULT:    -2.343      0.000      0.000
REMARK INTER + INTRA:          -2.343
REMARK INTER:                  -2.343
REMARK INTRA:                   0.000
REMARK UNBOUND:                 0.000
REMARK SMILES CC(=O)[O-]
REMARK SMILES IDX 1 1 2 2 3 3 4 4
REMARK H PARENT
REMARK Flexibility Score: inf
ROOT
ATOM      1  C   UNL     1     -33.679  -3.983 -11.780  1.00  0.00     0.063 C 
ATOM      2  C   UNL     1     -33.645  -3.094 -10.583  1.00  0.00     0.038 C 
ATOM      3  O   UNL     1     -34.675  -2.953  -9.872  1.00  0.00    -0.550 OA
ATOM      4  O   UNL     1     -32.495  -2.379 -10.280  1.00  0.00    -0.550 OA
ENDROOT
TORSDOF 0
ENDMDL
MODEL 2
REMARK VINA RESULT:    -2.341      1.480      1.797
REMARK INTER + INTRA:          -2.341
REMARK INTER:                  -2.341
REMARK INTRA:                   0.000
REMARK UNBOUND:                 0.000
REMARK SMILES CC(=O)[O-]
REMARK SMILES IDX 1 1 2 2 3 3 4 4
REMARK H PARENT
REMARK Flexibility Score: inf
ROOT
ATOM      1  C   UNL     1     -32.747  -2.329 -10.371  1.00  0.00     0.063 C 
ATOM      2  C   UNL     1     -33.752  -3.323 -10.848  1.00  0.00     0.038 C 
ATOM      3  O   UNL     1     -34.838  -3.470 -10.229  1.00  0.00    -0.550 OA
ATOM      4  O   UNL     1     -33.470  -4.125 -11.945  1.00  0.00    -0.550 OA
ENDROOT
TORSDOF 0
ENDMDL
MODEL 3
REMARK VINA RESULT:    -2.328      1.446      2.229
REMARK INTER + INTRA:          -2.328
REMARK INTER:                  -2.328
REMARK INTRA:                   0.000
REMARK UNBOUND:                 0.000
REMARK SMILES CC(=O)[O-]
REMARK SMILES IDX 1 1 2 2 3 3 4 4
REMARK H PARENT
REMARK Flexibility Score: inf
ROOT
ATOM      1  C   UNL     1     -32.769  -2.333 -10.361  1.00  0.00     0.063 C 
ATOM      2  C   UNL     1     -33.730  -3.350 -10.877  1.00  0.00     0.038 C 
ATOM      3  O   UNL     1     -33.452  -4.015 -11.909  1.00  0.00    -0.550 OA
ATOM      4  O   UNL     1     -34.957  -3.527 -10.252  1.00  0.00    -0.550 OA
ENDROOT
TORSDOF 0
ENDMDL
MODEL 4
REMARK VINA RESULT:    -2.327      0.079      1.619
REMARK INTER + INTRA:          -2.327
REMARK INTER:                  -2.327
REMARK INTRA:                   0.000
REMARK UNBOUND:                 0.000
REMARK SMILES CC(=O)[O-]
REMARK SMILES IDX 1 1 2 2 3 3 4 4
REMARK H PARENT
REMARK Flexibility Score: inf
ROOT
ATOM      1  C   UNL     1     -33.645  -4.007 -11.761  1.00  0.00     0.063 C 
ATOM      2  C   UNL     1     -33.606  -3.061 -10.607  1.00  0.00     0.038 C 
ATOM      3  O   UNL     1     -32.547  -2.435 -10.341  1.00  0.00    -0.550 OA
ATOM      4  O   UNL     1     -34.720  -2.910  -9.794  1.00  0.00    -0.550 OA
ENDROOT
TORSDOF 0
ENDMDL
MODEL 5
REMARK VINA RESULT:    -2.254      1.872      1.910
REMARK INTER + INTRA:          -2.254
REMARK INTER:                  -2.254
REMARK INTRA:                   0.000
REMARK UNBOUND:                 0.000
REMARK SMILES CC(=O)[O-]
REMARK SMILES IDX 1 1 2 2 3 3 4 4
REMARK H PARENT
REMARK Flexibility Score: inf
ROOT
ATOM      1  C   UNL     1     -32.658  -2.224 -10.367  1.00  0.00     0.063 C 
ATOM      2  C   UNL     1     -33.933  -2.285  -9.595  1.00  0.00     0.038 C 
ATOM      3  O   UNL     1     -34.839  -3.091  -9.935  1.00  0.00    -0.550 OA
ATOM      4  O   UNL     1     -34.146  -1.417  -8.534  1.00  0.00    -0.550 OA
ENDROOT
TORSDOF 0
ENDMDL
MODEL 6
REMARK VINA RESULT:    -2.187     16.585     16.916
REMARK INTER + INTRA:          -2.187
REMARK INTER:                  -2.187
REMARK INTRA:                   0.000
REMARK UNBOUND:                 0.000
REMARK SMILES CC(=O)[O-]
REMARK SMILES IDX 1 1 2 2 3 3 4 4
REMARK H PARENT
REMARK Flexibility Score: inf
ROOT
ATOM      1  C   UNL     1     -24.398 -17.685  -9.964  1.00  0.00     0.063 C 
ATOM      2  C   UNL     1     -24.035 -16.805  -8.815  1.00  0.00     0.038 C 
ATOM      3  O   UNL     1     -23.766 -15.591  -9.010  1.00  0.00    -0.550 OA
ATOM      4  O   UNL     1     -23.941 -17.336  -7.536  1.00  0.00    -0.550 OA
ENDROOT
TORSDOF 0
ENDMDL
MODEL 7
REMARK VINA RESULT:    -2.167     16.311     16.607
REMARK INTER + INTRA:          -2.167
REMARK INTER:                  -2.167
REMARK INTRA:                   0.000
REMARK UNBOUND:                 0.000
REMARK SMILES CC(=O)[O-]
REMARK SMILES IDX 1 1 2 2 3 3 4 4
REMARK H PARENT
REMARK Flexibility Score: inf
ROOT
ATOM      1  C   UNL     1     -23.615 -17.296  -7.671  1.00  0.00     0.063 C 
ATOM      2  C   UNL     1     -23.898 -16.302  -8.747  1.00  0.00     0.038 C 
ATOM      3  O   UNL     1     -24.635 -16.616  -9.718  1.00  0.00    -0.550 OA
ATOM      4  O   UNL     1     -23.308 -15.047  -8.707  1.00  0.00    -0.550 OA
ENDROOT
TORSDOF 0
ENDMDL
MODEL 8
REMARK VINA RESULT:    -2.067     15.527     15.797
REMARK INTER + INTRA:          -2.067
REMARK INTER:                  -2.067
REMARK INTRA:                   0.000
REMARK UNBOUND:                 0.000
REMARK SMILES CC(=O)[O-]
REMARK SMILES IDX 1 1 2 2 3 3 4 4
REMARK H PARENT
REMARK Flexibility Score: inf
ROOT
ATOM      1  C   UNL     1     -28.187  -7.624   3.330  1.00  0.00     0.063 C 
ATOM      2  C   UNL     1     -28.169  -6.217   3.825  1.00  0.00     0.038 C 
ATOM      3  O   UNL     1     -28.992  -5.378   3.372  1.00  0.00    -0.550 OA
ATOM      4  O   UNL     1     -27.212  -5.816   4.746  1.00  0.00    -0.550 OA
ENDROOT
TORSDOF 0
ENDMDL
MODEL 9
REMARK VINA RESULT:    -1.996      3.264      3.781
REMARK INTER + INTRA:          -1.996
REMARK INTER:                  -1.996
REMARK INTRA:                   0.000
REMARK UNBOUND:                 0.000
REMARK SMILES CC(=O)[O-]
REMARK SMILES IDX 1 1 2 2 3 3 4 4
REMARK H PARENT
REMARK Flexibility Score: inf
ROOT
ATOM      1  C   UNL     1     -36.090  -2.133  -8.062  1.00  0.00     0.063 C 
ATOM      2  C   UNL     1     -34.706  -1.663  -7.764  1.00  0.00     0.038 C 
ATOM      3  O   UNL     1     -33.846  -1.606  -8.682  1.00  0.00    -0.550 OA
ATOM      4  O   UNL     1     -34.347  -1.337  -6.463  1.00  0.00    -0.550 OA
ENDROOT
TORSDOF 0
ENDMDL
