MODEL 1
REMARK VINA RESULT:    -4.089      0.000      0.000
REMARK INTER + INTRA:          -8.619
REMARK INTER:                  -7.674
REMARK INTRA:                  -0.944
REMARK UNBOUND:                -0.944
REMARK SMILES O=C([O-])CCCCCCCCCCCCCCC(=O)[O-]
REMARK SMILES IDX 10 1 9 2 8 3 7 4 6 5 5 6 4 7 2 8 1 9 3 10 11 11 12 12 13 13
REMARK SMILES IDX 14 14 15 15 16 16 17 17 18 18 19 19 20 20
REMARK H PARENT
REMARK Flexibility Score: inf
ROOT
ATOM      1  C   UNL     1     112.799  54.933 230.064  1.00  0.00     0.000 C 
ENDROOT
BRANCH   1   2
ATOM      2  C   UNL     1     113.590  55.852 231.007  1.00  0.00     0.000 C 
BRANCH   2   3
ATOM      3  C   UNL     1     113.777  55.196 232.383  1.00  0.00     0.000 C 
BRANCH   3   4
ATOM      4  C   UNL     1     113.926  53.666 232.303  1.00  0.00     0.000 C 
BRANCH   4   5
ATOM      5  C   UNL     1     113.086  52.876 233.323  1.00  0.00     0.000 C 
BRANCH   5   6
ATOM      6  C   UNL     1     111.654  53.418 233.470  1.00  0.00     0.006 C 
BRANCH   6   7
ATOM      7  C   UNL     1     110.725  52.908 232.360  1.00  0.00     0.053 C 
BRANCH   7   8
ATOM      8  C   UNL     1     109.637  52.033 232.901  1.00  0.00     0.041 C 
ATOM      9  O   UNL     1     108.859  52.466 233.792  1.00  0.00    -0.550 OA
ATOM     10  O   UNL     1     109.498  50.729 232.442  1.00  0.00    -0.550 OA
ENDBRANCH   7   8
ENDBRANCH   6   7
ENDBRANCH   5   6
ENDBRANCH   4   5
ENDBRANCH   3   4
ENDBRANCH   2   3
ENDBRANCH   1   2
BRANCH   1  11
ATOM     11  C   UNL     1     113.483  54.747 228.697  1.00  0.00     0.000 C 
BRANCH  11  12
ATOM     12  C   UNL     1     113.136  53.434 227.967  1.00  0.00     0.000 C 
BRANCH  12  13
ATOM     13  C   UNL     1     113.750  53.290 226.563  1.00  0.00     0.000 C 
BRANCH  13  14
ATOM     14  C   UNL     1     112.725  53.520 225.439  1.00  0.00     0.000 C 
BRANCH  14  15
ATOM     15  C   UNL     1     111.278  53.527 225.954  1.00  0.00     0.000 C 
BRANCH  15  16
ATOM     16  C   UNL     1     110.304  54.200 224.970  1.00  0.00     0.006 C 
BRANCH  16  17
ATOM     17  C   UNL     1     108.985  53.428 224.844  1.00  0.00     0.053 C 
BRANCH  17  18
ATOM     18  C   UNL     1     109.216  51.988 224.505  1.00  0.00     0.041 C 
ATOM     19  O   UNL     1     109.347  51.134 225.422  1.00  0.00    -0.550 OA
ATOM     20  O   UNL     1     109.321  51.594 223.178  1.00  0.00    -0.550 OA
ENDBRANCH  17  18
ENDBRANCH  16  17
ENDBRANCH  15  16
ENDBRANCH  14  15
ENDBRANCH  13  14
ENDBRANCH  12  13
ENDBRANCH  11  12
ENDBRANCH   1  11
TORSDOF 15
ENDMDL
MODEL 2
REMARK VINA RESULT:    -3.897      2.030      2.442
REMARK INTER + INTRA:          -8.259
REMARK INTER:                  -6.762
REMARK INTRA:                  -1.497
REMARK UNBOUND:                -0.944
REMARK SMILES O=C([O-])CCCCCCCCCCCCCCC(=O)[O-]
REMARK SMILES IDX 10 1 9 2 8 3 7 4 6 5 5 6 4 7 2 8 1 9 3 10 11 11 12 12 13 13
REMARK SMILES IDX 14 14 15 15 16 16 17 17 18 18 19 19 20 20
REMARK H PARENT
REMARK Flexibility Score: inf
ROOT
ATOM      1  C   UNL     1     112.732  54.852 230.020  1.00  0.00     0.000 C 
ENDROOT
BRANCH   1   2
ATOM      2  C   UNL     1     113.554  55.756 230.951  1.00  0.00     0.000 C 
BRANCH   2   3
ATOM      3  C   UNL     1     113.737  55.102 232.329  1.00  0.00     0.000 C 
BRANCH   3   4
ATOM      4  C   UNL     1     113.860  53.569 232.254  1.00  0.00     0.000 C 
BRANCH   4   5
ATOM      5  C   UNL     1     112.997  52.796 233.268  1.00  0.00     0.000 C 
BRANCH   5   6
ATOM      6  C   UNL     1     111.622  53.445 233.503  1.00  0.00     0.006 C 
BRANCH   6   7
ATOM      7  C   UNL     1     110.612  53.072 232.409  1.00  0.00     0.053 C 
BRANCH   7   8
ATOM      8  C   UNL     1     109.608  52.072 232.893  1.00  0.00     0.041 C 
ATOM      9  O   UNL     1     109.671  50.874 232.509  1.00  0.00    -0.550 OA
ATOM     10  O   UNL     1     108.586  52.468 233.746  1.00  0.00    -0.550 OA
ENDBRANCH   7   8
ENDBRANCH   6   7
ENDBRANCH   5   6
ENDBRANCH   4   5
ENDBRANCH   3   4
ENDBRANCH   2   3
ENDBRANCH   1   2
BRANCH   1  11
ATOM     11  C   UNL     1     113.373  54.687 228.630  1.00  0.00     0.000 C 
BRANCH  11  12
ATOM     12  C   UNL     1     113.010  53.380 227.895  1.00  0.00     0.000 C 
BRANCH  12  13
ATOM     13  C   UNL     1     113.660  53.211 226.510  1.00  0.00     0.000 C 
BRANCH  13  14
ATOM     14  C   UNL     1     112.692  53.525 225.356  1.00  0.00     0.000 C 
BRANCH  14  15
ATOM     15  C   UNL     1     111.219  53.438 225.783  1.00  0.00     0.000 C 
BRANCH  15  16
ATOM     16  C   UNL     1     110.309  54.369 224.962  1.00  0.00     0.006 C 
BRANCH  16  17
ATOM     17  C   UNL     1     109.457  55.280 225.854  1.00  0.00     0.053 C 
BRANCH  17  18
ATOM     18  C   UNL     1     110.300  56.047 226.827  1.00  0.00     0.041 C 
ATOM     19  O   UNL     1     111.262  56.750 226.417  1.00  0.00    -0.550 OA
ATOM     20  O   UNL     1     110.044  55.958 228.189  1.00  0.00    -0.550 OA
ENDBRANCH  17  18
ENDBRANCH  16  17
ENDBRANCH  15  16
ENDBRANCH  14  15
ENDBRANCH  13  14
ENDBRANCH  12  13
ENDBRANCH  11  12
ENDBRANCH   1  11
TORSDOF 15
ENDMDL
MODEL 3
REMARK VINA RESULT:    -3.856      1.171      1.515
REMARK INTER + INTRA:          -8.182
REMARK INTER:                  -6.763
REMARK INTRA:                  -1.419
REMARK UNBOUND:                -0.944
REMARK SMILES O=C([O-])CCCCCCCCCCCCCCC(=O)[O-]
REMARK SMILES IDX 10 1 9 2 8 3 7 4 6 5 5 6 4 7 2 8 1 9 3 10 11 11 12 12 13 13
REMARK SMILES IDX 14 14 15 15 16 16 17 17 18 18 19 19 20 20
REMARK H PARENT
REMARK Flexibility Score: inf
ROOT
ATOM      1  C   UNL     1     111.787  55.633 229.092  1.00  0.00     0.000 C 
ENDROOT
BRANCH   1   2
ATOM      2  C   UNL     1     111.980  55.809 230.606  1.00  0.00     0.000 C 
BRANCH   2   3
ATOM      3  C   UNL     1     113.440  55.549 231.005  1.00  0.00     0.000 C 
BRANCH   3   4
ATOM      4  C   UNL     1     113.600  54.336 231.941  1.00  0.00     0.000 C 
BRANCH   4   5
ATOM      5  C   UNL     1     112.658  53.155 231.643  1.00  0.00     0.000 C 
BRANCH   5   6
ATOM      6  C   UNL     1     111.744  52.803 232.830  1.00  0.00     0.006 C 
BRANCH   6   7
ATOM      7  C   UNL     1     110.287  53.216 232.581  1.00  0.00     0.053 C 
BRANCH   7   8
ATOM      8  C   UNL     1     109.334  52.094 232.856  1.00  0.00     0.041 C 
ATOM      9  O   UNL     1     109.645  50.911 232.556  1.00  0.00    -0.550 OA
ATOM     10  O   UNL     1     108.092  52.357 233.419  1.00  0.00    -0.550 OA
ENDBRANCH   7   8
ENDBRANCH   6   7
ENDBRANCH   5   6
ENDBRANCH   4   5
ENDBRANCH   3   4
ENDBRANCH   2   3
ENDBRANCH   1   2
BRANCH   1  11
ATOM     11  C   UNL     1     113.044  55.091 228.388  1.00  0.00     0.000 C 
BRANCH  11  12
ATOM     12  C   UNL     1     112.974  53.605 227.978  1.00  0.00     0.000 C 
BRANCH  12  13
ATOM     13  C   UNL     1     112.940  53.351 226.461  1.00  0.00     0.000 C 
BRANCH  13  14
ATOM     14  C   UNL     1     111.509  53.319 225.896  1.00  0.00     0.000 C 
BRANCH  14  15
ATOM     15  C   UNL     1     111.060  54.684 225.352  1.00  0.00     0.000 C 
BRANCH  15  16
ATOM     16  C   UNL     1     109.632  55.053 225.788  1.00  0.00     0.006 C 
BRANCH  16  17
ATOM     17  C   UNL     1     108.659  55.104 224.603  1.00  0.00     0.053 C 
BRANCH  17  18
ATOM     18  C   UNL     1     108.379  53.738 224.058  1.00  0.00     0.041 C 
ATOM     19  O   UNL     1     107.619  52.949 224.681  1.00  0.00    -0.550 OA
ATOM     20  O   UNL     1     108.985  53.322 222.879  1.00  0.00    -0.550 OA
ENDBRANCH  17  18
ENDBRANCH  16  17
ENDBRANCH  15  16
ENDBRANCH  14  15
ENDBRANCH  13  14
ENDBRANCH  12  13
ENDBRANCH  11  12
ENDBRANCH   1  11
TORSDOF 15
ENDMDL
MODEL 4
REMARK VINA RESULT:    -3.795      1.836      3.015
REMARK INTER + INTRA:          -8.068
REMARK INTER:                  -6.131
REMARK INTRA:                  -1.937
REMARK UNBOUND:                -0.944
REMARK SMILES O=C([O-])CCCCCCCCCCCCCCC(=O)[O-]
REMARK SMILES IDX 10 1 9 2 8 3 7 4 6 5 5 6 4 7 2 8 1 9 3 10 11 11 12 12 13 13
REMARK SMILES IDX 14 14 15 15 16 16 17 17 18 18 19 19 20 20
REMARK H PARENT
REMARK Flexibility Score: inf
ROOT
ATOM      1  C   UNL     1     110.747  56.878 232.399  1.00  0.00     0.000 C 
ENDROOT
BRANCH   1   2
ATOM      2  C   UNL     1     111.818  57.547 233.272  1.00  0.00     0.000 C 
BRANCH   2   3
ATOM      3  C   UNL     1     113.027  56.620 233.464  1.00  0.00     0.000 C 
BRANCH   3   4
ATOM      4  C   UNL     1     112.629  55.147 233.665  1.00  0.00     0.000 C 
BRANCH   4   5
ATOM      5  C   UNL     1     113.459  54.131 232.859  1.00  0.00     0.000 C 
BRANCH   5   6
ATOM      6  C   UNL     1     112.736  52.787 232.663  1.00  0.00     0.006 C 
BRANCH   6   7
ATOM      7  C   UNL     1     111.313  52.969 232.118  1.00  0.00     0.053 C 
BRANCH   7   8
ATOM      8  C   UNL     1     110.296  52.277 232.973  1.00  0.00     0.041 C 
ATOM      9  O   UNL     1     109.663  51.284 232.526  1.00  0.00    -0.550 OA
ATOM     10  O   UNL     1     110.027  52.746 234.253  1.00  0.00    -0.550 OA
ENDBRANCH   7   8
ENDBRANCH   6   7
ENDBRANCH   5   6
ENDBRANCH   4   5
ENDBRANCH   3   4
ENDBRANCH   2   3
ENDBRANCH   1   2
BRANCH   1  11
ATOM     11  C   UNL     1     110.912  57.197 230.901  1.00  0.00     0.000 C 
BRANCH  11  12
ATOM     12  C   UNL     1     111.401  56.020 230.032  1.00  0.00     0.000 C 
BRANCH  12  13
ATOM     13  C   UNL     1     112.919  55.986 229.780  1.00  0.00     0.000 C 
BRANCH  13  14
ATOM     14  C   UNL     1     113.400  54.631 229.231  1.00  0.00     0.000 C 
BRANCH  14  15
ATOM     15  C   UNL     1     112.511  54.106 228.094  1.00  0.00     0.000 C 
BRANCH  15  16
ATOM     16  C   UNL     1     113.288  53.241 227.087  1.00  0.00     0.006 C 
BRANCH  16  17
ATOM     17  C   UNL     1     112.830  53.481 225.643  1.00  0.00     0.053 C 
BRANCH  17  18
ATOM     18  C   UNL     1     111.343  53.640 225.553  1.00  0.00     0.041 C 
ATOM     19  O   UNL     1     110.586  52.654 225.755  1.00  0.00    -0.550 OA
ATOM     20  O   UNL     1     110.795  54.870 225.213  1.00  0.00    -0.550 OA
ENDBRANCH  17  18
ENDBRANCH  16  17
ENDBRANCH  15  16
ENDBRANCH  14  15
ENDBRANCH  13  14
ENDBRANCH  12  13
ENDBRANCH  11  12
ENDBRANCH   1  11
TORSDOF 15
ENDMDL
MODEL 5
REMARK VINA RESULT:    -3.792      1.898      2.976
REMARK INTER + INTRA:          -8.061
REMARK INTER:                  -7.116
REMARK INTRA:                  -0.945
REMARK UNBOUND:                -0.944
REMARK SMILES O=C([O-])CCCCCCCCCCCCCCC(=O)[O-]
REMARK SMILES IDX 10 1 9 2 8 3 7 4 6 5 5 6 4 7 2 8 1 9 3 10 11 11 12 12 13 13
REMARK SMILES IDX 14 14 15 15 16 16 17 17 18 18 19 19 20 20
REMARK H PARENT
REMARK Flexibility Score: inf
ROOT
ATOM      1  C   UNL     1     113.089  53.435 227.326  1.00  0.00     0.000 C 
ENDROOT
BRANCH   1   2
ATOM      2  C   UNL     1     112.929  54.774 228.061  1.00  0.00     0.000 C 
BRANCH   2   3
ATOM      3  C   UNL     1     113.406  54.660 229.517  1.00  0.00     0.000 C 
BRANCH   3   4
ATOM      4  C   UNL     1     112.576  53.662 230.345  1.00  0.00     0.000 C 
BRANCH   4   5
ATOM      5  C   UNL     1     113.015  53.511 231.813  1.00  0.00     0.000 C 
BRANCH   5   6
ATOM      6  C   UNL     1     112.022  52.690 232.654  1.00  0.00     0.006 C 
BRANCH   6   7
ATOM      7  C   UNL     1     110.589  53.228 232.544  1.00  0.00     0.053 C 
BRANCH   7   8
ATOM      8  C   UNL     1     109.578  52.216 232.988  1.00  0.00     0.041 C 
ATOM      9  O   UNL     1     108.678  52.536 233.809  1.00  0.00    -0.550 OA
ATOM     10  O   UNL     1     109.645  50.910 232.517  1.00  0.00    -0.550 OA
ENDBRANCH   7   8
ENDBRANCH   6   7
ENDBRANCH   5   6
ENDBRANCH   4   5
ENDBRANCH   3   4
ENDBRANCH   2   3
ENDBRANCH   1   2
BRANCH   1  11
ATOM     11  C   UNL     1     112.595  53.490 225.869  1.00  0.00     0.000 C 
BRANCH  11  12
ATOM     12  C   UNL     1     111.610  54.635 225.556  1.00  0.00     0.000 C 
BRANCH  12  13
ATOM     13  C   UNL     1     110.125  54.291 225.771  1.00  0.00     0.000 C 
BRANCH  13  14
ATOM     14  C   UNL     1     109.783  52.848 225.360  1.00  0.00     0.000 C 
BRANCH  14  15
ATOM     15  C   UNL     1     108.387  52.730 224.730  1.00  0.00     0.000 C 
BRANCH  15  16
ATOM     16  C   UNL     1     108.027  53.949 223.861  1.00  0.00     0.006 C 
BRANCH  16  17
ATOM     17  C   UNL     1     108.423  53.750 222.393  1.00  0.00     0.053 C 
BRANCH  17  18
ATOM     18  C   UNL     1     108.899  55.026 221.770  1.00  0.00     0.041 C 
ATOM     19  O   UNL     1     110.010  55.518 222.101  1.00  0.00    -0.550 OA
ATOM     20  O   UNL     1     108.099  55.690 220.849  1.00  0.00    -0.550 OA
ENDBRANCH  17  18
ENDBRANCH  16  17
ENDBRANCH  15  16
ENDBRANCH  14  15
ENDBRANCH  13  14
ENDBRANCH  12  13
ENDBRANCH  11  12
ENDBRANCH   1  11
TORSDOF 15
ENDMDL
MODEL 6
REMARK VINA RESULT:    -3.790     14.883     17.348
REMARK INTER + INTRA:          -8.058
REMARK INTER:                  -6.057
REMARK INTRA:                  -2.002
REMARK UNBOUND:                -0.944
REMARK SMILES O=C([O-])CCCCCCCCCCCCCCC(=O)[O-]
REMARK SMILES IDX 10 1 9 2 8 3 7 4 6 5 5 6 4 7 2 8 1 9 3 10 11 11 12 12 13 13
REMARK SMILES IDX 14 14 15 15 16 16 17 17 18 18 19 19 20 20
REMARK H PARENT
REMARK Flexibility Score: inf
ROOT
ATOM      1  C   UNL     1      97.318  63.337 228.505  1.00  0.00     0.000 C 
ENDROOT
BRANCH   1   2
ATOM      2  C   UNL     1      96.927  62.293 227.449  1.00  0.00     0.000 C 
BRANCH   2   3
ATOM      3  C   UNL     1      98.102  62.003 226.503  1.00  0.00     0.000 C 
BRANCH   3   4
ATOM      4  C   UNL     1      99.150  61.059 227.119  1.00  0.00     0.000 C 
BRANCH   4   5
ATOM      5  C   UNL     1     100.368  60.764 226.224  1.00  0.00     0.000 C 
BRANCH   5   6
ATOM      6  C   UNL     1     101.425  61.880 226.263  1.00  0.00     0.006 C 
BRANCH   6   7
ATOM      7  C   UNL     1     102.298  61.894 225.001  1.00  0.00     0.053 C 
BRANCH   7   8
ATOM      8  C   UNL     1     103.396  62.909 225.092  1.00  0.00     0.041 C 
ATOM      9  O   UNL     1     103.126  64.116 225.327  1.00  0.00    -0.550 OA
ATOM     10  O   UNL     1     104.717  62.526 224.892  1.00  0.00    -0.550 OA
ENDBRANCH   7   8
ENDBRANCH   6   7
ENDBRANCH   5   6
ENDBRANCH   4   5
ENDBRANCH   3   4
ENDBRANCH   2   3
ENDBRANCH   1   2
BRANCH   1  11
ATOM     11  C   UNL     1      97.136  64.784 228.010  1.00  0.00     0.000 C 
BRANCH  11  12
ATOM     12  C   UNL     1      95.718  65.131 227.513  1.00  0.00     0.000 C 
BRANCH  12  13
ATOM     13  C   UNL     1      95.656  65.756 226.108  1.00  0.00     0.000 C 
BRANCH  13  14
ATOM     14  C   UNL     1      95.407  64.714 225.004  1.00  0.00     0.000 C 
BRANCH  14  15
ATOM     15  C   UNL     1      96.662  64.436 224.162  1.00  0.00     0.000 C 
BRANCH  15  16
ATOM     16  C   UNL     1      97.735  65.527 224.325  1.00  0.00     0.006 C 
BRANCH  16  17
ATOM     17  C   UNL     1      99.065  64.959 224.837  1.00  0.00     0.053 C 
BRANCH  17  18
ATOM     18  C   UNL     1     100.140  65.046 223.798  1.00  0.00     0.041 C 
ATOM     19  O   UNL     1     100.464  64.026 223.132  1.00  0.00    -0.550 OA
ATOM     20  O   UNL     1     100.809  66.245 223.588  1.00  0.00    -0.550 OA
ENDBRANCH  17  18
ENDBRANCH  16  17
ENDBRANCH  15  16
ENDBRANCH  14  15
ENDBRANCH  13  14
ENDBRANCH  12  13
ENDBRANCH  11  12
ENDBRANCH   1  11
TORSDOF 15
ENDMDL
MODEL 7
REMARK VINA RESULT:    -3.703      1.265      7.421
REMARK INTER + INTRA:          -7.894
REMARK INTER:                  -6.766
REMARK INTRA:                  -1.128
REMARK UNBOUND:                -0.944
REMARK SMILES O=C([O-])CCCCCCCCCCCCCCC(=O)[O-]
REMARK SMILES IDX 10 1 9 2 8 3 7 4 6 5 5 6 4 7 2 8 1 9 3 10 11 11 12 12 13 13
REMARK SMILES IDX 14 14 15 15 16 16 17 17 18 18 19 19 20 20
REMARK H PARENT
REMARK Flexibility Score: inf
ROOT
ATOM      1  C   UNL     1     112.461  54.824 230.460  1.00  0.00     0.000 C 
ENDROOT
BRANCH   1   2
ATOM      2  C   UNL     1     113.005  54.944 229.029  1.00  0.00     0.000 C 
BRANCH   2   3
ATOM      3  C   UNL     1     112.960  53.587 228.310  1.00  0.00     0.000 C 
BRANCH   3   4
ATOM      4  C   UNL     1     113.574  53.634 226.900  1.00  0.00     0.000 C 
BRANCH   4   5
ATOM      5  C   UNL     1     112.597  53.314 225.753  1.00  0.00     0.000 C 
BRANCH   5   6
ATOM      6  C   UNL     1     111.528  54.402 225.555  1.00  0.00     0.006 C 
BRANCH   6   7
ATOM      7  C   UNL     1     110.117  53.892 225.874  1.00  0.00     0.053 C 
BRANCH   7   8
ATOM      8  C   UNL     1     109.734  52.731 225.009  1.00  0.00     0.041 C 
ATOM      9  O   UNL     1     109.717  52.852 223.756  1.00  0.00    -0.550 OA
ATOM     10  O   UNL     1     109.368  51.521 225.588  1.00  0.00    -0.550 OA
ENDBRANCH   7   8
ENDBRANCH   6   7
ENDBRANCH   5   6
ENDBRANCH   4   5
ENDBRANCH   3   4
ENDBRANCH   2   3
ENDBRANCH   1   2
BRANCH   1  11
ATOM     11  C   UNL     1     113.526  54.351 231.467  1.00  0.00     0.000 C 
BRANCH  11  12
ATOM     12  C   UNL     1     113.230  52.996 232.143  1.00  0.00     0.000 C 
BRANCH  12  13
ATOM     13  C   UNL     1     113.448  52.969 233.666  1.00  0.00     0.000 C 
BRANCH  13  14
ATOM     14  C   UNL     1     113.063  54.295 234.346  1.00  0.00     0.000 C 
BRANCH  14  15
ATOM     15  C   UNL     1     111.595  54.319 234.799  1.00  0.00     0.000 C 
BRANCH  15  16
ATOM     16  C   UNL     1     110.772  55.401 234.078  1.00  0.00     0.006 C 
BRANCH  16  17
ATOM     17  C   UNL     1     109.456  54.850 233.517  1.00  0.00     0.053 C 
BRANCH  17  18
ATOM     18  C   UNL     1     109.411  53.354 233.581  1.00  0.00     0.041 C 
ATOM     19  O   UNL     1     109.808  52.664 232.605  1.00  0.00    -0.550 OA
ATOM     20  O   UNL     1     108.896  52.722 234.706  1.00  0.00    -0.550 OA
ENDBRANCH  17  18
ENDBRANCH  16  17
ENDBRANCH  15  16
ENDBRANCH  14  15
ENDBRANCH  13  14
ENDBRANCH  12  13
ENDBRANCH  11  12
ENDBRANCH   1  11
TORSDOF 15
ENDMDL
MODEL 8
REMARK VINA RESULT:    -3.675     16.323     18.984
REMARK INTER + INTRA:          -7.843
REMARK INTER:                  -5.913
REMARK INTRA:                  -1.930
REMARK UNBOUND:                -0.944
REMARK SMILES O=C([O-])CCCCCCCCCCCCCCC(=O)[O-]
REMARK SMILES IDX 10 1 9 2 8 3 7 4 6 5 5 6 4 7 2 8 1 9 3 10 11 11 12 12 13 13
REMARK SMILES IDX 14 14 15 15 16 16 17 17 18 18 19 19 20 20
REMARK H PARENT
REMARK Flexibility Score: inf
ROOT
ATOM      1  C   UNL     1      96.586  64.427 223.939  1.00  0.00     0.000 C 
ENDROOT
BRANCH   1   2
ATOM      2  C   UNL     1      97.153  63.562 225.074  1.00  0.00     0.000 C 
BRANCH   2   3
ATOM      3  C   UNL     1      98.622  63.913 225.350  1.00  0.00     0.000 C 
BRANCH   3   4
ATOM      4  C   UNL     1      99.299  64.633 224.169  1.00  0.00     0.000 C 
BRANCH   4   5
ATOM      5  C   UNL     1     100.679  64.077 223.772  1.00  0.00     0.000 C 
BRANCH   5   6
ATOM      6  C   UNL     1     100.928  62.655 224.302  1.00  0.00     0.006 C 
BRANCH   6   7
ATOM      7  C   UNL     1     102.371  62.461 224.785  1.00  0.00     0.053 C 
BRANCH   7   8
ATOM      8  C   UNL     1     102.747  63.462 225.835  1.00  0.00     0.041 C 
ATOM      9  O   UNL     1     102.108  63.513 226.919  1.00  0.00    -0.550 OA
ATOM     10  O   UNL     1     103.786  64.356 225.605  1.00  0.00    -0.550 OA
ENDBRANCH   7   8
ENDBRANCH   6   7
ENDBRANCH   5   6
ENDBRANCH   4   5
ENDBRANCH   3   4
ENDBRANCH   2   3
ENDBRANCH   1   2
BRANCH   1  11
ATOM     11  C   UNL     1      95.250  65.097 224.308  1.00  0.00     0.000 C 
BRANCH  11  12
ATOM     12  C   UNL     1      95.375  66.487 224.966  1.00  0.00     0.000 C 
BRANCH  12  13
ATOM     13  C   UNL     1      96.698  67.222 224.684  1.00  0.00     0.000 C 
BRANCH  13  14
ATOM     14  C   UNL     1      97.526  67.467 225.958  1.00  0.00     0.000 C 
BRANCH  14  15
ATOM     15  C   UNL     1      96.732  67.176 227.240  1.00  0.00     0.000 C 
BRANCH  15  16
ATOM     16  C   UNL     1      97.240  65.925 227.979  1.00  0.00     0.006 C 
BRANCH  16  17
ATOM     17  C   UNL     1      96.996  66.007 229.491  1.00  0.00     0.053 C 
BRANCH  17  18
ATOM     18  C   UNL     1      95.822  65.176 229.908  1.00  0.00     0.041 C 
ATOM     19  O   UNL     1      95.940  64.330 230.834  1.00  0.00    -0.550 OA
ATOM     20  O   UNL     1      94.607  65.310 229.250  1.00  0.00    -0.550 OA
ENDBRANCH  17  18
ENDBRANCH  16  17
ENDBRANCH  15  16
ENDBRANCH  14  15
ENDBRANCH  13  14
ENDBRANCH  12  13
ENDBRANCH  11  12
ENDBRANCH   1  11
TORSDOF 15
ENDMDL
MODEL 9
REMARK VINA RESULT:    -3.620     17.193     19.723
REMARK INTER + INTRA:          -7.739
REMARK INTER:                  -5.576
REMARK INTRA:                  -2.163
REMARK UNBOUND:                -0.944
REMARK SMILES O=C([O-])CCCCCCCCCCCCCCC(=O)[O-]
REMARK SMILES IDX 10 1 9 2 8 3 7 4 6 5 5 6 4 7 2 8 1 9 3 10 11 11 12 12 13 13
REMARK SMILES IDX 14 14 15 15 16 16 17 17 18 18 19 19 20 20
REMARK H PARENT
REMARK Flexibility Score: inf
ROOT
ATOM      1  C   UNL     1      94.995  64.391 226.038  1.00  0.00     0.000 C 
ENDROOT
BRANCH   1   2
ATOM      2  C   UNL     1      96.469  63.961 226.067  1.00  0.00     0.000 C 
BRANCH   2   3
ATOM      3  C   UNL     1      96.901  63.581 227.491  1.00  0.00     0.000 C 
BRANCH   3   4
ATOM      4  C   UNL     1      98.256  62.852 227.533  1.00  0.00     0.000 C 
BRANCH   4   5
ATOM      5  C   UNL     1      99.390  63.538 226.749  1.00  0.00     0.000 C 
BRANCH   5   6
ATOM      6  C   UNL     1      99.967  62.653 225.632  1.00  0.00     0.006 C 
BRANCH   6   7
ATOM      7  C   UNL     1     100.971  63.412 224.753  1.00  0.00     0.053 C 
BRANCH   7   8
ATOM      8  C   UNL     1     100.286  64.333 223.790  1.00  0.00     0.041 C 
ATOM      9  O   UNL     1      99.051  64.217 223.572  1.00  0.00    -0.550 OA
ATOM     10  O   UNL     1     101.016  65.300 223.112  1.00  0.00    -0.550 OA
ENDBRANCH   7   8
ENDBRANCH   6   7
ENDBRANCH   5   6
ENDBRANCH   4   5
ENDBRANCH   3   4
ENDBRANCH   2   3
ENDBRANCH   1   2
BRANCH   1  11
ATOM     11  C   UNL     1      94.673  65.344 224.873  1.00  0.00     0.000 C 
BRANCH  11  12
ATOM     12  C   UNL     1      95.870  65.693 223.964  1.00  0.00     0.000 C 
BRANCH  12  13
ATOM     13  C   UNL     1      96.392  67.134 224.103  1.00  0.00     0.000 C 
BRANCH  13  14
ATOM     14  C   UNL     1      97.884  67.193 224.477  1.00  0.00     0.000 C 
BRANCH  14  15
ATOM     15  C   UNL     1      98.111  67.156 225.996  1.00  0.00     0.000 C 
BRANCH  15  16
ATOM     16  C   UNL     1      96.983  67.850 226.779  1.00  0.00     0.006 C 
BRANCH  16  17
ATOM     17  C   UNL     1      96.752  67.207 228.152  1.00  0.00     0.053 C 
BRANCH  17  18
ATOM     18  C   UNL     1      95.294  67.008 228.432  1.00  0.00     0.041 C 
ATOM     19  O   UNL     1      94.911  66.046 229.150  1.00  0.00    -0.550 OA
ATOM     20  O   UNL     1      94.355  67.864 227.871  1.00  0.00    -0.550 OA
ENDBRANCH  17  18
ENDBRANCH  16  17
ENDBRANCH  15  16
ENDBRANCH  14  15
ENDBRANCH  13  14
ENDBRANCH  12  13
ENDBRANCH  11  12
ENDBRANCH   1  11
TORSDOF 15
ENDMDL
