MODEL 1
REMARK VINA RESULT:    -3.721      0.000      0.000
REMARK INTER + INTRA:          -4.376
REMARK INTER:                  -4.374
REMARK INTRA:                  -0.002
REMARK UNBOUND:                -0.002
REMARK SMILES O=C([O-])CCC(=O)[O-]
REMARK SMILES IDX 4 1 2 2 1 3 3 4 5 5 6 6 7 7 8 8
REMARK H PARENT
REMARK Flexibility Score: inf
ROOT
ATOM      1  C   UNL     1      23.812 -21.654 -27.224  1.00  0.00     0.059 C 
ENDROOT
BRANCH   1   2
ATOM      2  C   UNL     1      23.261 -21.735 -28.615  1.00  0.00     0.042 C 
ATOM      3  O   UNL     1      24.008 -22.067 -29.573  1.00  0.00    -0.550 OA
ATOM      4  O   UNL     1      21.934 -21.406 -28.859  1.00  0.00    -0.550 OA
ENDBRANCH   1   2
BRANCH   1   5
ATOM      5  C   UNL     1      25.161 -20.927 -27.193  1.00  0.00     0.059 C 
BRANCH   5   6
ATOM      6  C   UNL     1      24.993 -19.449 -27.377  1.00  0.00     0.042 C 
ATOM      7  O   UNL     1      23.862 -18.916 -27.229  1.00  0.00    -0.550 OA
ATOM      8  O   UNL     1      26.079 -18.667 -27.751  1.00  0.00    -0.550 OA
ENDBRANCH   5   6
ENDBRANCH   1   5
TORSDOF 3
ENDMDL
MODEL 2
REMARK VINA RESULT:    -3.526      1.768      3.352
REMARK INTER + INTRA:          -4.146
REMARK INTER:                  -3.992
REMARK INTRA:                  -0.154
REMARK UNBOUND:                -0.002
REMARK SMILES O=C([O-])CCC(=O)[O-]
REMARK SMILES IDX 4 1 2 2 1 3 3 4 5 5 6 6 7 7 8 8
REMARK H PARENT
REMARK Flexibility Score: inf
ROOT
ATOM      1  C   UNL     1      24.764 -20.203 -27.881  1.00  0.00     0.059 C 
ENDROOT
BRANCH   1   2
ATOM      2  C   UNL     1      25.131 -21.275 -26.902  1.00  0.00     0.042 C 
ATOM      3  O   UNL     1      26.087 -22.058 -27.148  1.00  0.00    -0.550 OA
ATOM      4  O   UNL     1      24.394 -21.435 -25.735  1.00  0.00    -0.550 OA
ENDBRANCH   1   2
BRANCH   1   5
ATOM      5  C   UNL     1      23.264 -20.215 -28.195  1.00  0.00     0.059 C 
BRANCH   5   6
ATOM      6  C   UNL     1      22.855 -21.488 -28.874  1.00  0.00     0.042 C 
ATOM      7  O   UNL     1      21.834 -22.113 -28.485  1.00  0.00    -0.550 OA
ATOM      8  O   UNL     1      23.626 -22.002 -29.909  1.00  0.00    -0.550 OA
ENDBRANCH   5   6
ENDBRANCH   1   5
TORSDOF 3
ENDMDL
MODEL 3
REMARK VINA RESULT:    -3.476      1.074      3.943
REMARK INTER + INTRA:          -4.087
REMARK INTER:                  -4.022
REMARK INTRA:                  -0.065
REMARK UNBOUND:                -0.002
REMARK SMILES O=C([O-])CCC(=O)[O-]
REMARK SMILES IDX 4 1 2 2 1 3 3 4 5 5 6 6 7 7 8 8
REMARK H PARENT
REMARK Flexibility Score: inf
ROOT
ATOM      1  C   UNL     1      24.078 -19.798 -28.076  1.00  0.00     0.059 C 
ENDROOT
BRANCH   1   2
ATOM      2  C   UNL     1      25.474 -19.593 -27.571  1.00  0.00     0.042 C 
ATOM      3  O   UNL     1      26.023 -18.464 -27.669  1.00  0.00    -0.550 OA
ATOM      4  O   UNL     1      26.181 -20.658 -27.028  1.00  0.00    -0.550 OA
ENDBRANCH   1   2
BRANCH   1   5
ATOM      5  C   UNL     1      23.565 -21.207 -27.758  1.00  0.00     0.059 C 
BRANCH   5   6
ATOM      6  C   UNL     1      22.915 -21.838 -28.952  1.00  0.00     0.042 C 
ATOM      7  O   UNL     1      23.589 -22.078 -29.989  1.00  0.00    -0.550 OA
ATOM      8  O   UNL     1      21.555 -22.125 -28.933  1.00  0.00    -0.550 OA
ENDBRANCH   5   6
ENDBRANCH   1   5
TORSDOF 3
ENDMDL
MODEL 4
REMARK VINA RESULT:    -3.095     14.256     15.177
REMARK INTER + INTRA:          -3.640
REMARK INTER:                  -3.600
REMARK INTRA:                  -0.039
REMARK UNBOUND:                -0.002
REMARK SMILES O=C([O-])CCC(=O)[O-]
REMARK SMILES IDX 4 1 2 2 1 3 3 4 5 5 6 6 7 7 8 8
REMARK H PARENT
REMARK Flexibility Score: inf
ROOT
ATOM      1  C   UNL     1      14.833  -8.458 -30.730  1.00  0.00     0.059 C 
ENDROOT
BRANCH   1   2
ATOM      2  C   UNL     1      15.921  -7.865 -31.572  1.00  0.00     0.042 C 
ATOM      3  O   UNL     1      17.068  -7.678 -31.085  1.00  0.00    -0.550 OA
ATOM      4  O   UNL     1      15.658  -7.481 -32.881  1.00  0.00    -0.550 OA
ENDBRANCH   1   2
BRANCH   1   5
ATOM      5  C   UNL     1      15.286  -9.761 -30.061  1.00  0.00     0.059 C 
BRANCH   5   6
ATOM      6  C   UNL     1      14.522 -10.025 -28.798  1.00  0.00     0.042 C 
ATOM      7  O   UNL     1      13.345  -9.597 -28.668  1.00  0.00    -0.550 OA
ATOM      8  O   UNL     1      15.126 -10.710 -27.751  1.00  0.00    -0.550 OA
ENDBRANCH   5   6
ENDBRANCH   1   5
TORSDOF 3
ENDMDL
MODEL 5
REMARK VINA RESULT:    -3.037     14.345     15.193
REMARK INTER + INTRA:          -3.572
REMARK INTER:                  -3.516
REMARK INTRA:                  -0.056
REMARK UNBOUND:                -0.002
REMARK SMILES O=C([O-])CCC(=O)[O-]
REMARK SMILES IDX 4 1 2 2 1 3 3 4 5 5 6 6 7 7 8 8
REMARK H PARENT
REMARK Flexibility Score: inf
ROOT
ATOM      1  C   UNL     1      15.340  -9.795 -29.997  1.00  0.00     0.059 C 
ENDROOT
BRANCH   1   2
ATOM      2  C   UNL     1      14.590 -10.084 -28.734  1.00  0.00     0.042 C 
ATOM      3  O   UNL     1      13.398  -9.698 -28.601  1.00  0.00    -0.550 OA
ATOM      4  O   UNL     1      15.218 -10.746 -27.686  1.00  0.00    -0.550 OA
ENDBRANCH   1   2
BRANCH   1   5
ATOM      5  C   UNL     1      14.616  -8.752 -30.856  1.00  0.00     0.059 C 
BRANCH   5   6
ATOM      6  C   UNL     1      15.564  -7.716 -31.379  1.00  0.00     0.042 C 
ATOM      7  O   UNL     1      16.801  -7.825 -31.170  1.00  0.00    -0.550 OA
ATOM      8  O   UNL     1      15.077  -6.608 -32.062  1.00  0.00    -0.550 OA
ENDBRANCH   5   6
ENDBRANCH   1   5
TORSDOF 3
ENDMDL
MODEL 6
REMARK VINA RESULT:    -3.017     14.837     15.645
REMARK INTER + INTRA:          -3.548
REMARK INTER:                  -3.448
REMARK INTRA:                  -0.100
REMARK UNBOUND:                -0.002
REMARK SMILES O=C([O-])CCC(=O)[O-]
REMARK SMILES IDX 4 1 2 2 1 3 3 4 5 5 6 6 7 7 8 8
REMARK H PARENT
REMARK Flexibility Score: inf
ROOT
ATOM      1  C   UNL     1      15.265  -9.321 -30.592  1.00  0.00     0.059 C 
ENDROOT
BRANCH   1   2
ATOM      2  C   UNL     1      14.072  -9.152 -29.701  1.00  0.00     0.042 C 
ATOM      3  O   UNL     1      13.592 -10.143 -29.091  1.00  0.00    -0.550 OA
ATOM      4  O   UNL     1      13.468  -7.907 -29.576  1.00  0.00    -0.550 OA
ENDBRANCH   1   2
BRANCH   1   5
ATOM      5  C   UNL     1      15.369  -8.185 -31.616  1.00  0.00     0.059 C 
BRANCH   5   6
ATOM      6  C   UNL     1      16.431  -7.199 -31.237  1.00  0.00     0.042 C 
ATOM      7  O   UNL     1      17.648  -7.504 -31.346  1.00  0.00    -0.550 OA
ATOM      8  O   UNL     1      16.076  -5.956 -30.726  1.00  0.00    -0.550 OA
ENDBRANCH   5   6
ENDBRANCH   1   5
TORSDOF 3
ENDMDL
MODEL 7
REMARK VINA RESULT:    -2.999     14.878     15.897
REMARK INTER + INTRA:          -3.527
REMARK INTER:                  -3.427
REMARK INTRA:                  -0.099
REMARK UNBOUND:                -0.002
REMARK SMILES O=C([O-])CCC(=O)[O-]
REMARK SMILES IDX 4 1 2 2 1 3 3 4 5 5 6 6 7 7 8 8
REMARK H PARENT
REMARK Flexibility Score: inf
ROOT
ATOM      1  C   UNL     1      15.408  -7.969 -31.621  1.00  0.00     0.059 C 
ENDROOT
BRANCH   1   2
ATOM      2  C   UNL     1      16.545  -7.068 -31.250  1.00  0.00     0.042 C 
ATOM      3  O   UNL     1      17.735  -7.449 -31.412  1.00  0.00    -0.550 OA
ATOM      4  O   UNL     1      16.293  -5.821 -30.691  1.00  0.00    -0.550 OA
ENDBRANCH   1   2
BRANCH   1   5
ATOM      5  C   UNL     1      15.319  -9.179 -30.684  1.00  0.00     0.059 C 
BRANCH   5   6
ATOM      6  C   UNL     1      14.095  -9.118 -29.822  1.00  0.00     0.042 C 
ATOM      7  O   UNL     1      13.571 -10.177 -29.389  1.00  0.00    -0.550 OA
ATOM      8  O   UNL     1      13.511  -7.891 -29.530  1.00  0.00    -0.550 OA
ENDBRANCH   5   6
ENDBRANCH   1   5
TORSDOF 3
ENDMDL
MODEL 8
REMARK VINA RESULT:    -2.870     15.162     15.919
REMARK INTER + INTRA:          -3.375
REMARK INTER:                  -3.261
REMARK INTRA:                  -0.114
REMARK UNBOUND:                -0.002
REMARK SMILES O=C([O-])CCC(=O)[O-]
REMARK SMILES IDX 4 1 2 2 1 3 3 4 5 5 6 6 7 7 8 8
REMARK H PARENT
REMARK Flexibility Score: inf
ROOT
ATOM      1  C   UNL     1      19.555  -6.750 -32.663  1.00  0.00     0.059 C 
ENDROOT
BRANCH   1   2
ATOM      2  C   UNL     1      18.128  -7.165 -32.477  1.00  0.00     0.042 C 
ATOM      3  O   UNL     1      17.360  -7.255 -33.472  1.00  0.00    -0.550 OA
ATOM      4  O   UNL     1      17.635  -7.415 -31.203  1.00  0.00    -0.550 OA
ENDBRANCH   1   2
BRANCH   1   5
ATOM      5  C   UNL     1      20.182  -7.421 -33.890  1.00  0.00     0.059 C 
BRANCH   5   6
ATOM      6  C   UNL     1      20.444  -6.431 -34.984  1.00  0.00     0.042 C 
ATOM      7  O   UNL     1      21.509  -6.493 -35.654  1.00  0.00    -0.550 OA
ATOM      8  O   UNL     1      19.530  -5.415 -35.236  1.00  0.00    -0.550 OA
ENDBRANCH   5   6
ENDBRANCH   1   5
TORSDOF 3
ENDMDL
MODEL 9
REMARK VINA RESULT:    -2.847     14.993     15.440
REMARK INTER + INTRA:          -3.348
REMARK INTER:                  -3.319
REMARK INTRA:                  -0.029
REMARK UNBOUND:                -0.002
REMARK SMILES O=C([O-])CCC(=O)[O-]
REMARK SMILES IDX 4 1 2 2 1 3 3 4 5 5 6 6 7 7 8 8
REMARK H PARENT
REMARK Flexibility Score: inf
ROOT
ATOM      1  C   UNL     1      17.255  -7.381 -31.407  1.00  0.00     0.059 C 
ENDROOT
BRANCH   1   2
ATOM      2  C   UNL     1      15.850  -7.900 -31.390  1.00  0.00     0.042 C 
ATOM      3  O   UNL     1      14.946  -7.303 -32.034  1.00  0.00    -0.550 OA
ATOM      4  O   UNL     1      15.531  -9.020 -30.633  1.00  0.00    -0.550 OA
ENDBRANCH   1   2
BRANCH   1   5
ATOM      5  C   UNL     1      17.743  -7.124 -32.837  1.00  0.00     0.059 C 
BRANCH   5   6
ATOM      6  C   UNL     1      19.240  -7.076 -32.908  1.00  0.00     0.042 C 
ATOM      7  O   UNL     1      19.888  -6.341 -32.117  1.00  0.00    -0.550 OA
ATOM      8  O   UNL     1      19.914  -7.813 -33.873  1.00  0.00    -0.550 OA
ENDBRANCH   5   6
ENDBRANCH   1   5
TORSDOF 3
ENDMDL
