MODEL 1
REMARK VINA RESULT:    -4.065      0.000      0.000
REMARK INTER + INTRA:          -8.895
REMARK INTER:                  -6.917
REMARK INTRA:                  -1.977
REMARK UNBOUND:                -1.977
REMARK SMILES CCCCCCCCCCCCCC(=O)[O-]
REMARK SMILES IDX 8 1 9 2 10 3 11 4 12 5 13 6 14 7 15 8 16 9 7 10 6 11 5 12
REMARK SMILES IDX 4 13 3 14 2 15 1 16
REMARK H PARENT
REMARK Flexibility Score: inf
ROOT
ATOM      1  C   UNL     1       8.314  -5.796 -32.797  1.00  0.00     0.000 C 
ENDROOT
BRANCH   1   2
ATOM      2  C   UNL     1       7.383  -5.753 -31.573  1.00  0.00     0.000 C 
BRANCH   2   3
ATOM      3  C   UNL     1       6.377  -6.914 -31.556  1.00  0.00     0.000 C 
BRANCH   3   4
ATOM      4  C   UNL     1       5.357  -6.827 -32.700  1.00  0.00     0.000 C 
BRANCH   4   5
ATOM      5  C   UNL     1       5.037  -8.221 -33.259  1.00  0.00     0.006 C 
BRANCH   5   6
ATOM      6  C   UNL     1       3.617  -8.305 -33.835  1.00  0.00     0.053 C 
BRANCH   6   7
ATOM      7  C   UNL     1       3.629  -8.380 -35.331  1.00  0.00     0.041 C 
ATOM      8  O   UNL     1       4.433  -9.146 -35.922  1.00  0.00    -0.550 OA
ATOM      9  O   UNL     1       2.772  -7.577 -36.074  1.00  0.00    -0.550 OA
ENDBRANCH   6   7
ENDBRANCH   5   6
ENDBRANCH   4   5
ENDBRANCH   3   4
ENDBRANCH   2   3
ENDBRANCH   1   2
BRANCH   1  10
ATOM     10  C   UNL     1       8.270  -4.501 -33.627  1.00  0.00     0.000 C 
BRANCH  10  11
ATOM     11  C   UNL     1       7.135  -3.531 -33.254  1.00  0.00    -0.000 C 
BRANCH  11  12
ATOM     12  C   UNL     1       6.048  -3.433 -34.340  1.00  0.00    -0.000 C 
BRANCH  12  13
ATOM     13  C   UNL     1       6.489  -4.091 -35.659  1.00  0.00    -0.000 C 
BRANCH  13  14
ATOM     14  C   UNL     1       5.758  -5.421 -35.948  1.00  0.00    -0.000 C 
BRANCH  14  15
ATOM     15  C   UNL     1       6.582  -6.400 -36.801  1.00  0.00    -0.003 C 
ATOM     16  C   UNL     1       7.461  -7.326 -35.962  1.00  0.00     0.004 C 
ENDBRANCH  14  15
ENDBRANCH  13  14
ENDBRANCH  12  13
ENDBRANCH  11  12
ENDBRANCH  10  11
ENDBRANCH   1  10
TORSDOF 12
ENDMDL
MODEL 2
REMARK VINA RESULT:    -4.053      4.444      6.927
REMARK INTER + INTRA:          -8.874
REMARK INTER:                  -7.775
REMARK INTRA:                  -1.099
REMARK UNBOUND:                -1.977
REMARK SMILES CCCCCCCCCCCCCC(=O)[O-]
REMARK SMILES IDX 8 1 9 2 10 3 11 4 12 5 13 6 14 7 15 8 16 9 7 10 6 11 5 12
REMARK SMILES IDX 4 13 3 14 2 15 1 16
REMARK H PARENT
REMARK Flexibility Score: inf
ROOT
ATOM      1  C   UNL     1       6.047  -3.684 -34.436  1.00  0.00     0.000 C 
ENDROOT
BRANCH   1   2
ATOM      2  C   UNL     1       6.960  -2.519 -34.855  1.00  0.00     0.000 C 
BRANCH   2   3
ATOM      3  C   UNL     1       7.047  -2.358 -36.381  1.00  0.00     0.000 C 
BRANCH   3   4
ATOM      4  C   UNL     1       8.493  -2.373 -36.894  1.00  0.00     0.000 C 
BRANCH   4   5
ATOM      5  C   UNL     1       9.476  -1.990 -35.778  1.00  0.00     0.006 C 
BRANCH   5   6
ATOM      6  C   UNL     1      10.740  -1.310 -36.324  1.00  0.00     0.053 C 
BRANCH   6   7
ATOM      7  C   UNL     1      11.979  -1.833 -35.665  1.00  0.00     0.041 C 
ATOM      8  O   UNL     1      12.087  -1.816 -34.412  1.00  0.00    -0.550 OA
ATOM      9  O   UNL     1      13.030  -2.308 -36.440  1.00  0.00    -0.550 OA
ENDBRANCH   6   7
ENDBRANCH   5   6
ENDBRANCH   4   5
ENDBRANCH   3   4
ENDBRANCH   2   3
ENDBRANCH   1   2
BRANCH   1  10
ATOM     10  C   UNL     1       6.244  -4.939 -35.304  1.00  0.00     0.000 C 
BRANCH  10  11
ATOM     11  C   UNL     1       7.484  -5.782 -34.954  1.00  0.00    -0.000 C 
BRANCH  11  12
ATOM     12  C   UNL     1       8.334  -5.159 -33.832  1.00  0.00    -0.000 C 
BRANCH  12  13
ATOM     13  C   UNL     1       8.381  -6.052 -32.580  1.00  0.00    -0.000 C 
BRANCH  13  14
ATOM     14  C   UNL     1       7.321  -5.672 -31.522  1.00  0.00    -0.000 C 
BRANCH  14  15
ATOM     15  C   UNL     1       6.302  -6.791 -31.247  1.00  0.00    -0.003 C 
ATOM     16  C   UNL     1       5.327  -7.005 -32.404  1.00  0.00     0.004 C 
ENDBRANCH  14  15
ENDBRANCH  13  14
ENDBRANCH  12  13
ENDBRANCH  11  12
ENDBRANCH  10  11
ENDBRANCH   1  10
TORSDOF 12
ENDMDL
MODEL 3
REMARK VINA RESULT:    -3.950      2.056      4.193
REMARK INTER + INTRA:          -8.698
REMARK INTER:                  -7.017
REMARK INTRA:                  -1.681
REMARK UNBOUND:                -1.977
REMARK SMILES CCCCCCCCCCCCCC(=O)[O-]
REMARK SMILES IDX 8 1 9 2 10 3 11 4 12 5 13 6 14 7 15 8 16 9 7 10 6 11 5 12
REMARK SMILES IDX 4 13 3 14 2 15 1 16
REMARK H PARENT
REMARK Flexibility Score: inf
ROOT
ATOM      1  C   UNL     1       7.693  -5.903 -32.022  1.00  0.00     0.000 C 
ENDROOT
BRANCH   1   2
ATOM      2  C   UNL     1       7.328  -4.481 -32.481  1.00  0.00     0.000 C 
BRANCH   2   3
ATOM      3  C   UNL     1       8.004  -4.097 -33.807  1.00  0.00     0.000 C 
BRANCH   3   4
ATOM      4  C   UNL     1       7.582  -2.708 -34.304  1.00  0.00     0.000 C 
BRANCH   4   5
ATOM      5  C   UNL     1       6.699  -2.815 -35.556  1.00  0.00     0.006 C 
BRANCH   5   6
ATOM      6  C   UNL     1       5.268  -3.259 -35.223  1.00  0.00     0.053 C 
BRANCH   6   7
ATOM      7  C   UNL     1       4.353  -3.108 -36.398  1.00  0.00     0.041 C 
ATOM      8  O   UNL     1       3.626  -2.087 -36.511  1.00  0.00    -0.550 OA
ATOM      9  O   UNL     1       4.278  -4.113 -37.355  1.00  0.00    -0.550 OA
ENDBRANCH   6   7
ENDBRANCH   5   6
ENDBRANCH   4   5
ENDBRANCH   3   4
ENDBRANCH   2   3
ENDBRANCH   1   2
BRANCH   1  10
ATOM     10  C   UNL     1       6.456  -6.784 -31.769  1.00  0.00     0.000 C 
BRANCH  10  11
ATOM     11  C   UNL     1       5.371  -6.704 -32.858  1.00  0.00    -0.000 C 
BRANCH  11  12
ATOM     12  C   UNL     1       5.103  -8.059 -33.538  1.00  0.00    -0.000 C 
BRANCH  12  13
ATOM     13  C   UNL     1       5.884  -8.210 -34.855  1.00  0.00    -0.000 C 
BRANCH  13  14
ATOM     14  C   UNL     1       6.215  -6.857 -35.523  1.00  0.00    -0.000 C 
BRANCH  14  15
ATOM     15  C   UNL     1       7.597  -6.829 -36.198  1.00  0.00    -0.003 C 
ATOM     16  C   UNL     1       7.575  -6.159 -37.571  1.00  0.00     0.004 C 
ENDBRANCH  14  15
ENDBRANCH  13  14
ENDBRANCH  12  13
ENDBRANCH  11  12
ENDBRANCH  10  11
ENDBRANCH   1  10
TORSDOF 12
ENDMDL
MODEL 4
REMARK VINA RESULT:    -3.944      2.785      4.577
REMARK INTER + INTRA:          -8.688
REMARK INTER:                  -6.820
REMARK INTRA:                  -1.869
REMARK UNBOUND:                -1.977
REMARK SMILES CCCCCCCCCCCCCC(=O)[O-]
REMARK SMILES IDX 8 1 9 2 10 3 11 4 12 5 13 6 14 7 15 8 16 9 7 10 6 11 5 12
REMARK SMILES IDX 4 13 3 14 2 15 1 16
REMARK H PARENT
REMARK Flexibility Score: inf
ROOT
ATOM      1  C   UNL     1       7.217  -5.836 -31.542  1.00  0.00     0.000 C 
ENDROOT
BRANCH   1   2
ATOM      2  C   UNL     1       8.372  -6.073 -32.529  1.00  0.00     0.000 C 
BRANCH   2   3
ATOM      3  C   UNL     1       8.325  -5.118 -33.733  1.00  0.00     0.000 C 
BRANCH   3   4
ATOM      4  C   UNL     1       7.327  -3.969 -33.535  1.00  0.00     0.000 C 
BRANCH   4   5
ATOM      5  C   UNL     1       6.320  -3.910 -34.693  1.00  0.00     0.006 C 
BRANCH   5   6
ATOM      6  C   UNL     1       6.528  -2.676 -35.581  1.00  0.00     0.053 C 
BRANCH   6   7
ATOM      7  C   UNL     1       7.772  -2.790 -36.407  1.00  0.00     0.041 C 
ATOM      8  O   UNL     1       8.759  -2.044 -36.175  1.00  0.00    -0.550 OA
ATOM      9  O   UNL     1       7.829  -3.699 -37.456  1.00  0.00    -0.550 OA
ENDBRANCH   6   7
ENDBRANCH   5   6
ENDBRANCH   4   5
ENDBRANCH   3   4
ENDBRANCH   2   3
ENDBRANCH   1   2
BRANCH   1  10
ATOM     10  C   UNL     1       6.182  -6.975 -31.549  1.00  0.00     0.000 C 
BRANCH  10  11
ATOM     11  C   UNL     1       5.193  -6.944 -32.729  1.00  0.00    -0.000 C 
BRANCH  11  12
ATOM     12  C   UNL     1       5.110  -8.288 -33.476  1.00  0.00    -0.000 C 
BRANCH  12  13
ATOM     13  C   UNL     1       5.849  -8.246 -34.825  1.00  0.00    -0.000 C 
BRANCH  13  14
ATOM     14  C   UNL     1       5.160  -7.339 -35.868  1.00  0.00    -0.000 C 
BRANCH  14  15
ATOM     15  C   UNL     1       6.128  -6.772 -36.920  1.00  0.00    -0.003 C 
ATOM     16  C   UNL     1       7.574  -7.209 -36.694  1.00  0.00     0.004 C 
ENDBRANCH  14  15
ENDBRANCH  13  14
ENDBRANCH  12  13
ENDBRANCH  11  12
ENDBRANCH  10  11
ENDBRANCH   1  10
TORSDOF 12
ENDMDL
MODEL 5
REMARK VINA RESULT:    -3.886      4.291      6.266
REMARK INTER + INTRA:          -8.590
REMARK INTER:                  -7.476
REMARK INTRA:                  -1.114
REMARK UNBOUND:                -1.977
REMARK SMILES CCCCCCCCCCCCCC(=O)[O-]
REMARK SMILES IDX 8 1 9 2 10 3 11 4 12 5 13 6 14 7 15 8 16 9 7 10 6 11 5 12
REMARK SMILES IDX 4 13 3 14 2 15 1 16
REMARK H PARENT
REMARK Flexibility Score: inf
ROOT
ATOM      1  C   UNL     1       8.327  -5.811 -32.824  1.00  0.00     0.000 C 
ENDROOT
BRANCH   1   2
ATOM      2  C   UNL     1       8.365  -4.858 -34.031  1.00  0.00     0.000 C 
BRANCH   2   3
ATOM      3  C   UNL     1       7.567  -3.567 -33.790  1.00  0.00     0.000 C 
BRANCH   3   4
ATOM      4  C   UNL     1       8.035  -2.410 -34.683  1.00  0.00     0.000 C 
BRANCH   4   5
ATOM      5  C   UNL     1       9.485  -2.017 -34.361  1.00  0.00     0.006 C 
BRANCH   5   6
ATOM      6  C   UNL     1      10.319  -1.782 -35.627  1.00  0.00     0.053 C 
BRANCH   6   7
ATOM      7  C   UNL     1      11.787  -1.897 -35.354  1.00  0.00     0.041 C 
ATOM      8  O   UNL     1      12.565  -2.338 -36.240  1.00  0.00    -0.550 OA
ATOM      9  O   UNL     1      12.292  -1.547 -34.108  1.00  0.00    -0.550 OA
ENDBRANCH   6   7
ENDBRANCH   5   6
ENDBRANCH   4   5
ENDBRANCH   3   4
ENDBRANCH   2   3
ENDBRANCH   1   2
BRANCH   1  10
ATOM     10  C   UNL     1       7.267  -5.411 -31.781  1.00  0.00     0.000 C 
BRANCH  10  11
ATOM     11  C   UNL     1       6.423  -6.577 -31.235  1.00  0.00    -0.000 C 
BRANCH  11  12
ATOM     12  C   UNL     1       5.940  -7.535 -32.338  1.00  0.00    -0.000 C 
BRANCH  12  13
ATOM     13  C   UNL     1       5.049  -6.824 -33.372  1.00  0.00    -0.000 C 
BRANCH  13  14
ATOM     14  C   UNL     1       4.718  -7.705 -34.597  1.00  0.00    -0.000 C 
BRANCH  14  15
ATOM     15  C   UNL     1       5.957  -8.349 -35.240  1.00  0.00    -0.003 C 
ATOM     16  C   UNL     1       6.773  -7.365 -36.076  1.00  0.00     0.004 C 
ENDBRANCH  14  15
ENDBRANCH  13  14
ENDBRANCH  12  13
ENDBRANCH  11  12
ENDBRANCH  10  11
ENDBRANCH   1  10
TORSDOF 12
ENDMDL
MODEL 6
REMARK VINA RESULT:    -3.813      1.346      3.514
REMARK INTER + INTRA:          -8.465
REMARK INTER:                  -6.546
REMARK INTRA:                  -1.920
REMARK UNBOUND:                -1.977
REMARK SMILES CCCCCCCCCCCCCC(=O)[O-]
REMARK SMILES IDX 8 1 9 2 10 3 11 4 12 5 13 6 14 7 15 8 16 9 7 10 6 11 5 12
REMARK SMILES IDX 4 13 3 14 2 15 1 16
REMARK H PARENT
REMARK Flexibility Score: inf
ROOT
ATOM      1  C   UNL     1       7.015  -5.114 -37.271  1.00  0.00     0.000 C 
ENDROOT
BRANCH   1   2
ATOM      2  C   UNL     1       7.584  -6.459 -36.786  1.00  0.00     0.000 C 
BRANCH   2   3
ATOM      3  C   UNL     1       6.521  -7.568 -36.744  1.00  0.00     0.000 C 
BRANCH   3   4
ATOM      4  C   UNL     1       6.182  -8.006 -35.313  1.00  0.00     0.000 C 
BRANCH   4   5
ATOM      5  C   UNL     1       5.016  -7.182 -34.747  1.00  0.00     0.006 C 
BRANCH   5   6
ATOM      6  C   UNL     1       3.831  -7.108 -35.719  1.00  0.00     0.053 C 
BRANCH   6   7
ATOM      7  C   UNL     1       2.618  -7.794 -35.169  1.00  0.00     0.041 C 
ATOM      8  O   UNL     1       1.617  -8.000 -35.904  1.00  0.00    -0.550 OA
ATOM      9  O   UNL     1       2.581  -8.176 -33.834  1.00  0.00    -0.550 OA
ENDBRANCH   6   7
ENDBRANCH   5   6
ENDBRANCH   4   5
ENDBRANCH   3   4
ENDBRANCH   2   3
ENDBRANCH   1   2
BRANCH   1  10
ATOM     10  C   UNL     1       7.284  -3.962 -36.285  1.00  0.00     0.000 C 
BRANCH  10  11
ATOM     11  C   UNL     1       6.141  -3.679 -35.294  1.00  0.00    -0.000 C 
BRANCH  11  12
ATOM     12  C   UNL     1       6.587  -3.766 -33.824  1.00  0.00    -0.000 C 
BRANCH  12  13
ATOM     13  C   UNL     1       8.005  -4.348 -33.683  1.00  0.00    -0.000 C 
BRANCH  13  14
ATOM     14  C   UNL     1       8.038  -5.690 -32.920  1.00  0.00    -0.000 C 
BRANCH  14  15
ATOM     15  C   UNL     1       7.373  -5.623 -31.535  1.00  0.00    -0.003 C 
ATOM     16  C   UNL     1       6.386  -6.763 -31.293  1.00  0.00     0.004 C 
ENDBRANCH  14  15
ENDBRANCH  13  14
ENDBRANCH  12  13
ENDBRANCH  11  12
ENDBRANCH  10  11
ENDBRANCH   1  10
TORSDOF 12
ENDMDL
MODEL 7
REMARK VINA RESULT:    -3.812      1.913      2.777
REMARK INTER + INTRA:          -8.464
REMARK INTER:                  -7.128
REMARK INTRA:                  -1.336
REMARK UNBOUND:                -1.977
REMARK SMILES CCCCCCCCCCCCCC(=O)[O-]
REMARK SMILES IDX 8 1 9 2 10 3 11 4 12 5 13 6 14 7 15 8 16 9 7 10 6 11 5 12
REMARK SMILES IDX 4 13 3 14 2 15 1 16
REMARK H PARENT
REMARK Flexibility Score: inf
ROOT
ATOM      1  C   UNL     1       8.210  -4.833 -33.807  1.00  0.00     0.000 C 
ENDROOT
BRANCH   1   2
ATOM      2  C   UNL     1       8.157  -6.020 -32.830  1.00  0.00     0.000 C 
BRANCH   2   3
ATOM      3  C   UNL     1       7.397  -5.687 -31.537  1.00  0.00     0.000 C 
BRANCH   3   4
ATOM      4  C   UNL     1       6.052  -6.419 -31.438  1.00  0.00     0.000 C 
BRANCH   4   5
ATOM      5  C   UNL     1       5.957  -7.538 -32.486  1.00  0.00     0.006 C 
BRANCH   5   6
ATOM      6  C   UNL     1       4.682  -7.434 -33.334  1.00  0.00     0.053 C 
BRANCH   6   7
ATOM      7  C   UNL     1       4.985  -7.487 -34.800  1.00  0.00     0.041 C 
ATOM      8  O   UNL     1       6.150  -7.749 -35.198  1.00  0.00    -0.550 OA
ATOM      9  O   UNL     1       3.987  -7.215 -35.726  1.00  0.00    -0.550 OA
ENDBRANCH   6   7
ENDBRANCH   5   6
ENDBRANCH   4   5
ENDBRANCH   3   4
ENDBRANCH   2   3
ENDBRANCH   1   2
BRANCH   1  10
ATOM     10  C   UNL     1       7.579  -3.555 -33.228  1.00  0.00     0.000 C 
BRANCH  10  11
ATOM     11  C   UNL     1       6.498  -2.908 -34.112  1.00  0.00    -0.000 C 
BRANCH  11  12
ATOM     12  C   UNL     1       5.718  -3.934 -34.953  1.00  0.00    -0.000 C 
BRANCH  12  13
ATOM     13  C   UNL     1       4.794  -3.257 -35.981  1.00  0.00    -0.000 C 
BRANCH  13  14
ATOM     14  C   UNL     1       5.555  -2.369 -36.990  1.00  0.00    -0.000 C 
BRANCH  14  15
ATOM     15  C   UNL     1       4.632  -1.480 -37.840  1.00  0.00    -0.003 C 
ATOM     16  C   UNL     1       3.157  -1.632 -37.473  1.00  0.00     0.004 C 
ENDBRANCH  14  15
ENDBRANCH  13  14
ENDBRANCH  12  13
ENDBRANCH  11  12
ENDBRANCH  10  11
ENDBRANCH   1  10
TORSDOF 12
ENDMDL
MODEL 8
REMARK VINA RESULT:    -3.774      1.604      2.352
REMARK INTER + INTRA:          -8.399
REMARK INTER:                  -7.264
REMARK INTRA:                  -1.136
REMARK UNBOUND:                -1.977
REMARK SMILES CCCCCCCCCCCCCC(=O)[O-]
REMARK SMILES IDX 8 1 9 2 10 3 11 4 12 5 13 6 14 7 15 8 16 9 7 10 6 11 5 12
REMARK SMILES IDX 4 13 3 14 2 15 1 16
REMARK H PARENT
REMARK Flexibility Score: inf
ROOT
ATOM      1  C   UNL     1       8.167  -5.769 -32.958  1.00  0.00     0.000 C 
ENDROOT
BRANCH   1   2
ATOM      2  C   UNL     1       7.322  -5.758 -31.672  1.00  0.00     0.000 C 
BRANCH   2   3
ATOM      3  C   UNL     1       6.117  -6.709 -31.750  1.00  0.00     0.000 C 
BRANCH   3   4
ATOM      4  C   UNL     1       5.742  -7.068 -33.194  1.00  0.00     0.000 C 
BRANCH   4   5
ATOM      5  C   UNL     1       4.410  -7.831 -33.244  1.00  0.00     0.006 C 
BRANCH   5   6
ATOM      6  C   UNL     1       3.811  -7.864 -34.656  1.00  0.00     0.053 C 
BRANCH   6   7
ATOM      7  C   UNL     1       2.358  -8.230 -34.634  1.00  0.00     0.041 C 
ATOM      8  O   UNL     1       1.815  -8.733 -35.652  1.00  0.00    -0.550 OA
ATOM      9  O   UNL     1       1.597  -7.985 -33.499  1.00  0.00    -0.550 OA
ENDBRANCH   6   7
ENDBRANCH   5   6
ENDBRANCH   4   5
ENDBRANCH   3   4
ENDBRANCH   2   3
ENDBRANCH   1   2
BRANCH   1  10
ATOM     10  C   UNL     1       8.194  -4.403 -33.666  1.00  0.00     0.000 C 
BRANCH  10  11
ATOM     11  C   UNL     1       7.057  -3.444 -33.268  1.00  0.00    -0.000 C 
BRANCH  11  12
ATOM     12  C   UNL     1       6.137  -3.082 -34.447  1.00  0.00    -0.000 C 
BRANCH  12  13
ATOM     13  C   UNL     1       5.740  -4.320 -35.271  1.00  0.00    -0.000 C 
BRANCH  13  14
ATOM     14  C   UNL     1       4.881  -3.975 -36.508  1.00  0.00    -0.000 C 
BRANCH  14  15
ATOM     15  C   UNL     1       4.842  -2.471 -36.826  1.00  0.00    -0.003 C 
ATOM     16  C   UNL     1       3.422  -1.912 -36.880  1.00  0.00     0.004 C 
ENDBRANCH  14  15
ENDBRANCH  13  14
ENDBRANCH  12  13
ENDBRANCH  11  12
ENDBRANCH  10  11
ENDBRANCH   1  10
TORSDOF 12
ENDMDL
MODEL 9
REMARK VINA RESULT:    -3.768      2.671      5.369
REMARK INTER + INTRA:          -8.389
REMARK INTER:                  -6.646
REMARK INTRA:                  -1.742
REMARK UNBOUND:                -1.977
REMARK SMILES CCCCCCCCCCCCCC(=O)[O-]
REMARK SMILES IDX 8 1 9 2 10 3 11 4 12 5 13 6 14 7 15 8 16 9 7 10 6 11 5 12
REMARK SMILES IDX 4 13 3 14 2 15 1 16
REMARK H PARENT
REMARK Flexibility Score: inf
ROOT
ATOM      1  C   UNL     1       5.398  -6.617 -35.537  1.00  0.00     0.000 C 
ENDROOT
BRANCH   1   2
ATOM      2  C   UNL     1       5.631  -8.004 -34.913  1.00  0.00     0.000 C 
BRANCH   2   3
ATOM      3  C   UNL     1       5.045  -8.120 -33.497  1.00  0.00     0.000 C 
BRANCH   3   4
ATOM      4  C   UNL     1       5.215  -6.831 -32.681  1.00  0.00     0.000 C 
BRANCH   4   5
ATOM      5  C   UNL     1       6.432  -6.926 -31.749  1.00  0.00     0.006 C 
BRANCH   5   6
ATOM      6  C   UNL     1       7.227  -5.614 -31.696  1.00  0.00     0.053 C 
BRANCH   6   7
ATOM      7  C   UNL     1       7.799  -5.258 -33.034  1.00  0.00     0.041 C 
ATOM      8  O   UNL     1       7.417  -4.217 -33.631  1.00  0.00    -0.550 OA
ATOM      9  O   UNL     1       8.731  -6.093 -33.637  1.00  0.00    -0.550 OA
ENDBRANCH   6   7
ENDBRANCH   5   6
ENDBRANCH   4   5
ENDBRANCH   3   4
ENDBRANCH   2   3
ENDBRANCH   1   2
BRANCH   1  10
ATOM     10  C   UNL     1       4.013  -6.484 -36.196  1.00  0.00     0.000 C 
BRANCH  10  11
ATOM     11  C   UNL     1       3.522  -7.745 -36.930  1.00  0.00    -0.000 C 
BRANCH  11  12
ATOM     12  C   UNL     1       2.069  -8.114 -36.579  1.00  0.00    -0.000 C 
BRANCH  12  13
ATOM     13  C   UNL     1       1.508  -7.239 -35.444  1.00  0.00    -0.000 C 
BRANCH  13  14
ATOM     14  C   UNL     1       1.129  -8.048 -34.184  1.00  0.00    -0.000 C 
BRANCH  14  15
ATOM     15  C   UNL     1       1.544  -9.527 -34.259  1.00  0.00    -0.003 C 
ATOM     16  C   UNL     1       1.799 -10.144 -32.885  1.00  0.00     0.004 C 
ENDBRANCH  14  15
ENDBRANCH  13  14
ENDBRANCH  12  13
ENDBRANCH  11  12
ENDBRANCH  10  11
ENDBRANCH   1  10
TORSDOF 12
ENDMDL
