MODEL 1
REMARK VINA RESULT:    -4.945      0.000      0.000
REMARK INTER + INTRA:         -12.026
REMARK INTER:                  -8.992
REMARK INTRA:                  -3.034
REMARK UNBOUND:                -3.034
REMARK SMILES CCCCCC=CCC=CCCCCCCCC(=O)[O-]
REMARK SMILES IDX 11 1 12 2 13 3 14 4 15 5 16 6 17 7 18 8 19 9 20 10 10 11
REMARK SMILES IDX 9 12 8 13 7 14 6 15 5 16 4 17 3 18 2 19 1 20
REMARK H PARENT
REMARK Flexibility Score: inf
ROOT
ATOM      1  C   UNL     1      10.682  10.281   4.822  1.00  0.00     0.027 C 
ENDROOT
BRANCH   1   2
ATOM      2  C   UNL     1       9.372  10.464   5.599  1.00  0.00     0.004 C 
BRANCH   2   3
ATOM      3  C   UNL     1       8.404  11.432   4.906  1.00  0.00     0.000 C 
BRANCH   3   4
ATOM      4  C   UNL     1       7.500  12.133   5.927  1.00  0.00     0.000 C 
BRANCH   4   5
ATOM      5  C   UNL     1       7.853  11.700   7.359  1.00  0.00     0.000 C 
BRANCH   5   6
ATOM      6  C   UNL     1       7.146  12.551   8.425  1.00  0.00     0.006 C 
BRANCH   6   7
ATOM      7  C   UNL     1       8.054  13.640   9.010  1.00  0.00     0.053 C 
BRANCH   7   8
ATOM      8  C   UNL     1       7.511  14.998   8.692  1.00  0.00     0.041 C 
ATOM      9  O   UNL     1       7.597  15.928   9.537  1.00  0.00    -0.550 OA
ATOM     10  O   UNL     1       6.954  15.250   7.445  1.00  0.00    -0.550 OA
ENDBRANCH   7   8
ENDBRANCH   6   7
ENDBRANCH   5   6
ENDBRANCH   4   5
ENDBRANCH   3   4
ENDBRANCH   2   3
ENDBRANCH   1   2
BRANCH   1  11
ATOM     11  C   UNL     1      10.842  11.306   3.725  1.00  0.00    -0.031 C 
ATOM     12  C   UNL     1      11.955  12.019   3.465  1.00  0.00    -0.027 C 
BRANCH  12  13
ATOM     13  C   UNL     1      13.246  11.952   4.246  1.00  0.00     0.054 C 
BRANCH  13  14
ATOM     14  C   UNL     1      13.616  13.316   4.762  1.00  0.00    -0.027 C 
ATOM     15  C   UNL     1      13.033  13.921   5.815  1.00  0.00    -0.031 C 
BRANCH  15  16
ATOM     16  C   UNL     1      11.905  13.336   6.635  1.00  0.00     0.027 C 
BRANCH  16  17
ATOM     17  C   UNL     1      10.639  14.197   6.535  1.00  0.00     0.004 C 
BRANCH  17  18
ATOM     18  C   UNL     1      10.650  15.095   5.291  1.00  0.00     0.000 C 
BRANCH  18  19
ATOM     19  C   UNL     1       9.379  14.897   4.457  1.00  0.00    -0.003 C 
ATOM     20  C   UNL     1       9.697  14.887   2.964  1.00  0.00     0.004 C 
ENDBRANCH  18  19
ENDBRANCH  17  18
ENDBRANCH  16  17
ENDBRANCH  15  16
ENDBRANCH  13  14
ENDBRANCH  12  13
ENDBRANCH   1  11
TORSDOF 14
ENDMDL
MODEL 2
REMARK VINA RESULT:    -4.878      4.275      7.161
REMARK INTER + INTRA:         -11.904
REMARK INTER:                  -8.997
REMARK INTRA:                  -2.907
REMARK UNBOUND:                -3.034
REMARK SMILES CCCCCC=CCC=CCCCCCCCC(=O)[O-]
REMARK SMILES IDX 11 1 12 2 13 3 14 4 15 5 16 6 17 7 18 8 19 9 20 10 10 11
REMARK SMILES IDX 9 12 8 13 7 14 6 15 5 16 4 17 3 18 2 19 1 20
REMARK H PARENT
REMARK Flexibility Score: inf
ROOT
ATOM      1  C   UNL     1      10.662  15.884   3.122  1.00  0.00     0.027 C 
ENDROOT
BRANCH   1   2
ATOM      2  C   UNL     1      10.889  15.287   1.726  1.00  0.00     0.004 C 
BRANCH   2   3
ATOM      3  C   UNL     1      12.313  15.524   1.206  1.00  0.00     0.000 C 
BRANCH   3   4
ATOM      4  C   UNL     1      12.981  14.204   0.805  1.00  0.00     0.000 C 
BRANCH   4   5
ATOM      5  C   UNL     1      14.241  13.951   1.646  1.00  0.00     0.000 C 
BRANCH   5   6
ATOM      6  C   UNL     1      15.041  15.237   1.914  1.00  0.00     0.006 C 
BRANCH   6   7
ATOM      7  C   UNL     1      15.676  15.257   3.310  1.00  0.00     0.053 C 
BRANCH   7   8
ATOM      8  C   UNL     1      17.118  14.869   3.233  1.00  0.00     0.041 C 
ATOM      9  O   UNL     1      17.990  15.726   2.927  1.00  0.00    -0.550 OA
ATOM     10  O   UNL     1      17.508  13.573   3.546  1.00  0.00    -0.550 OA
ENDBRANCH   7   8
ENDBRANCH   6   7
ENDBRANCH   5   6
ENDBRANCH   4   5
ENDBRANCH   3   4
ENDBRANCH   2   3
ENDBRANCH   1   2
BRANCH   1  11
ATOM     11  C   UNL     1      11.960  16.156   3.842  1.00  0.00    -0.031 C 
ATOM     12  C   UNL     1      12.464  15.435   4.863  1.00  0.00    -0.027 C 
BRANCH  12  13
ATOM     13  C   UNL     1      11.807  14.237   5.504  1.00  0.00     0.054 C 
BRANCH  13  14
ATOM     14  C   UNL     1      12.713  13.037   5.422  1.00  0.00    -0.027 C 
ATOM     15  C   UNL     1      12.616  12.065   4.496  1.00  0.00    -0.031 C 
BRANCH  15  16
ATOM     16  C   UNL     1      11.574  12.013   3.402  1.00  0.00     0.027 C 
BRANCH  16  17
ATOM     17  C   UNL     1      10.302  11.298   3.877  1.00  0.00     0.004 C 
BRANCH  17  18
ATOM     18  C   UNL     1      10.619  10.059   4.723  1.00  0.00     0.000 C 
BRANCH  18  19
ATOM     19  C   UNL     1       9.933  10.134   6.091  1.00  0.00    -0.003 C 
ATOM     20  C   UNL     1       8.870  11.228   6.114  1.00  0.00     0.004 C 
ENDBRANCH  18  19
ENDBRANCH  17  18
ENDBRANCH  16  17
ENDBRANCH  15  16
ENDBRANCH  13  14
ENDBRANCH  12  13
ENDBRANCH   1  11
TORSDOF 14
ENDMDL
MODEL 3
REMARK VINA RESULT:    -4.860      3.831      6.416
REMARK INTER + INTRA:         -11.870
REMARK INTER:                  -9.015
REMARK INTRA:                  -2.856
REMARK UNBOUND:                -3.034
REMARK SMILES CCCCCC=CCC=CCCCCCCCC(=O)[O-]
REMARK SMILES IDX 11 1 12 2 13 3 14 4 15 5 16 6 17 7 18 8 19 9 20 10 10 11
REMARK SMILES IDX 9 12 8 13 7 14 6 15 5 16 4 17 3 18 2 19 1 20
REMARK H PARENT
REMARK Flexibility Score: inf
ROOT
ATOM      1  C   UNL     1      12.583  13.153   5.913  1.00  0.00     0.027 C 
ENDROOT
BRANCH   1   2
ATOM      2  C   UNL     1      12.731  14.648   5.599  1.00  0.00     0.004 C 
BRANCH   2   3
ATOM      3  C   UNL     1      11.772  15.118   4.497  1.00  0.00     0.000 C 
BRANCH   3   4
ATOM      4  C   UNL     1      12.543  15.716   3.314  1.00  0.00     0.000 C 
BRANCH   4   5
ATOM      5  C   UNL     1      12.500  14.773   2.101  1.00  0.00     0.000 C 
BRANCH   5   6
ATOM      6  C   UNL     1      13.877  14.180   1.763  1.00  0.00     0.006 C 
BRANCH   6   7
ATOM      7  C   UNL     1      15.014  14.843   2.552  1.00  0.00     0.053 C 
BRANCH   7   8
ATOM      8  C   UNL     1      16.090  13.847   2.852  1.00  0.00     0.041 C 
ATOM      9  O   UNL     1      16.101  12.731   2.267  1.00  0.00    -0.550 OA
ATOM     10  O   UNL     1      17.108  14.169   3.739  1.00  0.00    -0.550 OA
ENDBRANCH   7   8
ENDBRANCH   6   7
ENDBRANCH   5   6
ENDBRANCH   4   5
ENDBRANCH   3   4
ENDBRANCH   2   3
ENDBRANCH   1   2
BRANCH   1  11
ATOM     11  C   UNL     1      13.138  12.282   4.812  1.00  0.00    -0.031 C 
ATOM     12  C   UNL     1      12.416  11.519   3.968  1.00  0.00    -0.027 C 
BRANCH  12  13
ATOM     13  C   UNL     1      10.915  11.364   3.987  1.00  0.00     0.054 C 
BRANCH  13  14
ATOM     14  C   UNL     1      10.525  10.131   4.757  1.00  0.00    -0.027 C 
ATOM     15  C   UNL     1       9.953  10.137   5.975  1.00  0.00    -0.031 C 
BRANCH  15  16
ATOM     16  C   UNL     1       9.625  11.380   6.772  1.00  0.00     0.027 C 
BRANCH  16  17
ATOM     17  C   UNL     1       8.117  11.497   7.026  1.00  0.00     0.004 C 
BRANCH  17  18
ATOM     18  C   UNL     1       7.453  12.520   6.095  1.00  0.00     0.000 C 
BRANCH  18  19
ATOM     19  C   UNL     1       8.447  13.605   5.669  1.00  0.00    -0.003 C 
ATOM     20  C   UNL     1       8.319  13.912   4.179  1.00  0.00     0.004 C 
ENDBRANCH  18  19
ENDBRANCH  17  18
ENDBRANCH  16  17
ENDBRANCH  15  16
ENDBRANCH  13  14
ENDBRANCH  12  13
ENDBRANCH   1  11
TORSDOF 14
ENDMDL
MODEL 4
REMARK VINA RESULT:    -4.834      2.198      3.552
REMARK INTER + INTRA:         -11.824
REMARK INTER:                  -9.149
REMARK INTRA:                  -2.675
REMARK UNBOUND:                -3.034
REMARK SMILES CCCCCC=CCC=CCCCCCCCC(=O)[O-]
REMARK SMILES IDX 11 1 12 2 13 3 14 4 15 5 16 6 17 7 18 8 19 9 20 10 10 11
REMARK SMILES IDX 9 12 8 13 7 14 6 15 5 16 4 17 3 18 2 19 1 20
REMARK H PARENT
REMARK Flexibility Score: inf
ROOT
ATOM      1  C   UNL     1      10.415   9.937   4.761  1.00  0.00     0.027 C 
ENDROOT
BRANCH   1   2
ATOM      2  C   UNL     1       9.952  10.125   6.212  1.00  0.00     0.004 C 
BRANCH   2   3
ATOM      3  C   UNL     1       8.994  11.312   6.379  1.00  0.00     0.000 C 
BRANCH   3   4
ATOM      4  C   UNL     1       9.391  12.177   7.581  1.00  0.00     0.000 C 
BRANCH   4   5
ATOM      5  C   UNL     1      10.253  13.368   7.137  1.00  0.00     0.000 C 
BRANCH   5   6
ATOM      6  C   UNL     1       9.598  14.185   6.012  1.00  0.00     0.006 C 
BRANCH   6   7
ATOM      7  C   UNL     1      10.535  15.256   5.437  1.00  0.00     0.053 C 
BRANCH   7   8
ATOM      8  C   UNL     1      10.814  16.309   6.462  1.00  0.00     0.041 C 
ATOM      9  O   UNL     1      11.979  16.459   6.917  1.00  0.00    -0.550 OA
ATOM     10  O   UNL     1       9.798  17.159   6.881  1.00  0.00    -0.550 OA
ENDBRANCH   7   8
ENDBRANCH   6   7
ENDBRANCH   5   6
ENDBRANCH   4   5
ENDBRANCH   3   4
ENDBRANCH   2   3
ENDBRANCH   1   2
BRANCH   1  11
ATOM     11  C   UNL     1      10.357  11.224   3.974  1.00  0.00    -0.031 C 
ATOM     12  C   UNL     1      11.410  11.998   3.645  1.00  0.00    -0.027 C 
BRANCH  12  13
ATOM     13  C   UNL     1      12.846  11.741   4.032  1.00  0.00     0.054 C 
BRANCH  13  14
ATOM     14  C   UNL     1      13.275  12.695   5.114  1.00  0.00    -0.027 C 
ATOM     15  C   UNL     1      14.476  13.300   5.171  1.00  0.00    -0.031 C 
BRANCH  15  16
ATOM     16  C   UNL     1      15.591  13.106   4.168  1.00  0.00     0.027 C 
BRANCH  16  17
ATOM     17  C   UNL     1      15.932  14.420   3.453  1.00  0.00     0.004 C 
BRANCH  17  18
ATOM     18  C   UNL     1      14.839  14.836   2.459  1.00  0.00     0.000 C 
BRANCH  18  19
ATOM     19  C   UNL     1      14.554  13.716   1.453  1.00  0.00    -0.003 C 
ATOM     20  C   UNL     1      13.149  13.845   0.871  1.00  0.00     0.004 C 
ENDBRANCH  18  19
ENDBRANCH  17  18
ENDBRANCH  16  17
ENDBRANCH  15  16
ENDBRANCH  13  14
ENDBRANCH  12  13
ENDBRANCH   1  11
TORSDOF 14
ENDMDL
MODEL 5
REMARK VINA RESULT:    -4.820      3.718      6.319
REMARK INTER + INTRA:         -11.798
REMARK INTER:                  -9.566
REMARK INTRA:                  -2.232
REMARK UNBOUND:                -3.034
REMARK SMILES CCCCCC=CCC=CCCCCCCCC(=O)[O-]
REMARK SMILES IDX 11 1 12 2 13 3 14 4 15 5 16 6 17 7 18 8 19 9 20 10 10 11
REMARK SMILES IDX 9 12 8 13 7 14 6 15 5 16 4 17 3 18 2 19 1 20
REMARK H PARENT
REMARK Flexibility Score: inf
ROOT
ATOM      1  C   UNL     1      10.152  14.419   4.003  1.00  0.00     0.027 C 
ENDROOT
BRANCH   1   2
ATOM      2  C   UNL     1      10.599  14.605   5.459  1.00  0.00     0.004 C 
BRANCH   2   3
ATOM      3  C   UNL     1      12.120  14.758   5.597  1.00  0.00     0.000 C 
BRANCH   3   4
ATOM      4  C   UNL     1      12.749  13.495   6.196  1.00  0.00     0.000 C 
BRANCH   4   5
ATOM      5  C   UNL     1      13.082  12.474   5.097  1.00  0.00     0.000 C 
BRANCH   5   6
ATOM      6  C   UNL     1      13.954  13.071   3.980  1.00  0.00     0.006 C 
BRANCH   6   7
ATOM      7  C   UNL     1      15.368  13.424   4.460  1.00  0.00     0.053 C 
BRANCH   7   8
ATOM      8  C   UNL     1      16.321  13.438   3.308  1.00  0.00     0.041 C 
ATOM      9  O   UNL     1      15.986  12.937   2.201  1.00  0.00    -0.550 OA
ATOM     10  O   UNL     1      17.562  14.048   3.439  1.00  0.00    -0.550 OA
ENDBRANCH   7   8
ENDBRANCH   6   7
ENDBRANCH   5   6
ENDBRANCH   4   5
ENDBRANCH   3   4
ENDBRANCH   2   3
ENDBRANCH   1   2
BRANCH   1  11
ATOM     11  C   UNL     1       8.961  13.498   3.887  1.00  0.00    -0.031 C 
ATOM     12  C   UNL     1       9.005  12.152   3.828  1.00  0.00    -0.027 C 
BRANCH  12  13
ATOM     13  C   UNL     1      10.259  11.311   3.833  1.00  0.00     0.054 C 
BRANCH  13  14
ATOM     14  C   UNL     1      10.073  10.100   4.707  1.00  0.00    -0.027 C 
ATOM     15  C   UNL     1       9.882  10.140   6.040  1.00  0.00    -0.031 C 
BRANCH  15  16
ATOM     16  C   UNL     1       9.841  11.401   6.872  1.00  0.00     0.027 C 
BRANCH  16  17
ATOM     17  C   UNL     1       8.668  11.378   7.861  1.00  0.00     0.004 C 
BRANCH  17  18
ATOM     18  C   UNL     1       7.406  12.021   7.273  1.00  0.00     0.000 C 
BRANCH  18  19
ATOM     19  C   UNL     1       7.112  13.369   7.939  1.00  0.00    -0.003 C 
ATOM     20  C   UNL     1       7.195  14.511   6.929  1.00  0.00     0.004 C 
ENDBRANCH  18  19
ENDBRANCH  17  18
ENDBRANCH  16  17
ENDBRANCH  15  16
ENDBRANCH  13  14
ENDBRANCH  12  13
ENDBRANCH   1  11
TORSDOF 14
ENDMDL
MODEL 6
REMARK VINA RESULT:    -4.736      2.048      4.557
REMARK INTER + INTRA:         -11.645
REMARK INTER:                  -8.604
REMARK INTRA:                  -3.041
REMARK UNBOUND:                -3.034
REMARK SMILES CCCCCC=CCC=CCCCCCCCC(=O)[O-]
REMARK SMILES IDX 11 1 12 2 13 3 14 4 15 5 16 6 17 7 18 8 19 9 20 10 10 11
REMARK SMILES IDX 9 12 8 13 7 14 6 15 5 16 4 17 3 18 2 19 1 20
REMARK H PARENT
REMARK Flexibility Score: inf
ROOT
ATOM      1  C   UNL     1      11.936  15.565   5.585  1.00  0.00     0.027 C 
ENDROOT
BRANCH   1   2
ATOM      2  C   UNL     1      10.765  15.850   4.634  1.00  0.00     0.004 C 
BRANCH   2   3
ATOM      3  C   UNL     1       9.626  14.832   4.776  1.00  0.00     0.000 C 
BRANCH   3   4
ATOM      4  C   UNL     1       9.395  14.076   3.462  1.00  0.00     0.000 C 
BRANCH   4   5
ATOM      5  C   UNL     1       8.634  12.765   3.712  1.00  0.00     0.000 C 
BRANCH   5   6
ATOM      6  C   UNL     1       9.457  11.747   4.518  1.00  0.00     0.006 C 
BRANCH   6   7
ATOM      7  C   UNL     1       8.603  10.958   5.519  1.00  0.00     0.053 C 
BRANCH   7   8
ATOM      8  C   UNL     1       7.988  11.882   6.522  1.00  0.00     0.041 C 
ATOM      9  O   UNL     1       8.717  12.517   7.330  1.00  0.00    -0.550 OA
ATOM     10  O   UNL     1       6.613  12.080   6.534  1.00  0.00    -0.550 OA
ENDBRANCH   7   8
ENDBRANCH   6   7
ENDBRANCH   5   6
ENDBRANCH   4   5
ENDBRANCH   3   4
ENDBRANCH   2   3
ENDBRANCH   1   2
BRANCH   1  11
ATOM     11  C   UNL     1      11.714  14.315   6.403  1.00  0.00    -0.031 C 
ATOM     12  C   UNL     1      12.410  13.166   6.295  1.00  0.00    -0.027 C 
BRANCH  12  13
ATOM     13  C   UNL     1      13.523  12.899   5.311  1.00  0.00     0.054 C 
BRANCH  13  14
ATOM     14  C   UNL     1      13.026  12.039   4.180  1.00  0.00    -0.027 C 
ATOM     15  C   UNL     1      12.787  12.478   2.930  1.00  0.00    -0.031 C 
BRANCH  15  16
ATOM     16  C   UNL     1      12.962  13.907   2.467  1.00  0.00     0.027 C 
BRANCH  16  17
ATOM     17  C   UNL     1      14.399  14.168   1.997  1.00  0.00     0.004 C 
BRANCH  17  18
ATOM     18  C   UNL     1      15.117  15.195   2.882  1.00  0.00     0.000 C 
BRANCH  18  19
ATOM     19  C   UNL     1      16.600  14.844   3.043  1.00  0.00    -0.003 C 
ATOM     20  C   UNL     1      16.775  13.530   3.800  1.00  0.00     0.004 C 
ENDBRANCH  18  19
ENDBRANCH  17  18
ENDBRANCH  16  17
ENDBRANCH  15  16
ENDBRANCH  13  14
ENDBRANCH  12  13
ENDBRANCH   1  11
TORSDOF 14
ENDMDL
MODEL 7
REMARK VINA RESULT:    -4.725      2.297      3.903
REMARK INTER + INTRA:         -11.625
REMARK INTER:                  -9.228
REMARK INTRA:                  -2.397
REMARK UNBOUND:                -3.034
REMARK SMILES CCCCCC=CCC=CCCCCCCCC(=O)[O-]
REMARK SMILES IDX 11 1 12 2 13 3 14 4 15 5 16 6 17 7 18 8 19 9 20 10 10 11
REMARK SMILES IDX 9 12 8 13 7 14 6 15 5 16 4 17 3 18 2 19 1 20
REMARK H PARENT
REMARK Flexibility Score: inf
ROOT
ATOM      1  C   UNL     1      13.140  11.687   4.307  1.00  0.00     0.027 C 
ENDROOT
BRANCH   1   2
ATOM      2  C   UNL     1      11.987  12.128   3.395  1.00  0.00     0.004 C 
BRANCH   2   3
ATOM      3  C   UNL     1      10.642  11.510   3.801  1.00  0.00     0.000 C 
BRANCH   3   4
ATOM      4  C   UNL     1      10.842  10.142   4.464  1.00  0.00     0.000 C 
BRANCH   4   5
ATOM      5  C   UNL     1      10.017  10.035   5.757  1.00  0.00     0.000 C 
BRANCH   5   6
ATOM      6  C   UNL     1       9.893  11.379   6.492  1.00  0.00     0.006 C 
BRANCH   6   7
ATOM      7  C   UNL     1       8.589  11.497   7.291  1.00  0.00     0.053 C 
BRANCH   7   8
ATOM      8  C   UNL     1       7.547  12.209   6.488  1.00  0.00     0.041 C 
ATOM      9  O   UNL     1       6.343  12.196   6.858  1.00  0.00    -0.550 OA
ATOM     10  O   UNL     1       7.912  12.930   5.358  1.00  0.00    -0.550 OA
ENDBRANCH   7   8
ENDBRANCH   6   7
ENDBRANCH   5   6
ENDBRANCH   4   5
ENDBRANCH   3   4
ENDBRANCH   2   3
ENDBRANCH   1   2
BRANCH   1  11
ATOM     11  C   UNL     1      13.794  12.856   5.004  1.00  0.00    -0.031 C 
ATOM     12  C   UNL     1      14.786  13.619   4.505  1.00  0.00    -0.027 C 
BRANCH  12  13
ATOM     13  C   UNL     1      15.457  13.427   3.167  1.00  0.00     0.054 C 
BRANCH  13  14
ATOM     14  C   UNL     1      15.448  14.714   2.387  1.00  0.00    -0.027 C 
ATOM     15  C   UNL     1      14.670  14.956   1.315  1.00  0.00    -0.031 C 
BRANCH  15  16
ATOM     16  C   UNL     1      13.695  13.970   0.713  1.00  0.00     0.027 C 
BRANCH  16  17
ATOM     17  C   UNL     1      12.370  14.650   0.346  1.00  0.00     0.004 C 
BRANCH  17  18
ATOM     18  C   UNL     1      12.145  15.941   1.142  1.00  0.00     0.000 C 
BRANCH  18  19
ATOM     19  C   UNL     1      11.109  15.731   2.252  1.00  0.00    -0.003 C 
ATOM     20  C   UNL     1      11.763  15.770   3.630  1.00  0.00     0.004 C 
ENDBRANCH  18  19
ENDBRANCH  17  18
ENDBRANCH  16  17
ENDBRANCH  15  16
ENDBRANCH  13  14
ENDBRANCH  12  13
ENDBRANCH   1  11
TORSDOF 14
ENDMDL
MODEL 8
REMARK VINA RESULT:    -4.693      3.812      6.445
REMARK INTER + INTRA:         -11.567
REMARK INTER:                  -9.386
REMARK INTRA:                  -2.181
REMARK UNBOUND:                -3.034
REMARK SMILES CCCCCC=CCC=CCCCCCCCC(=O)[O-]
REMARK SMILES IDX 11 1 12 2 13 3 14 4 15 5 16 6 17 7 18 8 19 9 20 10 10 11
REMARK SMILES IDX 9 12 8 13 7 14 6 15 5 16 4 17 3 18 2 19 1 20
REMARK H PARENT
REMARK Flexibility Score: inf
ROOT
ATOM      1  C   UNL     1      10.221  11.225   3.988  1.00  0.00     0.027 C 
ENDROOT
BRANCH   1   2
ATOM      2  C   UNL     1      11.679  11.664   3.794  1.00  0.00     0.004 C 
BRANCH   2   3
ATOM      3  C   UNL     1      12.077  12.821   4.721  1.00  0.00     0.000 C 
BRANCH   3   4
ATOM      4  C   UNL     1      13.000  13.811   4.002  1.00  0.00     0.000 C 
BRANCH   4   5
ATOM      5  C   UNL     1      12.904  13.641   2.477  1.00  0.00     0.000 C 
BRANCH   5   6
ATOM      6  C   UNL     1      14.271  13.745   1.783  1.00  0.00     0.006 C 
BRANCH   6   7
ATOM      7  C   UNL     1      15.407  13.145   2.622  1.00  0.00     0.053 C 
BRANCH   7   8
ATOM      8  C   UNL     1      16.422  14.193   2.952  1.00  0.00     0.041 C 
ATOM      9  O   UNL     1      16.169  15.409   2.741  1.00  0.00    -0.550 OA
ATOM     10  O   UNL     1      17.628  13.833   3.539  1.00  0.00    -0.550 OA
ENDBRANCH   7   8
ENDBRANCH   6   7
ENDBRANCH   5   6
ENDBRANCH   4   5
ENDBRANCH   3   4
ENDBRANCH   2   3
ENDBRANCH   1   2
BRANCH   1  11
ATOM     11  C   UNL     1      10.099  10.054   4.933  1.00  0.00    -0.031 C 
ATOM     12  C   UNL     1       9.855  10.128   6.256  1.00  0.00    -0.027 C 
BRANCH  12  13
ATOM     13  C   UNL     1       9.692  11.400   7.051  1.00  0.00     0.054 C 
BRANCH  13  14
ATOM     14  C   UNL     1       8.390  11.381   7.807  1.00  0.00    -0.027 C 
ATOM     15  C   UNL     1       7.285  12.062   7.447  1.00  0.00    -0.031 C 
BRANCH  15  16
ATOM     16  C   UNL     1       7.180  12.965   6.240  1.00  0.00     0.027 C 
BRANCH  16  17
ATOM     17  C   UNL     1       7.559  14.410   6.590  1.00  0.00     0.004 C 
BRANCH  17  18
ATOM     18  C   UNL     1       8.486  15.034   5.539  1.00  0.00     0.000 C 
BRANCH  18  19
ATOM     19  C   UNL     1       8.554  14.166   4.278  1.00  0.00    -0.003 C 
ATOM     20  C   UNL     1       9.383  14.841   3.189  1.00  0.00     0.004 C 
ENDBRANCH  18  19
ENDBRANCH  17  18
ENDBRANCH  16  17
ENDBRANCH  15  16
ENDBRANCH  13  14
ENDBRANCH  12  13
ENDBRANCH   1  11
TORSDOF 14
ENDMDL
MODEL 9
REMARK VINA RESULT:    -4.639      1.307      2.840
REMARK INTER + INTRA:         -11.469
REMARK INTER:                  -8.476
REMARK INTRA:                  -2.993
REMARK UNBOUND:                -3.034
REMARK SMILES CCCCCC=CCC=CCCCCCCCC(=O)[O-]
REMARK SMILES IDX 11 1 12 2 13 3 14 4 15 5 16 6 17 7 18 8 19 9 20 10 10 11
REMARK SMILES IDX 9 12 8 13 7 14 6 15 5 16 4 17 3 18 2 19 1 20
REMARK H PARENT
REMARK Flexibility Score: inf
ROOT
ATOM      1  C   UNL     1       9.049  12.275   3.953  1.00  0.00     0.027 C 
ENDROOT
BRANCH   1   2
ATOM      2  C   UNL     1       8.692  11.093   4.863  1.00  0.00     0.004 C 
BRANCH   2   3
ATOM      3  C   UNL     1       9.808  10.759   5.863  1.00  0.00     0.000 C 
BRANCH   3   4
ATOM      4  C   UNL     1       9.281  10.778   7.303  1.00  0.00     0.000 C 
BRANCH   4   5
ATOM      5  C   UNL     1       8.974  12.214   7.755  1.00  0.00     0.000 C 
BRANCH   5   6
ATOM      6  C   UNL     1       7.508  12.399   8.181  1.00  0.00     0.006 C 
BRANCH   6   7
ATOM      7  C   UNL     1       6.955  13.780   7.808  1.00  0.00     0.053 C 
BRANCH   7   8
ATOM      8  C   UNL     1       7.629  14.846   8.611  1.00  0.00     0.041 C 
ATOM      9  O   UNL     1       8.283  15.756   8.036  1.00  0.00    -0.550 OA
ATOM     10  O   UNL     1       7.496  14.865   9.994  1.00  0.00    -0.550 OA
ENDBRANCH   7   8
ENDBRANCH   6   7
ENDBRANCH   5   6
ENDBRANCH   4   5
ENDBRANCH   3   4
ENDBRANCH   2   3
ENDBRANCH   1   2
BRANCH   1  11
ATOM     11  C   UNL     1       8.398  13.560   4.407  1.00  0.00    -0.031 C 
ATOM     12  C   UNL     1       9.042  14.684   4.778  1.00  0.00    -0.027 C 
BRANCH  12  13
ATOM     13  C   UNL     1      10.540  14.860   4.842  1.00  0.00     0.054 C 
BRANCH  13  14
ATOM     14  C   UNL     1      11.080  14.287   6.126  1.00  0.00    -0.027 C 
ATOM     15  C   UNL     1      12.249  13.628   6.239  1.00  0.00    -0.031 C 
BRANCH  15  16
ATOM     16  C   UNL     1      13.196  13.342   5.096  1.00  0.00     0.027 C 
BRANCH  16  17
ATOM     17  C   UNL     1      12.810  12.052   4.362  1.00  0.00     0.004 C 
BRANCH  17  18
ATOM     18  C   UNL     1      12.485  12.304   2.884  1.00  0.00     0.000 C 
BRANCH  18  19
ATOM     19  C   UNL     1      12.890  13.721   2.464  1.00  0.00    -0.003 C 
ATOM     20  C   UNL     1      13.630  13.710   1.129  1.00  0.00     0.004 C 
ENDBRANCH  18  19
ENDBRANCH  17  18
ENDBRANCH  16  17
ENDBRANCH  15  16
ENDBRANCH  13  14
ENDBRANCH  12  13
ENDBRANCH   1  11
TORSDOF 14
ENDMDL
