MODEL 1
REMARK VINA RESULT:    -3.738      0.000      0.000
REMARK INTER + INTRA:          -3.847
REMARK INTER:                  -3.847
REMARK INTRA:                   0.000
REMARK UNBOUND:                 0.000
REMARK SMILES Oc1ccc2[nH]ccc2c1
REMARK SMILES IDX 3 1 4 2 5 3 9 4 8 5 7 6 6 7 10 8 2 9 1 11
REMARK H PARENT 6 10 1 12
REMARK Flexibility Score: inf
ROOT
ATOM      1  C   UNL     1      21.172  37.883  14.183  1.00  0.00     0.048 A 
ATOM      2  C   UNL     1      22.431  37.901  14.813  1.00  0.00     0.030 A 
ATOM      3  C   UNL     1      23.516  38.387  14.086  1.00  0.00     0.046 A 
ATOM      4  C   UNL     1      23.377  38.837  12.801  1.00  0.00     0.003 A 
ATOM      5  C   UNL     1      24.621  39.245  12.370  1.00  0.00     0.028 A 
ATOM      6  C   UNL     1      25.471  39.016  13.448  1.00  0.00     0.083 A 
ATOM      7  N   UNL     1      24.791  38.492  14.494  1.00  0.00    -0.361 N 
ATOM      8  C   UNL     1      22.146  38.833  12.147  1.00  0.00     0.056 A 
ATOM      9  C   UNL     1      21.028  38.348  12.852  1.00  0.00     0.116 A 
ATOM     10  H   UNL     1      25.182  38.225  15.424  1.00  0.00     0.166 HD
ENDROOT
BRANCH   9  11
ATOM     11  O   UNL     1      19.782  38.330  12.229  1.00  0.00    -0.508 OA
ATOM     12  H   UNL     1      19.696  38.266  11.221  1.00  0.00     0.293 HD
ENDBRANCH   9  11
TORSDOF 1
ENDMDL
MODEL 2
REMARK VINA RESULT:    -3.723      2.650      4.114
REMARK INTER + INTRA:          -3.832
REMARK INTER:                  -3.832
REMARK INTRA:                   0.000
REMARK UNBOUND:                 0.000
REMARK SMILES Oc1ccc2[nH]ccc2c1
REMARK SMILES IDX 3 1 4 2 5 3 9 4 8 5 7 6 6 7 10 8 2 9 1 11
REMARK H PARENT 6 10 1 12
REMARK Flexibility Score: inf
ROOT
ATOM      1  C   UNL     1      25.623  39.041  13.342  1.00  0.00     0.048 A 
ATOM      2  C   UNL     1      24.651  39.144  12.330  1.00  0.00     0.030 A 
ATOM      3  C   UNL     1      23.346  38.764  12.638  1.00  0.00     0.046 A 
ATOM      4  C   UNL     1      23.007  38.304  13.882  1.00  0.00     0.003 A 
ATOM      5  C   UNL     1      21.659  38.016  13.861  1.00  0.00     0.028 A 
ATOM      6  C   UNL     1      21.241  38.327  12.570  1.00  0.00     0.083 A 
ATOM      7  N   UNL     1      22.276  38.783  11.827  1.00  0.00    -0.361 N 
ATOM      8  C   UNL     1      23.943  38.188  14.907  1.00  0.00     0.056 A 
ATOM      9  C   UNL     1      25.272  38.564  14.630  1.00  0.00     0.116 A 
ATOM     10  H   UNL     1      22.244  39.087  10.829  1.00  0.00     0.166 HD
ENDROOT
BRANCH   9  11
ATOM     11  O   UNL     1      26.234  38.462  15.632  1.00  0.00    -0.508 OA
ATOM     12  H   UNL     1      25.978  38.274  16.594  1.00  0.00     0.293 HD
ENDBRANCH   9  11
TORSDOF 1
ENDMDL
MODEL 3
REMARK VINA RESULT:    -3.676      9.238     10.693
REMARK INTER + INTRA:          -3.784
REMARK INTER:                  -3.784
REMARK INTRA:                   0.000
REMARK UNBOUND:                 0.000
REMARK SMILES Oc1ccc2[nH]ccc2c1
REMARK SMILES IDX 3 1 4 2 5 3 9 4 8 5 7 6 6 7 10 8 2 9 1 11
REMARK H PARENT 6 10 1 12
REMARK Flexibility Score: inf
ROOT
ATOM      1  C   UNL     1      31.994  37.944  13.870  1.00  0.00     0.048 A 
ATOM      2  C   UNL     1      33.334  38.192  13.521  1.00  0.00     0.030 A 
ATOM      3  C   UNL     1      34.092  38.995  14.372  1.00  0.00     0.046 A 
ATOM      4  C   UNL     1      33.562  39.531  15.514  1.00  0.00     0.003 A 
ATOM      5  C   UNL     1      34.556  40.265  16.125  1.00  0.00     0.028 A 
ATOM      6  C   UNL     1      35.667  40.130  15.297  1.00  0.00     0.083 A 
ATOM      7  N   UNL     1      35.378  39.354  14.227  1.00  0.00    -0.361 N 
ATOM      8  C   UNL     1      32.239  39.307  15.890  1.00  0.00     0.056 A 
ATOM      9  C   UNL     1      31.445  38.500  15.053  1.00  0.00     0.116 A 
ATOM     10  H   UNL     1      36.025  39.090  13.452  1.00  0.00     0.166 HD
ENDROOT
BRANCH   9  11
ATOM     11  O   UNL     1      30.118  38.254  15.399  1.00  0.00    -0.508 OA
ATOM     12  H   UNL     1      29.654  38.785  16.126  1.00  0.00     0.293 HD
ENDBRANCH   9  11
TORSDOF 1
ENDMDL
MODEL 4
REMARK VINA RESULT:    -3.655      2.183      3.057
REMARK INTER + INTRA:          -3.762
REMARK INTER:                  -3.762
REMARK INTRA:                   0.000
REMARK UNBOUND:                 0.000
REMARK SMILES Oc1ccc2[nH]ccc2c1
REMARK SMILES IDX 3 1 4 2 5 3 9 4 8 5 7 6 6 7 10 8 2 9 1 11
REMARK H PARENT 6 10 1 12
REMARK Flexibility Score: inf
ROOT
ATOM      1  C   UNL     1      23.937  38.983  14.249  1.00  0.00     0.048 A 
ATOM      2  C   UNL     1      25.045  38.857  15.108  1.00  0.00     0.030 A 
ATOM      3  C   UNL     1      26.263  38.478  14.548  1.00  0.00     0.046 A 
ATOM      4  C   UNL     1      26.394  38.235  13.207  1.00  0.00     0.003 A 
ATOM      5  C   UNL     1      27.707  37.887  12.977  1.00  0.00     0.028 A 
ATOM      6  C   UNL     1      28.321  37.940  14.225  1.00  0.00     0.083 A 
ATOM      7  N   UNL     1      27.435  38.302  15.182  1.00  0.00    -0.361 N 
ATOM      8  C   UNL     1      25.318  38.350  12.329  1.00  0.00     0.056 A 
ATOM      9  C   UNL     1      24.071  38.730  12.861  1.00  0.00     0.116 A 
ATOM     10  H   UNL     1      27.626  38.419  16.201  1.00  0.00     0.166 HD
ENDROOT
BRANCH   9  11
ATOM     11  O   UNL     1      22.975  38.856  12.011  1.00  0.00    -0.508 OA
ATOM     12  H   UNL     1      23.079  38.818  11.004  1.00  0.00     0.293 HD
ENDBRANCH   9  11
TORSDOF 1
ENDMDL
MODEL 5
REMARK VINA RESULT:    -3.634      1.668      3.035
REMARK INTER + INTRA:          -3.741
REMARK INTER:                  -3.741
REMARK INTRA:                   0.000
REMARK UNBOUND:                 0.000
REMARK SMILES Oc1ccc2[nH]ccc2c1
REMARK SMILES IDX 3 1 4 2 5 3 9 4 8 5 7 6 6 7 10 8 2 9 1 11
REMARK H PARENT 6 10 1 12
REMARK Flexibility Score: inf
ROOT
ATOM      1  C   UNL     1      24.949  39.402  12.327  1.00  0.00     0.048 A 
ATOM      2  C   UNL     1      25.211  38.868  13.603  1.00  0.00     0.030 A 
ATOM      3  C   UNL     1      24.123  38.539  14.407  1.00  0.00     0.046 A 
ATOM      4  C   UNL     1      22.834  38.723  13.983  1.00  0.00     0.003 A 
ATOM      5  C   UNL     1      22.002  38.304  14.999  1.00  0.00     0.028 A 
ATOM      6  C   UNL     1      22.854  37.875  16.013  1.00  0.00     0.083 A 
ATOM      7  N   UNL     1      24.149  38.021  15.647  1.00  0.00    -0.361 N 
ATOM      8  C   UNL     1      22.539  39.249  12.727  1.00  0.00     0.056 A 
ATOM      9  C   UNL     1      23.615  39.592  11.888  1.00  0.00     0.116 A 
ATOM     10  H   UNL     1      24.991  37.780  16.213  1.00  0.00     0.166 HD
ENDROOT
BRANCH   9  11
ATOM     11  O   UNL     1      23.356  40.120  10.625  1.00  0.00    -0.508 OA
ATOM     12  H   UNL     1      22.847  40.988  10.509  1.00  0.00     0.293 HD
ENDBRANCH   9  11
TORSDOF 1
ENDMDL
MODEL 6
REMARK VINA RESULT:    -3.632      1.113      2.266
REMARK INTER + INTRA:          -3.739
REMARK INTER:                  -3.739
REMARK INTRA:                   0.000
REMARK UNBOUND:                 0.000
REMARK SMILES Oc1ccc2[nH]ccc2c1
REMARK SMILES IDX 3 1 4 2 5 3 9 4 8 5 7 6 6 7 10 8 2 9 1 11
REMARK H PARENT 6 10 1 12
REMARK Flexibility Score: inf
ROOT
ATOM      1  C   UNL     1      22.983  39.441  11.675  1.00  0.00     0.048 A 
ATOM      2  C   UNL     1      24.346  39.571  11.998  1.00  0.00     0.030 A 
ATOM      3  C   UNL     1      24.793  38.994  13.185  1.00  0.00     0.046 A 
ATOM      4  C   UNL     1      23.943  38.319  14.020  1.00  0.00     0.003 A 
ATOM      5  C   UNL     1      24.686  37.875  15.093  1.00  0.00     0.028 A 
ATOM      6  C   UNL     1      25.982  38.317  14.845  1.00  0.00     0.083 A 
ATOM      7  N   UNL     1      26.042  39.000  13.678  1.00  0.00    -0.361 N 
ATOM      8  C   UNL     1      22.588  38.171  13.731  1.00  0.00     0.056 A 
ATOM      9  C   UNL     1      22.103  38.742  12.539  1.00  0.00     0.116 A 
ATOM     10  H   UNL     1      26.888  39.439  13.253  1.00  0.00     0.166 HD
ENDROOT
BRANCH   9  11
ATOM     11  O   UNL     1      20.754  38.613  12.219  1.00  0.00    -0.508 OA
ATOM     12  H   UNL     1      20.393  38.909  11.319  1.00  0.00     0.293 HD
ENDBRANCH   9  11
TORSDOF 1
ENDMDL
MODEL 7
REMARK VINA RESULT:    -3.538      2.818      3.786
REMARK INTER + INTRA:          -3.641
REMARK INTER:                  -3.641
REMARK INTRA:                   0.000
REMARK UNBOUND:                 0.000
REMARK SMILES Oc1ccc2[nH]ccc2c1
REMARK SMILES IDX 3 1 4 2 5 3 9 4 8 5 7 6 6 7 10 8 2 9 1 11
REMARK H PARENT 6 10 1 12
REMARK Flexibility Score: inf
ROOT
ATOM      1  C   UNL     1      25.040  38.110  15.467  1.00  0.00     0.048 A 
ATOM      2  C   UNL     1      23.665  37.880  15.273  1.00  0.00     0.030 A 
ATOM      3  C   UNL     1      23.111  38.238  14.046  1.00  0.00     0.046 A 
ATOM      4  C   UNL     1      23.868  38.798  13.052  1.00  0.00     0.003 A 
ATOM      5  C   UNL     1      23.034  39.032  11.980  1.00  0.00     0.028 A 
ATOM      6  C   UNL     1      21.780  38.590  12.393  1.00  0.00     0.083 A 
ATOM      7  N   UNL     1      21.833  38.106  13.656  1.00  0.00    -0.361 N 
ATOM      8  C   UNL     1      25.231  39.040  13.210  1.00  0.00     0.056 A 
ATOM      9  C   UNL     1      25.824  38.690  14.438  1.00  0.00     0.116 A 
ATOM     10  H   UNL     1      21.041  37.711  14.209  1.00  0.00     0.166 HD
ENDROOT
BRANCH   9  11
ATOM     11  O   UNL     1      27.184  38.918  14.631  1.00  0.00    -0.508 OA
ATOM     12  H   UNL     1      27.576  39.851  14.583  1.00  0.00     0.293 HD
ENDBRANCH   9  11
TORSDOF 1
ENDMDL
