MODEL 1
REMARK VINA RESULT:    -5.194      0.000      0.000
REMARK INTER + INTRA:          -5.745
REMARK INTER:                  -5.498
REMARK INTRA:                  -0.248
REMARK UNBOUND:                -0.248
REMARK SMILES O=c1cc(-c2ccccc2)oc2ccccc12
REMARK SMILES IDX 4 1 3 2 2 3 1 4 17 5 16 6 15 7 14 8 13 9 12 10 11 11 5 12
REMARK SMILES IDX 8 13 7 14 9 15 6 16 10 17
REMARK H PARENT
REMARK Flexibility Score: inf
ROOT
ATOM      1  C   UNL     1      61.040  23.930  23.382  1.00  0.00     0.138 A 
ATOM      2  C   UNL     1      61.243  23.125  22.242  1.00  0.00     0.100 A 
ATOM      3  C   UNL     1      60.215  22.292  21.795  1.00  0.00     0.193 A 
ATOM      4  O   UNL     1      60.398  21.573  20.775  1.00  0.00    -0.289 OA
ATOM      5  C   UNL     1      58.997  22.267  22.486  1.00  0.00     0.065 A 
ATOM      6  C   UNL     1      57.922  21.451  22.090  1.00  0.00     0.016 A 
ATOM      7  C   UNL     1      56.727  21.464  22.816  1.00  0.00     0.001 A 
ATOM      8  C   UNL     1      56.596  22.288  23.938  1.00  0.00     0.004 A 
ATOM      9  C   UNL     1      57.659  23.102  24.340  1.00  0.00     0.048 A 
ATOM     10  C   UNL     1      58.859  23.096  23.620  1.00  0.00     0.138 A 
ATOM     11  O   UNL     1      59.864  23.873  24.010  1.00  0.00    -0.456 OA
ENDROOT
BRANCH   1  12
ATOM     12  C   UNL     1      62.087  24.848  23.927  1.00  0.00     0.017 A 
ATOM     13  C   UNL     1      64.038  26.553  25.047  1.00  0.00     0.000 A 
ATOM     14  C   UNL     1      63.244  25.762  25.876  1.00  0.00     0.001 A 
ATOM     15  C   UNL     1      63.867  26.502  23.664  1.00  0.00     0.001 A 
ATOM     16  C   UNL     1      62.277  24.917  25.324  1.00  0.00     0.012 A 
ATOM     17  C   UNL     1      62.902  25.658  23.104  1.00  0.00     0.012 A 
ENDBRANCH   1  12
TORSDOF 1
ENDMDL
MODEL 2
REMARK VINA RESULT:    -5.104      1.207      5.771
REMARK INTER + INTRA:          -5.650
REMARK INTER:                  -5.385
REMARK INTRA:                  -0.265
REMARK UNBOUND:                -0.248
REMARK SMILES O=c1cc(-c2ccccc2)oc2ccccc12
REMARK SMILES IDX 4 1 3 2 2 3 1 4 17 5 16 6 15 7 14 8 13 9 12 10 11 11 5 12
REMARK SMILES IDX 8 13 7 14 9 15 6 16 10 17
REMARK H PARENT
REMARK Flexibility Score: inf
ROOT
ATOM      1  C   UNL     1      59.837  22.841  22.653  1.00  0.00     0.138 A 
ATOM      2  C   UNL     1      60.695  22.127  21.792  1.00  0.00     0.100 A 
ATOM      3  C   UNL     1      62.001  22.580  21.588  1.00  0.00     0.193 A 
ATOM      4  O   UNL     1      62.768  21.940  20.818  1.00  0.00    -0.289 OA
ATOM      5  C   UNL     1      62.438  23.739  22.243  1.00  0.00     0.065 A 
ATOM      6  C   UNL     1      63.739  24.249  22.081  1.00  0.00     0.016 A 
ATOM      7  C   UNL     1      64.125  25.411  22.759  1.00  0.00     0.001 A 
ATOM      8  C   UNL     1      63.220  26.068  23.598  1.00  0.00     0.004 A 
ATOM      9  C   UNL     1      61.926  25.568  23.764  1.00  0.00     0.048 A 
ATOM     10  C   UNL     1      61.530  24.407  23.091  1.00  0.00     0.138 A 
ATOM     11  O   UNL     1      60.296  23.940  23.255  1.00  0.00    -0.456 OA
ENDROOT
BRANCH   1  12
ATOM     12  C   UNL     1      58.427  22.425  22.926  1.00  0.00     0.017 A 
ATOM     13  C   UNL     1      55.752  21.722  23.492  1.00  0.00     0.000 A 
ATOM     14  C   UNL     1      56.279  22.917  23.982  1.00  0.00     0.001 A 
ATOM     15  C   UNL     1      56.548  20.875  22.722  1.00  0.00     0.001 A 
ATOM     16  C   UNL     1      57.603  23.267  23.703  1.00  0.00     0.012 A 
ATOM     17  C   UNL     1      57.874  21.219  22.438  1.00  0.00     0.012 A 
ENDBRANCH   1  12
TORSDOF 1
ENDMDL
MODEL 3
REMARK VINA RESULT:    -4.943      2.383      4.484
REMARK INTER + INTRA:          -5.480
REMARK INTER:                  -5.245
REMARK INTRA:                  -0.235
REMARK UNBOUND:                -0.248
REMARK SMILES O=c1cc(-c2ccccc2)oc2ccccc12
REMARK SMILES IDX 4 1 3 2 2 3 1 4 17 5 16 6 15 7 14 8 13 9 12 10 11 11 5 12
REMARK SMILES IDX 8 13 7 14 9 15 6 16 10 17
REMARK H PARENT
REMARK Flexibility Score: inf
ROOT
ATOM      1  C   UNL     1      60.407  22.363  21.946  1.00  0.00     0.138 A 
ATOM      2  C   UNL     1      59.047  22.004  21.841  1.00  0.00     0.100 A 
ATOM      3  C   UNL     1      58.156  22.374  22.851  1.00  0.00     0.193 A 
ATOM      4  O   UNL     1      56.940  22.053  22.756  1.00  0.00    -0.289 OA
ATOM      5  C   UNL     1      58.627  23.097  23.955  1.00  0.00     0.065 A 
ATOM      6  C   UNL     1      57.784  23.501  25.007  1.00  0.00     0.016 A 
ATOM      7  C   UNL     1      58.306  24.221  26.086  1.00  0.00     0.001 A 
ATOM      8  C   UNL     1      59.666  24.542  26.125  1.00  0.00     0.004 A 
ATOM      9  C   UNL     1      60.511  24.146  25.084  1.00  0.00     0.048 A 
ATOM     10  C   UNL     1      59.998  23.425  24.000  1.00  0.00     0.138 A 
ATOM     11  O   UNL     1      60.811  23.051  23.016  1.00  0.00    -0.456 OA
ENDROOT
BRANCH   1  12
ATOM     12  C   UNL     1      61.425  22.007  20.911  1.00  0.00     0.017 A 
ATOM     13  C   UNL     1      63.400  21.286  19.027  1.00  0.00     0.000 A 
ATOM     14  C   UNL     1      63.525  20.887  20.357  1.00  0.00     0.001 A 
ATOM     15  C   UNL     1      62.298  22.043  18.629  1.00  0.00     0.001 A 
ATOM     16  C   UNL     1      62.549  21.242  21.292  1.00  0.00     0.012 A 
ATOM     17  C   UNL     1      61.316  22.402  19.559  1.00  0.00     0.012 A 
ENDBRANCH   1  12
TORSDOF 1
ENDMDL
MODEL 4
REMARK VINA RESULT:    -4.760      2.541      6.038
REMARK INTER + INTRA:          -5.286
REMARK INTER:                  -5.054
REMARK INTRA:                  -0.232
REMARK UNBOUND:                -0.248
REMARK SMILES O=c1cc(-c2ccccc2)oc2ccccc12
REMARK SMILES IDX 4 1 3 2 2 3 1 4 17 5 16 6 15 7 14 8 13 9 12 10 11 11 5 12
REMARK SMILES IDX 8 13 7 14 9 15 6 16 10 17
REMARK H PARENT
REMARK Flexibility Score: inf
ROOT
ATOM      1  C   UNL     1      59.463  22.257  22.584  1.00  0.00     0.138 A 
ATOM      2  C   UNL     1      60.468  22.540  23.533  1.00  0.00     0.100 A 
ATOM      3  C   UNL     1      61.798  22.641  23.118  1.00  0.00     0.193 A 
ATOM      4  O   UNL     1      62.696  22.894  23.967  1.00  0.00    -0.289 OA
ATOM      5  C   UNL     1      62.115  22.461  21.766  1.00  0.00     0.065 A 
ATOM      6  C   UNL     1      63.433  22.549  21.282  1.00  0.00     0.016 A 
ATOM      7  C   UNL     1      63.694  22.361  19.921  1.00  0.00     0.001 A 
ATOM      8  C   UNL     1      62.648  22.083  19.036  1.00  0.00     0.004 A 
ATOM      9  C   UNL     1      61.335  21.994  19.508  1.00  0.00     0.048 A 
ATOM     10  C   UNL     1      61.063  22.181  20.868  1.00  0.00     0.138 A 
ATOM     11  O   UNL     1      59.811  22.093  21.307  1.00  0.00    -0.456 OA
ENDROOT
BRANCH   1  12
ATOM     12  C   UNL     1      58.017  22.131  22.943  1.00  0.00     0.017 A 
ATOM     13  C   UNL     1      55.289  21.987  23.653  1.00  0.00     0.000 A 
ATOM     14  C   UNL     1      56.003  23.166  23.861  1.00  0.00     0.001 A 
ATOM     15  C   UNL     1      55.925  20.878  23.095  1.00  0.00     0.001 A 
ATOM     16  C   UNL     1      57.354  23.241  23.511  1.00  0.00     0.012 A 
ATOM     17  C   UNL     1      57.277  20.945  22.740  1.00  0.00     0.012 A 
ENDBRANCH   1  12
TORSDOF 1
ENDMDL
MODEL 5
REMARK VINA RESULT:    -4.507      2.493      4.163
REMARK INTER + INTRA:          -5.019
REMARK INTER:                  -4.789
REMARK INTRA:                  -0.229
REMARK UNBOUND:                -0.248
REMARK SMILES O=c1cc(-c2ccccc2)oc2ccccc12
REMARK SMILES IDX 4 1 3 2 2 3 1 4 17 5 16 6 15 7 14 8 13 9 12 10 11 11 5 12
REMARK SMILES IDX 8 13 7 14 9 15 6 16 10 17
REMARK H PARENT
REMARK Flexibility Score: inf
ROOT
ATOM      1  C   UNL     1      60.593  22.173  22.316  1.00  0.00     0.138 A 
ATOM      2  C   UNL     1      60.544  23.266  23.205  1.00  0.00     0.100 A 
ATOM      3  C   UNL     1      59.348  23.569  23.859  1.00  0.00     0.193 A 
ATOM      4  O   UNL     1      59.305  24.548  24.655  1.00  0.00    -0.289 OA
ATOM      5  C   UNL     1      58.213  22.783  23.622  1.00  0.00     0.065 A 
ATOM      6  C   UNL     1      56.978  23.034  24.247  1.00  0.00     0.016 A 
ATOM      7  C   UNL     1      55.875  22.217  23.974  1.00  0.00     0.001 A 
ATOM      8  C   UNL     1      55.996  21.149  23.080  1.00  0.00     0.004 A 
ATOM      9  C   UNL     1      57.220  20.892  22.454  1.00  0.00     0.048 A 
ATOM     10  C   UNL     1      58.329  21.704  22.721  1.00  0.00     0.138 A 
ATOM     11  O   UNL     1      59.487  21.451  22.120  1.00  0.00    -0.456 OA
ENDROOT
BRANCH   1  12
ATOM     12  C   UNL     1      61.832  21.780  21.576  1.00  0.00     0.017 A 
ATOM     13  C   UNL     1      64.125  21.064  20.095  1.00  0.00     0.000 A 
ATOM     14  C   UNL     1      62.998  21.559  19.440  1.00  0.00     0.001 A 
ATOM     15  C   UNL     1      64.118  20.922  21.482  1.00  0.00     0.001 A 
ATOM     16  C   UNL     1      61.861  21.914  20.172  1.00  0.00     0.012 A 
ATOM     17  C   UNL     1      62.984  21.276  22.221  1.00  0.00     0.012 A 
ENDBRANCH   1  12
TORSDOF 1
ENDMDL
MODEL 6
REMARK VINA RESULT:    -4.378      2.231      4.474
REMARK INTER + INTRA:          -4.881
REMARK INTER:                  -4.618
REMARK INTRA:                  -0.263
REMARK UNBOUND:                -0.248
REMARK SMILES O=c1cc(-c2ccccc2)oc2ccccc12
REMARK SMILES IDX 4 1 3 2 2 3 1 4 17 5 16 6 15 7 14 8 13 9 12 10 11 11 5 12
REMARK SMILES IDX 8 13 7 14 9 15 6 16 10 17
REMARK H PARENT
REMARK Flexibility Score: inf
ROOT
ATOM      1  C   UNL     1      61.383  23.213  22.405  1.00  0.00     0.138 A 
ATOM      2  C   UNL     1      62.124  23.895  23.392  1.00  0.00     0.100 A 
ATOM      3  C   UNL     1      61.504  24.261  24.589  1.00  0.00     0.193 A 
ATOM      4  O   UNL     1      62.167  24.870  25.472  1.00  0.00    -0.289 OA
ATOM      5  C   UNL     1      60.153  23.947  24.791  1.00  0.00     0.065 A 
ATOM      6  C   UNL     1      59.468  24.287  25.971  1.00  0.00     0.016 A 
ATOM      7  C   UNL     1      58.119  23.950  26.121  1.00  0.00     0.001 A 
ATOM      8  C   UNL     1      57.447  23.273  25.099  1.00  0.00     0.004 A 
ATOM      9  C   UNL     1      58.119  22.931  23.923  1.00  0.00     0.048 A 
ATOM     10  C   UNL     1      59.469  23.265  23.763  1.00  0.00     0.138 A 
ATOM     11  O   UNL     1      60.099  22.935  22.640  1.00  0.00    -0.456 OA
ENDROOT
BRANCH   1  12
ATOM     12  C   UNL     1      61.969  22.786  21.097  1.00  0.00     0.017 A 
ATOM     13  C   UNL     1      62.985  21.964  18.595  1.00  0.00     0.000 A 
ATOM     14  C   UNL     1      61.608  22.003  18.811  1.00  0.00     0.001 A 
ATOM     15  C   UNL     1      63.860  22.330  19.618  1.00  0.00     0.001 A 
ATOM     16  C   UNL     1      61.102  22.410  20.049  1.00  0.00     0.012 A 
ATOM     17  C   UNL     1      63.361  22.739  20.859  1.00  0.00     0.012 A 
ENDBRANCH   1  12
TORSDOF 1
ENDMDL
MODEL 7
REMARK VINA RESULT:    -4.363      1.540      6.072
REMARK INTER + INTRA:          -4.865
REMARK INTER:                  -4.634
REMARK INTRA:                  -0.231
REMARK UNBOUND:                -0.248
REMARK SMILES O=c1cc(-c2ccccc2)oc2ccccc12
REMARK SMILES IDX 4 1 3 2 2 3 1 4 17 5 16 6 15 7 14 8 13 9 12 10 11 11 5 12
REMARK SMILES IDX 8 13 7 14 9 15 6 16 10 17
REMARK H PARENT
REMARK Flexibility Score: inf
ROOT
ATOM      1  C   UNL     1      59.762  22.875  24.017  1.00  0.00     0.138 A 
ATOM      2  C   UNL     1      60.602  22.116  24.858  1.00  0.00     0.100 A 
ATOM      3  C   UNL     1      61.916  22.533  25.078  1.00  0.00     0.193 A 
ATOM      4  O   UNL     1      62.666  21.853  25.830  1.00  0.00    -0.289 OA
ATOM      5  C   UNL     1      62.383  23.699  24.459  1.00  0.00     0.065 A 
ATOM      6  C   UNL     1      63.695  24.174  24.637  1.00  0.00     0.016 A 
ATOM      7  C   UNL     1      64.109  25.346  23.995  1.00  0.00     0.001 A 
ATOM      8  C   UNL     1      63.223  26.049  23.174  1.00  0.00     0.004 A 
ATOM      9  C   UNL     1      61.917  25.584  22.991  1.00  0.00     0.048 A 
ATOM     10  C   UNL     1      61.492  24.413  23.629  1.00  0.00     0.138 A 
ATOM     11  O   UNL     1      60.249  23.979  23.447  1.00  0.00    -0.456 OA
ENDROOT
BRANCH   1  12
ATOM     12  C   UNL     1      58.344  22.499  23.728  1.00  0.00     0.017 A 
ATOM     13  C   UNL     1      55.699  21.706  23.144  1.00  0.00     0.000 A 
ATOM     14  C   UNL     1      56.767  20.875  22.809  1.00  0.00     0.001 A 
ATOM     15  C   UNL     1      55.939  22.930  23.767  1.00  0.00     0.001 A 
ATOM     16  C   UNL     1      58.078  21.265  23.097  1.00  0.00     0.012 A 
ATOM     17  C   UNL     1      57.248  23.328  24.060  1.00  0.00     0.012 A 
ENDBRANCH   1  12
TORSDOF 1
ENDMDL
MODEL 8
REMARK VINA RESULT:    -3.463      1.873      6.139
REMARK INTER + INTRA:          -3.913
REMARK INTER:                  -3.679
REMARK INTRA:                  -0.234
REMARK UNBOUND:                -0.248
REMARK SMILES O=c1cc(-c2ccccc2)oc2ccccc12
REMARK SMILES IDX 4 1 3 2 2 3 1 4 17 5 16 6 15 7 14 8 13 9 12 10 11 11 5 12
REMARK SMILES IDX 8 13 7 14 9 15 6 16 10 17
REMARK H PARENT
REMARK Flexibility Score: inf
ROOT
ATOM      1  C   UNL     1      59.316  22.637  23.670  1.00  0.00     0.138 A 
ATOM      2  C   UNL     1      59.919  22.884  24.921  1.00  0.00     0.100 A 
ATOM      3  C   UNL     1      61.283  23.178  24.983  1.00  0.00     0.193 A 
ATOM      4  O   UNL     1      61.821  23.399  26.102  1.00  0.00    -0.289 OA
ATOM      5  C   UNL     1      62.033  23.222  23.801  1.00  0.00     0.065 A 
ATOM      6  C   UNL     1      63.410  23.511  23.792  1.00  0.00     0.016 A 
ATOM      7  C   UNL     1      64.112  23.542  22.583  1.00  0.00     0.001 A 
ATOM      8  C   UNL     1      63.450  23.287  21.379  1.00  0.00     0.004 A 
ATOM      9  C   UNL     1      62.082  22.999  21.377  1.00  0.00     0.048 A 
ATOM     10  C   UNL     1      61.370  22.965  22.582  1.00  0.00     0.138 A 
ATOM     11  O   UNL     1      60.070  22.689  22.570  1.00  0.00    -0.456 OA
ENDROOT
BRANCH   1  12
ATOM     12  C   UNL     1      57.864  22.315  23.515  1.00  0.00     0.017 A 
ATOM     13  C   UNL     1      55.101  21.794  23.267  1.00  0.00     0.000 A 
ATOM     14  C   UNL     1      55.537  22.970  23.876  1.00  0.00     0.001 A 
ATOM     15  C   UNL     1      56.031  20.875  22.782  1.00  0.00     0.001 A 
ATOM     16  C   UNL     1      56.905  23.231  24.000  1.00  0.00     0.012 A 
ATOM     17  C   UNL     1      57.402  21.129  22.901  1.00  0.00     0.012 A 
ENDBRANCH   1  12
TORSDOF 1
ENDMDL
