MODEL 1
REMARK VINA RESULT:    -3.556      0.000      0.000
REMARK INTER + INTRA:          -5.788
REMARK INTER:                  -5.427
REMARK INTRA:                  -0.361
REMARK UNBOUND:                -0.361
REMARK SMILES CC1=CCC[C@@H](C)C(=O)C[C@@H](C(C)C)C(=O)C1
REMARK SMILES IDX 8 1 9 2 6 3 7 4 5 5 4 6 3 7 2 8 1 9 10 11 11 12 15 13 16 14
REMARK SMILES IDX 17 15 12 17 13 18 14 19
REMARK H PARENT
REMARK Flexibility Score: 70.00
ROOT
ATOM      1  C   UNL     1      28.985 -42.585 -19.089  1.00  0.00     0.136 C 
ATOM      2  O   UNL     1      28.968 -41.376 -18.903  1.00  0.00    -0.299 OA
ENDROOT
BRANCH   1   3
ATOM      3  C   UNL     1      29.517 -43.512 -18.006  1.00  0.00     0.053 C 
ATOM      4  C   UNL     1      29.519 -44.983 -18.453  1.00  0.00     0.016 C 
BRANCH   3   5
ATOM      5  C   UNL     1      28.764 -43.338 -16.668  1.00  0.00     0.015 C 
BRANCH   5   6
ATOM      6  C   UNL     1      27.527 -44.256 -16.507  1.00  0.00     0.028 C 
BRANCH   6   7
ATOM      7  C   UNL     1      26.250 -43.487 -16.758  1.00  0.00    -0.028 C 
ATOM      8  C   UNL     1      25.553 -43.473 -17.921  1.00  0.00    -0.070 CG0
ATOM      9  C   UNL     1      24.381 -42.533 -18.030  1.00  0.00     0.039 C 
ATOM     10  G   UNL     1      25.893 -44.357 -19.112  1.00  0.00     0.000 G0
ENDBRANCH   6   7
ENDBRANCH   5   6
ENDBRANCH   3   5
ENDBRANCH   1   3
BRANCH   1  11
ATOM     11  C   UNL     1      28.504 -43.121 -20.419  1.00  0.00     0.087 C 
BRANCH  11  12
ATOM     12  C   UNL     1      27.086 -42.610 -20.791  1.00  0.00     0.066 C 
BRANCH  12  13
ATOM     13  C   UNL     1      26.010 -43.642 -20.464  1.00  0.00     0.140 C 
ATOM     14  O   UNL     1      25.194 -43.931 -21.325  1.00  0.00    -0.299 OA
BRANCH  13  15
ATOM     15  C   UNL     1      25.901 -44.363 -19.132  1.00  0.00     0.106 CG0
ATOM     16  G   UNL     1      25.551 -43.493 -17.934  1.00  0.00     0.000 G0
ENDBRANCH  13  15
ENDBRANCH  12  13
BRANCH  12  17
ATOM     17  C   UNL     1      26.957 -42.110 -22.264  1.00  0.00    -0.006 C 
ATOM     18  C   UNL     1      27.858 -42.850 -23.269  1.00  0.00     0.008 C 
ATOM     19  C   UNL     1      27.194 -40.596 -22.372  1.00  0.00     0.008 C 
ENDBRANCH  12  17
ENDBRANCH  11  12
ENDBRANCH   1  11
TORSDOF 1
ENDMDL
MODEL 2
REMARK VINA RESULT:    -3.202     11.869     13.081
REMARK INTER + INTRA:          -5.248
REMARK INTER:                  -4.734
REMARK INTRA:                  -0.514
REMARK UNBOUND:                -0.361
REMARK SMILES CC1=CCC[C@@H](C)C(=O)C[C@@H](C(C)C)C(=O)C1
REMARK SMILES IDX 8 1 9 2 6 3 7 4 5 5 4 6 3 7 2 8 1 9 10 11 11 12 15 13 16 14
REMARK SMILES IDX 17 15 12 17 13 18 14 19
REMARK H PARENT
REMARK Flexibility Score: 70.00
ROOT
ATOM      1  C   UNL     1      26.966 -33.415 -14.463  1.00  0.00     0.136 C 
ATOM      2  O   UNL     1      26.235 -34.190 -15.064  1.00  0.00    -0.299 OA
ENDROOT
BRANCH   1   3
ATOM      3  C   UNL     1      28.477 -33.582 -14.540  1.00  0.00     0.053 C 
ATOM      4  C   UNL     1      28.958 -33.837 -15.978  1.00  0.00     0.016 C 
BRANCH   3   5
ATOM      5  C   UNL     1      28.992 -34.677 -13.579  1.00  0.00     0.015 C 
BRANCH   5   6
ATOM      6  C   UNL     1      29.561 -34.138 -12.243  1.00  0.00     0.028 C 
BRANCH   6   7
ATOM      7  C   UNL     1      28.599 -34.393 -11.106  1.00  0.00    -0.028 C 
ATOM      8  C   UNL     1      28.076 -33.448 -10.287  1.00  0.00    -0.070 CG0
ATOM      9  C   UNL     1      27.246 -33.908  -9.116  1.00  0.00     0.039 C 
ATOM     10  G   UNL     1      28.282 -31.954 -10.492  1.00  0.00     0.000 G0
ENDBRANCH   6   7
ENDBRANCH   5   6
ENDBRANCH   3   5
ENDBRANCH   1   3
BRANCH   1  11
ATOM     11  C   UNL     1      26.336 -32.326 -13.623  1.00  0.00     0.087 C 
BRANCH  11  12
ATOM     12  C   UNL     1      27.387 -31.375 -12.991  1.00  0.00     0.066 C 
BRANCH  12  13
ATOM     13  C   UNL     1      27.260 -31.322 -11.472  1.00  0.00     0.140 C 
ATOM     14  O   UNL     1      26.288 -30.765 -10.983  1.00  0.00    -0.299 OA
BRANCH  13  15
ATOM     15  C   UNL     1      28.257 -31.948 -10.513  1.00  0.00     0.106 CG0
ATOM     16  G   UNL     1      28.081 -33.437 -10.253  1.00  0.00     0.000 G0
ENDBRANCH  13  15
ENDBRANCH  12  13
BRANCH  12  17
ATOM     17  C   UNL     1      27.396 -29.940 -13.605  1.00  0.00    -0.006 C 
ATOM     18  C   UNL     1      26.115 -29.567 -14.374  1.00  0.00     0.008 C 
ATOM     19  C   UNL     1      28.622 -29.715 -14.504  1.00  0.00     0.008 C 
ENDBRANCH  12  17
ENDBRANCH  11  12
ENDBRANCH   1  11
TORSDOF 1
ENDMDL
MODEL 3
REMARK VINA RESULT:    -3.090     12.414     15.040
REMARK INTER + INTRA:          -5.078
REMARK INTER:                  -4.843
REMARK INTRA:                  -0.235
REMARK UNBOUND:                -0.361
REMARK SMILES CC1=CCC[C@@H](C)C(=O)C[C@@H](C(C)C)C(=O)C1
REMARK SMILES IDX 8 1 9 2 6 3 7 4 5 5 4 6 3 7 2 8 1 9 10 11 11 12 15 13 16 14
REMARK SMILES IDX 17 15 12 17 13 18 14 19
REMARK H PARENT
REMARK Flexibility Score: 70.00
ROOT
ATOM      1  C   UNL     1      17.575 -45.707  -9.411  1.00  0.00     0.136 C 
ATOM      2  O   UNL     1      16.574 -45.674 -10.115  1.00  0.00    -0.299 OA
ENDROOT
BRANCH   1   3
ATOM      3  C   UNL     1      18.953 -45.768 -10.054  1.00  0.00     0.053 C 
ATOM      4  C   UNL     1      20.074 -45.902  -9.010  1.00  0.00     0.016 C 
BRANCH   3   5
ATOM      5  C   UNL     1      19.210 -44.571 -10.996  1.00  0.00     0.015 C 
BRANCH   5   6
ATOM      6  C   UNL     1      19.799 -43.321 -10.295  1.00  0.00     0.028 C 
BRANCH   6   7
ATOM      7  C   UNL     1      18.727 -42.283 -10.058  1.00  0.00    -0.028 C 
ATOM      8  C   UNL     1      18.274 -41.878  -8.845  1.00  0.00    -0.070 CG0
ATOM      9  C   UNL     1      17.098 -40.937  -8.809  1.00  0.00     0.039 C 
ATOM     10  G   UNL     1      18.894 -42.322  -7.529  1.00  0.00     0.000 G0
ENDBRANCH   6   7
ENDBRANCH   5   6
ENDBRANCH   3   5
ENDBRANCH   1   3
BRANCH   1  11
ATOM     11  C   UNL     1      17.405 -45.722  -7.909  1.00  0.00     0.087 C 
BRANCH  11  12
ATOM     12  C   UNL     1      17.121 -44.311  -7.326  1.00  0.00     0.066 C 
BRANCH  12  13
ATOM     13  C   UNL     1      18.406 -43.607  -6.900  1.00  0.00     0.140 C 
ATOM     14  O   UNL     1      19.105 -44.129  -6.044  1.00  0.00    -0.299 OA
BRANCH  13  15
ATOM     15  C   UNL     1      18.896 -42.299  -7.495  1.00  0.00     0.106 CG0
ATOM     16  G   UNL     1      18.280 -41.907  -8.830  1.00  0.00     0.000 G0
ENDBRANCH  13  15
ENDBRANCH  12  13
BRANCH  12  17
ATOM     17  C   UNL     1      16.065 -44.300  -6.176  1.00  0.00    -0.006 C 
ATOM     18  C   UNL     1      14.736 -44.994  -6.524  1.00  0.00     0.008 C 
ATOM     19  C   UNL     1      15.789 -42.873  -5.675  1.00  0.00     0.008 C 
ENDBRANCH  12  17
ENDBRANCH  11  12
ENDBRANCH   1  11
TORSDOF 1
ENDMDL
MODEL 4
REMARK VINA RESULT:    -3.073      1.810      4.017
REMARK INTER + INTRA:          -5.051
REMARK INTER:                  -4.428
REMARK INTRA:                  -0.622
REMARK UNBOUND:                -0.361
REMARK SMILES CC1=CCC[C@@H](C)C(=O)C[C@@H](C(C)C)C(=O)C1
REMARK SMILES IDX 8 1 9 2 6 3 7 4 5 5 4 6 3 7 2 8 1 9 10 11 11 12 15 13 16 14
REMARK SMILES IDX 17 15 12 17 13 18 14 19
REMARK H PARENT
REMARK Flexibility Score: 70.00
ROOT
ATOM      1  C   UNL     1      27.397 -42.056 -20.738  1.00  0.00     0.136 C 
ATOM      2  O   UNL     1      27.420 -40.937 -21.231  1.00  0.00    -0.299 OA
ENDROOT
BRANCH   1   3
ATOM      3  C   UNL     1      27.294 -43.280 -21.637  1.00  0.00     0.053 C 
ATOM      4  C   UNL     1      28.520 -43.431 -22.552  1.00  0.00     0.016 C 
BRANCH   3   5
ATOM      5  C   UNL     1      25.983 -43.292 -22.456  1.00  0.00     0.015 C 
BRANCH   5   6
ATOM      6  C   UNL     1      24.858 -44.166 -21.849  1.00  0.00     0.028 C 
BRANCH   6   7
ATOM      7  C   UNL     1      23.985 -43.351 -20.922  1.00  0.00    -0.028 C 
ATOM      8  C   UNL     1      23.875 -43.529 -19.583  1.00  0.00    -0.070 CG0
ATOM      9  C   UNL     1      22.844 -42.714 -18.844  1.00  0.00     0.039 C 
ATOM     10  G   UNL     1      24.737 -44.503 -18.793  1.00  0.00     0.000 G0
ENDBRANCH   6   7
ENDBRANCH   5   6
ENDBRANCH   3   5
ENDBRANCH   1   3
BRANCH   1  11
ATOM     11  C   UNL     1      27.435 -42.186 -19.232  1.00  0.00     0.087 C 
BRANCH  11  12
ATOM     12  C   UNL     1      27.285 -43.655 -18.755  1.00  0.00     0.066 C 
BRANCH  12  13
ATOM     13  C   UNL     1      25.944 -43.892 -18.067  1.00  0.00     0.140 C 
ATOM     14  O   UNL     1      25.815 -43.551 -16.900  1.00  0.00    -0.299 OA
BRANCH  13  15
ATOM     15  C   UNL     1      24.734 -44.504 -18.750  1.00  0.00     0.106 CG0
ATOM     16  G   UNL     1      23.893 -43.550 -19.585  1.00  0.00     0.000 G0
ENDBRANCH  13  15
ENDBRANCH  12  13
BRANCH  12  17
ATOM     17  C   UNL     1      28.468 -44.159 -17.869  1.00  0.00    -0.006 C 
ATOM     18  C   UNL     1      29.308 -43.039 -17.230  1.00  0.00     0.008 C 
ATOM     19  C   UNL     1      29.387 -45.118 -18.644  1.00  0.00     0.008 C 
ENDBRANCH  12  17
ENDBRANCH  11  12
ENDBRANCH   1  11
TORSDOF 1
ENDMDL
MODEL 5
REMARK VINA RESULT:    -2.939      1.969      4.948
REMARK INTER + INTRA:          -4.847
REMARK INTER:                  -4.260
REMARK INTRA:                  -0.587
REMARK UNBOUND:                -0.361
REMARK SMILES CC1=CCC[C@@H](C)C(=O)C[C@@H](C(C)C)C(=O)C1
REMARK SMILES IDX 8 1 9 2 6 3 7 4 5 5 4 6 3 7 2 8 1 9 10 11 11 12 15 13 16 14
REMARK SMILES IDX 17 15 12 17 13 18 14 19
REMARK H PARENT
REMARK Flexibility Score: 70.00
ROOT
ATOM      1  C   UNL     1      24.964 -43.162 -19.286  1.00  0.00     0.136 C 
ATOM      2  O   UNL     1      23.926 -43.403 -19.886  1.00  0.00    -0.299 OA
ENDROOT
BRANCH   1   3
ATOM      3  C   UNL     1      25.217 -41.765 -18.738  1.00  0.00     0.053 C 
ATOM      4  C   UNL     1      24.289 -41.429 -17.559  1.00  0.00     0.016 C 
BRANCH   3   5
ATOM      5  C   UNL     1      25.133 -40.684 -19.838  1.00  0.00     0.015 C 
BRANCH   5   6
ATOM      6  C   UNL     1      26.473 -40.402 -20.562  1.00  0.00     0.028 C 
BRANCH   6   7
ATOM      7  C   UNL     1      26.587 -41.227 -21.823  1.00  0.00    -0.028 C 
ATOM      8  C   UNL     1      27.549 -42.148 -22.080  1.00  0.00    -0.070 CG0
ATOM      9  C   UNL     1      27.584 -42.768 -23.453  1.00  0.00     0.039 C 
ATOM     10  G   UNL     1      28.584 -42.586 -21.055  1.00  0.00     0.000 G0
ENDBRANCH   6   7
ENDBRANCH   5   6
ENDBRANCH   3   5
ENDBRANCH   1   3
BRANCH   1  11
ATOM     11  C   UNL     1      25.989 -44.264 -19.138  1.00  0.00     0.087 C 
BRANCH  11  12
ATOM     12  C   UNL     1      27.429 -43.718 -18.938  1.00  0.00     0.066 C 
BRANCH  12  13
ATOM     13  C   UNL     1      28.248 -43.800 -20.223  1.00  0.00     0.140 C 
ATOM     14  O   UNL     1      28.619 -44.897 -20.614  1.00  0.00    -0.299 OA
BRANCH  13  15
ATOM     15  C   UNL     1      28.614 -42.598 -21.076  1.00  0.00     0.106 CG0
ATOM     16  G   UNL     1      27.553 -42.141 -22.065  1.00  0.00     0.000 G0
ENDBRANCH  13  15
ENDBRANCH  12  13
BRANCH  12  17
ATOM     17  C   UNL     1      28.193 -44.366 -17.741  1.00  0.00    -0.006 C 
ATOM     18  C   UNL     1      27.307 -44.712 -16.531  1.00  0.00     0.008 C 
ATOM     19  C   UNL     1      29.375 -43.496 -17.286  1.00  0.00     0.008 C 
ENDBRANCH  12  17
ENDBRANCH  11  12
ENDBRANCH   1  11
TORSDOF 1
ENDMDL
MODEL 6
REMARK VINA RESULT:    -2.930     12.171     14.663
REMARK INTER + INTRA:          -4.833
REMARK INTER:                  -4.320
REMARK INTRA:                  -0.513
REMARK UNBOUND:                -0.361
REMARK SMILES CC1=CCC[C@@H](C)C(=O)C[C@@H](C(C)C)C(=O)C1
REMARK SMILES IDX 8 1 9 2 6 3 7 4 5 5 4 6 3 7 2 8 1 9 10 11 11 12 15 13 16 14
REMARK SMILES IDX 17 15 12 17 13 18 14 19
REMARK H PARENT
REMARK Flexibility Score: 70.00
ROOT
ATOM      1  C   UNL     1      18.608 -42.141  -7.607  1.00  0.00     0.136 C 
ATOM      2  O   UNL     1      19.239 -41.195  -8.058  1.00  0.00    -0.299 OA
ENDROOT
BRANCH   1   3
ATOM      3  C   UNL     1      19.110 -42.866  -6.367  1.00  0.00     0.053 C 
ATOM      4  C   UNL     1      19.095 -41.963  -5.122  1.00  0.00     0.016 C 
BRANCH   3   5
ATOM      5  C   UNL     1      20.507 -43.491  -6.583  1.00  0.00     0.015 C 
BRANCH   5   6
ATOM      6  C   UNL     1      20.482 -44.967  -7.053  1.00  0.00     0.028 C 
BRANCH   6   7
ATOM      7  C   UNL     1      20.821 -45.070  -8.521  1.00  0.00    -0.028 C 
ATOM      8  C   UNL     1      20.015 -45.580  -9.484  1.00  0.00    -0.070 CG0
ATOM      9  C   UNL     1      20.581 -45.734 -10.873  1.00  0.00     0.039 C 
ATOM     10  G   UNL     1      18.573 -46.000  -9.235  1.00  0.00     0.000 G0
ENDBRANCH   6   7
ENDBRANCH   5   6
ENDBRANCH   3   5
ENDBRANCH   1   3
BRANCH   1  11
ATOM     11  C   UNL     1      17.355 -42.587  -8.327  1.00  0.00     0.087 C 
BRANCH  11  12
ATOM     12  C   UNL     1      17.058 -44.097  -8.129  1.00  0.00     0.066 C 
BRANCH  12  13
ATOM     13  C   UNL     1      17.516 -44.925  -9.327  1.00  0.00     0.140 C 
ATOM     14  O   UNL     1      17.034 -44.684 -10.425  1.00  0.00    -0.299 OA
BRANCH  13  15
ATOM     15  C   UNL     1      18.563 -46.022  -9.253  1.00  0.00     0.106 CG0
ATOM     16  G   UNL     1      20.001 -45.580  -9.480  1.00  0.00     0.000 G0
ENDBRANCH  13  15
ENDBRANCH  12  13
BRANCH  12  17
ATOM     17  C   UNL     1      15.572 -44.410  -7.764  1.00  0.00    -0.006 C 
ATOM     18  C   UNL     1      14.607 -43.225  -7.952  1.00  0.00     0.008 C 
ATOM     19  C   UNL     1      15.444 -44.962  -6.336  1.00  0.00     0.008 C 
ENDBRANCH  12  17
ENDBRANCH  11  12
ENDBRANCH   1  11
TORSDOF 1
ENDMDL
MODEL 7
REMARK VINA RESULT:    -2.881      2.020      3.896
REMARK INTER + INTRA:          -4.758
REMARK INTER:                  -4.204
REMARK INTRA:                  -0.553
REMARK UNBOUND:                -0.361
REMARK SMILES CC1=CCC[C@@H](C)C(=O)C[C@@H](C(C)C)C(=O)C1
REMARK SMILES IDX 8 1 9 2 6 3 7 4 5 5 4 6 3 7 2 8 1 9 10 11 11 12 15 13 16 14
REMARK SMILES IDX 17 15 12 17 13 18 14 19
REMARK H PARENT
REMARK Flexibility Score: 70.00
ROOT
ATOM      1  C   UNL     1      26.823 -44.046 -21.064  1.00  0.00     0.136 C 
ATOM      2  O   UNL     1      27.182 -45.169 -21.391  1.00  0.00    -0.299 OA
ENDROOT
BRANCH   1   3
ATOM      3  C   UNL     1      27.529 -42.826 -21.638  1.00  0.00     0.053 C 
ATOM      4  C   UNL     1      27.566 -42.849 -23.175  1.00  0.00     0.016 C 
BRANCH   3   5
ATOM      5  C   UNL     1      28.947 -42.643 -21.050  1.00  0.00     0.015 C 
BRANCH   5   6
ATOM      6  C   UNL     1      29.023 -41.652 -19.863  1.00  0.00     0.028 C 
BRANCH   6   7
ATOM      7  C   UNL     1      28.969 -42.387 -18.543  1.00  0.00    -0.028 C 
ATOM      8  C   UNL     1      28.024 -42.219 -17.585  1.00  0.00    -0.070 CG0
ATOM      9  C   UNL     1      28.215 -42.935 -16.273  1.00  0.00     0.039 C 
ATOM     10  G   UNL     1      26.787 -41.352 -17.770  1.00  0.00     0.000 G0
ENDBRANCH   6   7
ENDBRANCH   5   6
ENDBRANCH   3   5
ENDBRANCH   1   3
BRANCH   1  11
ATOM     11  C   UNL     1      25.701 -43.907 -20.060  1.00  0.00     0.087 C 
BRANCH  11  12
ATOM     12  C   UNL     1      25.340 -42.426 -19.769  1.00  0.00     0.066 C 
BRANCH  12  13
ATOM     13  C   UNL     1      25.539 -42.074 -18.297  1.00  0.00     0.140 C 
ATOM     14  O   UNL     1      24.677 -42.401 -17.494  1.00  0.00    -0.299 OA
BRANCH  13  15
ATOM     15  C   UNL     1      26.764 -41.363 -17.751  1.00  0.00     0.106 CG0
ATOM     16  G   UNL     1      28.014 -42.218 -17.602  1.00  0.00     0.000 G0
ENDBRANCH  13  15
ENDBRANCH  12  13
BRANCH  12  17
ATOM     17  C   UNL     1      23.917 -42.010 -20.259  1.00  0.00    -0.006 C 
ATOM     18  C   UNL     1      22.862 -43.128 -20.173  1.00  0.00     0.008 C 
ATOM     19  C   UNL     1      23.953 -41.440 -21.686  1.00  0.00     0.008 C 
ENDBRANCH  12  17
ENDBRANCH  11  12
ENDBRANCH   1  11
TORSDOF 1
ENDMDL
MODEL 8
REMARK VINA RESULT:    -2.851     11.630     13.336
REMARK INTER + INTRA:          -4.713
REMARK INTER:                  -4.328
REMARK INTRA:                  -0.384
REMARK UNBOUND:                -0.361
REMARK SMILES CC1=CCC[C@@H](C)C(=O)C[C@@H](C(C)C)C(=O)C1
REMARK SMILES IDX 8 1 9 2 6 3 7 4 5 5 4 6 3 7 2 8 1 9 10 11 11 12 15 13 16 14
REMARK SMILES IDX 17 15 12 17 13 18 14 19
REMARK H PARENT
REMARK Flexibility Score: 70.00
ROOT
ATOM      1  C   UNL     1      26.908 -31.687 -12.901  1.00  0.00     0.136 C 
ATOM      2  O   UNL     1      26.026 -30.919 -13.261  1.00  0.00    -0.299 OA
ENDROOT
BRANCH   1   3
ATOM      3  C   UNL     1      28.275 -31.639 -13.567  1.00  0.00     0.053 C 
ATOM      4  C   UNL     1      28.551 -30.276 -14.224  1.00  0.00     0.016 C 
BRANCH   3   5
ATOM      5  C   UNL     1      28.472 -32.793 -14.576  1.00  0.00     0.015 C 
BRANCH   5   6
ATOM      6  C   UNL     1      29.644 -33.746 -14.235  1.00  0.00     0.028 C 
BRANCH   6   7
ATOM      7  C   UNL     1      29.129 -35.060 -13.693  1.00  0.00    -0.028 C 
ATOM      8  C   UNL     1      29.092 -35.414 -12.385  1.00  0.00    -0.070 CG0
ATOM      9  C   UNL     1      28.678 -36.823 -12.046  1.00  0.00     0.039 C 
ATOM     10  G   UNL     1      29.442 -34.464 -11.249  1.00  0.00     0.000 G0
ENDBRANCH   6   7
ENDBRANCH   5   6
ENDBRANCH   3   5
ENDBRANCH   1   3
BRANCH   1  11
ATOM     11  C   UNL     1      26.594 -32.695 -11.818  1.00  0.00     0.087 C 
BRANCH  11  12
ATOM     12  C   UNL     1      27.592 -32.625 -10.631  1.00  0.00     0.066 C 
BRANCH  12  13
ATOM     13  C   UNL     1      28.286 -33.964 -10.397  1.00  0.00     0.140 C 
ATOM     14  O   UNL     1      27.875 -34.690  -9.504  1.00  0.00    -0.299 OA
BRANCH  13  15
ATOM     15  C   UNL     1      29.450 -34.474 -11.227  1.00  0.00     0.106 CG0
ATOM     16  G   UNL     1      29.086 -35.408 -12.372  1.00  0.00     0.000 G0
ENDBRANCH  13  15
ENDBRANCH  12  13
BRANCH  12  17
ATOM     17  C   UNL     1      26.968 -32.076  -9.308  1.00  0.00    -0.006 C 
ATOM     18  C   UNL     1      25.595 -31.403  -9.483  1.00  0.00     0.008 C 
ATOM     19  C   UNL     1      27.927 -31.117  -8.585  1.00  0.00     0.008 C 
ENDBRANCH  12  17
ENDBRANCH  11  12
ENDBRANCH   1  11
TORSDOF 1
ENDMDL
MODEL 9
REMARK VINA RESULT:    -2.793      1.566      3.650
REMARK INTER + INTRA:          -4.625
REMARK INTER:                  -4.194
REMARK INTRA:                  -0.431
REMARK UNBOUND:                -0.361
REMARK SMILES CC1=CCC[C@@H](C)C(=O)C[C@@H](C(C)C)C(=O)C1
REMARK SMILES IDX 8 1 9 2 6 3 7 4 5 5 4 6 3 7 2 8 1 9 10 11 11 12 15 13 16 14
REMARK SMILES IDX 17 15 12 17 13 18 14 19
REMARK H PARENT
REMARK Flexibility Score: 70.00
ROOT
ATOM      1  C   UNL     1      24.918 -42.221 -20.263  1.00  0.00     0.136 C 
ATOM      2  O   UNL     1      23.929 -41.571 -20.576  1.00  0.00    -0.299 OA
ENDROOT
BRANCH   1   3
ATOM      3  C   UNL     1      24.794 -43.716 -20.008  1.00  0.00     0.053 C 
ATOM      4  C   UNL     1      23.580 -44.328 -20.726  1.00  0.00     0.016 C 
BRANCH   3   5
ATOM      5  C   UNL     1      24.774 -44.049 -18.499  1.00  0.00     0.015 C 
BRANCH   5   6
ATOM      6  C   UNL     1      26.002 -44.854 -18.006  1.00  0.00     0.028 C 
BRANCH   6   7
ATOM      7  C   UNL     1      26.754 -44.088 -16.942  1.00  0.00    -0.028 C 
ATOM      8  C   UNL     1      28.004 -43.578 -17.071  1.00  0.00    -0.070 CG0
ATOM      9  C   UNL     1      28.648 -42.970 -15.851  1.00  0.00     0.039 C 
ATOM     10  G   UNL     1      28.781 -43.585 -18.379  1.00  0.00     0.000 G0
ENDBRANCH   6   7
ENDBRANCH   5   6
ENDBRANCH   3   5
ENDBRANCH   1   3
BRANCH   1  11
ATOM     11  C   UNL     1      26.238 -41.501 -20.104  1.00  0.00     0.087 C 
BRANCH  11  12
ATOM     12  C   UNL     1      27.456 -42.408 -20.426  1.00  0.00     0.066 C 
BRANCH  12  13
ATOM     13  C   UNL     1      28.488 -42.388 -19.302  1.00  0.00     0.140 C 
ATOM     14  O   UNL     1      29.111 -41.356 -19.096  1.00  0.00    -0.299 OA
BRANCH  13  15
ATOM     15  C   UNL     1      28.777 -43.568 -18.392  1.00  0.00     0.106 CG0
ATOM     16  G   UNL     1      28.018 -43.589 -17.073  1.00  0.00     0.000 G0
ENDBRANCH  13  15
ENDBRANCH  12  13
BRANCH  12  17
ATOM     17  C   UNL     1      28.122 -42.112 -21.807  1.00  0.00    -0.006 C 
ATOM     18  C   UNL     1      27.604 -40.842 -22.505  1.00  0.00     0.008 C 
ATOM     19  C   UNL     1      28.006 -43.311 -22.761  1.00  0.00     0.008 C 
ENDBRANCH  12  17
ENDBRANCH  11  12
ENDBRANCH   1  11
TORSDOF 1
ENDMDL
