MODEL 1
REMARK VINA RESULT:    -4.294      0.000      0.000
REMARK INTER + INTRA:          -6.029
REMARK INTER:                  -5.800
REMARK INTRA:                  -0.229
REMARK UNBOUND:                -0.229
REMARK SMILES CCCCCCCC(=O)[O-]
REMARK SMILES IDX 5 1 6 2 7 3 8 4 9 5 10 6 4 7 3 8 2 9 1 10
REMARK H PARENT
REMARK Flexibility Score: inf
ROOT
ATOM      1  C   UNL     1      84.866 -68.225  14.205  1.00  0.00     0.000 C 
ENDROOT
BRANCH   1   2
ATOM      2  C   UNL     1      86.323 -68.526  13.810  1.00  0.00     0.006 C 
BRANCH   2   3
ATOM      3  C   UNL     1      86.601 -70.014  13.531  1.00  0.00     0.053 C 
BRANCH   3   4
ATOM      4  C   UNL     1      87.893 -70.483  14.128  1.00  0.00     0.041 C 
ATOM      5  O   UNL     1      88.992 -70.119  13.634  1.00  0.00    -0.550 OA
ATOM      6  O   UNL     1      87.883 -71.298  15.254  1.00  0.00    -0.550 OA
ENDBRANCH   3   4
ENDBRANCH   2   3
ENDBRANCH   1   2
BRANCH   1   7
ATOM      7  C   UNL     1      84.516 -68.701  15.623  1.00  0.00     0.000 C 
BRANCH   7   8
ATOM      8  C   UNL     1      83.229 -68.034  16.125  1.00  0.00    -0.000 C 
BRANCH   8   9
ATOM      9  C   UNL     1      83.037 -66.655  15.481  1.00  0.00    -0.003 C 
ATOM     10  C   UNL     1      81.611 -66.151  15.673  1.00  0.00     0.004 C 
ENDBRANCH   8   9
ENDBRANCH   7   8
ENDBRANCH   1   7
TORSDOF 6
ENDMDL
MODEL 2
REMARK VINA RESULT:    -3.570     13.137     14.921
REMARK INTER + INTRA:          -5.051
REMARK INTER:                  -4.848
REMARK INTRA:                  -0.203
REMARK UNBOUND:                -0.229
REMARK SMILES CCCCCCCC(=O)[O-]
REMARK SMILES IDX 5 1 6 2 7 3 8 4 9 5 10 6 4 7 3 8 2 9 1 10
REMARK H PARENT
REMARK Flexibility Score: inf
ROOT
ATOM      1  C   UNL     1      87.695 -77.527   4.135  1.00  0.00     0.000 C 
ENDROOT
BRANCH   1   2
ATOM      2  C   UNL     1      88.414 -76.166   4.108  1.00  0.00     0.006 C 
BRANCH   2   3
ATOM      3  C   UNL     1      88.131 -75.333   2.845  1.00  0.00     0.053 C 
BRANCH   3   4
ATOM      4  C   UNL     1      87.590 -73.971   3.158  1.00  0.00     0.041 C 
ATOM      5  O   UNL     1      88.343 -72.963   3.115  1.00  0.00    -0.550 OA
ATOM      6  O   UNL     1      86.244 -73.812   3.466  1.00  0.00    -0.550 OA
ENDBRANCH   3   4
ENDBRANCH   2   3
ENDBRANCH   1   2
BRANCH   1   7
ATOM      7  C   UNL     1      88.058 -78.423   2.942  1.00  0.00     0.000 C 
BRANCH   7   8
ATOM      8  C   UNL     1      86.844 -78.646   2.032  1.00  0.00    -0.000 C 
BRANCH   8   9
ATOM      9  C   UNL     1      85.988 -79.816   2.534  1.00  0.00    -0.003 C 
ATOM     10  C   UNL     1      84.624 -79.833   1.851  1.00  0.00     0.004 C 
ENDBRANCH   8   9
ENDBRANCH   7   8
ENDBRANCH   1   7
TORSDOF 6
ENDMDL
MODEL 3
REMARK VINA RESULT:    -3.526      3.796      6.038
REMARK INTER + INTRA:          -4.991
REMARK INTER:                  -4.820
REMARK INTRA:                  -0.171
REMARK UNBOUND:                -0.229
REMARK SMILES CCCCCCCC(=O)[O-]
REMARK SMILES IDX 5 1 6 2 7 3 8 4 9 5 10 6 4 7 3 8 2 9 1 10
REMARK H PARENT
REMARK Flexibility Score: inf
ROOT
ATOM      1  C   UNL     1      84.585 -68.683  14.630  1.00  0.00     0.000 C 
ENDROOT
BRANCH   1   2
ATOM      2  C   UNL     1      84.165 -67.729  15.762  1.00  0.00     0.006 C 
BRANCH   2   3
ATOM      3  C   UNL     1      82.670 -67.808  16.125  1.00  0.00     0.053 C 
BRANCH   3   4
ATOM      4  C   UNL     1      81.957 -66.506  15.927  1.00  0.00     0.041 C 
ATOM      5  O   UNL     1      82.597 -65.473  15.598  1.00  0.00    -0.550 OA
ATOM      6  O   UNL     1      80.576 -66.440  16.076  1.00  0.00    -0.550 OA
ENDBRANCH   3   4
ENDBRANCH   2   3
ENDBRANCH   1   2
BRANCH   1   7
ATOM      7  C   UNL     1      86.099 -68.939  14.589  1.00  0.00     0.000 C 
BRANCH   7   8
ATOM      8  C   UNL     1      86.467 -69.876  13.432  1.00  0.00    -0.000 C 
BRANCH   8   9
ATOM      9  C   UNL     1      87.882 -70.440  13.610  1.00  0.00    -0.003 C 
ATOM     10  C   UNL     1      88.267 -70.508  15.085  1.00  0.00     0.004 C 
ENDBRANCH   8   9
ENDBRANCH   7   8
ENDBRANCH   1   7
TORSDOF 6
ENDMDL
MODEL 4
REMARK VINA RESULT:    -3.400     19.717     20.592
REMARK INTER + INTRA:          -4.821
REMARK INTER:                  -4.329
REMARK INTRA:                  -0.492
REMARK UNBOUND:                -0.229
REMARK SMILES CCCCCCCC(=O)[O-]
REMARK SMILES IDX 5 1 6 2 7 3 8 4 9 5 10 6 4 7 3 8 2 9 1 10
REMARK H PARENT
REMARK Flexibility Score: inf
ROOT
ATOM      1  C   UNL     1      77.513 -73.423  -3.492  1.00  0.00     0.000 C 
ENDROOT
BRANCH   1   2
ATOM      2  C   UNL     1      76.281 -72.506  -3.590  1.00  0.00     0.006 C 
BRANCH   2   3
ATOM      3  C   UNL     1      74.994 -73.120  -3.009  1.00  0.00     0.053 C 
BRANCH   3   4
ATOM      4  C   UNL     1      74.813 -72.814  -1.554  1.00  0.00     0.041 C 
ATOM      5  O   UNL     1      75.314 -73.566  -0.678  1.00  0.00    -0.550 OA
ATOM      6  O   UNL     1      74.115 -71.676  -1.165  1.00  0.00    -0.550 OA
ENDBRANCH   3   4
ENDBRANCH   2   3
ENDBRANCH   1   2
BRANCH   1   7
ATOM      7  C   UNL     1      77.261 -74.832  -4.049  1.00  0.00     0.000 C 
BRANCH   7   8
ATOM      8  C   UNL     1      77.981 -75.893  -3.208  1.00  0.00    -0.000 C 
BRANCH   8   9
ATOM      9  C   UNL     1      78.304 -75.358  -1.808  1.00  0.00    -0.003 C 
ATOM     10  C   UNL     1      77.664 -76.223  -0.727  1.00  0.00     0.004 C 
ENDBRANCH   8   9
ENDBRANCH   7   8
ENDBRANCH   1   7
TORSDOF 6
ENDMDL
MODEL 5
REMARK VINA RESULT:    -3.371     19.833     20.671
REMARK INTER + INTRA:          -4.782
REMARK INTER:                  -4.434
REMARK INTRA:                  -0.348
REMARK UNBOUND:                -0.229
REMARK SMILES CCCCCCCC(=O)[O-]
REMARK SMILES IDX 5 1 6 2 7 3 8 4 9 5 10 6 4 7 3 8 2 9 1 10
REMARK H PARENT
REMARK Flexibility Score: inf
ROOT
ATOM      1  C   UNL     1      75.099 -71.741  -3.193  1.00  0.00     0.000 C 
ENDROOT
BRANCH   1   2
ATOM      2  C   UNL     1      73.988 -72.349  -2.317  1.00  0.00     0.006 C 
BRANCH   2   3
ATOM      3  C   UNL     1      74.216 -72.171  -0.805  1.00  0.00     0.053 C 
BRANCH   3   4
ATOM      4  C   UNL     1      73.448 -71.017  -0.236  1.00  0.00     0.041 C 
ATOM      5  O   UNL     1      72.212 -71.120  -0.021  1.00  0.00    -0.550 OA
ATOM      6  O   UNL     1      74.105 -69.836   0.088  1.00  0.00    -0.550 OA
ENDBRANCH   3   4
ENDBRANCH   2   3
ENDBRANCH   1   2
BRANCH   1   7
ATOM      7  C   UNL     1      75.928 -72.799  -3.935  1.00  0.00     0.000 C 
BRANCH   7   8
ATOM      8  C   UNL     1      77.355 -72.870  -3.377  1.00  0.00    -0.000 C 
BRANCH   8   9
ATOM      9  C   UNL     1      77.489 -74.004  -2.353  1.00  0.00    -0.003 C 
ATOM     10  C   UNL     1      77.542 -75.364  -3.040  1.00  0.00     0.004 C 
ENDBRANCH   8   9
ENDBRANCH   7   8
ENDBRANCH   1   7
TORSDOF 6
ENDMDL
MODEL 6
REMARK VINA RESULT:    -3.339     19.544     20.104
REMARK INTER + INTRA:          -4.739
REMARK INTER:                  -4.380
REMARK INTRA:                  -0.359
REMARK UNBOUND:                -0.229
REMARK SMILES CCCCCCCC(=O)[O-]
REMARK SMILES IDX 5 1 6 2 7 3 8 4 9 5 10 6 4 7 3 8 2 9 1 10
REMARK H PARENT
REMARK Flexibility Score: inf
ROOT
ATOM      1  C   UNL     1      77.042 -74.924  -3.466  1.00  0.00     0.000 C 
ENDROOT
BRANCH   1   2
ATOM      2  C   UNL     1      77.846 -74.380  -2.272  1.00  0.00     0.006 C 
BRANCH   2   3
ATOM      3  C   UNL     1      78.676 -75.448  -1.537  1.00  0.00     0.053 C 
BRANCH   3   4
ATOM      4  C   UNL     1      77.826 -76.505  -0.901  1.00  0.00     0.041 C 
ATOM      5  O   UNL     1      78.042 -77.723  -1.136  1.00  0.00    -0.550 OA
ATOM      6  O   UNL     1      76.812 -76.146  -0.021  1.00  0.00    -0.550 OA
ENDBRANCH   3   4
ENDBRANCH   2   3
ENDBRANCH   1   2
BRANCH   1   7
ATOM      7  C   UNL     1      76.002 -73.927  -3.997  1.00  0.00     0.000 C 
BRANCH   7   8
ATOM      8  C   UNL     1      76.463 -72.481  -3.775  1.00  0.00    -0.000 C 
BRANCH   8   9
ATOM      9  C   UNL     1      75.266 -71.554  -3.530  1.00  0.00    -0.003 C 
ATOM     10  C   UNL     1      74.471 -71.993  -2.305  1.00  0.00     0.004 C 
ENDBRANCH   8   9
ENDBRANCH   7   8
ENDBRANCH   1   7
TORSDOF 6
ENDMDL
MODEL 7
REMARK VINA RESULT:    -3.333     19.792     20.665
REMARK INTER + INTRA:          -4.731
REMARK INTER:                  -4.270
REMARK INTRA:                  -0.461
REMARK UNBOUND:                -0.229
REMARK SMILES CCCCCCCC(=O)[O-]
REMARK SMILES IDX 5 1 6 2 7 3 8 4 9 5 10 6 4 7 3 8 2 9 1 10
REMARK H PARENT
REMARK Flexibility Score: inf
ROOT
ATOM      1  C   UNL     1      77.496 -74.183  -3.702  1.00  0.00     0.000 C 
ENDROOT
BRANCH   1   2
ATOM      2  C   UNL     1      76.029 -73.813  -3.986  1.00  0.00     0.006 C 
BRANCH   2   3
ATOM      3  C   UNL     1      75.201 -73.519  -2.722  1.00  0.00     0.053 C 
BRANCH   3   4
ATOM      4  C   UNL     1      74.830 -72.072  -2.596  1.00  0.00     0.041 C 
ATOM      5  O   UNL     1      74.083 -71.686  -1.660  1.00  0.00    -0.550 OA
ATOM      6  O   UNL     1      75.337 -71.144  -3.498  1.00  0.00    -0.550 OA
ENDBRANCH   3   4
ENDBRANCH   2   3
ENDBRANCH   1   2
BRANCH   1   7
ATOM      7  C   UNL     1      77.840 -74.173  -2.206  1.00  0.00     0.000 C 
BRANCH   7   8
ATOM      8  C   UNL     1      78.593 -75.448  -1.806  1.00  0.00    -0.000 C 
BRANCH   8   9
ATOM      9  C   UNL     1      77.616 -76.576  -1.454  1.00  0.00    -0.003 C 
ATOM     10  C   UNL     1      76.781 -76.220  -0.228  1.00  0.00     0.004 C 
ENDBRANCH   8   9
ENDBRANCH   7   8
ENDBRANCH   1   7
TORSDOF 6
ENDMDL
MODEL 8
REMARK VINA RESULT:    -3.307     19.761     20.391
REMARK INTER + INTRA:          -4.695
REMARK INTER:                  -4.171
REMARK INTRA:                  -0.524
REMARK UNBOUND:                -0.229
REMARK SMILES CCCCCCCC(=O)[O-]
REMARK SMILES IDX 5 1 6 2 7 3 8 4 9 5 10 6 4 7 3 8 2 9 1 10
REMARK H PARENT
REMARK Flexibility Score: inf
ROOT
ATOM      1  C   UNL     1      77.848 -74.107  -2.262  1.00  0.00     0.000 C 
ENDROOT
BRANCH   1   2
ATOM      2  C   UNL     1      78.255 -75.495  -1.737  1.00  0.00     0.006 C 
BRANCH   2   3
ATOM      3  C   UNL     1      77.379 -76.008  -0.580  1.00  0.00     0.053 C 
BRANCH   3   4
ATOM      4  C   UNL     1      75.920 -76.031  -0.925  1.00  0.00     0.041 C 
ATOM      5  O   UNL     1      75.112 -75.276  -0.323  1.00  0.00    -0.550 OA
ATOM      6  O   UNL     1      75.458 -76.866  -1.935  1.00  0.00    -0.550 OA
ENDBRANCH   3   4
ENDBRANCH   2   3
ENDBRANCH   1   2
BRANCH   1   7
ATOM      7  C   UNL     1      77.501 -74.106  -3.758  1.00  0.00     0.000 C 
BRANCH   7   8
ATOM      8  C   UNL     1      75.994 -73.920  -3.972  1.00  0.00    -0.000 C 
BRANCH   8   9
ATOM      9  C   UNL     1      75.457 -72.760  -3.124  1.00  0.00    -0.003 C 
ATOM     10  C   UNL     1      75.576 -71.433  -3.866  1.00  0.00     0.004 C 
ENDBRANCH   8   9
ENDBRANCH   7   8
ENDBRANCH   1   7
TORSDOF 6
ENDMDL
MODEL 9
REMARK VINA RESULT:    -3.282     19.645     20.128
REMARK INTER + INTRA:          -4.662
REMARK INTER:                  -4.084
REMARK INTRA:                  -0.578
REMARK UNBOUND:                -0.229
REMARK SMILES CCCCCCCC(=O)[O-]
REMARK SMILES IDX 5 1 6 2 7 3 8 4 9 5 10 6 4 7 3 8 2 9 1 10
REMARK H PARENT
REMARK Flexibility Score: inf
ROOT
ATOM      1  C   UNL     1      76.345 -72.422  -3.763  1.00  0.00     0.000 C 
ENDROOT
BRANCH   1   2
ATOM      2  C   UNL     1      77.471 -73.469  -3.682  1.00  0.00     0.006 C 
BRANCH   2   3
ATOM      3  C   UNL     1      77.805 -73.919  -2.248  1.00  0.00     0.053 C 
BRANCH   3   4
ATOM      4  C   UNL     1      77.759 -75.408  -2.084  1.00  0.00     0.041 C 
ATOM      5  O   UNL     1      78.576 -75.989  -1.322  1.00  0.00    -0.550 OA
ATOM      6  O   UNL     1      76.792 -76.152  -2.749  1.00  0.00    -0.550 OA
ENDBRANCH   3   4
ENDBRANCH   2   3
ENDBRANCH   1   2
BRANCH   1   7
ATOM      7  C   UNL     1      74.996 -72.947  -3.251  1.00  0.00     0.000 C 
BRANCH   7   8
ATOM      8  C   UNL     1      74.410 -72.010  -2.187  1.00  0.00    -0.000 C 
BRANCH   8   9
ATOM      9  C   UNL     1      74.449 -72.662  -0.799  1.00  0.00    -0.003 C 
ATOM     10  C   UNL     1      74.341 -74.180  -0.900  1.00  0.00     0.004 C 
ENDBRANCH   8   9
ENDBRANCH   7   8
ENDBRANCH   1   7
TORSDOF 6
ENDMDL
