MODEL 1
REMARK VINA RESULT:    -4.186      0.000      0.000
REMARK INTER + INTRA:          -8.518
REMARK INTER:                  -7.734
REMARK INTRA:                  -0.785
REMARK UNBOUND:                -0.785
REMARK SMILES CCCCCCCCCCCCCCCCO
REMARK SMILES IDX 9 1 8 2 7 3 6 4 5 5 4 6 3 7 2 8 1 9 10 10 11 11 12 12 13 13
REMARK SMILES IDX 14 14 15 15 16 16 17 17
REMARK H PARENT 17 18
REMARK Flexibility Score: inf
ROOT
ATOM      1  C   UNL     1     178.426 168.474 187.359  1.00  0.00     0.000 C 
ENDROOT
BRANCH   1   2
ATOM      2  C   UNL     1     179.235 169.391 188.290  1.00  0.00    -0.000 C 
BRANCH   2   3
ATOM      3  C   UNL     1     178.396 170.560 188.836  1.00  0.00    -0.000 C 
BRANCH   3   4
ATOM      4  C   UNL     1     178.540 171.835 187.989  1.00  0.00    -0.000 C 
BRANCH   4   5
ATOM      5  C   UNL     1     179.787 172.656 188.362  1.00  0.00    -0.000 C 
BRANCH   5   6
ATOM      6  C   UNL     1     179.419 174.030 188.962  1.00  0.00    -0.000 C 
BRANCH   6   7
ATOM      7  C   UNL     1     177.950 174.427 188.738  1.00  0.00    -0.000 C 
BRANCH   7   8
ATOM      8  C   UNL     1     177.219 174.784 190.039  1.00  0.00    -0.003 C 
ATOM      9  C   UNL     1     176.150 173.747 190.373  1.00  0.00     0.004 C 
ENDBRANCH   7   8
ENDBRANCH   6   7
ENDBRANCH   5   6
ENDBRANCH   4   5
ENDBRANCH   3   4
ENDBRANCH   2   3
ENDBRANCH   1   2
BRANCH   1  10
ATOM     10  C   UNL     1     179.229 167.242 186.908  1.00  0.00     0.000 C 
BRANCH  10  11
ATOM     11  C   UNL     1     178.996 166.019 187.809  1.00  0.00     0.000 C 
BRANCH  11  12
ATOM     12  C   UNL     1     177.749 165.214 187.411  1.00  0.00     0.000 C 
BRANCH  12  13
ATOM     13  C   UNL     1     176.812 165.026 188.611  1.00  0.00     0.000 C 
BRANCH  13  14
ATOM     14  C   UNL     1     177.275 163.857 189.493  1.00  0.00     0.002 C 
BRANCH  14  15
ATOM     15  C   UNL     1     176.705 162.502 189.039  1.00  0.00     0.028 C 
BRANCH  15  16
ATOM     16  C   UNL     1     177.511 161.297 189.545  1.00  0.00     0.156 C 
BRANCH  16  17
ATOM     17  O   UNL     1     178.294 161.637 190.658  1.00  0.00    -0.396 OA
ATOM     18  H   UNL     1     179.203 161.280 190.486  1.00  0.00     0.210 HD
ENDBRANCH  16  17
ENDBRANCH  15  16
ENDBRANCH  14  15
ENDBRANCH  13  14
ENDBRANCH  12  13
ENDBRANCH  11  12
ENDBRANCH  10  11
ENDBRANCH   1  10
TORSDOF 15
ENDMDL
MODEL 2
REMARK VINA RESULT:    -4.155     14.547     17.208
REMARK INTER + INTRA:          -8.461
REMARK INTER:                  -6.264
REMARK INTRA:                  -2.198
REMARK UNBOUND:                -0.785
REMARK SMILES CCCCCCCCCCCCCCCCO
REMARK SMILES IDX 9 1 8 2 7 3 6 4 5 5 4 6 3 7 2 8 1 9 10 10 11 11 12 12 13 13
REMARK SMILES IDX 14 14 15 15 16 16 17 17
REMARK H PARENT 17 18
REMARK Flexibility Score: inf
ROOT
ATOM      1  C   UNL     1     159.876 161.732 186.683  1.00  0.00     0.000 C 
ENDROOT
BRANCH   1   2
ATOM      2  C   UNL     1     159.902 161.142 188.102  1.00  0.00    -0.000 C 
BRANCH   2   3
ATOM      3  C   UNL     1     159.987 162.229 189.188  1.00  0.00    -0.000 C 
BRANCH   3   4
ATOM      4  C   UNL     1     160.604 163.537 188.666  1.00  0.00    -0.000 C 
BRANCH   4   5
ATOM      5  C   UNL     1     162.120 163.618 188.916  1.00  0.00    -0.000 C 
BRANCH   5   6
ATOM      6  C   UNL     1     162.795 164.699 188.046  1.00  0.00    -0.000 C 
BRANCH   6   7
ATOM      7  C   UNL     1     161.798 165.657 187.369  1.00  0.00    -0.000 C 
BRANCH   7   8
ATOM      8  C   UNL     1     161.859 165.600 185.837  1.00  0.00    -0.003 C 
ATOM      9  C   UNL     1     160.587 164.986 185.257  1.00  0.00     0.004 C 
ENDBRANCH   7   8
ENDBRANCH   6   7
ENDBRANCH   5   6
ENDBRANCH   4   5
ENDBRANCH   3   4
ENDBRANCH   2   3
ENDBRANCH   1   2
BRANCH   1  10
ATOM     10  C   UNL     1     160.925 161.087 185.761  1.00  0.00     0.000 C 
BRANCH  10  11
ATOM     11  C   UNL     1     162.288 161.792 185.829  1.00  0.00     0.000 C 
BRANCH  11  12
ATOM     12  C   UNL     1     163.453 160.818 186.068  1.00  0.00     0.000 C 
BRANCH  12  13
ATOM     13  C   UNL     1     163.729 160.652 187.568  1.00  0.00     0.000 C 
BRANCH  13  14
ATOM     14  C   UNL     1     164.944 161.488 188.000  1.00  0.00     0.002 C 
BRANCH  14  15
ATOM     15  C   UNL     1     165.630 160.940 189.262  1.00  0.00     0.028 C 
BRANCH  15  16
ATOM     16  C   UNL     1     167.043 160.396 189.006  1.00  0.00     0.156 C 
BRANCH  16  17
ATOM     17  O   UNL     1     167.238 160.098 187.649  1.00  0.00    -0.396 OA
ATOM     18  H   UNL     1     166.599 159.373 187.423  1.00  0.00     0.210 HD
ENDBRANCH  16  17
ENDBRANCH  15  16
ENDBRANCH  14  15
ENDBRANCH  13  14
ENDBRANCH  12  13
ENDBRANCH  11  12
ENDBRANCH  10  11
ENDBRANCH   1  10
TORSDOF 15
ENDMDL
MODEL 3
REMARK VINA RESULT:    -4.102     14.034     16.874
REMARK INTER + INTRA:          -8.363
REMARK INTER:                  -6.529
REMARK INTRA:                  -1.834
REMARK UNBOUND:                -0.785
REMARK SMILES CCCCCCCCCCCCCCCCO
REMARK SMILES IDX 9 1 8 2 7 3 6 4 5 5 4 6 3 7 2 8 1 9 10 10 11 11 12 12 13 13
REMARK SMILES IDX 14 14 15 15 16 16 17 17
REMARK H PARENT 17 18
REMARK Flexibility Score: inf
ROOT
ATOM      1  C   UNL     1     164.035 160.962 186.858  1.00  0.00     0.000 C 
ENDROOT
BRANCH   1   2
ATOM      2  C   UNL     1     165.233 160.001 186.943  1.00  0.00    -0.000 C 
BRANCH   2   3
ATOM      3  C   UNL     1     166.576 160.718 186.721  1.00  0.00    -0.000 C 
BRANCH   3   4
ATOM      4  C   UNL     1     167.490 160.653 187.955  1.00  0.00    -0.000 C 
BRANCH   4   5
ATOM      5  C   UNL     1     166.703 160.671 189.277  1.00  0.00    -0.000 C 
BRANCH   5   6
ATOM      6  C   UNL     1     166.787 162.040 189.985  1.00  0.00    -0.000 C 
BRANCH   6   7
ATOM      7  C   UNL     1     165.606 162.973 189.664  1.00  0.00    -0.000 C 
BRANCH   7   8
ATOM      8  C   UNL     1     165.855 163.853 188.432  1.00  0.00    -0.003 C 
ATOM      9  C   UNL     1     164.557 164.486 187.936  1.00  0.00     0.004 C 
ENDBRANCH   7   8
ENDBRANCH   6   7
ENDBRANCH   5   6
ENDBRANCH   4   5
ENDBRANCH   3   4
ENDBRANCH   2   3
ENDBRANCH   1   2
BRANCH   1  10
ATOM     10  C   UNL     1     163.173 160.935 188.133  1.00  0.00     0.000 C 
BRANCH  10  11
ATOM     11  C   UNL     1     161.777 161.541 187.918  1.00  0.00     0.000 C 
BRANCH  11  12
ATOM     12  C   UNL     1     161.460 162.675 188.905  1.00  0.00     0.000 C 
BRANCH  12  13
ATOM     13  C   UNL     1     160.033 163.198 188.699  1.00  0.00     0.000 C 
BRANCH  13  14
ATOM     14  C   UNL     1     159.875 163.834 187.310  1.00  0.00     0.002 C 
BRANCH  14  15
ATOM     15  C   UNL     1     160.831 165.017 187.079  1.00  0.00     0.028 C 
BRANCH  15  16
ATOM     16  C   UNL     1     161.123 165.290 185.597  1.00  0.00     0.156 C 
BRANCH  16  17
ATOM     17  O   UNL     1     160.304 166.312 185.095  1.00  0.00    -0.396 OA
ATOM     18  H   UNL     1     159.750 166.630 185.853  1.00  0.00     0.210 HD
ENDBRANCH  16  17
ENDBRANCH  15  16
ENDBRANCH  14  15
ENDBRANCH  13  14
ENDBRANCH  12  13
ENDBRANCH  11  12
ENDBRANCH  10  11
ENDBRANCH   1  10
TORSDOF 15
ENDMDL
MODEL 4
REMARK VINA RESULT:    -4.094      5.617      7.786
REMARK INTER + INTRA:          -8.349
REMARK INTER:                  -6.571
REMARK INTRA:                  -1.779
REMARK UNBOUND:                -0.785
REMARK SMILES CCCCCCCCCCCCCCCCO
REMARK SMILES IDX 9 1 8 2 7 3 6 4 5 5 4 6 3 7 2 8 1 9 10 10 11 11 12 12 13 13
REMARK SMILES IDX 14 14 15 15 16 16 17 17
REMARK H PARENT 17 18
REMARK Flexibility Score: inf
ROOT
ATOM      1  C   UNL     1     176.760 161.750 188.292  1.00  0.00     0.000 C 
ENDROOT
BRANCH   1   2
ATOM      2  C   UNL     1     177.264 162.291 189.640  1.00  0.00    -0.000 C 
BRANCH   2   3
ATOM      3  C   UNL     1     177.213 163.828 189.711  1.00  0.00    -0.000 C 
BRANCH   3   4
ATOM      4  C   UNL     1     175.871 164.349 190.249  1.00  0.00    -0.000 C 
BRANCH   4   5
ATOM      5  C   UNL     1     175.109 165.200 189.218  1.00  0.00    -0.000 C 
BRANCH   5   6
ATOM      6  C   UNL     1     176.040 165.751 188.118  1.00  0.00    -0.000 C 
BRANCH   6   7
ATOM      7  C   UNL     1     175.845 165.076 186.749  1.00  0.00    -0.000 C 
BRANCH   7   8
ATOM      8  C   UNL     1     177.170 164.755 186.044  1.00  0.00    -0.003 C 
ATOM      9  C   UNL     1     178.313 165.595 186.610  1.00  0.00     0.004 C 
ENDBRANCH   7   8
ENDBRANCH   6   7
ENDBRANCH   5   6
ENDBRANCH   4   5
ENDBRANCH   3   4
ENDBRANCH   2   3
ENDBRANCH   1   2
BRANCH   1  10
ATOM     10  C   UNL     1     175.390 161.061 188.413  1.00  0.00     0.000 C 
BRANCH  10  11
ATOM     11  C   UNL     1     174.905 160.465 187.082  1.00  0.00     0.000 C 
BRANCH  11  12
ATOM     12  C   UNL     1     175.654 161.034 185.866  1.00  0.00     0.000 C 
BRANCH  12  13
ATOM     13  C   UNL     1     175.444 160.149 184.631  1.00  0.00     0.000 C 
BRANCH  13  14
ATOM     14  C   UNL     1     175.951 160.847 183.360  1.00  0.00     0.002 C 
BRANCH  14  15
ATOM     15  C   UNL     1     177.053 161.881 183.644  1.00  0.00     0.028 C 
BRANCH  15  16
ATOM     16  C   UNL     1     178.372 161.590 182.913  1.00  0.00     0.156 C 
BRANCH  16  17
ATOM     17  O   UNL     1     178.692 160.225 182.963  1.00  0.00    -0.396 OA
ATOM     18  H   UNL     1     178.288 159.868 183.796  1.00  0.00     0.210 HD
ENDBRANCH  16  17
ENDBRANCH  15  16
ENDBRANCH  14  15
ENDBRANCH  13  14
ENDBRANCH  12  13
ENDBRANCH  11  12
ENDBRANCH  10  11
ENDBRANCH   1  10
TORSDOF 15
ENDMDL
MODEL 5
REMARK VINA RESULT:    -4.090     14.019     17.451
REMARK INTER + INTRA:          -8.343
REMARK INTER:                  -6.331
REMARK INTRA:                  -2.012
REMARK UNBOUND:                -0.785
REMARK SMILES CCCCCCCCCCCCCCCCO
REMARK SMILES IDX 9 1 8 2 7 3 6 4 5 5 4 6 3 7 2 8 1 9 10 10 11 11 12 12 13 13
REMARK SMILES IDX 14 14 15 15 16 16 17 17
REMARK H PARENT 17 18
REMARK Flexibility Score: inf
ROOT
ATOM      1  C   UNL     1     162.109 163.382 188.885  1.00  0.00     0.000 C 
ENDROOT
BRANCH   1   2
ATOM      2  C   UNL     1     160.681 163.417 188.315  1.00  0.00    -0.000 C 
BRANCH   2   3
ATOM      3  C   UNL     1     159.875 162.157 188.674  1.00  0.00    -0.000 C 
BRANCH   3   4
ATOM      4  C   UNL     1     159.876 161.114 187.545  1.00  0.00    -0.000 C 
BRANCH   4   5
ATOM      5  C   UNL     1     160.012 161.751 186.151  1.00  0.00    -0.000 C 
BRANCH   5   6
ATOM      6  C   UNL     1     161.009 160.985 185.257  1.00  0.00    -0.000 C 
BRANCH   6   7
ATOM      7  C   UNL     1     162.078 161.886 184.613  1.00  0.00    -0.000 C 
BRANCH   7   8
ATOM      8  C   UNL     1     163.436 161.189 184.458  1.00  0.00    -0.003 C 
ATOM      9  C   UNL     1     163.404 160.164 183.326  1.00  0.00     0.004 C 
ENDBRANCH   7   8
ENDBRANCH   6   7
ENDBRANCH   5   6
ENDBRANCH   4   5
ENDBRANCH   3   4
ENDBRANCH   2   3
ENDBRANCH   1   2
BRANCH   1  10
ATOM     10  C   UNL     1     163.180 163.517 187.789  1.00  0.00     0.000 C 
BRANCH  10  11
ATOM     11  C   UNL     1     164.143 162.320 187.749  1.00  0.00     0.000 C 
BRANCH  11  12
ATOM     12  C   UNL     1     163.484 161.010 188.211  1.00  0.00     0.000 C 
BRANCH  12  13
ATOM     13  C   UNL     1     164.477 160.145 188.997  1.00  0.00     0.000 C 
BRANCH  13  14
ATOM     14  C   UNL     1     165.643 160.991 189.531  1.00  0.00     0.002 C 
BRANCH  14  15
ATOM     15  C   UNL     1     167.016 160.346 189.278  1.00  0.00     0.028 C 
BRANCH  15  16
ATOM     16  C   UNL     1     167.703 160.845 187.999  1.00  0.00     0.156 C 
BRANCH  16  17
ATOM     17  O   UNL     1     167.956 162.223 188.059  1.00  0.00    -0.396 OA
ATOM     18  H   UNL     1     168.784 162.337 188.594  1.00  0.00     0.210 HD
ENDBRANCH  16  17
ENDBRANCH  15  16
ENDBRANCH  14  15
ENDBRANCH  13  14
ENDBRANCH  12  13
ENDBRANCH  11  12
ENDBRANCH  10  11
ENDBRANCH   1  10
TORSDOF 15
ENDMDL
MODEL 6
REMARK VINA RESULT:    -4.077     15.450     17.988
REMARK INTER + INTRA:          -8.317
REMARK INTER:                  -6.478
REMARK INTRA:                  -1.840
REMARK UNBOUND:                -0.785
REMARK SMILES CCCCCCCCCCCCCCCCO
REMARK SMILES IDX 9 1 8 2 7 3 6 4 5 5 4 6 3 7 2 8 1 9 10 10 11 11 12 12 13 13
REMARK SMILES IDX 14 14 15 15 16 16 17 17
REMARK H PARENT 17 18
REMARK Flexibility Score: inf
ROOT
ATOM      1  C   UNL     1     161.387 164.776 185.889  1.00  0.00     0.000 C 
ENDROOT
BRANCH   1   2
ATOM      2  C   UNL     1     161.208 165.154 187.369  1.00  0.00    -0.000 C 
BRANCH   2   3
ATOM      3  C   UNL     1     160.045 164.396 188.031  1.00  0.00    -0.000 C 
BRANCH   3   4
ATOM      4  C   UNL     1     160.507 163.122 188.755  1.00  0.00    -0.000 C 
BRANCH   4   5
ATOM      5  C   UNL     1     162.040 163.021 188.856  1.00  0.00    -0.000 C 
BRANCH   5   6
ATOM      6  C   UNL     1     162.558 161.623 188.457  1.00  0.00    -0.000 C 
BRANCH   6   7
ATOM      7  C   UNL     1     164.085 161.559 188.280  1.00  0.00    -0.000 C 
BRANCH   7   8
ATOM      8  C   UNL     1     164.695 160.253 188.804  1.00  0.00    -0.003 C 
ATOM      9  C   UNL     1     165.875 160.528 189.732  1.00  0.00     0.004 C 
ENDBRANCH   7   8
ENDBRANCH   6   7
ENDBRANCH   5   6
ENDBRANCH   4   5
ENDBRANCH   3   4
ENDBRANCH   2   3
ENDBRANCH   1   2
BRANCH   1  10
ATOM     10  C   UNL     1     160.085 164.252 185.258  1.00  0.00     0.000 C 
BRANCH  10  11
ATOM     11  C   UNL     1     160.288 162.940 184.484  1.00  0.00     0.000 C 
BRANCH  11  12
ATOM     12  C   UNL     1     160.191 161.696 185.382  1.00  0.00     0.000 C 
BRANCH  12  13
ATOM     13  C   UNL     1     161.378 160.755 185.143  1.00  0.00     0.000 C 
BRANCH  13  14
ATOM     14  C   UNL     1     162.526 161.485 184.431  1.00  0.00     0.002 C 
BRANCH  14  15
ATOM     15  C   UNL     1     163.280 160.587 183.435  1.00  0.00     0.028 C 
BRANCH  15  16
ATOM     16  C   UNL     1     164.711 160.246 183.878  1.00  0.00     0.156 C 
BRANCH  16  17
ATOM     17  O   UNL     1     164.752 159.875 185.230  1.00  0.00    -0.396 OA
ATOM     18  H   UNL     1     165.165 158.974 185.265  1.00  0.00     0.210 HD
ENDBRANCH  16  17
ENDBRANCH  15  16
ENDBRANCH  14  15
ENDBRANCH  13  14
ENDBRANCH  12  13
ENDBRANCH  11  12
ENDBRANCH  10  11
ENDBRANCH   1  10
TORSDOF 15
ENDMDL
MODEL 7
REMARK VINA RESULT:    -4.059     13.807     16.878
REMARK INTER + INTRA:          -8.285
REMARK INTER:                  -6.490
REMARK INTRA:                  -1.795
REMARK UNBOUND:                -0.785
REMARK SMILES CCCCCCCCCCCCCCCCO
REMARK SMILES IDX 9 1 8 2 7 3 6 4 5 5 4 6 3 7 2 8 1 9 10 10 11 11 12 12 13 13
REMARK SMILES IDX 14 14 15 15 16 16 17 17
REMARK H PARENT 17 18
REMARK Flexibility Score: inf
ROOT
ATOM      1  C   UNL     1     163.339 162.448 188.147  1.00  0.00     0.000 C 
ENDROOT
BRANCH   1   2
ATOM      2  C   UNL     1     162.392 163.468 188.800  1.00  0.00    -0.000 C 
BRANCH   2   3
ATOM      3  C   UNL     1     161.008 162.869 189.109  1.00  0.00    -0.000 C 
BRANCH   3   4
ATOM      4  C   UNL     1     159.884 163.531 188.297  1.00  0.00    -0.000 C 
BRANCH   4   5
ATOM      5  C   UNL     1     160.411 164.583 187.305  1.00  0.00    -0.000 C 
BRANCH   5   6
ATOM      6  C   UNL     1     160.139 164.186 185.838  1.00  0.00    -0.000 C 
BRANCH   6   7
ATOM      7  C   UNL     1     159.875 162.682 185.646  1.00  0.00    -0.000 C 
BRANCH   7   8
ATOM      8  C   UNL     1     161.139 161.894 185.276  1.00  0.00    -0.003 C 
ATOM      9  C   UNL     1     161.980 162.651 184.251  1.00  0.00     0.004 C 
ENDBRANCH   7   8
ENDBRANCH   6   7
ENDBRANCH   5   6
ENDBRANCH   4   5
ENDBRANCH   3   4
ENDBRANCH   2   3
ENDBRANCH   1   2
BRANCH   1  10
ATOM     10  C   UNL     1     162.886 160.996 188.379  1.00  0.00     0.000 C 
BRANCH  10  11
ATOM     11  C   UNL     1     164.004 160.109 188.947  1.00  0.00     0.000 C 
BRANCH  11  12
ATOM     12  C   UNL     1     165.406 160.689 188.706  1.00  0.00     0.000 C 
BRANCH  12  13
ATOM     13  C   UNL     1     166.219 160.715 190.007  1.00  0.00     0.000 C 
BRANCH  13  14
ATOM     14  C   UNL     1     166.704 162.137 190.326  1.00  0.00     0.002 C 
BRANCH  14  15
ATOM     15  C   UNL     1     166.876 163.007 189.070  1.00  0.00     0.028 C 
BRANCH  15  16
ATOM     16  C   UNL     1     168.333 163.120 188.596  1.00  0.00     0.156 C 
BRANCH  16  17
ATOM     17  O   UNL     1     168.845 164.406 188.821  1.00  0.00    -0.396 OA
ATOM     18  H   UNL     1     168.232 165.040 188.367  1.00  0.00     0.210 HD
ENDBRANCH  16  17
ENDBRANCH  15  16
ENDBRANCH  14  15
ENDBRANCH  13  14
ENDBRANCH  12  13
ENDBRANCH  11  12
ENDBRANCH  10  11
ENDBRANCH   1  10
TORSDOF 15
ENDMDL
MODEL 8
REMARK VINA RESULT:    -4.042     14.390     17.363
REMARK INTER + INTRA:          -8.254
REMARK INTER:                  -6.323
REMARK INTRA:                  -1.931
REMARK UNBOUND:                -0.785
REMARK SMILES CCCCCCCCCCCCCCCCO
REMARK SMILES IDX 9 1 8 2 7 3 6 4 5 5 4 6 3 7 2 8 1 9 10 10 11 11 12 12 13 13
REMARK SMILES IDX 14 14 15 15 16 16 17 17
REMARK H PARENT 17 18
REMARK Flexibility Score: inf
ROOT
ATOM      1  C   UNL     1     159.922 161.967 186.630  1.00  0.00     0.000 C 
ENDROOT
BRANCH   1   2
ATOM      2  C   UNL     1     160.630 161.973 187.995  1.00  0.00    -0.000 C 
BRANCH   2   3
ATOM      3  C   UNL     1     161.780 162.993 188.055  1.00  0.00    -0.000 C 
BRANCH   3   4
ATOM      4  C   UNL     1     163.137 162.334 188.350  1.00  0.00    -0.000 C 
BRANCH   4   5
ATOM      5  C   UNL     1     163.042 160.802 188.453  1.00  0.00    -0.000 C 
BRANCH   5   6
ATOM      6  C   UNL     1     164.363 160.110 188.054  1.00  0.00    -0.000 C 
BRANCH   6   7
ATOM      7  C   UNL     1     165.574 161.060 188.030  1.00  0.00    -0.000 C 
BRANCH   7   8
ATOM      8  C   UNL     1     166.645 160.692 189.065  1.00  0.00    -0.003 C 
ATOM      9  C   UNL     1     166.594 161.628 190.269  1.00  0.00     0.004 C 
ENDBRANCH   7   8
ENDBRANCH   6   7
ENDBRANCH   5   6
ENDBRANCH   4   5
ENDBRANCH   3   4
ENDBRANCH   2   3
ENDBRANCH   1   2
BRANCH   1  10
ATOM     10  C   UNL     1     160.514 160.921 185.669  1.00  0.00     0.000 C 
BRANCH  10  11
ATOM     11  C   UNL     1     161.444 161.543 184.616  1.00  0.00     0.000 C 
BRANCH  11  12
ATOM     12  C   UNL     1     162.815 160.852 184.549  1.00  0.00     0.000 C 
BRANCH  12  13
ATOM     13  C   UNL     1     163.950 161.864 184.755  1.00  0.00     0.000 C 
BRANCH  13  14
ATOM     14  C   UNL     1     165.063 161.663 183.716  1.00  0.00     0.002 C 
BRANCH  14  15
ATOM     15  C   UNL     1     164.583 160.914 182.461  1.00  0.00     0.028 C 
BRANCH  15  16
ATOM     16  C   UNL     1     165.631 159.952 181.882  1.00  0.00     0.156 C 
BRANCH  16  17
ATOM     17  O   UNL     1     166.920 160.266 182.339  1.00  0.00    -0.396 OA
ATOM     18  H   UNL     1     166.814 160.644 183.250  1.00  0.00     0.210 HD
ENDBRANCH  16  17
ENDBRANCH  15  16
ENDBRANCH  14  15
ENDBRANCH  13  14
ENDBRANCH  12  13
ENDBRANCH  11  12
ENDBRANCH  10  11
ENDBRANCH   1  10
TORSDOF 15
ENDMDL
MODEL 9
REMARK VINA RESULT:    -2.022     13.970     17.227
REMARK INTER + INTRA:          -4.521
REMARK INTER:                  -2.901
REMARK INTRA:                  -1.620
REMARK UNBOUND:                -0.785
REMARK SMILES CCCCCCCCCCCCCCCCO
REMARK SMILES IDX 9 1 8 2 7 3 6 4 5 5 4 6 3 7 2 8 1 9 10 10 11 11 12 12 13 13
REMARK SMILES IDX 14 14 15 15 16 16 17 17
REMARK H PARENT 17 18
REMARK Flexibility Score: inf
ROOT
ATOM      1  C   UNL     1     162.169 163.364 188.377  1.00  0.00     0.000 C 
ENDROOT
BRANCH   1   2
ATOM      2  C   UNL     1     163.371 162.441 188.115  1.00  0.00    -0.000 C 
BRANCH   2   3
ATOM      3  C   UNL     1     163.082 160.979 188.497  1.00  0.00    -0.000 C 
BRANCH   3   4
ATOM      4  C   UNL     1     164.356 160.203 188.869  1.00  0.00    -0.000 C 
BRANCH   4   5
ATOM      5  C   UNL     1     165.575 160.631 188.033  1.00  0.00    -0.000 C 
BRANCH   5   6
ATOM      6  C   UNL     1     166.850 160.767 188.892  1.00  0.00    -0.000 C 
BRANCH   6   7
ATOM      7  C   UNL     1     166.565 161.055 190.377  1.00  0.00    -0.000 C 
BRANCH   7   8
ATOM      8  C   UNL     1     166.947 162.481 190.795  1.00  0.00    -0.003 C 
ATOM      9  C   UNL     1     165.945 163.500 190.259  1.00  0.00     0.004 C 
ENDBRANCH   7   8
ENDBRANCH   6   7
ENDBRANCH   5   6
ENDBRANCH   4   5
ENDBRANCH   3   4
ENDBRANCH   2   3
ENDBRANCH   1   2
BRANCH   1  10
ATOM     10  C   UNL     1     160.949 162.596 188.915  1.00  0.00     0.000 C 
BRANCH  10  11
ATOM     11  C   UNL     1     159.875 162.362 187.841  1.00  0.00     0.000 C 
BRANCH  11  12
ATOM     12  C   UNL     1     160.285 162.899 186.460  1.00  0.00     0.000 C 
BRANCH  12  13
ATOM     13  C   UNL     1     160.134 161.815 185.385  1.00  0.00     0.000 C 
BRANCH  13  14
ATOM     14  C   UNL     1     161.450 161.049 185.187  1.00  0.00     0.002 C 
BRANCH  14  15
ATOM     15  C   UNL     1     162.166 161.415 183.875  1.00  0.00     0.028 C 
BRANCH  15  16
ATOM     16  C   UNL     1     163.585 160.837 183.768  1.00  0.00     0.156 C 
BRANCH  16  17
ATOM     17  O   UNL     1     163.977 160.222 184.966  1.00  0.00    -0.396 OA
ATOM     18  H   UNL     1     163.150 160.065 185.489  1.00  0.00     0.210 HD
ENDBRANCH  16  17
ENDBRANCH  15  16
ENDBRANCH  14  15
ENDBRANCH  13  14
ENDBRANCH  12  13
ENDBRANCH  11  12
ENDBRANCH  10  11
ENDBRANCH   1  10
TORSDOF 15
ENDMDL
