MODEL 1
REMARK VINA RESULT:    -5.454      0.000      0.000
REMARK INTER + INTRA:          -6.719
REMARK INTER:                  -6.410
REMARK INTRA:                  -0.309
REMARK UNBOUND:                -0.309
REMARK SMILES CCCC[C@H]1OC(=O)C2=C1CCC=C2
REMARK SMILES IDX 3 1 2 2 1 3 4 4 5 5 10 6 6 7 9 8 11 9 7 10 14 11 12 12 8 13
REMARK SMILES IDX 13 14
REMARK H PARENT
REMARK Flexibility Score: inf
ROOT
ATOM      1  C   UNL     1      -7.223  -6.617   8.702  1.00  0.00     0.004 C 
ENDROOT
BRANCH   1   2
ATOM      2  C   UNL     1      -8.043  -6.541  10.002  1.00  0.00    -0.003 C 
ATOM      3  C   UNL     1      -8.846  -5.246  10.125  1.00  0.00     0.004 C 
ENDBRANCH   1   2
BRANCH   1   4
ATOM      4  C   UNL     1      -7.109  -5.287   7.921  1.00  0.00     0.050 C 
BRANCH   4   5
ATOM      5  C   UNL     1      -6.942  -5.420   6.393  1.00  0.00     0.204 C 
ATOM      6  C   UNL     1      -8.222  -5.231   5.617  1.00  0.00    -0.015 C 
ATOM      7  O   UNL     1      -6.524  -6.737   6.018  1.00  0.00    -0.454 OA
ATOM      8  C   UNL     1      -8.494  -6.306   4.897  1.00  0.00     0.062 C 
ATOM      9  C   UNL     1      -9.141  -4.039   5.633  1.00  0.00     0.040 C 
ATOM     10  C   UNL     1      -7.447  -7.267   5.132  1.00  0.00     0.338 C 
ATOM     11  C   UNL     1      -9.673  -6.401   4.028  1.00  0.00     0.011 C 
ATOM     12  C   UNL     1      -9.947  -3.946   4.317  1.00  0.00     0.032 C 
ATOM     13  O   UNL     1      -7.364  -8.414   4.621  1.00  0.00    -0.246 OA
ATOM     14  C   UNL     1     -10.407  -5.301   3.813  1.00  0.00    -0.026 C 
ENDBRANCH   4   5
ENDBRANCH   1   4
TORSDOF 3
ENDMDL
MODEL 2
REMARK VINA RESULT:    -5.270      2.113      3.057
REMARK INTER + INTRA:          -6.503
REMARK INTER:                  -6.165
REMARK INTRA:                  -0.339
REMARK UNBOUND:                -0.309
REMARK SMILES CCCC[C@H]1OC(=O)C2=C1CCC=C2
REMARK SMILES IDX 3 1 2 2 1 3 4 4 5 5 10 6 6 7 9 8 11 9 7 10 14 11 12 12 8 13
REMARK SMILES IDX 13 14
REMARK H PARENT
REMARK Flexibility Score: inf
ROOT
ATOM      1  C   UNL     1      -6.505  -5.247   7.801  1.00  0.00     0.004 C 
ENDROOT
BRANCH   1   2
ATOM      2  C   UNL     1      -7.588  -5.572   8.844  1.00  0.00    -0.003 C 
ATOM      3  C   UNL     1      -7.498  -7.004   9.371  1.00  0.00     0.004 C 
ENDBRANCH   1   2
BRANCH   1   4
ATOM      4  C   UNL     1      -7.036  -4.744   6.439  1.00  0.00     0.050 C 
BRANCH   4   5
ATOM      5  C   UNL     1      -8.531  -5.008   6.163  1.00  0.00     0.204 C 
ATOM      6  C   UNL     1      -8.794  -5.764   4.883  1.00  0.00    -0.015 C 
ATOM      7  O   UNL     1      -9.259  -3.790   5.979  1.00  0.00    -0.454 OA
ATOM      8  C   UNL     1      -9.571  -5.060   4.078  1.00  0.00     0.062 C 
ATOM      9  C   UNL     1      -8.256  -7.111   4.483  1.00  0.00     0.040 C 
ATOM     10  C   UNL     1      -9.875  -3.816   4.740  1.00  0.00     0.338 C 
ATOM     11  C   UNL     1     -10.007  -5.553   2.766  1.00  0.00     0.011 C 
ATOM     12  C   UNL     1      -9.194  -7.797   3.463  1.00  0.00     0.032 C 
ATOM     13  O   UNL     1     -10.588  -2.887   4.280  1.00  0.00    -0.246 OA
ATOM     14  C   UNL     1      -9.761  -6.829   2.442  1.00  0.00    -0.026 C 
ENDBRANCH   4   5
ENDBRANCH   1   4
TORSDOF 3
ENDMDL
MODEL 3
REMARK VINA RESULT:    -5.253      2.075      3.298
REMARK INTER + INTRA:          -6.483
REMARK INTER:                  -6.241
REMARK INTRA:                  -0.242
REMARK UNBOUND:                -0.309
REMARK SMILES CCCC[C@H]1OC(=O)C2=C1CCC=C2
REMARK SMILES IDX 3 1 2 2 1 3 4 4 5 5 10 6 6 7 9 8 11 9 7 10 14 11 12 12 8 13
REMARK SMILES IDX 13 14
REMARK H PARENT
REMARK Flexibility Score: inf
ROOT
ATOM      1  C   UNL     1      -8.232  -4.500   6.091  1.00  0.00     0.004 C 
ENDROOT
BRANCH   1   2
ATOM      2  C   UNL     1      -6.846  -4.873   6.646  1.00  0.00    -0.003 C 
ATOM      3  C   UNL     1      -6.908  -5.464   8.055  1.00  0.00     0.004 C 
ENDBRANCH   1   2
BRANCH   1   4
ATOM      4  C   UNL     1      -8.959  -5.630   5.327  1.00  0.00     0.050 C 
BRANCH   4   5
ATOM      5  C   UNL     1      -8.048  -6.640   4.598  1.00  0.00     0.204 C 
ATOM      6  C   UNL     1      -8.609  -7.137   3.288  1.00  0.00    -0.015 C 
ATOM      7  O   UNL     1      -7.875  -7.842   5.357  1.00  0.00    -0.454 OA
ATOM      8  C   UNL     1      -8.738  -8.453   3.306  1.00  0.00     0.062 C 
ATOM      9  C   UNL     1      -9.026  -6.319   2.096  1.00  0.00     0.040 C 
ATOM     10  C   UNL     1      -8.289  -8.920   4.593  1.00  0.00     0.338 C 
ATOM     11  C   UNL     1      -9.246  -9.215   2.159  1.00  0.00     0.011 C 
ATOM     12  C   UNL     1      -8.945  -7.156   0.798  1.00  0.00     0.032 C 
ATOM     13  O   UNL     1      -8.265 -10.117   4.981  1.00  0.00    -0.246 OA
ATOM     14  C   UNL     1      -9.417  -8.584   0.990  1.00  0.00    -0.026 C 
ENDBRANCH   4   5
ENDBRANCH   1   4
TORSDOF 3
ENDMDL
MODEL 4
REMARK VINA RESULT:    -5.180      2.528      5.386
REMARK INTER + INTRA:          -6.397
REMARK INTER:                  -5.919
REMARK INTRA:                  -0.478
REMARK UNBOUND:                -0.309
REMARK SMILES CCCC[C@H]1OC(=O)C2=C1CCC=C2
REMARK SMILES IDX 3 1 2 2 1 3 4 4 5 5 10 6 6 7 9 8 11 9 7 10 14 11 12 12 8 13
REMARK SMILES IDX 13 14
REMARK H PARENT
REMARK Flexibility Score: inf
ROOT
ATOM      1  C   UNL     1     -10.208  -7.646   2.030  1.00  0.00     0.004 C 
ENDROOT
BRANCH   1   2
ATOM      2  C   UNL     1      -8.723  -7.752   1.642  1.00  0.00    -0.003 C 
ATOM      3  C   UNL     1      -8.032  -8.970   2.257  1.00  0.00     0.004 C 
ENDBRANCH   1   2
BRANCH   1   4
ATOM      4  C   UNL     1     -10.499  -6.787   3.281  1.00  0.00     0.050 C 
BRANCH   4   5
ATOM      5  C   UNL     1      -9.524  -5.618   3.534  1.00  0.00     0.204 C 
ATOM      6  C   UNL     1      -8.763  -5.725   4.833  1.00  0.00    -0.015 C 
ATOM      7  O   UNL     1     -10.214  -4.370   3.660  1.00  0.00    -0.454 OA
ATOM      8  C   UNL     1      -8.995  -4.671   5.597  1.00  0.00     0.062 C 
ATOM      9  C   UNL     1      -7.877  -6.852   5.291  1.00  0.00     0.040 C 
ATOM     10  C   UNL     1      -9.905  -3.807   4.887  1.00  0.00     0.338 C 
ATOM     11  C   UNL     1      -8.375  -4.495   6.915  1.00  0.00     0.011 C 
ATOM     12  C   UNL     1      -6.832  -6.350   6.314  1.00  0.00     0.032 C 
ATOM     13  O   UNL     1     -10.358  -2.708   5.299  1.00  0.00    -0.246 OA
ATOM     14  C   UNL     1      -7.402  -5.337   7.288  1.00  0.00    -0.026 C 
ENDBRANCH   4   5
ENDBRANCH   1   4
TORSDOF 3
ENDMDL
MODEL 5
REMARK VINA RESULT:    -5.173      2.266      3.446
REMARK INTER + INTRA:          -6.389
REMARK INTER:                  -6.008
REMARK INTRA:                  -0.381
REMARK UNBOUND:                -0.309
REMARK SMILES CCCC[C@H]1OC(=O)C2=C1CCC=C2
REMARK SMILES IDX 3 1 2 2 1 3 4 4 5 5 10 6 6 7 9 8 11 9 7 10 14 11 12 12 8 13
REMARK SMILES IDX 13 14
REMARK H PARENT
REMARK Flexibility Score: inf
ROOT
ATOM      1  C   UNL     1      -8.170  -4.810   7.512  1.00  0.00     0.004 C 
ENDROOT
BRANCH   1   2
ATOM      2  C   UNL     1      -6.906  -5.438   8.123  1.00  0.00    -0.003 C 
ATOM      3  C   UNL     1      -7.203  -6.689   8.951  1.00  0.00     0.004 C 
ENDBRANCH   1   2
BRANCH   1   4
ATOM      4  C   UNL     1      -8.140  -4.639   5.976  1.00  0.00     0.050 C 
BRANCH   4   5
ATOM      5  C   UNL     1      -9.199  -5.441   5.191  1.00  0.00     0.204 C 
ATOM      6  C   UNL     1      -8.643  -6.637   4.458  1.00  0.00    -0.015 C 
ATOM      7  O   UNL     1      -9.788  -4.661   4.145  1.00  0.00    -0.454 OA
ATOM      8  C   UNL     1      -8.885  -6.543   3.161  1.00  0.00     0.062 C 
ATOM      9  C   UNL     1      -7.874  -7.796   5.036  1.00  0.00     0.040 C 
ATOM     10  C   UNL     1      -9.599  -5.312   2.938  1.00  0.00     0.338 C 
ATOM     11  C   UNL     1      -8.472  -7.573   2.201  1.00  0.00     0.011 C 
ATOM     12  C   UNL     1      -8.025  -9.053   4.149  1.00  0.00     0.032 C 
ATOM     13  O   UNL     1      -9.999  -4.878   1.826  1.00  0.00    -0.246 OA
ATOM     14  C   UNL     1      -7.993  -8.734   2.666  1.00  0.00    -0.026 C 
ENDBRANCH   4   5
ENDBRANCH   1   4
TORSDOF 3
ENDMDL
MODEL 6
REMARK VINA RESULT:    -5.027      1.973      5.212
REMARK INTER + INTRA:          -6.217
REMARK INTER:                  -5.907
REMARK INTRA:                  -0.310
REMARK UNBOUND:                -0.309
REMARK SMILES CCCC[C@H]1OC(=O)C2=C1CCC=C2
REMARK SMILES IDX 3 1 2 2 1 3 4 4 5 5 10 6 6 7 9 8 11 9 7 10 14 11 12 12 8 13
REMARK SMILES IDX 13 14
REMARK H PARENT
REMARK Flexibility Score: inf
ROOT
ATOM      1  C   UNL     1      -9.239  -6.448   1.429  1.00  0.00     0.004 C 
ENDROOT
BRANCH   1   2
ATOM      2  C   UNL     1      -9.878  -7.175   0.233  1.00  0.00    -0.003 C 
ATOM      3  C   UNL     1      -9.826  -8.697   0.364  1.00  0.00     0.004 C 
ENDBRANCH   1   2
BRANCH   1   4
ATOM      4  C   UNL     1     -10.220  -6.058   2.559  1.00  0.00     0.050 C 
BRANCH   4   5
ATOM      5  C   UNL     1      -9.989  -6.754   3.916  1.00  0.00     0.204 C 
ATOM      6  C   UNL     1      -9.012  -6.038   4.815  1.00  0.00    -0.015 C 
ATOM      7  O   UNL     1      -9.398  -8.048   3.754  1.00  0.00    -0.454 OA
ATOM      8  C   UNL     1      -7.995  -6.826   5.121  1.00  0.00     0.062 C 
ATOM      9  C   UNL     1      -9.085  -4.617   5.308  1.00  0.00     0.040 C 
ATOM     10  C   UNL     1      -8.211  -8.092   4.466  1.00  0.00     0.338 C 
ATOM     11  C   UNL     1      -6.897  -6.400   5.996  1.00  0.00     0.011 C 
ATOM     12  C   UNL     1      -8.306  -4.454   6.634  1.00  0.00     0.032 C 
ATOM     13  O   UNL     1      -7.452  -9.094   4.521  1.00  0.00    -0.246 OA
ATOM     14  C   UNL     1      -7.009  -5.239   6.654  1.00  0.00    -0.026 C 
ENDBRANCH   4   5
ENDBRANCH   1   4
TORSDOF 3
ENDMDL
MODEL 7
REMARK VINA RESULT:    -5.011      1.993      4.825
REMARK INTER + INTRA:          -6.198
REMARK INTER:                  -5.912
REMARK INTRA:                  -0.286
REMARK UNBOUND:                -0.309
REMARK SMILES CCCC[C@H]1OC(=O)C2=C1CCC=C2
REMARK SMILES IDX 3 1 2 2 1 3 4 4 5 5 10 6 6 7 9 8 11 9 7 10 14 11 12 12 8 13
REMARK SMILES IDX 13 14
REMARK H PARENT
REMARK Flexibility Score: inf
ROOT
ATOM      1  C   UNL     1      -8.344  -8.915   2.062  1.00  0.00     0.004 C 
ENDROOT
BRANCH   1   2
ATOM      2  C   UNL     1      -9.565  -8.962   1.127  1.00  0.00    -0.003 C 
ATOM      3  C   UNL     1      -9.787  -7.650   0.372  1.00  0.00     0.004 C 
ENDBRANCH   1   2
BRANCH   1   4
ATOM      4  C   UNL     1      -8.086  -7.548   2.735  1.00  0.00     0.050 C 
BRANCH   4   5
ATOM      5  C   UNL     1      -8.731  -7.350   4.122  1.00  0.00     0.204 C 
ATOM      6  C   UNL     1      -8.944  -5.904   4.499  1.00  0.00    -0.015 C 
ATOM      7  O   UNL     1      -7.892  -7.842   5.173  1.00  0.00    -0.454 OA
ATOM      8  C   UNL     1      -8.304  -5.616   5.620  1.00  0.00     0.062 C 
ATOM      9  C   UNL     1      -9.724  -4.861   3.745  1.00  0.00     0.040 C 
ATOM     10  C   UNL     1      -7.634  -6.812   6.061  1.00  0.00     0.338 C 
ATOM     11  C   UNL     1      -8.345  -4.284   6.235  1.00  0.00     0.011 C 
ATOM     12  C   UNL     1     -10.225  -3.751   4.698  1.00  0.00     0.032 C 
ATOM     13  O   UNL     1      -6.920  -6.925   7.092  1.00  0.00    -0.246 OA
ATOM     14  C   UNL     1      -9.200  -3.375   5.750  1.00  0.00    -0.026 C 
ENDBRANCH   4   5
ENDBRANCH   1   4
TORSDOF 3
ENDMDL
MODEL 8
REMARK VINA RESULT:    -4.790      1.956      3.793
REMARK INTER + INTRA:          -5.939
REMARK INTER:                  -5.747
REMARK INTRA:                  -0.192
REMARK UNBOUND:                -0.309
REMARK SMILES CCCC[C@H]1OC(=O)C2=C1CCC=C2
REMARK SMILES IDX 3 1 2 2 1 3 4 4 5 5 10 6 6 7 9 8 11 9 7 10 14 11 12 12 8 13
REMARK SMILES IDX 13 14
REMARK H PARENT
REMARK Flexibility Score: inf
ROOT
ATOM      1  C   UNL     1     -10.088  -2.325   5.631  1.00  0.00     0.004 C 
ENDROOT
BRANCH   1   2
ATOM      2  C   UNL     1     -10.703  -1.131   6.382  1.00  0.00    -0.003 C 
ATOM      3  C   UNL     1      -9.805   0.106   6.370  1.00  0.00     0.004 C 
ENDBRANCH   1   2
BRANCH   1   4
ATOM      4  C   UNL     1      -9.542  -3.456   6.533  1.00  0.00     0.050 C 
BRANCH   4   5
ATOM      5  C   UNL     1      -8.253  -4.145   6.037  1.00  0.00     0.204 C 
ATOM      6  C   UNL     1      -8.500  -5.376   5.200  1.00  0.00    -0.015 C 
ATOM      7  O   UNL     1      -7.466  -4.641   7.125  1.00  0.00    -0.454 OA
ATOM      8  C   UNL     1      -7.926  -6.434   5.747  1.00  0.00     0.062 C 
ATOM      9  C   UNL     1      -9.305  -5.481   3.933  1.00  0.00     0.040 C 
ATOM     10  C   UNL     1      -7.273  -6.002   6.956  1.00  0.00     0.338 C 
ATOM     11  C   UNL     1      -7.986  -7.770   5.141  1.00  0.00     0.011 C 
ATOM     12  C   UNL     1      -8.827  -6.675   3.074  1.00  0.00     0.032 C 
ATOM     13  O   UNL     1      -6.623  -6.731   7.750  1.00  0.00    -0.246 OA
ATOM     14  C   UNL     1      -8.483  -7.896   3.904  1.00  0.00    -0.026 C 
ENDBRANCH   4   5
ENDBRANCH   1   4
TORSDOF 3
ENDMDL
