MODEL 1
REMARK VINA RESULT:    -3.021      0.000      0.000
REMARK INTER + INTRA:          -6.421
REMARK INTER:                  -5.139
REMARK INTRA:                  -1.282
REMARK UNBOUND:                -1.282
REMARK SMILES CCCCCCCCCCCCCC(=O)[O-]
REMARK SMILES IDX 8 1 9 2 10 3 11 4 12 5 13 6 14 7 15 8 16 9 7 10 6 11 5 12
REMARK SMILES IDX 4 13 3 14 2 15 1 16
REMARK H PARENT
REMARK Flexibility Score: inf
ROOT
ATOM      1  C   UNL     1       9.075  -2.863  -1.449  1.00  0.00     0.000 C 
ENDROOT
BRANCH   1   2
ATOM      2  C   UNL     1       9.018  -3.330   0.022  1.00  0.00     0.000 C 
BRANCH   2   3
ATOM      3  C   UNL     1       9.091  -2.147   1.005  1.00  0.00     0.000 C 
BRANCH   3   4
ATOM      4  C   UNL     1       8.938  -0.788   0.304  1.00  0.00     0.000 C 
BRANCH   4   5
ATOM      5  C   UNL     1       9.692   0.338   1.033  1.00  0.00     0.006 C 
BRANCH   5   6
ATOM      6  C   UNL     1       8.739   1.400   1.598  1.00  0.00     0.053 C 
BRANCH   6   7
ATOM      7  C   UNL     1       8.269   1.047   2.976  1.00  0.00     0.041 C 
ATOM      8  O   UNL     1       8.925   0.237   3.681  1.00  0.00    -0.550 OA
ATOM      9  O   UNL     1       7.087   1.585   3.468  1.00  0.00    -0.550 OA
ENDBRANCH   6   7
ENDBRANCH   5   6
ENDBRANCH   4   5
ENDBRANCH   3   4
ENDBRANCH   2   3
ENDBRANCH   1   2
BRANCH   1  10
ATOM     10  C   UNL     1       8.190  -3.693  -2.395  1.00  0.00     0.000 C 
BRANCH  10  11
ATOM     11  C   UNL     1       7.335  -2.821  -3.328  1.00  0.00    -0.000 C 
BRANCH  11  12
ATOM     12  C   UNL     1       7.345  -1.331  -2.937  1.00  0.00    -0.000 C 
BRANCH  12  13
ATOM     13  C   UNL     1       6.546  -0.399  -3.866  1.00  0.00    -0.000 C 
BRANCH  13  14
ATOM     14  C   UNL     1       6.469   1.047  -3.346  1.00  0.00    -0.000 C 
BRANCH  14  15
ATOM     15  C   UNL     1       7.572   1.365  -2.324  1.00  0.00    -0.003 C 
ATOM     16  C   UNL     1       7.391   2.731  -1.661  1.00  0.00     0.004 C 
ENDBRANCH  14  15
ENDBRANCH  13  14
ENDBRANCH  12  13
ENDBRANCH  11  12
ENDBRANCH  10  11
ENDBRANCH   1  10
TORSDOF 12
ENDMDL
MODEL 2
REMARK VINA RESULT:    -2.998      1.837      4.374
REMARK INTER + INTRA:          -6.383
REMARK INTER:                  -5.242
REMARK INTRA:                  -1.142
REMARK UNBOUND:                -1.282
REMARK SMILES CCCCCCCCCCCCCC(=O)[O-]
REMARK SMILES IDX 8 1 9 2 10 3 11 4 12 5 13 6 14 7 15 8 16 9 7 10 6 11 5 12
REMARK SMILES IDX 4 13 3 14 2 15 1 16
REMARK H PARENT
REMARK Flexibility Score: inf
ROOT
ATOM      1  C   UNL     1       8.000  -1.531  -1.701  1.00  0.00     0.000 C 
ENDROOT
BRANCH   1   2
ATOM      2  C   UNL     1       7.377  -0.864  -2.947  1.00  0.00     0.000 C 
BRANCH   2   3
ATOM      3  C   UNL     1       7.127   0.640  -2.731  1.00  0.00     0.000 C 
BRANCH   3   4
ATOM      4  C   UNL     1       7.862   1.188  -1.497  1.00  0.00     0.000 C 
BRANCH   4   5
ATOM      5  C   UNL     1       7.774   2.721  -1.393  1.00  0.00     0.006 C 
BRANCH   5   6
ATOM      6  C   UNL     1       8.151   3.228   0.005  1.00  0.00     0.053 C 
BRANCH   6   7
ATOM      7  C   UNL     1       6.985   3.864   0.698  1.00  0.00     0.041 C 
ATOM      8  O   UNL     1       6.805   3.684   1.931  1.00  0.00    -0.550 OA
ATOM      9  O   UNL     1       6.077   4.626  -0.025  1.00  0.00    -0.550 OA
ENDBRANCH   6   7
ENDBRANCH   5   6
ENDBRANCH   4   5
ENDBRANCH   3   4
ENDBRANCH   2   3
ENDBRANCH   1   2
BRANCH   1  10
ATOM     10  C   UNL     1       8.966  -2.681  -2.034  1.00  0.00     0.000 C 
BRANCH  10  11
ATOM     11  C   UNL     1       8.787  -3.896  -1.109  1.00  0.00    -0.000 C 
BRANCH  11  12
ATOM     12  C   UNL     1       9.532  -3.748   0.230  1.00  0.00    -0.000 C 
BRANCH  12  13
ATOM     13  C   UNL     1       8.636  -3.564   1.468  1.00  0.00    -0.000 C 
BRANCH  13  14
ATOM     14  C   UNL     1       9.112  -2.431   2.393  1.00  0.00    -0.000 C 
BRANCH  14  15
ATOM     15  C   UNL     1       9.469  -1.151   1.621  1.00  0.00    -0.003 C 
ATOM     16  C   UNL     1       8.640   0.057   2.058  1.00  0.00     0.004 C 
ENDBRANCH  14  15
ENDBRANCH  13  14
ENDBRANCH  12  13
ENDBRANCH  11  12
ENDBRANCH  10  11
ENDBRANCH   1  10
TORSDOF 12
ENDMDL
MODEL 3
REMARK VINA RESULT:    -2.997      1.815      2.944
REMARK INTER + INTRA:          -6.381
REMARK INTER:                  -5.165
REMARK INTRA:                  -1.216
REMARK UNBOUND:                -1.282
REMARK SMILES CCCCCCCCCCCCCC(=O)[O-]
REMARK SMILES IDX 8 1 9 2 10 3 11 4 12 5 13 6 14 7 15 8 16 9 7 10 6 11 5 12
REMARK SMILES IDX 4 13 3 14 2 15 1 16
REMARK H PARENT
REMARK Flexibility Score: inf
ROOT
ATOM      1  C   UNL     1       8.700  -1.601   1.603  1.00  0.00     0.000 C 
ENDROOT
BRANCH   1   2
ATOM      2  C   UNL     1       9.468  -0.802   2.679  1.00  0.00     0.000 C 
BRANCH   2   3
ATOM      3  C   UNL     1       9.224   0.713   2.554  1.00  0.00     0.000 C 
BRANCH   3   4
ATOM      4  C   UNL     1       9.727   1.283   1.218  1.00  0.00     0.000 C 
BRANCH   4   5
ATOM      5  C   UNL     1       8.596   1.910   0.383  1.00  0.00     0.006 C 
BRANCH   5   6
ATOM      6  C   UNL     1       8.500   3.427   0.587  1.00  0.00     0.053 C 
BRANCH   6   7
ATOM      7  C   UNL     1       7.144   3.836   1.076  1.00  0.00     0.041 C 
ATOM      8  O   UNL     1       6.306   4.333   0.278  1.00  0.00    -0.550 OA
ATOM      9  O   UNL     1       6.817   3.701   2.419  1.00  0.00    -0.550 OA
ENDBRANCH   6   7
ENDBRANCH   5   6
ENDBRANCH   4   5
ENDBRANCH   3   4
ENDBRANCH   2   3
ENDBRANCH   1   2
BRANCH   1  10
ATOM     10  C   UNL     1       9.614  -2.304   0.585  1.00  0.00     0.000 C 
BRANCH  10  11
ATOM     11  C   UNL     1       8.880  -2.688  -0.710  1.00  0.00    -0.000 C 
BRANCH  11  12
ATOM     12  C   UNL     1       8.443  -1.466  -1.539  1.00  0.00    -0.000 C 
BRANCH  12  13
ATOM     13  C   UNL     1       7.470  -1.764  -2.694  1.00  0.00    -0.000 C 
BRANCH  13  14
ATOM     14  C   UNL     1       6.933  -0.493  -3.373  1.00  0.00    -0.000 C 
BRANCH  14  15
ATOM     15  C   UNL     1       7.676   0.775  -2.921  1.00  0.00    -0.003 C 
ATOM     16  C   UNL     1       6.744   1.973  -2.734  1.00  0.00     0.004 C 
ENDBRANCH  14  15
ENDBRANCH  13  14
ENDBRANCH  12  13
ENDBRANCH  11  12
ENDBRANCH  10  11
ENDBRANCH   1  10
TORSDOF 12
ENDMDL
MODEL 4
REMARK VINA RESULT:    -2.934      2.609      4.830
REMARK INTER + INTRA:          -6.274
REMARK INTER:                  -4.912
REMARK INTRA:                  -1.362
REMARK UNBOUND:                -1.282
REMARK SMILES CCCCCCCCCCCCCC(=O)[O-]
REMARK SMILES IDX 8 1 9 2 10 3 11 4 12 5 13 6 14 7 15 8 16 9 7 10 6 11 5 12
REMARK SMILES IDX 4 13 3 14 2 15 1 16
REMARK H PARENT
REMARK Flexibility Score: inf
ROOT
ATOM      1  C   UNL     1       8.358  -1.968  -2.734  1.00  0.00     0.000 C 
ENDROOT
BRANCH   1   2
ATOM      2  C   UNL     1       7.856  -3.420  -2.579  1.00  0.00     0.000 C 
BRANCH   2   3
ATOM      3  C   UNL     1       8.710  -4.221  -1.579  1.00  0.00     0.000 C 
BRANCH   3   4
ATOM      4  C   UNL     1       9.337  -3.330  -0.494  1.00  0.00     0.000 C 
BRANCH   4   5
ATOM      5  C   UNL     1       9.970  -4.149   0.645  1.00  0.00     0.006 C 
BRANCH   5   6
ATOM      6  C   UNL     1       9.364  -5.555   0.753  1.00  0.00     0.053 C 
BRANCH   6   7
ATOM      7  C   UNL     1       8.431  -5.668   1.920  1.00  0.00     0.041 C 
ATOM      8  O   UNL     1       8.233  -6.785   2.466  1.00  0.00    -0.550 OA
ATOM      9  O   UNL     1       7.754  -4.548   2.381  1.00  0.00    -0.550 OA
ENDBRANCH   6   7
ENDBRANCH   5   6
ENDBRANCH   4   5
ENDBRANCH   3   4
ENDBRANCH   2   3
ENDBRANCH   1   2
BRANCH   1  10
ATOM     10  C   UNL     1       7.228  -0.942  -2.934  1.00  0.00     0.000 C 
BRANCH  10  11
ATOM     11  C   UNL     1       7.467   0.365  -2.162  1.00  0.00    -0.000 C 
BRANCH  11  12
ATOM     12  C   UNL     1       8.841   0.412  -1.467  1.00  0.00    -0.000 C 
BRANCH  12  13
ATOM     13  C   UNL     1       8.813   0.768   0.030  1.00  0.00    -0.000 C 
BRANCH  13  14
ATOM     14  C   UNL     1      10.186   0.627   0.709  1.00  0.00    -0.000 C 
BRANCH  14  15
ATOM     15  C   UNL     1      10.202  -0.472   1.783  1.00  0.00    -0.003 C 
ATOM     16  C   UNL     1       8.799  -0.906   2.209  1.00  0.00     0.004 C 
ENDBRANCH  14  15
ENDBRANCH  13  14
ENDBRANCH  12  13
ENDBRANCH  11  12
ENDBRANCH  10  11
ENDBRANCH   1  10
TORSDOF 12
ENDMDL
MODEL 5
REMARK VINA RESULT:    -2.932      2.156      4.614
REMARK INTER + INTRA:          -6.271
REMARK INTER:                  -5.707
REMARK INTRA:                  -0.564
REMARK UNBOUND:                -1.282
REMARK SMILES CCCCCCCCCCCCCC(=O)[O-]
REMARK SMILES IDX 8 1 9 2 10 3 11 4 12 5 13 6 14 7 15 8 16 9 7 10 6 11 5 12
REMARK SMILES IDX 4 13 3 14 2 15 1 16
REMARK H PARENT
REMARK Flexibility Score: inf
ROOT
ATOM      1  C   UNL     1       6.843  -0.167  -3.239  1.00  0.00     0.000 C 
ENDROOT
BRANCH   1   2
ATOM      2  C   UNL     1       7.655   0.321  -2.020  1.00  0.00     0.000 C 
BRANCH   2   3
ATOM      3  C   UNL     1       7.630   1.855  -1.888  1.00  0.00     0.000 C 
BRANCH   3   4
ATOM      4  C   UNL     1       8.632   2.373  -0.844  1.00  0.00     0.000 C 
BRANCH   4   5
ATOM      5  C   UNL     1       8.639   1.520   0.438  1.00  0.00     0.006 C 
BRANCH   5   6
ATOM      6  C   UNL     1       8.876   2.368   1.695  1.00  0.00     0.053 C 
BRANCH   6   7
ATOM      7  C   UNL     1       7.590   2.708   2.385  1.00  0.00     0.041 C 
ATOM      8  O   UNL     1       7.223   2.057   3.397  1.00  0.00    -0.550 OA
ATOM      9  O   UNL     1       6.780   3.721   1.888  1.00  0.00    -0.550 OA
ENDBRANCH   6   7
ENDBRANCH   5   6
ENDBRANCH   4   5
ENDBRANCH   3   4
ENDBRANCH   2   3
ENDBRANCH   1   2
BRANCH   1  10
ATOM     10  C   UNL     1       7.121  -1.632  -3.619  1.00  0.00     0.000 C 
BRANCH  10  11
ATOM     11  C   UNL     1       7.852  -2.407  -2.510  1.00  0.00    -0.000 C 
BRANCH  11  12
ATOM     12  C   UNL     1       7.892  -3.925  -2.762  1.00  0.00    -0.000 C 
BRANCH  12  13
ATOM     13  C   UNL     1       7.022  -4.424  -3.930  1.00  0.00    -0.000 C 
BRANCH  13  14
ATOM     14  C   UNL     1       6.446  -5.831  -3.694  1.00  0.00    -0.000 C 
BRANCH  14  15
ATOM     15  C   UNL     1       5.036  -5.997  -4.282  1.00  0.00    -0.003 C 
ATOM     16  C   UNL     1       4.088  -6.749  -3.347  1.00  0.00     0.004 C 
ENDBRANCH  14  15
ENDBRANCH  13  14
ENDBRANCH  12  13
ENDBRANCH  11  12
ENDBRANCH  10  11
ENDBRANCH   1  10
TORSDOF 12
ENDMDL
MODEL 6
REMARK VINA RESULT:    -2.895      1.916      2.829
REMARK INTER + INTRA:          -6.208
REMARK INTER:                  -5.285
REMARK INTRA:                  -0.922
REMARK UNBOUND:                -1.282
REMARK SMILES CCCCCCCCCCCCCC(=O)[O-]
REMARK SMILES IDX 8 1 9 2 10 3 11 4 12 5 13 6 14 7 15 8 16 9 7 10 6 11 5 12
REMARK SMILES IDX 4 13 3 14 2 15 1 16
REMARK H PARENT
REMARK Flexibility Score: inf
ROOT
ATOM      1  C   UNL     1       9.307  -1.409   0.423  1.00  0.00     0.000 C 
ENDROOT
BRANCH   1   2
ATOM      2  C   UNL     1       8.725  -1.489   1.851  1.00  0.00     0.000 C 
BRANCH   2   3
ATOM      3  C   UNL     1       8.875  -0.159   2.611  1.00  0.00     0.000 C 
BRANCH   3   4
ATOM      4  C   UNL     1       9.450   0.961   1.728  1.00  0.00     0.000 C 
BRANCH   4   5
ATOM      5  C   UNL     1       8.406   2.043   1.397  1.00  0.00     0.006 C 
BRANCH   5   6
ATOM      6  C   UNL     1       7.542   2.404   2.612  1.00  0.00     0.053 C 
BRANCH   6   7
ATOM      7  C   UNL     1       7.652   3.858   2.958  1.00  0.00     0.041 C 
ATOM      8  O   UNL     1       6.881   4.365   3.814  1.00  0.00    -0.550 OA
ATOM      9  O   UNL     1       8.581   4.660   2.308  1.00  0.00    -0.550 OA
ENDBRANCH   6   7
ENDBRANCH   5   6
ENDBRANCH   4   5
ENDBRANCH   3   4
ENDBRANCH   2   3
ENDBRANCH   1   2
BRANCH   1  10
ATOM     10  C   UNL     1       8.858  -2.561  -0.492  1.00  0.00     0.000 C 
BRANCH  10  11
ATOM     11  C   UNL     1       8.267  -2.068  -1.823  1.00  0.00    -0.000 C 
BRANCH  11  12
ATOM     12  C   UNL     1       7.964  -0.558  -1.825  1.00  0.00    -0.000 C 
BRANCH  12  13
ATOM     13  C   UNL     1       7.099  -0.058  -2.997  1.00  0.00    -0.000 C 
BRANCH  13  14
ATOM     14  C   UNL     1       6.727  -1.173  -3.989  1.00  0.00    -0.000 C 
BRANCH  14  15
ATOM     15  C   UNL     1       5.425  -0.875  -4.749  1.00  0.00    -0.003 C 
ATOM     16  C   UNL     1       5.085   0.615  -4.781  1.00  0.00     0.004 C 
ENDBRANCH  14  15
ENDBRANCH  13  14
ENDBRANCH  12  13
ENDBRANCH  11  12
ENDBRANCH  10  11
ENDBRANCH   1  10
TORSDOF 12
ENDMDL
MODEL 7
REMARK VINA RESULT:    -2.851      3.281      4.524
REMARK INTER + INTRA:          -6.133
REMARK INTER:                  -5.098
REMARK INTRA:                  -1.035
REMARK UNBOUND:                -1.282
REMARK SMILES CCCCCCCCCCCCCC(=O)[O-]
REMARK SMILES IDX 8 1 9 2 10 3 11 4 12 5 13 6 14 7 15 8 16 9 7 10 6 11 5 12
REMARK SMILES IDX 4 13 3 14 2 15 1 16
REMARK H PARENT
REMARK Flexibility Score: inf
ROOT
ATOM      1  C   UNL     1       9.722  -2.935  -0.385  1.00  0.00     0.000 C 
ENDROOT
BRANCH   1   2
ATOM      2  C   UNL     1       9.230  -1.745   0.467  1.00  0.00     0.000 C 
BRANCH   2   3
ATOM      3  C   UNL     1       8.622  -2.206   1.804  1.00  0.00     0.000 C 
BRANCH   3   4
ATOM      4  C   UNL     1       9.259  -3.505   2.323  1.00  0.00     0.000 C 
BRANCH   4   5
ATOM      5  C   UNL     1       8.223  -4.624   2.532  1.00  0.00     0.006 C 
BRANCH   5   6
ATOM      6  C   UNL     1       8.539  -5.868   1.691  1.00  0.00     0.053 C 
BRANCH   6   7
ATOM      7  C   UNL     1       8.956  -7.025   2.547  1.00  0.00     0.041 C 
ATOM      8  O   UNL     1       8.222  -8.044   2.636  1.00  0.00    -0.550 OA
ATOM      9  O   UNL     1      10.137  -6.964   3.273  1.00  0.00    -0.550 OA
ENDBRANCH   6   7
ENDBRANCH   5   6
ENDBRANCH   4   5
ENDBRANCH   3   4
ENDBRANCH   2   3
ENDBRANCH   1   2
BRANCH   1  10
ATOM     10  C   UNL     1       8.657  -3.487  -1.349  1.00  0.00     0.000 C 
BRANCH  10  11
ATOM     11  C   UNL     1       8.697  -2.812  -2.730  1.00  0.00    -0.000 C 
BRANCH  11  12
ATOM     12  C   UNL     1       7.296  -2.567  -3.320  1.00  0.00    -0.000 C 
BRANCH  12  13
ATOM     13  C   UNL     1       6.870  -1.091  -3.422  1.00  0.00    -0.000 C 
BRANCH  13  14
ATOM     14  C   UNL     1       7.722  -0.157  -2.545  1.00  0.00    -0.000 C 
BRANCH  14  15
ATOM     15  C   UNL     1       7.177   1.280  -2.512  1.00  0.00    -0.003 C 
ATOM     16  C   UNL     1       7.830   2.137  -1.428  1.00  0.00     0.004 C 
ENDBRANCH  14  15
ENDBRANCH  13  14
ENDBRANCH  12  13
ENDBRANCH  11  12
ENDBRANCH  10  11
ENDBRANCH   1  10
TORSDOF 12
ENDMDL
MODEL 8
REMARK VINA RESULT:    -2.802      2.558      3.979
REMARK INTER + INTRA:          -6.049
REMARK INTER:                  -4.292
REMARK INTRA:                  -1.757
REMARK UNBOUND:                -1.282
REMARK SMILES CCCCCCCCCCCCCC(=O)[O-]
REMARK SMILES IDX 8 1 9 2 10 3 11 4 12 5 13 6 14 7 15 8 16 9 7 10 6 11 5 12
REMARK SMILES IDX 4 13 3 14 2 15 1 16
REMARK H PARENT
REMARK Flexibility Score: inf
ROOT
ATOM      1  C   UNL     1       7.897  -2.268  -3.821  1.00  0.00     0.000 C 
ENDROOT
BRANCH   1   2
ATOM      2  C   UNL     1       7.806  -3.534  -2.941  1.00  0.00     0.000 C 
BRANCH   2   3
ATOM      3  C   UNL     1       9.141  -3.848  -2.242  1.00  0.00     0.000 C 
BRANCH   3   4
ATOM      4  C   UNL     1       8.966  -4.138  -0.743  1.00  0.00     0.000 C 
BRANCH   4   5
ATOM      5  C   UNL     1       9.639  -3.075   0.144  1.00  0.00     0.006 C 
BRANCH   5   6
ATOM      6  C   UNL     1       8.778  -2.705   1.359  1.00  0.00     0.053 C 
BRANCH   6   7
ATOM      7  C   UNL     1       8.792  -3.784   2.398  1.00  0.00     0.041 C 
ATOM      8  O   UNL     1       9.750  -3.867   3.212  1.00  0.00    -0.550 OA
ATOM      9  O   UNL     1       7.767  -4.719   2.446  1.00  0.00    -0.550 OA
ENDBRANCH   6   7
ENDBRANCH   5   6
ENDBRANCH   4   5
ENDBRANCH   3   4
ENDBRANCH   2   3
ENDBRANCH   1   2
BRANCH   1  10
ATOM     10  C   UNL     1       6.766  -1.257  -3.566  1.00  0.00     0.000 C 
BRANCH  10  11
ATOM     11  C   UNL     1       7.250   0.006  -2.835  1.00  0.00    -0.000 C 
BRANCH  11  12
ATOM     12  C   UNL     1       8.022  -0.306  -1.541  1.00  0.00    -0.000 C 
BRANCH  12  13
ATOM     13  C   UNL     1       8.977   0.800  -1.057  1.00  0.00    -0.000 C 
BRANCH  13  14
ATOM     14  C   UNL     1      10.256   0.906  -1.905  1.00  0.00    -0.000 C 
BRANCH  14  15
ATOM     15  C   UNL     1      10.907  -0.463  -2.161  1.00  0.00    -0.003 C 
ATOM     16  C   UNL     1      11.217  -0.705  -3.639  1.00  0.00     0.004 C 
ENDBRANCH  14  15
ENDBRANCH  13  14
ENDBRANCH  12  13
ENDBRANCH  11  12
ENDBRANCH  10  11
ENDBRANCH   1  10
TORSDOF 12
ENDMDL
MODEL 9
REMARK VINA RESULT:    -2.776      4.310      7.133
REMARK INTER + INTRA:          -6.006
REMARK INTER:                  -4.990
REMARK INTRA:                  -1.016
REMARK UNBOUND:                -1.282
REMARK SMILES CCCCCCCCCCCCCC(=O)[O-]
REMARK SMILES IDX 8 1 9 2 10 3 11 4 12 5 13 6 14 7 15 8 16 9 7 10 6 11 5 12
REMARK SMILES IDX 4 13 3 14 2 15 1 16
REMARK H PARENT
REMARK Flexibility Score: inf
ROOT
ATOM      1  C   UNL     1       7.976  -1.334  -2.188  1.00  0.00     0.000 C 
ENDROOT
BRANCH   1   2
ATOM      2  C   UNL     1       7.231  -2.120  -3.288  1.00  0.00     0.000 C 
BRANCH   2   3
ATOM      3  C   UNL     1       7.545  -3.626  -3.232  1.00  0.00     0.000 C 
BRANCH   3   4
ATOM      4  C   UNL     1       6.864  -4.412  -4.364  1.00  0.00     0.000 C 
BRANCH   4   5
ATOM      5  C   UNL     1       5.732  -3.614  -5.036  1.00  0.00     0.006 C 
BRANCH   5   6
ATOM      6  C   UNL     1       4.435  -4.427  -5.141  1.00  0.00     0.053 C 
BRANCH   6   7
ATOM      7  C   UNL     1       3.238  -3.542  -5.306  1.00  0.00     0.041 C 
ATOM      8  O   UNL     1       3.362  -2.395  -5.810  1.00  0.00    -0.550 OA
ATOM      9  O   UNL     1       1.991  -3.969  -4.869  1.00  0.00    -0.550 OA
ENDBRANCH   6   7
ENDBRANCH   5   6
ENDBRANCH   4   5
ENDBRANCH   3   4
ENDBRANCH   2   3
ENDBRANCH   1   2
BRANCH   1  10
ATOM     10  C   UNL     1       7.613   0.161  -2.144  1.00  0.00     0.000 C 
BRANCH  10  11
ATOM     11  C   UNL     1       8.341   0.918  -1.021  1.00  0.00    -0.000 C 
BRANCH  11  12
ATOM     12  C   UNL     1       9.345   0.038  -0.254  1.00  0.00    -0.000 C 
BRANCH  12  13
ATOM     13  C   UNL     1       9.028  -0.182   1.236  1.00  0.00    -0.000 C 
BRANCH  13  14
ATOM     14  C   UNL     1       8.721  -1.650   1.577  1.00  0.00    -0.000 C 
BRANCH  14  15
ATOM     15  C   UNL     1       9.649  -2.632   0.843  1.00  0.00    -0.003 C 
ATOM     16  C   UNL     1       8.910  -3.857   0.305  1.00  0.00     0.004 C 
ENDBRANCH  14  15
ENDBRANCH  13  14
ENDBRANCH  12  13
ENDBRANCH  11  12
ENDBRANCH  10  11
ENDBRANCH   1  10
TORSDOF 12
ENDMDL
