MODEL 1
REMARK VINA RESULT:    -7.005      0.000      0.000
REMARK INTER + INTRA:         -10.548
REMARK INTER:                 -10.281
REMARK INTRA:                  -0.267
REMARK UNBOUND:                -0.267
REMARK SMILES O=c1c(O[C@@H]2O[C@@H](CO)[C@@H](O)[C@@H](O)[C@H]2O)c(-c2ccc(O)c(O)c2)oc2cc(O)cc(O)c12
REMARK SMILES IDX 4 1 3 2 16 3 25 4 2 5 26 6 1 7 33 8 27 9 31 10 28 11 30 12
REMARK SMILES IDX 17 13 18 14 19 15 20 16 24 17 22 18 21 19 23 21 32 23 29 25
REMARK SMILES IDX 5 27 14 28 6 29 12 30 7 31 10 32 15 33 13 35 8 37 9 38 11 40
REMARK H PARENT 21 20 23 22 32 24 29 26 15 34 13 36 9 39 11 41
REMARK Flexibility Score: inf
ROOT
ATOM      1  O   UNL     1      10.255  13.411 -16.318  1.00  0.00    -0.454 OA
ENDROOT
BRANCH   1   2
ATOM      2  C   UNL     1       9.908  13.643 -17.655  1.00  0.00     0.214 A 
ATOM      3  C   UNL     1       9.267  12.645 -18.390  1.00  0.00     0.180 A 
ATOM      4  O   UNL     1       8.850  12.893 -19.625  1.00  0.00    -0.452 OA
ATOM      5  C   UNL     1      10.131  14.883 -18.260  1.00  0.00     0.239 A 
ATOM      6  C   UNL     1       8.961  14.081 -20.206  1.00  0.00     0.146 A 
ATOM      7  O   UNL     1      10.871  15.715 -17.690  1.00  0.00    -0.285 OA
ATOM      8  C   UNL     1       9.542  15.172 -19.518  1.00  0.00     0.111 A 
ATOM      9  C   UNL     1       8.491  14.230 -21.511  1.00  0.00     0.094 A 
ATOM     10  C   UNL     1       9.430  16.474 -20.091  1.00  0.00     0.134 A 
ATOM     11  C   UNL     1       8.539  15.475 -22.129  1.00  0.00     0.123 A 
ATOM     12  C   UNL     1       8.926  16.603 -21.395  1.00  0.00     0.093 A 
BRANCH   3  13
ATOM     13  C   UNL     1       9.041  11.304 -17.820  1.00  0.00     0.025 A 
ATOM     14  C   UNL     1       7.769  10.695 -17.859  1.00  0.00     0.016 A 
ATOM     15  C   UNL     1       7.577   9.443 -17.255  1.00  0.00     0.051 A 
ATOM     16  C   UNL     1       8.656   8.791 -16.644  1.00  0.00     0.157 A 
ATOM     17  C   UNL     1      10.121  10.648 -17.217  1.00  0.00     0.062 A 
ATOM     18  C   UNL     1       9.926   9.400 -16.616  1.00  0.00     0.158 A 
BRANCH  16  19
ATOM     19  O   UNL     1       8.478   7.527 -16.072  1.00  0.00    -0.504 OA
ATOM     20  H   UNL     1       9.248   6.855 -15.962  1.00  0.00     0.293 HD
ENDBRANCH  16  19
BRANCH  18  21
ATOM     21  O   UNL     1      10.977   8.813 -15.917  1.00  0.00    -0.504 OA
ATOM     22  H   UNL     1      11.431   7.964 -16.244  1.00  0.00     0.293 HD
ENDBRANCH  18  21
ENDBRANCH   3  13
BRANCH  10  23
ATOM     23  O   UNL     1       9.758  17.670 -19.426  1.00  0.00    -0.507 OA
ATOM     24  H   UNL     1      10.336  17.760 -18.601  1.00  0.00     0.293 HD
ENDBRANCH  10  23
BRANCH  11  25
ATOM     25  O   UNL     1       8.189  15.602 -23.473  1.00  0.00    -0.508 OA
ATOM     26  H   UNL     1       7.550  16.350 -23.747  1.00  0.00     0.293 HD
ENDBRANCH  11  25
ENDBRANCH   1   2
BRANCH   1  27
ATOM     27  C   UNL     1       9.472  14.032 -15.301  1.00  0.00     0.339 C 
ATOM     28  C   UNL     1       8.240  14.751 -15.910  1.00  0.00     0.214 C 
ATOM     29  O   UNL     1       9.177  13.109 -14.255  1.00  0.00    -0.332 OA
ATOM     30  C   UNL     1       7.052  13.785 -16.124  1.00  0.00     0.180 C 
ATOM     31  C   UNL     1       8.197  12.148 -14.630  1.00  0.00     0.179 C 
ATOM     32  C   UNL     1       6.863  12.872 -14.899  1.00  0.00     0.177 C 
BRANCH  28  33
ATOM     33  O   UNL     1       7.856  15.815 -15.064  1.00  0.00    -0.384 OA
ATOM     34  H   UNL     1       7.247  16.396 -15.609  1.00  0.00     0.211 HD
ENDBRANCH  28  33
BRANCH  30  35
ATOM     35  O   UNL     1       5.875  14.510 -16.361  1.00  0.00    -0.387 OA
ATOM     36  H   UNL     1       5.156  13.852 -16.590  1.00  0.00     0.211 HD
ENDBRANCH  30  35
BRANCH  31  37
ATOM     37  C   UNL     1       8.079  11.099 -13.483  1.00  0.00     0.191 C 
BRANCH  37  38
ATOM     38  O   UNL     1       8.091  11.712 -12.218  1.00  0.00    -0.394 OA
ATOM     39  H   UNL     1       7.469  11.243 -11.593  1.00  0.00     0.210 HD
ENDBRANCH  37  38
ENDBRANCH  31  37
BRANCH  32  40
ATOM     40  O   UNL     1       6.543  13.641 -13.776  1.00  0.00    -0.387 OA
ATOM     41  H   UNL     1       6.095  14.475 -14.097  1.00  0.00     0.211 HD
ENDBRANCH  32  40
ENDBRANCH   1  27
TORSDOF 12
ENDMDL
MODEL 2
REMARK VINA RESULT:    -6.794      2.043      7.557
REMARK INTER + INTRA:         -10.238
REMARK INTER:                 -10.088
REMARK INTRA:                  -0.151
REMARK UNBOUND:                -0.267
REMARK SMILES O=c1c(O[C@@H]2O[C@@H](CO)[C@@H](O)[C@@H](O)[C@H]2O)c(-c2ccc(O)c(O)c2)oc2cc(O)cc(O)c12
REMARK SMILES IDX 4 1 3 2 16 3 25 4 2 5 26 6 1 7 33 8 27 9 31 10 28 11 30 12
REMARK SMILES IDX 17 13 18 14 19 15 20 16 24 17 22 18 21 19 23 21 32 23 29 25
REMARK SMILES IDX 5 27 14 28 6 29 12 30 7 31 10 32 15 33 13 35 8 37 9 38 11 40
REMARK H PARENT 21 20 23 22 32 24 29 26 15 34 13 36 9 39 11 41
REMARK Flexibility Score: inf
ROOT
ATOM      1  O   UNL     1      10.164  10.756 -16.797  1.00  0.00    -0.454 OA
ENDROOT
BRANCH   1   2
ATOM      2  C   UNL     1       9.451  10.598 -15.602  1.00  0.00     0.214 A 
ATOM      3  C   UNL     1       8.697  11.658 -15.097  1.00  0.00     0.180 A 
ATOM      4  O   UNL     1       7.943  11.483 -14.019  1.00  0.00    -0.452 OA
ATOM      5  C   UNL     1       9.422   9.374 -14.929  1.00  0.00     0.239 A 
ATOM      6  C   UNL     1       7.817  10.317 -13.401  1.00  0.00     0.146 A 
ATOM      7  O   UNL     1      10.235   8.481 -15.251  1.00  0.00    -0.285 OA
ATOM      8  C   UNL     1       8.494   9.169 -13.875  1.00  0.00     0.111 A 
ATOM      9  C   UNL     1       6.999  10.246 -12.273  1.00  0.00     0.094 A 
ATOM     10  C   UNL     1       8.148   7.899 -13.322  1.00  0.00     0.134 A 
ATOM     11  C   UNL     1       6.797   9.028 -11.634  1.00  0.00     0.123 A 
ATOM     12  C   UNL     1       7.299   7.851 -12.205  1.00  0.00     0.093 A 
BRANCH   3  13
ATOM     13  C   UNL     1       8.719  12.985 -15.740  1.00  0.00     0.025 A 
ATOM     14  C   UNL     1       7.527  13.674 -16.043  1.00  0.00     0.016 A 
ATOM     15  C   UNL     1       7.585  14.909 -16.708  1.00  0.00     0.051 A 
ATOM     16  C   UNL     1       8.828  15.464 -17.040  1.00  0.00     0.157 A 
ATOM     17  C   UNL     1       9.961  13.544 -16.065  1.00  0.00     0.062 A 
ATOM     18  C   UNL     1      10.016  14.775 -16.728  1.00  0.00     0.158 A 
BRANCH  16  19
ATOM     19  O   UNL     1       8.892  16.710 -17.671  1.00  0.00    -0.504 OA
ATOM     20  H   UNL     1       9.281  17.544 -17.213  1.00  0.00     0.293 HD
ENDBRANCH  16  19
BRANCH  18  21
ATOM     21  O   UNL     1      11.249  15.262 -17.151  1.00  0.00    -0.504 OA
ATOM     22  H   UNL     1      11.816  14.767 -17.835  1.00  0.00     0.293 HD
ENDBRANCH  18  21
ENDBRANCH   3  13
BRANCH  10  23
ATOM     23  O   UNL     1       8.570   6.661 -13.841  1.00  0.00    -0.507 OA
ATOM     24  H   UNL     1       9.016   6.504 -14.735  1.00  0.00     0.293 HD
ENDBRANCH  10  23
BRANCH  11  25
ATOM     25  O   UNL     1       6.086   8.975 -10.436  1.00  0.00    -0.508 OA
ATOM     26  H   UNL     1       6.320   9.638  -9.695  1.00  0.00     0.293 HD
ENDBRANCH  11  25
ENDBRANCH   1   2
BRANCH   1  27
ATOM     27  C   UNL     1       9.642  10.151 -17.978  1.00  0.00     0.339 C 
ATOM     28  C   UNL     1       8.263   9.498 -17.705  1.00  0.00     0.214 C 
ATOM     29  O   UNL     1       9.672  11.068 -19.070  1.00  0.00    -0.332 OA
ATOM     30  C   UNL     1       7.106  10.518 -17.811  1.00  0.00     0.180 C 
ATOM     31  C   UNL     1       8.674  12.077 -18.968  1.00  0.00     0.179 C 
ATOM     32  C   UNL     1       7.283  11.417 -19.049  1.00  0.00     0.177 C 
BRANCH  28  33
ATOM     33  O   UNL     1       8.061   8.436 -18.614  1.00  0.00    -0.384 OA
ATOM     34  H   UNL     1       7.891   7.622 -18.056  1.00  0.00     0.211 HD
ENDBRANCH  28  33
BRANCH  30  35
ATOM     35  O   UNL     1       5.876   9.850 -17.883  1.00  0.00    -0.387 OA
ATOM     36  H   UNL     1       5.245  10.310 -17.256  1.00  0.00     0.211 HD
ENDBRANCH  30  35
BRANCH  31  37
ATOM     37  C   UNL     1       8.905  13.110 -20.113  1.00  0.00     0.191 C 
BRANCH  37  38
ATOM     38  O   UNL     1       9.441  12.498 -21.260  1.00  0.00    -0.394 OA
ATOM     39  H   UNL     1       8.840  12.637 -22.045  1.00  0.00     0.210 HD
ENDBRANCH  37  38
ENDBRANCH  31  37
BRANCH  32  40
ATOM     40  O   UNL     1       7.229  10.643 -20.212  1.00  0.00    -0.387 OA
ATOM     41  H   UNL     1       7.556   9.726 -19.982  1.00  0.00     0.211 HD
ENDBRANCH  32  40
ENDBRANCH   1  27
TORSDOF 12
ENDMDL
MODEL 3
REMARK VINA RESULT:    -6.709      1.828      4.464
REMARK INTER + INTRA:         -10.113
REMARK INTER:                  -9.850
REMARK INTRA:                  -0.263
REMARK UNBOUND:                -0.267
REMARK SMILES O=c1c(O[C@@H]2O[C@@H](CO)[C@@H](O)[C@@H](O)[C@H]2O)c(-c2ccc(O)c(O)c2)oc2cc(O)cc(O)c12
REMARK SMILES IDX 4 1 3 2 16 3 25 4 2 5 26 6 1 7 33 8 27 9 31 10 28 11 30 12
REMARK SMILES IDX 17 13 18 14 19 15 20 16 24 17 22 18 21 19 23 21 32 23 29 25
REMARK SMILES IDX 5 27 14 28 6 29 12 30 7 31 10 32 15 33 13 35 8 37 9 38 11 40
REMARK H PARENT 21 20 23 22 32 24 29 26 15 34 13 36 9 39 11 41
REMARK Flexibility Score: inf
ROOT
ATOM      1  O   UNL     1       7.257  10.519 -18.008  1.00  0.00    -0.454 OA
ENDROOT
BRANCH   1   2
ATOM      2  C   UNL     1       7.294  11.918 -18.048  1.00  0.00     0.214 A 
ATOM      3  C   UNL     1       7.240  12.649 -16.860  1.00  0.00     0.180 A 
ATOM      4  O   UNL     1       7.373  13.969 -16.886  1.00  0.00    -0.452 OA
ATOM      5  C   UNL     1       7.453  12.608 -19.253  1.00  0.00     0.239 A 
ATOM      6  C   UNL     1       7.614  14.656 -17.995  1.00  0.00     0.146 A 
ATOM      7  O   UNL     1       7.309  11.993 -20.331  1.00  0.00    -0.285 OA
ATOM      8  C   UNL     1       7.747  13.997 -19.239  1.00  0.00     0.111 A 
ATOM      9  C   UNL     1       7.734  16.043 -17.907  1.00  0.00     0.094 A 
ATOM     10  C   UNL     1       8.231  14.743 -20.355  1.00  0.00     0.134 A 
ATOM     11  C   UNL     1       8.042  16.788 -19.039  1.00  0.00     0.123 A 
ATOM     12  C   UNL     1       8.372  16.135 -20.234  1.00  0.00     0.093 A 
BRANCH   3  13
ATOM     13  C   UNL     1       7.033  11.981 -15.562  1.00  0.00     0.025 A 
ATOM     14  C   UNL     1       6.088  10.946 -15.411  1.00  0.00     0.016 A 
ATOM     15  C   UNL     1       5.875  10.373 -14.148  1.00  0.00     0.051 A 
ATOM     16  C   UNL     1       6.627  10.812 -13.049  1.00  0.00     0.157 A 
ATOM     17  C   UNL     1       7.789  12.413 -14.466  1.00  0.00     0.062 A 
ATOM     18  C   UNL     1       7.576  11.840 -13.207  1.00  0.00     0.158 A 
BRANCH  16  19
ATOM     19  O   UNL     1       6.445  10.220 -11.795  1.00  0.00    -0.504 OA
ATOM     20  H   UNL     1       5.607   9.676 -11.555  1.00  0.00     0.293 HD
ENDBRANCH  16  19
BRANCH  18  21
ATOM     21  O   UNL     1       8.247  12.360 -12.104  1.00  0.00    -0.504 OA
ATOM     22  H   UNL     1       8.043  12.050 -11.157  1.00  0.00     0.293 HD
ENDBRANCH  18  21
ENDBRANCH   3  13
BRANCH  10  23
ATOM     23  O   UNL     1       8.621  14.179 -21.584  1.00  0.00    -0.507 OA
ATOM     24  H   UNL     1       8.092  14.189 -22.445  1.00  0.00     0.293 HD
ENDBRANCH  10  23
BRANCH  11  25
ATOM     25  O   UNL     1       8.037  18.181 -18.983  1.00  0.00    -0.508 OA
ATOM     26  H   UNL     1       7.273  18.689 -19.432  1.00  0.00     0.293 HD
ENDBRANCH  11  25
ENDBRANCH   1   2
BRANCH   1  27
ATOM     27  C   UNL     1       8.471   9.805 -18.228  1.00  0.00     0.339 C 
ATOM     28  C   UNL     1       9.690  10.764 -18.206  1.00  0.00     0.214 C 
ATOM     29  O   UNL     1       8.566   8.686 -17.350  1.00  0.00    -0.332 OA
ATOM     30  C   UNL     1      10.197  11.025 -16.769  1.00  0.00     0.180 C 
ATOM     31  C   UNL     1       8.857   9.063 -16.009  1.00  0.00     0.179 C 
ATOM     32  C   UNL     1      10.254   9.715 -15.963  1.00  0.00     0.177 C 
BRANCH  28  33
ATOM     33  O   UNL     1      10.727  10.218 -18.996  1.00  0.00    -0.384 OA
ATOM     34  H   UNL     1      10.585   9.226 -18.993  1.00  0.00     0.211 HD
ENDBRANCH  28  33
BRANCH  30  35
ATOM     35  O   UNL     1      11.469  11.615 -16.804  1.00  0.00    -0.387 OA
ATOM     36  H   UNL     1      11.567  12.068 -17.691  1.00  0.00     0.211 HD
ENDBRANCH  30  35
BRANCH  31  37
ATOM     37  C   UNL     1       8.770   7.789 -15.114  1.00  0.00     0.191 C 
BRANCH  37  38
ATOM     38  O   UNL     1       9.748   7.799 -14.104  1.00  0.00    -0.394 OA
ATOM     39  H   UNL     1       9.473   7.214 -13.343  1.00  0.00     0.210 HD
ENDBRANCH  37  38
ENDBRANCH  31  37
BRANCH  32  40
ATOM     40  O   UNL     1      11.171   8.836 -16.546  1.00  0.00    -0.387 OA
ATOM     41  H   UNL     1      11.741   9.364 -17.175  1.00  0.00     0.211 HD
ENDBRANCH  32  40
ENDBRANCH   1  27
TORSDOF 12
ENDMDL
MODEL 4
REMARK VINA RESULT:    -6.585      2.071      6.741
REMARK INTER + INTRA:          -9.931
REMARK INTER:                  -9.447
REMARK INTRA:                  -0.483
REMARK UNBOUND:                -0.267
REMARK SMILES O=c1c(O[C@@H]2O[C@@H](CO)[C@@H](O)[C@@H](O)[C@H]2O)c(-c2ccc(O)c(O)c2)oc2cc(O)cc(O)c12
REMARK SMILES IDX 4 1 3 2 16 3 25 4 2 5 26 6 1 7 33 8 27 9 31 10 28 11 30 12
REMARK SMILES IDX 17 13 18 14 19 15 20 16 24 17 22 18 21 19 23 21 32 23 29 25
REMARK SMILES IDX 5 27 14 28 6 29 12 30 7 31 10 32 15 33 13 35 8 37 9 38 11 40
REMARK H PARENT 21 20 23 22 32 24 29 26 15 34 13 36 9 39 11 41
REMARK Flexibility Score: inf
ROOT
ATOM      1  O   UNL     1       6.524  13.312 -15.612  1.00  0.00    -0.454 OA
ENDROOT
BRANCH   1   2
ATOM      2  C   UNL     1       6.469  11.913 -15.643  1.00  0.00     0.214 A 
ATOM      3  C   UNL     1       6.688  11.235 -16.842  1.00  0.00     0.180 A 
ATOM      4  O   UNL     1       6.734   9.908 -16.857  1.00  0.00    -0.452 OA
ATOM      5  C   UNL     1       6.264  11.167 -14.479  1.00  0.00     0.239 A 
ATOM      6  C   UNL     1       6.633   9.164 -15.764  1.00  0.00     0.146 A 
ATOM      7  O   UNL     1       5.876  11.748 -13.442  1.00  0.00    -0.285 OA
ATOM      8  C   UNL     1       6.471   9.763 -14.493  1.00  0.00     0.111 A 
ATOM      9  C   UNL     1       6.692   7.776 -15.895  1.00  0.00     0.094 A 
ATOM     10  C   UNL     1       6.599   8.941 -13.333  1.00  0.00     0.134 A 
ATOM     11  C   UNL     1       6.647   6.968 -14.765  1.00  0.00     0.123 A 
ATOM     12  C   UNL     1       6.686   7.548 -13.491  1.00  0.00     0.093 A 
BRANCH   3  13
ATOM     13  C   UNL     1       6.870  11.966 -18.110  1.00  0.00     0.025 A 
ATOM     14  C   UNL     1       5.902  12.878 -18.577  1.00  0.00     0.016 A 
ATOM     15  C   UNL     1       6.081  13.512 -19.816  1.00  0.00     0.051 A 
ATOM     16  C   UNL     1       7.236  13.258 -20.568  1.00  0.00     0.157 A 
ATOM     17  C   UNL     1       8.028  11.719 -18.857  1.00  0.00     0.062 A 
ATOM     18  C   UNL     1       8.205  12.352 -20.092  1.00  0.00     0.158 A 
BRANCH  16  19
ATOM     19  O   UNL     1       7.437  13.914 -21.787  1.00  0.00    -0.504 OA
ATOM     20  H   UNL     1       8.331  14.357 -22.038  1.00  0.00     0.293 HD
ENDBRANCH  16  19
BRANCH  18  21
ATOM     21  O   UNL     1       9.300  12.008 -20.880  1.00  0.00    -0.504 OA
ATOM     22  H   UNL     1      10.049  12.668 -21.073  1.00  0.00     0.293 HD
ENDBRANCH  18  21
ENDBRANCH   3  13
BRANCH  10  23
ATOM     23  O   UNL     1       6.682   9.428 -12.015  1.00  0.00    -0.507 OA
ATOM     24  H   UNL     1       6.233   9.034 -11.200  1.00  0.00     0.293 HD
ENDBRANCH  10  23
BRANCH  11  25
ATOM     25  O   UNL     1       6.577   5.581 -14.899  1.00  0.00    -0.508 OA
ATOM     26  H   UNL     1       7.351   5.091 -15.349  1.00  0.00     0.293 HD
ENDBRANCH  11  25
ENDBRANCH   1   2
BRANCH   1  27
ATOM     27  C   UNL     1       7.662  13.929 -15.015  1.00  0.00     0.339 C 
ATOM     28  C   UNL     1       8.798  12.899 -14.790  1.00  0.00     0.214 C 
ATOM     29  O   UNL     1       8.040  15.098 -15.739  1.00  0.00    -0.332 OA
ATOM     30  C   UNL     1       9.666  12.706 -16.056  1.00  0.00     0.180 C 
ATOM     31  C   UNL     1       8.668  14.798 -16.979  1.00  0.00     0.179 C 
ATOM     32  C   UNL     1       9.995  14.063 -16.704  1.00  0.00     0.177 C 
BRANCH  28  33
ATOM     33  O   UNL     1       9.604  13.320 -13.709  1.00  0.00    -0.384 OA
ATOM     34  H   UNL     1       9.929  14.238 -13.947  1.00  0.00     0.211 HD
ENDBRANCH  28  33
BRANCH  30  35
ATOM     35  O   UNL     1      10.853  12.035 -15.732  1.00  0.00    -0.387 OA
ATOM     36  H   UNL     1      10.693  11.055 -15.866  1.00  0.00     0.211 HD
ENDBRANCH  30  35
BRANCH  31  37
ATOM     37  C   UNL     1       8.883  16.135 -17.753  1.00  0.00     0.191 C 
BRANCH  37  38
ATOM     38  O   UNL     1      10.176  16.214 -18.298  1.00  0.00    -0.394 OA
ATOM     39  H   UNL     1      10.754  16.812 -17.744  1.00  0.00     0.210 HD
ENDBRANCH  37  38
ENDBRANCH  31  37
BRANCH  32  40
ATOM     40  O   UNL     1      10.756  14.839 -15.825  1.00  0.00    -0.387 OA
ATOM     41  H   UNL     1      10.248  14.912 -14.967  1.00  0.00     0.211 HD
ENDBRANCH  32  40
ENDBRANCH   1  27
TORSDOF 12
ENDMDL
MODEL 5
REMARK VINA RESULT:    -6.468      3.178      7.556
REMARK INTER + INTRA:          -9.760
REMARK INTER:                  -8.424
REMARK INTRA:                  -1.335
REMARK UNBOUND:                -0.267
REMARK SMILES O=c1c(O[C@@H]2O[C@@H](CO)[C@@H](O)[C@@H](O)[C@H]2O)c(-c2ccc(O)c(O)c2)oc2cc(O)cc(O)c12
REMARK SMILES IDX 4 1 3 2 16 3 25 4 2 5 26 6 1 7 33 8 27 9 31 10 28 11 30 12
REMARK SMILES IDX 17 13 18 14 19 15 20 16 24 17 22 18 21 19 23 21 32 23 29 25
REMARK SMILES IDX 5 27 14 28 6 29 12 30 7 31 10 32 15 33 13 35 8 37 9 38 11 40
REMARK H PARENT 21 20 23 22 32 24 29 26 15 34 13 36 9 39 11 41
REMARK Flexibility Score: inf
ROOT
ATOM      1  O   UNL     1       6.338   8.869 -15.555  1.00  0.00    -0.454 OA
ENDROOT
BRANCH   1   2
ATOM      2  C   UNL     1       6.532   7.823 -16.467  1.00  0.00     0.214 A 
ATOM      3  C   UNL     1       6.904   8.107 -17.782  1.00  0.00     0.180 A 
ATOM      4  O   UNL     1       7.183   7.119 -18.622  1.00  0.00    -0.452 OA
ATOM      5  C   UNL     1       6.426   6.486 -16.074  1.00  0.00     0.239 A 
ATOM      6  C   UNL     1       7.182   5.840 -18.268  1.00  0.00     0.146 A 
ATOM      7  O   UNL     1       5.910   6.214 -14.969  1.00  0.00    -0.285 OA
ATOM      8  C   UNL     1       6.877   5.457 -16.941  1.00  0.00     0.111 A 
ATOM      9  C   UNL     1       7.489   4.882 -19.234  1.00  0.00     0.094 A 
ATOM     10  C   UNL     1       7.113   4.103 -16.553  1.00  0.00     0.134 A 
ATOM     11  C   UNL     1       7.552   3.537 -18.885  1.00  0.00     0.123 A 
ATOM     12  C   UNL     1       7.449   3.161 -17.539  1.00  0.00     0.093 A 
BRANCH   3  13
ATOM     13  C   UNL     1       6.993   9.497 -18.266  1.00  0.00     0.025 A 
ATOM     14  C   UNL     1       5.875  10.157 -18.816  1.00  0.00     0.016 A 
ATOM     15  C   UNL     1       6.011  11.459 -19.321  1.00  0.00     0.051 A 
ATOM     16  C   UNL     1       7.251  12.108 -19.247  1.00  0.00     0.157 A 
ATOM     17  C   UNL     1       8.229  10.150 -18.184  1.00  0.00     0.062 A 
ATOM     18  C   UNL     1       8.363  11.448 -18.688  1.00  0.00     0.158 A 
BRANCH  16  19
ATOM     19  O   UNL     1       7.384  13.419 -19.715  1.00  0.00    -0.504 OA
ATOM     20  H   UNL     1       7.520  14.222 -19.087  1.00  0.00     0.293 HD
ENDBRANCH  16  19
BRANCH  18  21
ATOM     21  O   UNL     1       9.622  12.040 -18.710  1.00  0.00    -0.504 OA
ATOM     22  H   UNL     1       9.857  12.776 -19.372  1.00  0.00     0.293 HD
ENDBRANCH  18  21
ENDBRANCH   3  13
BRANCH  10  23
ATOM     23  O   UNL     1       7.069   3.633 -15.228  1.00  0.00    -0.507 OA
ATOM     24  H   UNL     1       6.420   2.955 -14.852  1.00  0.00     0.293 HD
ENDBRANCH  10  23
BRANCH  11  25
ATOM     25  O   UNL     1       7.732   2.566 -19.869  1.00  0.00    -0.508 OA
ATOM     26  H   UNL     1       6.916   2.228 -20.381  1.00  0.00     0.293 HD
ENDBRANCH  11  25
ENDBRANCH   1   2
BRANCH   1  27
ATOM     27  C   UNL     1       7.457   9.314 -14.793  1.00  0.00     0.339 C 
ATOM     28  C   UNL     1       7.466  10.860 -14.670  1.00  0.00     0.214 C 
ATOM     29  O   UNL     1       7.540   8.608 -13.557  1.00  0.00    -0.332 OA
ATOM     30  C   UNL     1       6.576  11.354 -13.505  1.00  0.00     0.180 C 
ATOM     31  C   UNL     1       6.551   9.021 -12.621  1.00  0.00     0.179 C 
ATOM     32  C   UNL     1       6.799  10.496 -12.246  1.00  0.00     0.177 C 
BRANCH  28  33
ATOM     33  O   UNL     1       8.794  11.307 -14.491  1.00  0.00    -0.384 OA
ATOM     34  H   UNL     1       9.251  11.177 -15.373  1.00  0.00     0.211 HD
ENDBRANCH  28  33
BRANCH  30  35
ATOM     35  O   UNL     1       6.856  12.697 -13.218  1.00  0.00    -0.387 OA
ATOM     36  H   UNL     1       7.449  12.717 -12.411  1.00  0.00     0.211 HD
ENDBRANCH  30  35
BRANCH  31  37
ATOM     37  C   UNL     1       6.626   8.076 -11.383  1.00  0.00     0.191 C 
BRANCH  37  38
ATOM     38  O   UNL     1       6.013   8.651 -10.256  1.00  0.00    -0.394 OA
ATOM     39  H   UNL     1       5.095   8.279 -10.128  1.00  0.00     0.210 HD
ENDBRANCH  37  38
ENDBRANCH  31  37
BRANCH  32  40
ATOM     40  O   UNL     1       8.121  10.624 -11.809  1.00  0.00    -0.387 OA
ATOM     41  H   UNL     1       8.098  10.958 -10.867  1.00  0.00     0.211 HD
ENDBRANCH  32  40
ENDBRANCH   1  27
TORSDOF 12
ENDMDL
MODEL 6
REMARK VINA RESULT:    -6.454      2.280      6.822
REMARK INTER + INTRA:          -9.740
REMARK INTER:                  -8.507
REMARK INTRA:                  -1.233
REMARK UNBOUND:                -0.267
REMARK SMILES O=c1c(O[C@@H]2O[C@@H](CO)[C@@H](O)[C@@H](O)[C@H]2O)c(-c2ccc(O)c(O)c2)oc2cc(O)cc(O)c12
REMARK SMILES IDX 4 1 3 2 16 3 25 4 2 5 26 6 1 7 33 8 27 9 31 10 28 11 30 12
REMARK SMILES IDX 17 13 18 14 19 15 20 16 24 17 22 18 21 19 23 21 32 23 29 25
REMARK SMILES IDX 5 27 14 28 6 29 12 30 7 31 10 32 15 33 13 35 8 37 9 38 11 40
REMARK H PARENT 21 20 23 22 32 24 29 26 15 34 13 36 9 39 11 41
REMARK Flexibility Score: inf
ROOT
ATOM      1  O   UNL     1       8.641  11.288 -16.337  1.00  0.00    -0.454 OA
ENDROOT
BRANCH   1   2
ATOM      2  C   UNL     1       8.017  10.051 -16.541  1.00  0.00     0.214 A 
ATOM      3  C   UNL     1       7.371   9.789 -17.749  1.00  0.00     0.180 A 
ATOM      4  O   UNL     1       6.863   8.586 -17.984  1.00  0.00    -0.452 OA
ATOM      5  C   UNL     1       8.082   9.037 -15.581  1.00  0.00     0.239 A 
ATOM      6  C   UNL     1       6.978   7.569 -17.140  1.00  0.00     0.146 A 
ATOM      7  O   UNL     1       8.480   9.312 -14.429  1.00  0.00    -0.285 OA
ATOM      8  C   UNL     1       7.670   7.720 -15.915  1.00  0.00     0.111 A 
ATOM      9  C   UNL     1       6.403   6.347 -17.487  1.00  0.00     0.094 A 
ATOM     10  C   UNL     1       7.967   6.550 -15.153  1.00  0.00     0.134 A 
ATOM     11  C   UNL     1       6.554   5.245 -16.653  1.00  0.00     0.123 A 
ATOM     12  C   UNL     1       7.400   5.325 -15.538  1.00  0.00     0.093 A 
BRANCH   3  13
ATOM     13  C   UNL     1       7.235  10.831 -18.783  1.00  0.00     0.025 A 
ATOM     14  C   UNL     1       5.970  11.309 -19.184  1.00  0.00     0.016 A 
ATOM     15  C   UNL     1       5.876  12.258 -20.212  1.00  0.00     0.051 A 
ATOM     16  C   UNL     1       7.042  12.750 -20.814  1.00  0.00     0.157 A 
ATOM     17  C   UNL     1       8.400  11.330 -19.380  1.00  0.00     0.062 A 
ATOM     18  C   UNL     1       8.303  12.277 -20.405  1.00  0.00     0.158 A 
BRANCH  16  19
ATOM     19  O   UNL     1       6.956  13.724 -21.816  1.00  0.00    -0.504 OA
ATOM     20  H   UNL     1       6.333  13.630 -22.628  1.00  0.00     0.293 HD
ENDBRANCH  16  19
BRANCH  18  21
ATOM     21  O   UNL     1       9.459  12.675 -21.070  1.00  0.00    -0.504 OA
ATOM     22  H   UNL     1       9.699  13.656 -21.189  1.00  0.00     0.293 HD
ENDBRANCH  18  21
ENDBRANCH   3  13
BRANCH  10  23
ATOM     23  O   UNL     1       8.829   6.519 -14.042  1.00  0.00    -0.507 OA
ATOM     24  H   UNL     1       9.391   7.284 -13.695  1.00  0.00     0.293 HD
ENDBRANCH  10  23
BRANCH  11  25
ATOM     25  O   UNL     1       5.876   4.058 -16.930  1.00  0.00    -0.508 OA
ATOM     26  H   UNL     1       4.887   3.989 -16.687  1.00  0.00     0.293 HD
ENDBRANCH  11  25
ENDBRANCH   1   2
BRANCH   1  27
ATOM     27  C   UNL     1       7.996  12.238 -15.492  1.00  0.00     0.339 C 
ATOM     28  C   UNL     1       9.013  12.912 -14.535  1.00  0.00     0.214 C 
ATOM     29  O   UNL     1       7.199  13.137 -16.259  1.00  0.00    -0.332 OA
ATOM     30  C   UNL     1       9.730  14.111 -15.201  1.00  0.00     0.180 C 
ATOM     31  C   UNL     1       7.978  14.086 -16.979  1.00  0.00     0.179 C 
ATOM     32  C   UNL     1       8.726  14.985 -15.974  1.00  0.00     0.177 C 
BRANCH  28  33
ATOM     33  O   UNL     1       8.344  13.335 -13.365  1.00  0.00    -0.384 OA
ATOM     34  H   UNL     1       9.050  13.720 -12.766  1.00  0.00     0.211 HD
ENDBRANCH  28  33
BRANCH  30  35
ATOM     35  O   UNL     1      10.384  14.883 -14.232  1.00  0.00    -0.387 OA
ATOM     36  H   UNL     1      11.260  15.176 -14.619  1.00  0.00     0.211 HD
ENDBRANCH  30  35
BRANCH  31  37
ATOM     37  C   UNL     1       7.024  14.900 -17.904  1.00  0.00     0.191 C 
BRANCH  37  38
ATOM     38  O   UNL     1       7.739  15.769 -18.747  1.00  0.00    -0.394 OA
ATOM     39  H   UNL     1       7.119  16.404 -19.205  1.00  0.00     0.210 HD
ENDBRANCH  37  38
ENDBRANCH  31  37
BRANCH  32  40
ATOM     40  O   UNL     1       7.791  15.532 -15.090  1.00  0.00    -0.387 OA
ATOM     41  H   UNL     1       7.838  16.528 -15.177  1.00  0.00     0.211 HD
ENDBRANCH  32  40
ENDBRANCH   1  27
TORSDOF 12
ENDMDL
MODEL 7
REMARK VINA RESULT:    -6.452      2.699      7.357
REMARK INTER + INTRA:          -9.736
REMARK INTER:                  -8.564
REMARK INTRA:                  -1.173
REMARK UNBOUND:                -0.267
REMARK SMILES O=c1c(O[C@@H]2O[C@@H](CO)[C@@H](O)[C@@H](O)[C@H]2O)c(-c2ccc(O)c(O)c2)oc2cc(O)cc(O)c12
REMARK SMILES IDX 4 1 3 2 16 3 25 4 2 5 26 6 1 7 33 8 27 9 31 10 28 11 30 12
REMARK SMILES IDX 17 13 18 14 19 15 20 16 24 17 22 18 21 19 23 21 32 23 29 25
REMARK SMILES IDX 5 27 14 28 6 29 12 30 7 31 10 32 15 33 13 35 8 37 9 38 11 40
REMARK H PARENT 21 20 23 22 32 24 29 26 15 34 13 36 9 39 11 41
REMARK Flexibility Score: inf
ROOT
ATOM      1  O   UNL     1       7.937   9.362 -15.339  1.00  0.00    -0.454 OA
ENDROOT
BRANCH   1   2
ATOM      2  C   UNL     1       7.541   8.350 -16.223  1.00  0.00     0.214 A 
ATOM      3  C   UNL     1       7.630   8.556 -17.601  1.00  0.00     0.180 A 
ATOM      4  O   UNL     1       7.348   7.568 -18.440  1.00  0.00    -0.452 OA
ATOM      5  C   UNL     1       7.116   7.103 -15.758  1.00  0.00     0.239 A 
ATOM      6  C   UNL     1       7.027   6.344 -18.042  1.00  0.00     0.146 A 
ATOM      7  O   UNL     1       6.845   6.964 -14.546  1.00  0.00    -0.285 OA
ATOM      8  C   UNL     1       6.971   6.022 -16.666  1.00  0.00     0.111 A 
ATOM      9  C   UNL     1       6.748   5.380 -19.011  1.00  0.00     0.094 A 
ATOM     10  C   UNL     1       6.851   4.649 -16.294  1.00  0.00     0.134 A 
ATOM     11  C   UNL     1       6.464   4.073 -18.632  1.00  0.00     0.123 A 
ATOM     12  C   UNL     1       6.599   3.692 -17.290  1.00  0.00     0.093 A 
BRANCH   3  13
ATOM     13  C   UNL     1       8.032   9.863 -18.152  1.00  0.00     0.025 A 
ATOM     14  C   UNL     1       9.335  10.369 -17.965  1.00  0.00     0.016 A 
ATOM     15  C   UNL     1       9.666  11.643 -18.453  1.00  0.00     0.051 A 
ATOM     16  C   UNL     1       8.709  12.391 -19.152  1.00  0.00     0.157 A 
ATOM     17  C   UNL     1       7.079  10.608 -18.858  1.00  0.00     0.062 A 
ATOM     18  C   UNL     1       7.411  11.877 -19.344  1.00  0.00     0.158 A 
BRANCH  16  19
ATOM     19  O   UNL     1       9.043  13.645 -19.672  1.00  0.00    -0.504 OA
ATOM     20  H   UNL     1       8.567  14.053 -20.487  1.00  0.00     0.293 HD
ENDBRANCH  16  19
BRANCH  18  21
ATOM     21  O   UNL     1       6.422  12.655 -19.938  1.00  0.00    -0.504 OA
ATOM     22  H   UNL     1       5.790  12.276 -20.639  1.00  0.00     0.293 HD
ENDBRANCH  18  21
ENDBRANCH   3  13
BRANCH  10  23
ATOM     23  O   UNL     1       7.003   4.161 -14.982  1.00  0.00    -0.507 OA
ATOM     24  H   UNL     1       7.608   4.540 -14.267  1.00  0.00     0.293 HD
ENDBRANCH  10  23
BRANCH  11  25
ATOM     25  O   UNL     1       6.060   3.139 -19.585  1.00  0.00    -0.508 OA
ATOM     26  H   UNL     1       5.106   2.776 -19.544  1.00  0.00     0.293 HD
ENDBRANCH  11  25
ENDBRANCH   1   2
BRANCH   1  27
ATOM     27  C   UNL     1       6.953   9.926 -14.476  1.00  0.00     0.339 C 
ATOM     28  C   UNL     1       7.602  10.479 -13.181  1.00  0.00     0.214 C 
ATOM     29  O   UNL     1       6.131  10.852 -15.184  1.00  0.00    -0.332 OA
ATOM     30  C   UNL     1       8.144  11.915 -13.370  1.00  0.00     0.180 C 
ATOM     31  C   UNL     1       6.799  12.076 -15.466  1.00  0.00     0.179 C 
ATOM     32  C   UNL     1       7.131  12.784 -14.136  1.00  0.00     0.177 C 
BRANCH  28  33
ATOM     33  O   UNL     1       6.652  10.452 -12.135  1.00  0.00    -0.384 OA
ATOM     34  H   UNL     1       7.167  10.252 -11.298  1.00  0.00     0.211 HD
ENDBRANCH  28  33
BRANCH  30  35
ATOM     35  O   UNL     1       8.421  12.496 -12.125  1.00  0.00    -0.387 OA
ATOM     36  H   UNL     1       7.799  13.273 -12.009  1.00  0.00     0.211 HD
ENDBRANCH  30  35
BRANCH  31  37
ATOM     37  C   UNL     1       5.875  12.937 -16.379  1.00  0.00     0.191 C 
BRANCH  37  38
ATOM     38  O   UNL     1       5.906  14.294 -16.013  1.00  0.00    -0.394 OA
ATOM     39  H   UNL     1       6.049  14.872 -16.815  1.00  0.00     0.210 HD
ENDBRANCH  37  38
ENDBRANCH  31  37
BRANCH  32  40
ATOM     40  O   UNL     1       5.952  12.907 -13.396  1.00  0.00    -0.387 OA
ATOM     41  H   UNL     1       5.223  13.173 -14.028  1.00  0.00     0.211 HD
ENDBRANCH  32  40
ENDBRANCH   1  27
TORSDOF 12
ENDMDL
MODEL 8
REMARK VINA RESULT:    -6.399      2.829      7.286
REMARK INTER + INTRA:          -9.659
REMARK INTER:                  -9.203
REMARK INTRA:                  -0.456
REMARK UNBOUND:                -0.267
REMARK SMILES O=c1c(O[C@@H]2O[C@@H](CO)[C@@H](O)[C@@H](O)[C@H]2O)c(-c2ccc(O)c(O)c2)oc2cc(O)cc(O)c12
REMARK SMILES IDX 4 1 3 2 16 3 25 4 2 5 26 6 1 7 33 8 27 9 31 10 28 11 30 12
REMARK SMILES IDX 17 13 18 14 19 15 20 16 24 17 22 18 21 19 23 21 32 23 29 25
REMARK SMILES IDX 5 27 14 28 6 29 12 30 7 31 10 32 15 33 13 35 8 37 9 38 11 40
REMARK H PARENT 21 20 23 22 32 24 29 26 15 34 13 36 9 39 11 41
REMARK Flexibility Score: inf
ROOT
ATOM      1  O   UNL     1       6.951  10.880 -17.301  1.00  0.00    -0.454 OA
ENDROOT
BRANCH   1   2
ATOM      2  C   UNL     1       6.773  10.105 -16.148  1.00  0.00     0.214 A 
ATOM      3  C   UNL     1       6.633   8.721 -16.255  1.00  0.00     0.180 A 
ATOM      4  O   UNL     1       6.562   7.973 -15.161  1.00  0.00    -0.452 OA
ATOM      5  C   UNL     1       6.798  10.679 -14.874  1.00  0.00     0.239 A 
ATOM      6  C   UNL     1       6.671   8.466 -13.935  1.00  0.00     0.146 A 
ATOM      7  O   UNL     1       6.727  11.923 -14.764  1.00  0.00    -0.285 OA
ATOM      8  C   UNL     1       6.876   9.849 -13.726  1.00  0.00     0.111 A 
ATOM      9  C   UNL     1       6.578   7.588 -12.854  1.00  0.00     0.094 A 
ATOM     10  C   UNL     1       7.216  10.295 -12.413  1.00  0.00     0.134 A 
ATOM     11  C   UNL     1       6.745   8.061 -11.557  1.00  0.00     0.123 A 
ATOM     12  C   UNL     1       7.144   9.387 -11.345  1.00  0.00     0.093 A 
BRANCH   3  13
ATOM     13  C   UNL     1       6.559   8.062 -17.572  1.00  0.00     0.025 A 
ATOM     14  C   UNL     1       5.983   8.707 -18.686  1.00  0.00     0.016 A 
ATOM     15  C   UNL     1       5.877   8.027 -19.909  1.00  0.00     0.051 A 
ATOM     16  C   UNL     1       6.372   6.722 -20.025  1.00  0.00     0.157 A 
ATOM     17  C   UNL     1       7.062   6.760 -17.691  1.00  0.00     0.062 A 
ATOM     18  C   UNL     1       6.955   6.084 -18.912  1.00  0.00     0.158 A 
BRANCH  16  19
ATOM     19  O   UNL     1       6.302   6.052 -21.251  1.00  0.00    -0.504 OA
ATOM     20  H   UNL     1       6.892   5.241 -21.475  1.00  0.00     0.293 HD
ENDBRANCH  16  19
BRANCH  18  21
ATOM     21  O   UNL     1       7.348   4.751 -18.985  1.00  0.00    -0.504 OA
ATOM     22  H   UNL     1       6.698   4.014 -19.243  1.00  0.00     0.293 HD
ENDBRANCH  18  21
ENDBRANCH   3  13
BRANCH  10  23
ATOM     23  O   UNL     1       7.661  11.594 -12.101  1.00  0.00    -0.507 OA
ATOM     24  H   UNL     1       8.467  12.062 -12.491  1.00  0.00     0.293 HD
ENDBRANCH  10  23
BRANCH  11  25
ATOM     25  O   UNL     1       6.527   7.214 -10.470  1.00  0.00    -0.508 OA
ATOM     26  H   UNL     1       5.567   7.001 -10.197  1.00  0.00     0.293 HD
ENDBRANCH  11  25
ENDBRANCH   1   2
BRANCH   1  27
ATOM     27  C   UNL     1       8.118  11.695 -17.392  1.00  0.00     0.339 C 
ATOM     28  C   UNL     1       9.045  11.212 -18.537  1.00  0.00     0.214 C 
ATOM     29  O   UNL     1       7.767  13.076 -17.439  1.00  0.00    -0.332 OA
ATOM     30  C   UNL     1       8.627  11.796 -19.907  1.00  0.00     0.180 C 
ATOM     31  C   UNL     1       7.219  13.462 -18.694  1.00  0.00     0.179 C 
ATOM     32  C   UNL     1       8.298  13.295 -19.784  1.00  0.00     0.177 C 
BRANCH  28  33
ATOM     33  O   UNL     1      10.378  11.572 -18.242  1.00  0.00    -0.384 OA
ATOM     34  H   UNL     1      10.366  11.939 -17.309  1.00  0.00     0.211 HD
ENDBRANCH  28  33
BRANCH  30  35
ATOM     35  O   UNL     1       9.652  11.612 -20.845  1.00  0.00    -0.387 OA
ATOM     36  H   UNL     1       9.937  10.653 -20.797  1.00  0.00     0.211 HD
ENDBRANCH  30  35
BRANCH  31  37
ATOM     37  C   UNL     1       6.720  14.934 -18.577  1.00  0.00     0.191 C 
BRANCH  37  38
ATOM     38  O   UNL     1       7.398  15.782 -19.470  1.00  0.00    -0.394 OA
ATOM     39  H   UNL     1       6.802  16.045 -20.226  1.00  0.00     0.210 HD
ENDBRANCH  37  38
ENDBRANCH  31  37
BRANCH  32  40
ATOM     40  O   UNL     1       9.437  14.003 -19.389  1.00  0.00    -0.387 OA
ATOM     41  H   UNL     1       9.368  14.164 -18.404  1.00  0.00     0.211 HD
ENDBRANCH  32  40
ENDBRANCH   1  27
TORSDOF 12
ENDMDL
MODEL 9
REMARK VINA RESULT:    -6.322      2.694      7.411
REMARK INTER + INTRA:          -9.545
REMARK INTER:                  -8.502
REMARK INTRA:                  -1.043
REMARK UNBOUND:                -0.267
REMARK SMILES O=c1c(O[C@@H]2O[C@@H](CO)[C@@H](O)[C@@H](O)[C@H]2O)c(-c2ccc(O)c(O)c2)oc2cc(O)cc(O)c12
REMARK SMILES IDX 4 1 3 2 16 3 25 4 2 5 26 6 1 7 33 8 27 9 31 10 28 11 30 12
REMARK SMILES IDX 17 13 18 14 19 15 20 16 24 17 22 18 21 19 23 21 32 23 29 25
REMARK SMILES IDX 5 27 14 28 6 29 12 30 7 31 10 32 15 33 13 35 8 37 9 38 11 40
REMARK H PARENT 21 20 23 22 32 24 29 26 15 34 13 36 9 39 11 41
REMARK Flexibility Score: inf
ROOT
ATOM      1  O   UNL     1       6.591  10.430 -17.344  1.00  0.00    -0.454 OA
ENDROOT
BRANCH   1   2
ATOM      2  C   UNL     1       6.883   9.115 -16.962  1.00  0.00     0.214 A 
ATOM      3  C   UNL     1       7.194   8.829 -15.632  1.00  0.00     0.180 A 
ATOM      4  O   UNL     1       7.375   7.572 -15.247  1.00  0.00    -0.452 OA
ATOM      5  C   UNL     1       6.805   8.058 -17.874  1.00  0.00     0.239 A 
ATOM      6  C   UNL     1       7.224   6.533 -16.058  1.00  0.00     0.146 A 
ATOM      7  O   UNL     1       6.721   8.312 -19.095  1.00  0.00    -0.285 OA
ATOM      8  C   UNL     1       6.849   6.718 -17.409  1.00  0.00     0.111 A 
ATOM      9  C   UNL     1       7.442   5.253 -15.548  1.00  0.00     0.094 A 
ATOM     10  C   UNL     1       6.476   5.572 -18.174  1.00  0.00     0.134 A 
ATOM     11  C   UNL     1       7.237   4.139 -16.353  1.00  0.00     0.123 A 
ATOM     12  C   UNL     1       6.677   4.294 -17.628  1.00  0.00     0.093 A 
BRANCH   3  13
ATOM     13  C   UNL     1       7.331   9.905 -14.633  1.00  0.00     0.025 A 
ATOM     14  C   UNL     1       6.398  10.057 -13.586  1.00  0.00     0.016 A 
ATOM     15  C   UNL     1       6.526  11.128 -12.688  1.00  0.00     0.051 A 
ATOM     16  C   UNL     1       7.599  12.020 -12.817  1.00  0.00     0.157 A 
ATOM     17  C   UNL     1       8.406  10.793 -14.756  1.00  0.00     0.062 A 
ATOM     18  C   UNL     1       8.532  11.859 -13.859  1.00  0.00     0.158 A 
BRANCH  16  19
ATOM     19  O   UNL     1       7.752  13.068 -11.902  1.00  0.00    -0.504 OA
ATOM     20  H   UNL     1       7.654  12.937 -10.888  1.00  0.00     0.293 HD
ENDBRANCH  16  19
BRANCH  18  21
ATOM     21  O   UNL     1       9.535  12.801 -14.064  1.00  0.00    -0.504 OA
ATOM     22  H   UNL     1      10.518  12.540 -14.100  1.00  0.00     0.293 HD
ENDBRANCH  18  21
ENDBRANCH   3  13
BRANCH  10  23
ATOM     23  O   UNL     1       5.875   5.622 -19.446  1.00  0.00    -0.507 OA
ATOM     24  H   UNL     1       4.961   5.992 -19.664  1.00  0.00     0.293 HD
ENDBRANCH  10  23
BRANCH  11  25
ATOM     25  O   UNL     1       7.576   2.868 -15.889  1.00  0.00    -0.508 OA
ATOM     26  H   UNL     1       7.068   2.060 -16.253  1.00  0.00     0.293 HD
ENDBRANCH  11  25
ENDBRANCH   1   2
BRANCH   1  27
ATOM     27  C   UNL     1       7.559  11.139 -18.114  1.00  0.00     0.339 C 
ATOM     28  C   UNL     1       7.021  11.448 -19.534  1.00  0.00     0.214 C 
ATOM     29  O   UNL     1       8.049  12.268 -17.393  1.00  0.00    -0.332 OA
ATOM     30  C   UNL     1       6.169  12.739 -19.564  1.00  0.00     0.180 C 
ATOM     31  C   UNL     1       7.105  13.331 -17.329  1.00  0.00     0.179 C 
ATOM     32  C   UNL     1       6.846  13.859 -18.754  1.00  0.00     0.177 C 
BRANCH  28  33
ATOM     33  O   UNL     1       8.107  11.562 -20.431  1.00  0.00    -0.384 OA
ATOM     34  H   UNL     1       8.879  11.902 -19.889  1.00  0.00     0.211 HD
ENDBRANCH  28  33
BRANCH  30  35
ATOM     35  O   UNL     1       5.976  13.161 -20.887  1.00  0.00    -0.387 OA
ATOM     36  H   UNL     1       5.041  13.513 -20.958  1.00  0.00     0.211 HD
ENDBRANCH  30  35
BRANCH  31  37
ATOM     37  C   UNL     1       7.676  14.433 -16.385  1.00  0.00     0.191 C 
BRANCH  37  38
ATOM     38  O   UNL     1       9.075  14.527 -16.486  1.00  0.00    -0.394 OA
ATOM     39  H   UNL     1       9.470  13.641 -16.724  1.00  0.00     0.210 HD
ENDBRANCH  37  38
ENDBRANCH  31  37
BRANCH  32  40
ATOM     40  O   UNL     1       8.075  14.190 -19.333  1.00  0.00    -0.387 OA
ATOM     41  H   UNL     1       8.069  13.849 -20.273  1.00  0.00     0.211 HD
ENDBRANCH  32  40
ENDBRANCH   1  27
TORSDOF 12
ENDMDL
