MODEL 1
REMARK VINA RESULT:    -5.309      0.000      0.000
REMARK INTER + INTRA:         -12.246
REMARK INTER:                  -9.654
REMARK INTRA:                  -2.592
REMARK UNBOUND:                -2.592
REMARK SMILES CCCCCC=CCC=CCCCCCCCC(=O)[O-]
REMARK SMILES IDX 11 1 12 2 13 3 14 4 15 5 16 6 17 7 18 8 19 9 20 10 10 11
REMARK SMILES IDX 9 12 8 13 7 14 6 15 5 16 4 17 3 18 2 19 1 20
REMARK H PARENT
REMARK Flexibility Score: inf
ROOT
ATOM      1  C   UNL     1      -1.621 -21.921  47.114  1.00  0.00     0.027 C 
ENDROOT
BRANCH   1   2
ATOM      2  C   UNL     1      -2.094 -23.203  46.411  1.00  0.00     0.004 C 
BRANCH   2   3
ATOM      3  C   UNL     1      -1.369 -24.460  46.917  1.00  0.00     0.000 C 
BRANCH   3   4
ATOM      4  C   UNL     1      -2.286 -25.696  46.954  1.00  0.00     0.000 C 
BRANCH   4   5
ATOM      5  C   UNL     1      -3.496 -25.564  46.013  1.00  0.00     0.000 C 
BRANCH   5   6
ATOM      6  C   UNL     1      -3.405 -26.489  44.790  1.00  0.00     0.006 C 
BRANCH   6   7
ATOM      7  C   UNL     1      -4.511 -27.547  44.820  1.00  0.00     0.053 C 
BRANCH   7   8
ATOM      8  C   UNL     1      -3.923 -28.922  44.780  1.00  0.00     0.041 C 
ATOM      9  O   UNL     1      -4.615 -29.894  44.380  1.00  0.00    -0.550 OA
ATOM     10  O   UNL     1      -2.626 -29.137  45.228  1.00  0.00    -0.550 OA
ENDBRANCH   7   8
ENDBRANCH   6   7
ENDBRANCH   5   6
ENDBRANCH   4   5
ENDBRANCH   3   4
ENDBRANCH   2   3
ENDBRANCH   1   2
BRANCH   1  11
ATOM     11  C   UNL     1      -0.184 -22.050  47.547  1.00  0.00    -0.031 C 
ATOM     12  C   UNL     1       0.220 -22.189  48.825  1.00  0.00    -0.027 C 
BRANCH  12  13
ATOM     13  C   UNL     1      -0.694 -22.152  50.021  1.00  0.00     0.054 C 
BRANCH  13  14
ATOM     14  C   UNL     1      -0.998 -23.556  50.483  1.00  0.00    -0.027 C 
ATOM     15  C   UNL     1      -2.217 -24.128  50.494  1.00  0.00    -0.031 C 
BRANCH  15  16
ATOM     16  C   UNL     1      -3.494 -23.458  50.053  1.00  0.00     0.027 C 
BRANCH  16  17
ATOM     17  C   UNL     1      -4.545 -24.491  49.618  1.00  0.00     0.004 C 
BRANCH  17  18
ATOM     18  C   UNL     1      -5.503 -23.944  48.547  1.00  0.00     0.000 C 
BRANCH  18  19
ATOM     19  C   UNL     1      -5.593 -22.411  48.563  1.00  0.00    -0.003 C 
ATOM     20  C   UNL     1      -5.284 -21.828  47.186  1.00  0.00     0.004 C 
ENDBRANCH  18  19
ENDBRANCH  17  18
ENDBRANCH  16  17
ENDBRANCH  15  16
ENDBRANCH  13  14
ENDBRANCH  12  13
ENDBRANCH   1  11
TORSDOF 14
ENDMDL
MODEL 2
REMARK VINA RESULT:    -5.222      3.980      5.614
REMARK INTER + INTRA:         -12.089
REMARK INTER:                  -9.757
REMARK INTRA:                  -2.332
REMARK UNBOUND:                -2.592
REMARK SMILES CCCCCC=CCC=CCCCCCCCC(=O)[O-]
REMARK SMILES IDX 11 1 12 2 13 3 14 4 15 5 16 6 17 7 18 8 19 9 20 10 10 11
REMARK SMILES IDX 9 12 8 13 7 14 6 15 5 16 4 17 3 18 2 19 1 20
REMARK H PARENT
REMARK Flexibility Score: inf
ROOT
ATOM      1  C   UNL     1      -2.057 -21.730  47.131  1.00  0.00     0.027 C 
ENDROOT
BRANCH   1   2
ATOM      2  C   UNL     1      -2.679 -21.450  45.753  1.00  0.00     0.004 C 
BRANCH   2   3
ATOM      3  C   UNL     1      -4.101 -20.874  45.850  1.00  0.00     0.000 C 
BRANCH   3   4
ATOM      4  C   UNL     1      -4.880 -21.427  47.057  1.00  0.00     0.000 C 
BRANCH   4   5
ATOM      5  C   UNL     1      -6.121 -20.585  47.397  1.00  0.00     0.000 C 
BRANCH   5   6
ATOM      6  C   UNL     1      -6.056 -19.966  48.802  1.00  0.00     0.006 C 
BRANCH   6   7
ATOM      7  C   UNL     1      -5.600 -21.001  49.835  1.00  0.00     0.053 C 
BRANCH   7   8
ATOM      8  C   UNL     1      -4.570 -20.413  50.747  1.00  0.00     0.041 C 
ATOM      9  O   UNL     1      -4.736 -19.262  51.230  1.00  0.00    -0.550 OA
ATOM     10  O   UNL     1      -3.406 -21.116  51.029  1.00  0.00    -0.550 OA
ENDBRANCH   7   8
ENDBRANCH   6   7
ENDBRANCH   5   6
ENDBRANCH   4   5
ENDBRANCH   3   4
ENDBRANCH   2   3
ENDBRANCH   1   2
BRANCH   1  11
ATOM     11  C   UNL     1      -0.575 -21.973  47.007  1.00  0.00    -0.031 C 
ATOM     12  C   UNL     1       0.290 -21.964  48.039  1.00  0.00    -0.027 C 
BRANCH  12  13
ATOM     13  C   UNL     1      -0.075 -21.626  49.461  1.00  0.00     0.054 C 
BRANCH  13  14
ATOM     14  C   UNL     1       0.441 -22.694  50.394  1.00  0.00    -0.027 C 
ATOM     15  C   UNL     1      -0.251 -23.776  50.801  1.00  0.00    -0.031 C 
BRANCH  15  16
ATOM     16  C   UNL     1      -1.667 -24.103  50.400  1.00  0.00     0.027 C 
BRANCH  16  17
ATOM     17  C   UNL     1      -1.704 -24.919  49.098  1.00  0.00     0.004 C 
BRANCH  17  18
ATOM     18  C   UNL     1      -3.085 -24.888  48.422  1.00  0.00     0.000 C 
BRANCH  18  19
ATOM     19  C   UNL     1      -4.201 -24.441  49.378  1.00  0.00    -0.003 C 
ATOM     20  C   UNL     1      -5.566 -24.507  48.698  1.00  0.00     0.004 C 
ENDBRANCH  18  19
ENDBRANCH  17  18
ENDBRANCH  16  17
ENDBRANCH  15  16
ENDBRANCH  13  14
ENDBRANCH  12  13
ENDBRANCH   1  11
TORSDOF 14
ENDMDL
MODEL 3
REMARK VINA RESULT:    -5.194      1.619      2.950
REMARK INTER + INTRA:         -12.037
REMARK INTER:                  -9.279
REMARK INTRA:                  -2.758
REMARK UNBOUND:                -2.592
REMARK SMILES CCCCCC=CCC=CCCCCCCCC(=O)[O-]
REMARK SMILES IDX 11 1 12 2 13 3 14 4 15 5 16 6 17 7 18 8 19 9 20 10 10 11
REMARK SMILES IDX 9 12 8 13 7 14 6 15 5 16 4 17 3 18 2 19 1 20
REMARK H PARENT
REMARK Flexibility Score: inf
ROOT
ATOM      1  C   UNL     1      -0.771 -22.714  49.066  1.00  0.00     0.027 C 
ENDROOT
BRANCH   1   2
ATOM      2  C   UNL     1      -1.161 -21.626  48.053  1.00  0.00     0.004 C 
BRANCH   2   3
ATOM      3  C   UNL     1      -1.954 -22.183  46.860  1.00  0.00     0.000 C 
BRANCH   3   4
ATOM      4  C   UNL     1      -1.394 -23.524  46.353  1.00  0.00     0.000 C 
BRANCH   4   5
ATOM      5  C   UNL     1      -2.459 -24.384  45.652  1.00  0.00     0.000 C 
BRANCH   5   6
ATOM      6  C   UNL     1      -2.730 -25.710  46.381  1.00  0.00     0.006 C 
BRANCH   6   7
ATOM      7  C   UNL     1      -2.301 -26.903  45.522  1.00  0.00     0.053 C 
BRANCH   7   8
ATOM      8  C   UNL     1      -3.492 -27.716  45.121  1.00  0.00     0.041 C 
ATOM      9  O   UNL     1      -3.448 -28.973  45.177  1.00  0.00    -0.550 OA
ATOM     10  O   UNL     1      -4.634 -27.087  44.643  1.00  0.00    -0.550 OA
ENDBRANCH   7   8
ENDBRANCH   6   7
ENDBRANCH   5   6
ENDBRANCH   4   5
ENDBRANCH   3   4
ENDBRANCH   2   3
ENDBRANCH   1   2
BRANCH   1  11
ATOM     11  C   UNL     1      -1.627 -22.623  50.303  1.00  0.00    -0.031 C 
ATOM     12  C   UNL     1      -2.676 -23.424  50.567  1.00  0.00    -0.027 C 
BRANCH  12  13
ATOM     13  C   UNL     1      -3.207 -24.479  49.632  1.00  0.00     0.054 C 
BRANCH  13  14
ATOM     14  C   UNL     1      -4.707 -24.580  49.767  1.00  0.00    -0.027 C 
ATOM     15  C   UNL     1      -5.604 -23.895  49.033  1.00  0.00    -0.031 C 
BRANCH  15  16
ATOM     16  C   UNL     1      -5.265 -22.899  47.953  1.00  0.00     0.027 C 
BRANCH  16  17
ATOM     17  C   UNL     1      -5.742 -21.486  48.326  1.00  0.00     0.004 C 
BRANCH  17  18
ATOM     18  C   UNL     1      -4.698 -20.707  49.142  1.00  0.00     0.000 C 
BRANCH  18  19
ATOM     19  C   UNL     1      -5.066 -20.606  50.630  1.00  0.00    -0.003 C 
ATOM     20  C   UNL     1      -4.684 -19.241  51.199  1.00  0.00     0.004 C 
ENDBRANCH  18  19
ENDBRANCH  17  18
ENDBRANCH  16  17
ENDBRANCH  15  16
ENDBRANCH  13  14
ENDBRANCH  12  13
ENDBRANCH   1  11
TORSDOF 14
ENDMDL
MODEL 4
REMARK VINA RESULT:    -5.167      4.272      5.668
REMARK INTER + INTRA:         -11.988
REMARK INTER:                  -9.328
REMARK INTRA:                  -2.660
REMARK UNBOUND:                -2.592
REMARK SMILES CCCCCC=CCC=CCCCCCCCC(=O)[O-]
REMARK SMILES IDX 11 1 12 2 13 3 14 4 15 5 16 6 17 7 18 8 19 9 20 10 10 11
REMARK SMILES IDX 9 12 8 13 7 14 6 15 5 16 4 17 3 18 2 19 1 20
REMARK H PARENT
REMARK Flexibility Score: inf
ROOT
ATOM      1  C   UNL     1      -1.616 -21.819  49.116  1.00  0.00     0.027 C 
ENDROOT
BRANCH   1   2
ATOM      2  C   UNL     1      -0.302 -22.200  48.415  1.00  0.00     0.004 C 
BRANCH   2   3
ATOM      3  C   UNL     1      -0.471 -22.387  46.899  1.00  0.00     0.000 C 
BRANCH   3   4
ATOM      4  C   UNL     1      -1.936 -22.247  46.447  1.00  0.00     0.000 C 
BRANCH   4   5
ATOM      5  C   UNL     1      -2.196 -20.944  45.674  1.00  0.00     0.000 C 
BRANCH   5   6
ATOM      6  C   UNL     1      -3.588 -20.902  45.024  1.00  0.00     0.006 C 
BRANCH   6   7
ATOM      7  C   UNL     1      -3.715 -19.703  44.080  1.00  0.00     0.053 C 
BRANCH   7   8
ATOM      8  C   UNL     1      -4.587 -18.649  44.686  1.00  0.00     0.041 C 
ATOM      9  O   UNL     1      -5.346 -18.933  45.650  1.00  0.00    -0.550 OA
ATOM     10  O   UNL     1      -4.597 -17.365  44.158  1.00  0.00    -0.550 OA
ENDBRANCH   7   8
ENDBRANCH   6   7
ENDBRANCH   5   6
ENDBRANCH   4   5
ENDBRANCH   3   4
ENDBRANCH   2   3
ENDBRANCH   1   2
BRANCH   1  11
ATOM     11  C   UNL     1      -1.778 -22.592  50.400  1.00  0.00    -0.031 C 
ATOM     12  C   UNL     1      -2.383 -23.792  50.499  1.00  0.00    -0.027 C 
BRANCH  12  13
ATOM     13  C   UNL     1      -3.063 -24.505  49.360  1.00  0.00     0.054 C 
BRANCH  13  14
ATOM     14  C   UNL     1      -4.554 -24.545  49.594  1.00  0.00    -0.027 C 
ATOM     15  C   UNL     1      -5.467 -23.802  48.939  1.00  0.00    -0.031 C 
BRANCH  15  16
ATOM     16  C   UNL     1      -5.156 -22.795  47.861  1.00  0.00     0.027 C 
BRANCH  16  17
ATOM     17  C   UNL     1      -5.879 -21.463  48.116  1.00  0.00     0.004 C 
BRANCH  17  18
ATOM     18  C   UNL     1      -5.050 -20.497  48.979  1.00  0.00     0.000 C 
BRANCH  18  19
ATOM     19  C   UNL     1      -5.236 -20.742  50.484  1.00  0.00    -0.003 C 
ATOM     20  C   UNL     1      -4.229 -19.936  51.300  1.00  0.00     0.004 C 
ENDBRANCH  18  19
ENDBRANCH  17  18
ENDBRANCH  16  17
ENDBRANCH  15  16
ENDBRANCH  13  14
ENDBRANCH  12  13
ENDBRANCH   1  11
TORSDOF 14
ENDMDL
MODEL 5
REMARK VINA RESULT:    -5.152      3.535      5.525
REMARK INTER + INTRA:         -11.961
REMARK INTER:                  -9.244
REMARK INTRA:                  -2.717
REMARK UNBOUND:                -2.592
REMARK SMILES CCCCCC=CCC=CCCCCCCCC(=O)[O-]
REMARK SMILES IDX 11 1 12 2 13 3 14 4 15 5 16 6 17 7 18 8 19 9 20 10 10 11
REMARK SMILES IDX 9 12 8 13 7 14 6 15 5 16 4 17 3 18 2 19 1 20
REMARK H PARENT
REMARK Flexibility Score: inf
ROOT
ATOM      1  C   UNL     1      -1.122 -24.882  49.392  1.00  0.00     0.027 C 
ENDROOT
BRANCH   1   2
ATOM      2  C   UNL     1      -2.583 -24.927  48.916  1.00  0.00     0.004 C 
BRANCH   2   3
ATOM      3  C   UNL     1      -3.543 -24.211  49.880  1.00  0.00     0.000 C 
BRANCH   3   4
ATOM      4  C   UNL     1      -5.016 -24.573  49.620  1.00  0.00     0.000 C 
BRANCH   4   5
ATOM      5  C   UNL     1      -5.608 -23.821  48.416  1.00  0.00     0.000 C 
BRANCH   5   6
ATOM      6  C   UNL     1      -5.611 -22.296  48.607  1.00  0.00     0.006 C 
BRANCH   6   7
ATOM      7  C   UNL     1      -5.395 -21.577  47.273  1.00  0.00     0.053 C 
BRANCH   7   8
ATOM      8  C   UNL     1      -5.710 -20.121  47.405  1.00  0.00     0.041 C 
ATOM      9  O   UNL     1      -5.797 -19.397  46.378  1.00  0.00    -0.550 OA
ATOM     10  O   UNL     1      -5.863 -19.553  48.663  1.00  0.00    -0.550 OA
ENDBRANCH   7   8
ENDBRANCH   6   7
ENDBRANCH   5   6
ENDBRANCH   4   5
ENDBRANCH   3   4
ENDBRANCH   2   3
ENDBRANCH   1   2
BRANCH   1  11
ATOM     11  C   UNL     1      -0.953 -23.876  50.501  1.00  0.00    -0.031 C 
ATOM     12  C   UNL     1      -0.534 -22.608  50.325  1.00  0.00    -0.027 C 
BRANCH  12  13
ATOM     13  C   UNL     1      -0.089 -22.027  49.008  1.00  0.00     0.054 C 
BRANCH  13  14
ATOM     14  C   UNL     1      -1.280 -21.489  48.254  1.00  0.00    -0.027 C 
ATOM     15  C   UNL     1      -1.633 -21.838  47.001  1.00  0.00    -0.031 C 
BRANCH  15  16
ATOM     16  C   UNL     1      -0.893 -22.823  46.133  1.00  0.00     0.027 C 
BRANCH  16  17
ATOM     17  C   UNL     1      -1.811 -23.968  45.679  1.00  0.00     0.004 C 
BRANCH  17  18
ATOM     18  C   UNL     1      -3.181 -23.468  45.192  1.00  0.00     0.000 C 
BRANCH  18  19
ATOM     19  C   UNL     1      -4.181 -24.612  44.968  1.00  0.00    -0.003 C 
ATOM     20  C   UNL     1      -3.744 -25.876  45.703  1.00  0.00     0.004 C 
ENDBRANCH  18  19
ENDBRANCH  17  18
ENDBRANCH  16  17
ENDBRANCH  15  16
ENDBRANCH  13  14
ENDBRANCH  12  13
ENDBRANCH   1  11
TORSDOF 14
ENDMDL
MODEL 6
REMARK VINA RESULT:    -5.103      3.196      6.541
REMARK INTER + INTRA:         -11.871
REMARK INTER:                  -9.565
REMARK INTRA:                  -2.306
REMARK UNBOUND:                -2.592
REMARK SMILES CCCCCC=CCC=CCCCCCCCC(=O)[O-]
REMARK SMILES IDX 11 1 12 2 13 3 14 4 15 5 16 6 17 7 18 8 19 9 20 10 10 11
REMARK SMILES IDX 9 12 8 13 7 14 6 15 5 16 4 17 3 18 2 19 1 20
REMARK H PARENT
REMARK Flexibility Score: inf
ROOT
ATOM      1  C   UNL     1      -5.399 -24.274  48.173  1.00  0.00     0.027 C 
ENDROOT
BRANCH   1   2
ATOM      2  C   UNL     1      -4.887 -24.522  49.601  1.00  0.00     0.004 C 
BRANCH   2   3
ATOM      3  C   UNL     1      -3.429 -24.073  49.795  1.00  0.00     0.000 C 
BRANCH   3   4
ATOM      4  C   UNL     1      -3.320 -22.738  50.552  1.00  0.00     0.000 C 
BRANCH   4   5
ATOM      5  C   UNL     1      -2.428 -21.717  49.827  1.00  0.00     0.000 C 
BRANCH   5   6
ATOM      6  C   UNL     1      -1.360 -22.379  48.942  1.00  0.00     0.006 C 
BRANCH   6   7
ATOM      7  C   UNL     1       0.047 -21.961  49.377  1.00  0.00     0.053 C 
BRANCH   7   8
ATOM      8  C   UNL     1       0.330 -22.441  50.766  1.00  0.00     0.041 C 
ATOM      9  O   UNL     1       0.068 -23.628  51.091  1.00  0.00    -0.550 OA
ATOM     10  O   UNL     1       0.841 -21.564  51.714  1.00  0.00    -0.550 OA
ENDBRANCH   7   8
ENDBRANCH   6   7
ENDBRANCH   5   6
ENDBRANCH   4   5
ENDBRANCH   3   4
ENDBRANCH   2   3
ENDBRANCH   1   2
BRANCH   1  11
ATOM     11  C   UNL     1      -5.097 -22.863  47.736  1.00  0.00    -0.031 C 
ATOM     12  C   UNL     1      -4.487 -22.535  46.582  1.00  0.00    -0.027 C 
BRANCH  12  13
ATOM     13  C   UNL     1      -3.937 -23.527  45.590  1.00  0.00     0.054 C 
BRANCH  13  14
ATOM     14  C   UNL     1      -2.445 -23.662  45.771  1.00  0.00    -0.027 C 
ATOM     15  C   UNL     1      -1.815 -24.740  46.278  1.00  0.00    -0.031 C 
BRANCH  15  16
ATOM     16  C   UNL     1      -2.494 -25.996  46.761  1.00  0.00     0.027 C 
BRANCH  16  17
ATOM     17  C   UNL     1      -2.513 -27.076  45.669  1.00  0.00     0.004 C 
BRANCH  17  18
ATOM     18  C   UNL     1      -3.892 -27.221  45.004  1.00  0.00     0.000 C 
BRANCH  18  19
ATOM     19  C   UNL     1      -4.218 -28.674  44.630  1.00  0.00    -0.003 C 
ATOM     20  C   UNL     1      -3.049 -29.601  44.955  1.00  0.00     0.004 C 
ENDBRANCH  18  19
ENDBRANCH  17  18
ENDBRANCH  16  17
ENDBRANCH  15  16
ENDBRANCH  13  14
ENDBRANCH  12  13
ENDBRANCH   1  11
TORSDOF 14
ENDMDL
MODEL 7
REMARK VINA RESULT:    -5.062      3.975      5.745
REMARK INTER + INTRA:         -11.797
REMARK INTER:                  -9.349
REMARK INTRA:                  -2.448
REMARK UNBOUND:                -2.592
REMARK SMILES CCCCCC=CCC=CCCCCCCCC(=O)[O-]
REMARK SMILES IDX 11 1 12 2 13 3 14 4 15 5 16 6 17 7 18 8 19 9 20 10 10 11
REMARK SMILES IDX 9 12 8 13 7 14 6 15 5 16 4 17 3 18 2 19 1 20
REMARK H PARENT
REMARK Flexibility Score: inf
ROOT
ATOM      1  C   UNL     1      -2.473 -23.689  50.532  1.00  0.00     0.027 C 
ENDROOT
BRANCH   1   2
ATOM      2  C   UNL     1      -3.229 -24.512  49.477  1.00  0.00     0.004 C 
BRANCH   2   3
ATOM      3  C   UNL     1      -4.738 -24.594  49.757  1.00  0.00     0.000 C 
BRANCH   3   4
ATOM      4  C   UNL     1      -5.584 -24.048  48.594  1.00  0.00     0.000 C 
BRANCH   4   5
ATOM      5  C   UNL     1      -4.734 -23.351  47.518  1.00  0.00     0.000 C 
BRANCH   5   6
ATOM      6  C   UNL     1      -5.026 -21.846  47.410  1.00  0.00     0.006 C 
BRANCH   6   7
ATOM      7  C   UNL     1      -4.381 -21.079  48.567  1.00  0.00     0.053 C 
BRANCH   7   8
ATOM      8  C   UNL     1      -5.417 -20.322  49.337  1.00  0.00     0.041 C 
ATOM      9  O   UNL     1      -6.612 -20.304  48.939  1.00  0.00    -0.550 OA
ATOM     10  O   UNL     1      -5.056 -19.601  50.467  1.00  0.00    -0.550 OA
ENDBRANCH   7   8
ENDBRANCH   6   7
ENDBRANCH   5   6
ENDBRANCH   4   5
ENDBRANCH   3   4
ENDBRANCH   2   3
ENDBRANCH   1   2
BRANCH   1  11
ATOM     11  C   UNL     1      -1.137 -24.315  50.840  1.00  0.00    -0.031 C 
ATOM     12  C   UNL     1       0.007 -23.627  51.018  1.00  0.00    -0.027 C 
BRANCH  12  13
ATOM     13  C   UNL     1       0.145 -22.136  50.853  1.00  0.00     0.054 C 
BRANCH  13  14
ATOM     14  C   UNL     1       1.063 -21.828  49.695  1.00  0.00    -0.027 C 
ATOM     15  C   UNL     1       0.686 -21.733  48.405  1.00  0.00    -0.031 C 
BRANCH  15  16
ATOM     16  C   UNL     1      -0.719 -21.925  47.894  1.00  0.00     0.027 C 
BRANCH  16  17
ATOM     17  C   UNL     1      -0.739 -22.100  46.367  1.00  0.00     0.004 C 
BRANCH  17  18
ATOM     18  C   UNL     1      -1.248 -23.486  45.938  1.00  0.00     0.000 C 
BRANCH  18  19
ATOM     19  C   UNL     1      -2.284 -23.411  44.806  1.00  0.00    -0.003 C 
ATOM     20  C   UNL     1      -2.616 -21.961  44.461  1.00  0.00     0.004 C 
ENDBRANCH  18  19
ENDBRANCH  17  18
ENDBRANCH  16  17
ENDBRANCH  15  16
ENDBRANCH  13  14
ENDBRANCH  12  13
ENDBRANCH   1  11
TORSDOF 14
ENDMDL
MODEL 8
REMARK VINA RESULT:    -5.045      3.590      5.810
REMARK INTER + INTRA:         -11.766
REMARK INTER:                  -9.204
REMARK INTRA:                  -2.562
REMARK UNBOUND:                -2.592
REMARK SMILES CCCCCC=CCC=CCCCCCCCC(=O)[O-]
REMARK SMILES IDX 11 1 12 2 13 3 14 4 15 5 16 6 17 7 18 8 19 9 20 10 10 11
REMARK SMILES IDX 9 12 8 13 7 14 6 15 5 16 4 17 3 18 2 19 1 20
REMARK H PARENT
REMARK Flexibility Score: inf
ROOT
ATOM      1  C   UNL     1      -0.230 -22.507  50.869  1.00  0.00     0.027 C 
ENDROOT
BRANCH   1   2
ATOM      2  C   UNL     1      -0.363 -24.037  50.823  1.00  0.00     0.004 C 
BRANCH   2   3
ATOM      3  C   UNL     1      -1.681 -24.499  50.182  1.00  0.00     0.000 C 
BRANCH   3   4
ATOM      4  C   UNL     1      -2.835 -23.512  50.430  1.00  0.00     0.000 C 
BRANCH   4   5
ATOM      5  C   UNL     1      -4.177 -24.016  49.872  1.00  0.00     0.000 C 
BRANCH   5   6
ATOM      6  C   UNL     1      -4.998 -22.905  49.199  1.00  0.00     0.006 C 
BRANCH   6   7
ATOM      7  C   UNL     1      -4.313 -21.545  49.358  1.00  0.00     0.053 C 
BRANCH   7   8
ATOM      8  C   UNL     1      -5.285 -20.523  49.855  1.00  0.00     0.041 C 
ATOM      9  O   UNL     1      -6.413 -20.405  49.309  1.00  0.00    -0.550 OA
ATOM     10  O   UNL     1      -4.928 -19.669  50.890  1.00  0.00    -0.550 OA
ENDBRANCH   7   8
ENDBRANCH   6   7
ENDBRANCH   5   6
ENDBRANCH   4   5
ENDBRANCH   3   4
ENDBRANCH   2   3
ENDBRANCH   1   2
BRANCH   1  11
ATOM     11  C   UNL     1       0.846 -22.036  49.925  1.00  0.00    -0.031 C 
ATOM     12  C   UNL     1       0.646 -21.732  48.628  1.00  0.00    -0.027 C 
BRANCH  12  13
ATOM     13  C   UNL     1      -0.664 -21.895  47.902  1.00  0.00     0.054 C 
BRANCH  13  14
ATOM     14  C   UNL     1      -0.600 -23.094  46.988  1.00  0.00    -0.027 C 
ATOM     15  C   UNL     1      -1.602 -23.529  46.200  1.00  0.00    -0.031 C 
BRANCH  15  16
ATOM     16  C   UNL     1      -2.967 -22.896  46.102  1.00  0.00     0.027 C 
BRANCH  16  17
ATOM     17  C   UNL     1      -4.069 -23.960  45.976  1.00  0.00     0.004 C 
BRANCH  17  18
ATOM     18  C   UNL     1      -3.588 -25.360  46.392  1.00  0.00     0.000 C 
BRANCH  18  19
ATOM     19  C   UNL     1      -3.796 -26.408  45.289  1.00  0.00    -0.003 C 
ATOM     20  C   UNL     1      -2.817 -27.569  45.443  1.00  0.00     0.004 C 
ENDBRANCH  18  19
ENDBRANCH  17  18
ENDBRANCH  16  17
ENDBRANCH  15  16
ENDBRANCH  13  14
ENDBRANCH  12  13
ENDBRANCH   1  11
TORSDOF 14
ENDMDL
MODEL 9
REMARK VINA RESULT:    -5.006      0.855      3.314
REMARK INTER + INTRA:         -11.695
REMARK INTER:                  -8.899
REMARK INTRA:                  -2.796
REMARK UNBOUND:                -2.592
REMARK SMILES CCCCCC=CCC=CCCCCCCCC(=O)[O-]
REMARK SMILES IDX 11 1 12 2 13 3 14 4 15 5 16 6 17 7 18 8 19 9 20 10 10 11
REMARK SMILES IDX 9 12 8 13 7 14 6 15 5 16 4 17 3 18 2 19 1 20
REMARK H PARENT
REMARK Flexibility Score: inf
ROOT
ATOM      1  C   UNL     1      -2.704 -21.568  47.114  1.00  0.00     0.027 C 
ENDROOT
BRANCH   1   2
ATOM      2  C   UNL     1      -1.789 -22.772  46.842  1.00  0.00     0.004 C 
BRANCH   2   3
ATOM      3  C   UNL     1      -2.411 -23.781  45.863  1.00  0.00     0.000 C 
BRANCH   3   4
ATOM      4  C   UNL     1      -2.806 -25.101  46.549  1.00  0.00     0.000 C 
BRANCH   4   5
ATOM      5  C   UNL     1      -4.181 -25.618  46.092  1.00  0.00     0.000 C 
BRANCH   5   6
ATOM      6  C   UNL     1      -4.116 -26.395  44.767  1.00  0.00     0.006 C 
BRANCH   6   7
ATOM      7  C   UNL     1      -2.956 -27.394  44.776  1.00  0.00     0.053 C 
BRANCH   7   8
ATOM      8  C   UNL     1      -3.470 -28.793  44.919  1.00  0.00     0.041 C 
ATOM      9  O   UNL     1      -2.709 -29.707  45.331  1.00  0.00    -0.550 OA
ATOM     10  O   UNL     1      -4.776 -29.095  44.555  1.00  0.00    -0.550 OA
ENDBRANCH   7   8
ENDBRANCH   6   7
ENDBRANCH   5   6
ENDBRANCH   4   5
ENDBRANCH   3   4
ENDBRANCH   2   3
ENDBRANCH   1   2
BRANCH   1  11
ATOM     11  C   UNL     1      -4.054 -21.768  46.474  1.00  0.00    -0.031 C 
ATOM     12  C   UNL     1      -5.201 -21.957  47.153  1.00  0.00    -0.027 C 
BRANCH  12  13
ATOM     13  C   UNL     1      -5.300 -22.082  48.651  1.00  0.00     0.054 C 
BRANCH  13  14
ATOM     14  C   UNL     1      -5.312 -23.538  49.048  1.00  0.00    -0.027 C 
ATOM     15  C   UNL     1      -4.351 -24.162  49.754  1.00  0.00    -0.031 C 
BRANCH  15  16
ATOM     16  C   UNL     1      -3.089 -23.514  50.266  1.00  0.00     0.027 C 
BRANCH  16  17
ATOM     17  C   UNL     1      -1.882 -24.454  50.126  1.00  0.00     0.004 C 
BRANCH  17  18
ATOM     18  C   UNL     1      -0.558 -23.776  50.516  1.00  0.00     0.000 C 
BRANCH  18  19
ATOM     19  C   UNL     1      -0.604 -22.250  50.349  1.00  0.00    -0.003 C 
ATOM     20  C   UNL     1       0.577 -21.753  49.518  1.00  0.00     0.004 C 
ENDBRANCH  18  19
ENDBRANCH  17  18
ENDBRANCH  16  17
ENDBRANCH  15  16
ENDBRANCH  13  14
ENDBRANCH  12  13
ENDBRANCH   1  11
TORSDOF 14
ENDMDL
