MODEL 1
REMARK VINA RESULT:    -5.343      0.000      0.000
REMARK INTER + INTRA:          -6.424
REMARK INTER:                  -6.124
REMARK INTRA:                  -0.300
REMARK UNBOUND:                -0.300
REMARK SMILES O=C1C[C@@H](c2ccc(O)cc2)Oc2cc(O)cc(O)c21
REMARK SMILES IDX 3 1 4 2 12 3 13 4 14 5 15 6 17 7 18 8 20 9 2 10 1 11 5 12
REMARK SMILES IDX 6 13 11 14 7 15 10 16 8 17 9 18 19 20 16 22
REMARK H PARENT 9 19 19 21 16 23
REMARK Flexibility Score: inf
ROOT
ATOM      1  C   UNL     1      -4.807  15.253  21.384  1.00  0.00     0.131 C 
ATOM      2  C   UNL     1      -4.065  16.074  22.451  1.00  0.00     0.211 C 
ATOM      3  O   UNL     1      -4.528  17.428  22.456  1.00  0.00    -0.484 OA
ATOM      4  C   UNL     1      -5.887  17.748  22.354  1.00  0.00     0.138 A 
ATOM      5  C   UNL     1      -6.316  19.038  22.681  1.00  0.00     0.093 A 
ATOM      6  C   UNL     1      -7.673  19.368  22.609  1.00  0.00     0.123 A 
ATOM      7  C   UNL     1      -8.602  18.406  22.201  1.00  0.00     0.093 A 
ATOM      8  C   UNL     1      -8.184  17.114  21.852  1.00  0.00     0.133 A 
ATOM      9  C   UNL     1      -6.814  16.779  21.921  1.00  0.00     0.102 A 
ATOM     10  C   UNL     1      -6.290  15.451  21.520  1.00  0.00     0.174 C 
ATOM     11  O   UNL     1      -7.069  14.500  21.240  1.00  0.00    -0.294 OA
ENDROOT
BRANCH   2  12
ATOM     12  C   UNL     1      -2.576  16.038  22.212  1.00  0.00    -0.007 A 
ATOM     13  C   UNL     1      -2.051  15.304  21.135  1.00  0.00     0.011 A 
ATOM     14  C   UNL     1      -1.701  16.780  23.025  1.00  0.00     0.011 A 
ATOM     15  C   UNL     1      -0.674  15.292  20.891  1.00  0.00     0.046 A 
ATOM     16  C   UNL     1      -0.325  16.766  22.779  1.00  0.00     0.046 A 
ATOM     17  C   UNL     1       0.192  16.020  21.713  1.00  0.00     0.115 A 
BRANCH  17  18
ATOM     18  O   UNL     1       1.562  16.000  21.459  1.00  0.00    -0.508 OA
ATOM     19  H   UNL     1       2.235  16.293  22.157  1.00  0.00     0.293 HD
ENDBRANCH  17  18
ENDBRANCH   2  12
BRANCH   8  20
ATOM     20  O   UNL     1      -9.125  16.174  21.431  1.00  0.00    -0.507 OA
ATOM     21  H   UNL     1      -9.046  15.194  21.678  1.00  0.00     0.293 HD
ENDBRANCH   8  20
BRANCH   6  22
ATOM     22  O   UNL     1      -8.111  20.648  22.942  1.00  0.00    -0.508 OA
ATOM     23  H   UNL     1      -8.302  20.908  23.903  1.00  0.00     0.293 HD
ENDBRANCH   6  22
TORSDOF 4
ENDMDL
MODEL 2
REMARK VINA RESULT:    -4.659     11.550     14.036
REMARK INTER + INTRA:          -5.640
REMARK INTER:                  -5.332
REMARK INTRA:                  -0.308
REMARK UNBOUND:                -0.300
REMARK SMILES O=C1C[C@@H](c2ccc(O)cc2)Oc2cc(O)cc(O)c21
REMARK SMILES IDX 3 1 4 2 12 3 13 4 14 5 15 6 17 7 18 8 20 9 2 10 1 11 5 12
REMARK SMILES IDX 6 13 11 14 7 15 10 16 8 17 9 18 19 20 16 22
REMARK H PARENT 9 19 19 21 16 23
REMARK Flexibility Score: inf
ROOT
ATOM      1  C   UNL     1       6.764  12.242  22.803  1.00  0.00     0.131 C 
ATOM      2  C   UNL     1       8.272  12.207  23.093  1.00  0.00     0.211 C 
ATOM      3  O   UNL     1       8.976  13.075  22.199  1.00  0.00    -0.484 OA
ATOM      4  C   UNL     1       8.502  14.351  21.876  1.00  0.00     0.138 A 
ATOM      5  C   UNL     1       9.362  15.270  21.268  1.00  0.00     0.093 A 
ATOM      6  C   UNL     1       8.912  16.559  20.960  1.00  0.00     0.123 A 
ATOM      7  C   UNL     1       7.596  16.925  21.256  1.00  0.00     0.093 A 
ATOM      8  C   UNL     1       6.716  16.006  21.848  1.00  0.00     0.133 A 
ATOM      9  C   UNL     1       7.167  14.704  22.156  1.00  0.00     0.102 A 
ATOM     10  C   UNL     1       6.284  13.664  22.736  1.00  0.00     0.174 C 
ATOM     11  O   UNL     1       5.117  13.942  23.125  1.00  0.00    -0.294 OA
ENDROOT
BRANCH   2  12
ATOM     12  C   UNL     1       8.806  10.801  22.976  1.00  0.00    -0.007 A 
ATOM     13  C   UNL     1      10.178  10.580  22.773  1.00  0.00     0.011 A 
ATOM     14  C   UNL     1       7.949   9.695  23.125  1.00  0.00     0.011 A 
ATOM     15  C   UNL     1      10.682   9.278  22.695  1.00  0.00     0.046 A 
ATOM     16  C   UNL     1       8.455   8.394  23.046  1.00  0.00     0.046 A 
ATOM     17  C   UNL     1       9.823   8.183  22.828  1.00  0.00     0.115 A 
BRANCH  17  18
ATOM     18  O   UNL     1      10.337   6.890  22.748  1.00  0.00    -0.508 OA
ATOM     19  H   UNL     1       9.925   6.193  22.139  1.00  0.00     0.293 HD
ENDBRANCH  17  18
ENDBRANCH   2  12
BRANCH   8  20
ATOM     20  O   UNL     1       5.401  16.386  22.118  1.00  0.00    -0.507 OA
ATOM     21  H   UNL     1       4.868  15.961  22.869  1.00  0.00     0.293 HD
ENDBRANCH   8  20
BRANCH   6  22
ATOM     22  O   UNL     1       9.765  17.485  20.363  1.00  0.00    -0.508 OA
ATOM     23  H   UNL     1      10.701  17.646  20.716  1.00  0.00     0.293 HD
ENDBRANCH   6  22
TORSDOF 4
ENDMDL
MODEL 3
REMARK VINA RESULT:    -3.752      1.248      2.808
REMARK INTER + INTRA:          -4.600
REMARK INTER:                  -4.305
REMARK INTRA:                  -0.295
REMARK UNBOUND:                -0.300
REMARK SMILES O=C1C[C@@H](c2ccc(O)cc2)Oc2cc(O)cc(O)c21
REMARK SMILES IDX 3 1 4 2 12 3 13 4 14 5 15 6 17 7 18 8 20 9 2 10 1 11 5 12
REMARK SMILES IDX 6 13 11 14 7 15 10 16 8 17 9 18 19 20 16 22
REMARK H PARENT 9 19 19 21 16 23
REMARK Flexibility Score: inf
ROOT
ATOM      1  C   UNL     1      -4.197  18.246  22.877  1.00  0.00     0.131 C 
ATOM      2  C   UNL     1      -3.809  17.222  21.798  1.00  0.00     0.211 C 
ATOM      3  O   UNL     1      -4.681  16.089  21.844  1.00  0.00    -0.484 OA
ATOM      4  C   UNL     1      -6.064  16.222  22.012  1.00  0.00     0.138 A 
ATOM      5  C   UNL     1      -6.898  15.136  21.734  1.00  0.00     0.093 A 
ATOM      6  C   UNL     1      -8.285  15.259  21.872  1.00  0.00     0.123 A 
ATOM      7  C   UNL     1      -8.836  16.471  22.297  1.00  0.00     0.093 A 
ATOM      8  C   UNL     1      -8.009  17.564  22.598  1.00  0.00     0.133 A 
ATOM      9  C   UNL     1      -6.610  17.440  22.462  1.00  0.00     0.102 A 
ATOM     10  C   UNL     1      -5.670  18.533  22.810  1.00  0.00     0.174 C 
ATOM     11  O   UNL     1      -6.088  19.686  23.102  1.00  0.00    -0.294 OA
ENDROOT
BRANCH   2  12
ATOM     12  C   UNL     1      -2.376  16.780  21.972  1.00  0.00    -0.007 A 
ATOM     13  C   UNL     1      -1.810  15.851  21.083  1.00  0.00     0.011 A 
ATOM     14  C   UNL     1      -1.575  17.331  22.988  1.00  0.00     0.011 A 
ATOM     15  C   UNL     1      -0.474  15.462  21.222  1.00  0.00     0.046 A 
ATOM     16  C   UNL     1      -0.240  16.940  23.125  1.00  0.00     0.046 A 
ATOM     17  C   UNL     1       0.313  16.003  22.243  1.00  0.00     0.115 A 
BRANCH  17  18
ATOM     18  O   UNL     1       1.642  15.606  22.370  1.00  0.00    -0.508 OA
ATOM     19  H   UNL     1       1.902  14.789  22.911  1.00  0.00     0.293 HD
ENDBRANCH  17  18
ENDBRANCH   2  12
BRANCH   8  20
ATOM     20  O   UNL     1      -8.579  18.759  23.038  1.00  0.00    -0.507 OA
ATOM     21  H   UNL     1      -9.403  19.150  22.594  1.00  0.00     0.293 HD
ENDBRANCH   8  20
BRANCH   6  22
ATOM     22  O   UNL     1      -9.125  14.184  21.587  1.00  0.00    -0.508 OA
ATOM     23  H   UNL     1     -10.023  14.320  21.138  1.00  0.00     0.293 HD
ENDBRANCH   6  22
TORSDOF 4
ENDMDL
MODEL 4
REMARK VINA RESULT:    -3.743     11.286     14.889
REMARK INTER + INTRA:          -4.590
REMARK INTER:                  -4.289
REMARK INTRA:                  -0.300
REMARK UNBOUND:                -0.300
REMARK SMILES O=C1C[C@@H](c2ccc(O)cc2)Oc2cc(O)cc(O)c21
REMARK SMILES IDX 3 1 4 2 12 3 13 4 14 5 15 6 17 7 18 8 20 9 2 10 1 11 5 12
REMARK SMILES IDX 6 13 11 14 7 15 10 16 8 17 9 18 19 20 16 22
REMARK H PARENT 9 19 19 21 16 23
REMARK Flexibility Score: inf
ROOT
ATOM      1  C   UNL     1      10.810  13.406  21.097  1.00  0.00     0.131 C 
ATOM      2  C   UNL     1       9.663  12.407  20.876  1.00  0.00     0.211 C 
ATOM      3  O   UNL     1       8.496  12.815  21.597  1.00  0.00    -0.484 OA
ATOM      4  C   UNL     1       8.073  14.148  21.633  1.00  0.00     0.138 A 
ATOM      5  C   UNL     1       6.780  14.448  22.070  1.00  0.00     0.093 A 
ATOM      6  C   UNL     1       6.331  15.773  22.088  1.00  0.00     0.123 A 
ATOM      7  C   UNL     1       7.184  16.801  21.674  1.00  0.00     0.093 A 
ATOM      8  C   UNL     1       8.491  16.517  21.252  1.00  0.00     0.133 A 
ATOM      9  C   UNL     1       8.946  15.180  21.236  1.00  0.00     0.102 A 
ATOM     10  C   UNL     1      10.329  14.807  20.851  1.00  0.00     0.174 C 
ATOM     11  O   UNL     1      11.125  15.659  20.370  1.00  0.00    -0.294 OA
ENDROOT
BRANCH   2  12
ATOM     12  C   UNL     1      10.075  11.019  21.300  1.00  0.00    -0.007 A 
ATOM     13  C   UNL     1       9.803  10.568  22.603  1.00  0.00     0.011 A 
ATOM     14  C   UNL     1      10.682  10.141  20.385  1.00  0.00     0.011 A 
ATOM     15  C   UNL     1      10.156   9.272  22.991  1.00  0.00     0.046 A 
ATOM     16  C   UNL     1      11.034   8.845  20.776  1.00  0.00     0.046 A 
ATOM     17  C   UNL     1      10.773   8.409  22.081  1.00  0.00     0.115 A 
BRANCH  17  18
ATOM     18  O   UNL     1      11.119   7.120  22.481  1.00  0.00    -0.508 OA
ATOM     19  H   UNL     1      10.432   6.483  22.867  1.00  0.00     0.293 HD
ENDBRANCH  17  18
ENDBRANCH   2  12
BRANCH   8  20
ATOM     20  O   UNL     1       9.331  17.559  20.861  1.00  0.00    -0.507 OA
ATOM     21  H   UNL     1      10.189  17.387  20.347  1.00  0.00     0.293 HD
ENDBRANCH   8  20
BRANCH   6  22
ATOM     22  O   UNL     1       5.040  16.080  22.512  1.00  0.00    -0.508 OA
ATOM     23  H   UNL     1       4.577  16.933  22.222  1.00  0.00     0.293 HD
ENDBRANCH   6  22
TORSDOF 4
ENDMDL
MODEL 5
REMARK VINA RESULT:    -3.429      7.435     13.670
REMARK INTER + INTRA:          -4.230
REMARK INTER:                  -3.934
REMARK INTRA:                  -0.296
REMARK UNBOUND:                -0.300
REMARK SMILES O=C1C[C@@H](c2ccc(O)cc2)Oc2cc(O)cc(O)c21
REMARK SMILES IDX 3 1 4 2 12 3 13 4 14 5 15 6 17 7 18 8 20 9 2 10 1 11 5 12
REMARK SMILES IDX 6 13 11 14 7 15 10 16 8 17 9 18 19 20 16 22
REMARK H PARENT 9 19 19 21 16 23
REMARK Flexibility Score: inf
ROOT
ATOM      1  C   UNL     1       6.855  17.129  21.195  1.00  0.00     0.131 C 
ATOM      2  C   UNL     1       6.423  15.996  22.140  1.00  0.00     0.211 C 
ATOM      3  O   UNL     1       6.963  14.745  21.704  1.00  0.00    -0.484 OA
ATOM      4  C   UNL     1       8.283  14.621  21.255  1.00  0.00     0.138 A 
ATOM      5  C   UNL     1       8.856  13.351  21.146  1.00  0.00     0.093 A 
ATOM      6  C   UNL     1      10.182  13.211  20.722  1.00  0.00     0.123 A 
ATOM      7  C   UNL     1      10.933  14.345  20.400  1.00  0.00     0.093 A 
ATOM      8  C   UNL     1      10.364  15.625  20.485  1.00  0.00     0.133 A 
ATOM      9  C   UNL     1       9.025  15.768  20.910  1.00  0.00     0.102 A 
ATOM     10  C   UNL     1       8.340  17.081  20.977  1.00  0.00     0.174 C 
ATOM     11  O   UNL     1       8.973  18.158  20.802  1.00  0.00    -0.294 OA
ENDROOT
BRANCH   2  12
ATOM     12  C   UNL     1       4.919  15.911  22.219  1.00  0.00    -0.007 A 
ATOM     13  C   UNL     1       4.308  14.935  23.024  1.00  0.00     0.011 A 
ATOM     14  C   UNL     1       4.112  16.838  21.537  1.00  0.00     0.011 A 
ATOM     15  C   UNL     1       2.915  14.872  23.125  1.00  0.00     0.046 A 
ATOM     16  C   UNL     1       2.719  16.773  21.639  1.00  0.00     0.046 A 
ATOM     17  C   UNL     1       2.117  15.787  22.432  1.00  0.00     0.115 A 
BRANCH  17  18
ATOM     18  O   UNL     1       0.730  15.713  22.541  1.00  0.00    -0.508 OA
ATOM     19  H   UNL     1       0.245  14.823  22.532  1.00  0.00     0.293 HD
ENDBRANCH  17  18
ENDBRANCH   2  12
BRANCH   8  20
ATOM     20  O   UNL     1      11.125  16.742  20.142  1.00  0.00    -0.507 OA
ATOM     21  H   UNL     1      12.135  16.696  20.069  1.00  0.00     0.293 HD
ENDBRANCH   8  20
BRANCH   6  22
ATOM     22  O   UNL     1      10.765  11.949  20.621  1.00  0.00    -0.508 OA
ATOM     23  H   UNL     1      11.312  11.683  19.810  1.00  0.00     0.293 HD
ENDBRANCH   6  22
TORSDOF 4
ENDMDL
MODEL 6
REMARK VINA RESULT:    -3.427     13.693     16.695
REMARK INTER + INTRA:          -4.228
REMARK INTER:                  -3.925
REMARK INTRA:                  -0.302
REMARK UNBOUND:                -0.300
REMARK SMILES O=C1C[C@@H](c2ccc(O)cc2)Oc2cc(O)cc(O)c21
REMARK SMILES IDX 3 1 4 2 12 3 13 4 14 5 15 6 17 7 18 8 20 9 2 10 1 11 5 12
REMARK SMILES IDX 6 13 11 14 7 15 10 16 8 17 9 18 19 20 16 22
REMARK H PARENT 9 19 19 21 16 23
REMARK Flexibility Score: inf
ROOT
ATOM      1  C   UNL     1       9.970  12.621  18.788  1.00  0.00     0.131 C 
ATOM      2  C   UNL     1      10.661  13.172  20.046  1.00  0.00     0.211 C 
ATOM      3  O   UNL     1      10.498  12.270  21.145  1.00  0.00    -0.484 OA
ATOM      4  C   UNL     1      10.637  10.885  20.996  1.00  0.00     0.138 A 
ATOM      5  C   UNL     1      10.786  10.083  22.131  1.00  0.00     0.093 A 
ATOM      6  C   UNL     1      10.950   8.700  21.999  1.00  0.00     0.123 A 
ATOM      7  C   UNL     1      10.958   8.119  20.728  1.00  0.00     0.093 A 
ATOM      8  C   UNL     1      10.789   8.909  19.581  1.00  0.00     0.133 A 
ATOM      9  C   UNL     1      10.620  10.304  19.712  1.00  0.00     0.102 A 
ATOM     10  C   UNL     1      10.387  11.197  18.552  1.00  0.00     0.174 C 
ATOM     11  O   UNL     1      10.480  10.769  17.369  1.00  0.00    -0.294 OA
ENDROOT
BRANCH   2  12
ATOM     12  C   UNL     1      10.111  14.530  20.405  1.00  0.00    -0.007 A 
ATOM     13  C   UNL     1      10.639  15.687  19.808  1.00  0.00     0.011 A 
ATOM     14  C   UNL     1       9.030  14.653  21.297  1.00  0.00     0.011 A 
ATOM     15  C   UNL     1      10.112  16.945  20.115  1.00  0.00     0.046 A 
ATOM     16  C   UNL     1       8.506  15.912  21.603  1.00  0.00     0.046 A 
ATOM     17  C   UNL     1       9.048  17.062  21.014  1.00  0.00     0.115 A 
BRANCH  17  18
ATOM     18  O   UNL     1       8.533  18.322  21.311  1.00  0.00    -0.508 OA
ATOM     19  H   UNL     1       7.746  18.707  20.800  1.00  0.00     0.293 HD
ENDBRANCH  17  18
ENDBRANCH   2  12
BRANCH   8  20
ATOM     20  O   UNL     1      10.782   8.306  18.324  1.00  0.00    -0.507 OA
ATOM     21  H   UNL     1      10.556   8.829  17.484  1.00  0.00     0.293 HD
ENDBRANCH   8  20
BRANCH   6  22
ATOM     22  O   UNL     1      11.110   7.894  23.125  1.00  0.00    -0.508 OA
ATOM     23  H   UNL     1      10.622   7.011  23.217  1.00  0.00     0.293 HD
ENDBRANCH   6  22
TORSDOF 4
ENDMDL
MODEL 7
REMARK VINA RESULT:    -3.202     10.322     14.159
REMARK INTER + INTRA:          -3.969
REMARK INTER:                  -3.657
REMARK INTRA:                  -0.313
REMARK UNBOUND:                -0.300
REMARK SMILES O=C1C[C@@H](c2ccc(O)cc2)Oc2cc(O)cc(O)c21
REMARK SMILES IDX 3 1 4 2 12 3 13 4 14 5 15 6 17 7 18 8 20 9 2 10 1 11 5 12
REMARK SMILES IDX 6 13 11 14 7 15 10 16 8 17 9 18 19 20 16 22
REMARK H PARENT 9 19 19 21 16 23
REMARK Flexibility Score: inf
ROOT
ATOM      1  C   UNL     1       9.889  12.962  22.221  1.00  0.00     0.131 C 
ATOM      2  C   UNL     1       8.859  11.903  21.798  1.00  0.00     0.211 C 
ATOM      3  O   UNL     1       7.589  12.167  22.402  1.00  0.00    -0.484 OA
ATOM      4  C   UNL     1       7.058  13.460  22.479  1.00  0.00     0.138 A 
ATOM      5  C   UNL     1       5.703  13.630  22.780  1.00  0.00     0.093 A 
ATOM      6  C   UNL     1       5.150  14.913  22.836  1.00  0.00     0.123 A 
ATOM      7  C   UNL     1       5.957  16.030  22.599  1.00  0.00     0.093 A 
ATOM      8  C   UNL     1       7.323  15.875  22.316  1.00  0.00     0.133 A 
ATOM      9  C   UNL     1       7.883  14.581  22.261  1.00  0.00     0.102 A 
ATOM     10  C   UNL     1       9.326  14.340  22.018  1.00  0.00     0.174 C 
ATOM     11  O   UNL     1      10.100  15.282  21.695  1.00  0.00    -0.294 OA
ENDROOT
BRANCH   2  12
ATOM     12  C   UNL     1       9.331  10.520  22.171  1.00  0.00    -0.007 A 
ATOM     13  C   UNL     1       8.402   9.528  22.529  1.00  0.00     0.011 A 
ATOM     14  C   UNL     1      10.697  10.189  22.110  1.00  0.00     0.011 A 
ATOM     15  C   UNL     1       8.834   8.236  22.846  1.00  0.00     0.046 A 
ATOM     16  C   UNL     1      11.125   8.896  22.428  1.00  0.00     0.046 A 
ATOM     17  C   UNL     1      10.194   7.917  22.798  1.00  0.00     0.115 A 
BRANCH  17  18
ATOM     18  O   UNL     1      10.610   6.626  23.117  1.00  0.00    -0.508 OA
ATOM     19  H   UNL     1       9.994   5.829  23.005  1.00  0.00     0.293 HD
ENDBRANCH  17  18
ENDBRANCH   2  12
BRANCH   8  20
ATOM     20  O   UNL     1       8.114  17.003  22.100  1.00  0.00    -0.507 OA
ATOM     21  H   UNL     1       7.821  17.747  21.477  1.00  0.00     0.293 HD
ENDBRANCH   8  20
BRANCH   6  22
ATOM     22  O   UNL     1       3.798  15.092  23.125  1.00  0.00    -0.508 OA
ATOM     23  H   UNL     1       3.116  14.367  22.932  1.00  0.00     0.293 HD
ENDBRANCH   6  22
TORSDOF 4
ENDMDL
MODEL 8
REMARK VINA RESULT:    -3.115      1.614      2.311
REMARK INTER + INTRA:          -3.870
REMARK INTER:                  -3.570
REMARK INTRA:                  -0.300
REMARK UNBOUND:                -0.300
REMARK SMILES O=C1C[C@@H](c2ccc(O)cc2)Oc2cc(O)cc(O)c21
REMARK SMILES IDX 3 1 4 2 12 3 13 4 14 5 15 6 17 7 18 8 20 9 2 10 1 11 5 12
REMARK SMILES IDX 6 13 11 14 7 15 10 16 8 17 9 18 19 20 16 22
REMARK H PARENT 9 19 19 21 16 23
REMARK Flexibility Score: inf
ROOT
ATOM      1  C   UNL     1      -5.464  17.052  22.382  1.00  0.00     0.131 C 
ATOM      2  C   UNL     1      -4.265  17.719  23.075  1.00  0.00     0.211 C 
ATOM      3  O   UNL     1      -4.263  19.128  22.831  1.00  0.00    -0.484 OA
ATOM      4  C   UNL     1      -5.434  19.894  22.888  1.00  0.00     0.138 A 
ATOM      5  C   UNL     1      -5.342  21.286  22.960  1.00  0.00     0.093 A 
ATOM      6  C   UNL     1      -6.501  22.066  23.042  1.00  0.00     0.123 A 
ATOM      7  C   UNL     1      -7.755  21.448  23.044  1.00  0.00     0.093 A 
ATOM      8  C   UNL     1      -7.863  20.052  22.952  1.00  0.00     0.133 A 
ATOM      9  C   UNL     1      -6.694  19.265  22.866  1.00  0.00     0.102 A 
ATOM     10  C   UNL     1      -6.729  17.790  22.715  1.00  0.00     0.174 C 
ATOM     11  O   UNL     1      -7.811  17.149  22.810  1.00  0.00    -0.294 OA
ENDROOT
BRANCH   2  12
ATOM     12  C   UNL     1      -2.968  17.110  22.602  1.00  0.00    -0.007 A 
ATOM     13  C   UNL     1      -2.979  16.066  21.663  1.00  0.00     0.011 A 
ATOM     14  C   UNL     1      -1.735  17.615  23.050  1.00  0.00     0.011 A 
ATOM     15  C   UNL     1      -1.779  15.519  21.199  1.00  0.00     0.046 A 
ATOM     16  C   UNL     1      -0.536  17.066  22.585  1.00  0.00     0.046 A 
ATOM     17  C   UNL     1      -0.556  16.015  21.659  1.00  0.00     0.115 A 
BRANCH  17  18
ATOM     18  O   UNL     1       0.633  15.461  21.189  1.00  0.00    -0.508 OA
ATOM     19  H   UNL     1       0.669  14.948  20.315  1.00  0.00     0.293 HD
ENDBRANCH  17  18
ENDBRANCH   2  12
BRANCH   8  20
ATOM     20  O   UNL     1      -9.124  19.457  22.937  1.00  0.00    -0.507 OA
ATOM     21  H   UNL     1      -9.555  19.102  23.784  1.00  0.00     0.293 HD
ENDBRANCH   8  20
BRANCH   6  22
ATOM     22  O   UNL     1      -6.419  23.454  23.125  1.00  0.00    -0.508 OA
ATOM     23  H   UNL     1      -6.713  23.953  23.956  1.00  0.00     0.293 HD
ENDBRANCH   6  22
TORSDOF 4
ENDMDL
