MODEL 1
REMARK VINA RESULT:    -4.270      0.000      0.000
REMARK INTER + INTRA:          -5.193
REMARK INTER:                  -5.144
REMARK INTRA:                  -0.049
REMARK UNBOUND:                -0.049
REMARK SMILES CC[C@H](C)[C@H]([NH3+])C(=O)[O-]
REMARK SMILES IDX 3 1 4 2 5 3 6 4 7 8 8 9 9 10 2 11 1 12
REMARK H PARENT 6 5 6 6 6 7
REMARK Flexibility Score: inf
ROOT
ATOM      1  C   UNL     1       2.269  43.325  10.067  1.00  0.00     0.050 C 
ATOM      2  C   UNL     1       1.966  43.091  11.561  1.00  0.00     0.014 C 
ENDROOT
BRANCH   1   3
ATOM      3  C   UNL     1       3.778  43.621   9.792  1.00  0.00     0.230 C 
BRANCH   3   4
ATOM      4  N   UNL     1       4.663  42.714  10.539  1.00  0.00    -0.350 N 
ATOM      5  H   UNL     1       4.536  42.812  11.572  1.00  0.00     0.345 HD
ATOM      6  H   UNL     1       4.478  41.722  10.262  1.00  0.00     0.345 HD
ATOM      7  H   UNL     1       5.659  42.933  10.308  1.00  0.00     0.345 HD
ENDBRANCH   3   4
BRANCH   3   8
ATOM      8  C   UNL     1       4.143  45.063  10.049  1.00  0.00     0.099 C 
ATOM      9  O   UNL     1       4.470  45.824   9.100  1.00  0.00    -0.544 OA
ATOM     10  O   UNL     1       4.152  45.552  11.349  1.00  0.00    -0.544 OA
ENDBRANCH   3   8
ENDBRANCH   1   3
BRANCH   1  11
ATOM     11  C   UNL     1       1.378  44.452   9.485  1.00  0.00     0.006 C 
ATOM     12  C   UNL     1       0.456  45.087  10.528  1.00  0.00     0.004 C 
ENDBRANCH   1  11
TORSDOF 4
ENDMDL
MODEL 2
REMARK VINA RESULT:    -4.197      2.338      3.519
REMARK INTER + INTRA:          -5.105
REMARK INTER:                  -5.024
REMARK INTRA:                  -0.082
REMARK UNBOUND:                -0.049
REMARK SMILES CC[C@H](C)[C@H]([NH3+])C(=O)[O-]
REMARK SMILES IDX 3 1 4 2 5 3 6 4 7 8 8 9 9 10 2 11 1 12
REMARK H PARENT 6 5 6 6 6 7
REMARK Flexibility Score: inf
ROOT
ATOM      1  C   UNL     1       4.036  45.679   9.544  1.00  0.00     0.050 C 
ATOM      2  C   UNL     1       2.770  46.551   9.415  1.00  0.00     0.014 C 
ENDROOT
BRANCH   1   3
ATOM      3  C   UNL     1       3.852  44.484  10.533  1.00  0.00     0.230 C 
BRANCH   3   4
ATOM      4  N   UNL     1       4.990  44.351  11.456  1.00  0.00    -0.350 N 
ATOM      5  H   UNL     1       5.348  43.370  11.489  1.00  0.00     0.345 HD
ATOM      6  H   UNL     1       5.765  44.991  11.165  1.00  0.00     0.345 HD
ATOM      7  H   UNL     1       4.689  44.625  12.419  1.00  0.00     0.345 HD
ENDBRANCH   3   4
BRANCH   3   8
ATOM      8  C   UNL     1       3.577  43.180   9.823  1.00  0.00     0.099 C 
ATOM      9  O   UNL     1       3.908  43.019   8.618  1.00  0.00    -0.544 OA
ATOM     10  O   UNL     1       2.922  42.155  10.493  1.00  0.00    -0.544 OA
ENDBRANCH   3   8
ENDBRANCH   1   3
BRANCH   1  11
ATOM     11  C   UNL     1       5.265  46.534   9.946  1.00  0.00     0.006 C 
ATOM     12  C   UNL     1       5.489  47.733   9.023  1.00  0.00     0.004 C 
ENDBRANCH   1  11
TORSDOF 4
ENDMDL
MODEL 3
REMARK VINA RESULT:    -4.186      1.689      2.192
REMARK INTER + INTRA:          -5.091
REMARK INTER:                  -5.161
REMARK INTRA:                   0.070
REMARK UNBOUND:                -0.049
REMARK SMILES CC[C@H](C)[C@H]([NH3+])C(=O)[O-]
REMARK SMILES IDX 3 1 4 2 5 3 6 4 7 8 8 9 9 10 2 11 1 12
REMARK H PARENT 6 5 6 6 6 7
REMARK Flexibility Score: inf
ROOT
ATOM      1  C   UNL     1       3.988  43.182  11.149  1.00  0.00     0.050 C 
ATOM      2  C   UNL     1       4.324  44.251  12.209  1.00  0.00     0.014 C 
ENDROOT
BRANCH   1   3
ATOM      3  C   UNL     1       3.428  43.794   9.826  1.00  0.00     0.230 C 
BRANCH   3   4
ATOM      4  N   UNL     1       4.010  43.159   8.634  1.00  0.00    -0.350 N 
ATOM      5  H   UNL     1       4.993  42.848   8.803  1.00  0.00     0.345 HD
ATOM      6  H   UNL     1       3.433  42.336   8.347  1.00  0.00     0.345 HD
ATOM      7  H   UNL     1       4.013  43.843   7.843  1.00  0.00     0.345 HD
ENDBRANCH   3   4
BRANCH   3   8
ATOM      8  C   UNL     1       3.584  45.295   9.768  1.00  0.00     0.099 C 
ATOM      9  O   UNL     1       4.643  45.817   9.327  1.00  0.00    -0.544 OA
ATOM     10  O   UNL     1       2.565  46.114  10.237  1.00  0.00    -0.544 OA
ENDBRANCH   3   8
ENDBRANCH   1   3
BRANCH   1  11
ATOM     11  C   UNL     1       3.010  42.121  11.715  1.00  0.00     0.006 C 
ATOM     12  C   UNL     1       1.666  42.713  12.145  1.00  0.00     0.004 C 
ENDBRANCH   1  11
TORSDOF 4
ENDMDL
MODEL 4
REMARK VINA RESULT:    -4.182      2.737      4.262
REMARK INTER + INTRA:          -5.086
REMARK INTER:                  -4.986
REMARK INTRA:                  -0.101
REMARK UNBOUND:                -0.049
REMARK SMILES CC[C@H](C)[C@H]([NH3+])C(=O)[O-]
REMARK SMILES IDX 3 1 4 2 5 3 6 4 7 8 8 9 9 10 2 11 1 12
REMARK H PARENT 6 5 6 6 6 7
REMARK Flexibility Score: inf
ROOT
ATOM      1  C   UNL     1       4.600  46.709   8.854  1.00  0.00     0.050 C 
ATOM      2  C   UNL     1       3.904  47.892   8.150  1.00  0.00     0.014 C 
ENDROOT
BRANCH   1   3
ATOM      3  C   UNL     1       3.665  45.966   9.860  1.00  0.00     0.230 C 
BRANCH   3   4
ATOM      4  N   UNL     1       3.547  46.685  11.138  1.00  0.00    -0.350 N 
ATOM      5  H   UNL     1       2.675  47.258  11.181  1.00  0.00     0.345 HD
ATOM      6  H   UNL     1       3.553  46.007  11.934  1.00  0.00     0.345 HD
ATOM      7  H   UNL     1       4.367  47.325  11.253  1.00  0.00     0.345 HD
ENDBRANCH   3   4
BRANCH   3   8
ATOM      8  C   UNL     1       4.075  44.530  10.084  1.00  0.00     0.099 C 
ATOM      9  O   UNL     1       3.997  43.685   9.154  1.00  0.00    -0.544 OA
ATOM     10  O   UNL     1       4.512  44.126  11.339  1.00  0.00    -0.544 OA
ENDBRANCH   3   8
ENDBRANCH   1   3
BRANCH   1  11
ATOM     11  C   UNL     1       5.904  47.165   9.558  1.00  0.00     0.006 C 
ATOM     12  C   UNL     1       6.341  48.575   9.155  1.00  0.00     0.004 C 
ENDBRANCH   1  11
TORSDOF 4
ENDMDL
MODEL 5
REMARK VINA RESULT:    -4.152      2.488      3.606
REMARK INTER + INTRA:          -5.051
REMARK INTER:                  -4.982
REMARK INTRA:                  -0.069
REMARK UNBOUND:                -0.049
REMARK SMILES CC[C@H](C)[C@H]([NH3+])C(=O)[O-]
REMARK SMILES IDX 3 1 4 2 5 3 6 4 7 8 8 9 9 10 2 11 1 12
REMARK H PARENT 6 5 6 6 6 7
REMARK Flexibility Score: inf
ROOT
ATOM      1  C   UNL     1       4.378  46.717   9.887  1.00  0.00     0.050 C 
ATOM      2  C   UNL     1       5.723  47.323   9.438  1.00  0.00     0.014 C 
ENDROOT
BRANCH   1   3
ATOM      3  C   UNL     1       4.483  45.200  10.243  1.00  0.00     0.230 C 
BRANCH   3   4
ATOM      4  N   UNL     1       4.096  44.341   9.113  1.00  0.00    -0.350 N 
ATOM      5  H   UNL     1       3.118  44.534   8.798  1.00  0.00     0.345 HD
ATOM      6  H   UNL     1       4.751  44.484   8.311  1.00  0.00     0.345 HD
ATOM      7  H   UNL     1       4.155  43.338   9.404  1.00  0.00     0.345 HD
ENDBRANCH   3   4
BRANCH   3   8
ATOM      8  C   UNL     1       3.706  44.840  11.486  1.00  0.00     0.099 C 
ATOM      9  O   UNL     1       4.298  44.425  12.519  1.00  0.00    -0.544 OA
ATOM     10  O   UNL     1       2.320  44.932  11.485  1.00  0.00    -0.544 OA
ENDBRANCH   3   8
ENDBRANCH   1   3
BRANCH   1  11
ATOM     11  C   UNL     1       3.275  46.952   8.822  1.00  0.00     0.006 C 
ATOM     12  C   UNL     1       3.657  48.013   7.788  1.00  0.00     0.004 C 
ENDBRANCH   1  11
TORSDOF 4
ENDMDL
MODEL 6
REMARK VINA RESULT:    -4.103      2.237      2.822
REMARK INTER + INTRA:          -4.991
REMARK INTER:                  -4.891
REMARK INTRA:                  -0.100
REMARK UNBOUND:                -0.049
REMARK SMILES CC[C@H](C)[C@H]([NH3+])C(=O)[O-]
REMARK SMILES IDX 3 1 4 2 5 3 6 4 7 8 8 9 9 10 2 11 1 12
REMARK H PARENT 6 5 6 6 6 7
REMARK Flexibility Score: inf
ROOT
ATOM      1  C   UNL     1       4.158  44.473  10.513  1.00  0.00     0.050 C 
ATOM      2  C   UNL     1       4.132  44.350  12.050  1.00  0.00     0.014 C 
ENDROOT
BRANCH   1   3
ATOM      3  C   UNL     1       3.462  45.772   9.996  1.00  0.00     0.230 C 
BRANCH   3   4
ATOM      4  N   UNL     1       2.329  45.474   9.107  1.00  0.00    -0.350 N 
ATOM      5  H   UNL     1       1.593  46.215   9.156  1.00  0.00     0.345 HD
ATOM      6  H   UNL     1       2.661  45.384   8.119  1.00  0.00     0.345 HD
ATOM      7  H   UNL     1       1.897  44.564   9.387  1.00  0.00     0.345 HD
ENDBRANCH   3   4
BRANCH   3   8
ATOM      8  C   UNL     1       4.429  46.726   9.337  1.00  0.00     0.099 C 
ATOM      9  O   UNL     1       5.647  46.735   9.660  1.00  0.00    -0.544 OA
ATOM     10  O   UNL     1       3.968  47.628   8.387  1.00  0.00    -0.544 OA
ENDBRANCH   3   8
ENDBRANCH   1   3
BRANCH   1  11
ATOM     11  C   UNL     1       3.540  43.220   9.841  1.00  0.00     0.006 C 
ATOM     12  C   UNL     1       2.996  42.205  10.849  1.00  0.00     0.004 C 
ENDBRANCH   1  11
TORSDOF 4
ENDMDL
MODEL 7
REMARK VINA RESULT:    -4.096      2.616      3.323
REMARK INTER + INTRA:          -4.983
REMARK INTER:                  -4.902
REMARK INTRA:                  -0.081
REMARK UNBOUND:                -0.049
REMARK SMILES CC[C@H](C)[C@H]([NH3+])C(=O)[O-]
REMARK SMILES IDX 3 1 4 2 5 3 6 4 7 8 8 9 9 10 2 11 1 12
REMARK H PARENT 6 5 6 6 6 7
REMARK Flexibility Score: inf
ROOT
ATOM      1  C   UNL     1       3.030  44.807  11.750  1.00  0.00     0.050 C 
ATOM      2  C   UNL     1       4.427  44.282  12.138  1.00  0.00     0.014 C 
ENDROOT
BRANCH   1   3
ATOM      3  C   UNL     1       2.045  43.666  11.343  1.00  0.00     0.230 C 
BRANCH   3   4
ATOM      4  N   UNL     1       1.214  43.225  12.474  1.00  0.00    -0.350 N 
ATOM      5  H   UNL     1       1.450  43.740  13.352  1.00  0.00     0.345 HD
ATOM      6  H   UNL     1       0.202  43.366  12.254  1.00  0.00     0.345 HD
ATOM      7  H   UNL     1       1.369  42.204  12.641  1.00  0.00     0.345 HD
ENDBRANCH   3   4
BRANCH   3   8
ATOM      8  C   UNL     1       2.746  42.493  10.700  1.00  0.00     0.099 C 
ATOM      9  O   UNL     1       3.035  42.509   9.473  1.00  0.00    -0.544 OA
ATOM     10  O   UNL     1       3.048  41.369  11.458  1.00  0.00    -0.544 OA
ENDBRANCH   3   8
ENDBRANCH   1   3
BRANCH   1  11
ATOM     11  C   UNL     1       3.125  45.870  10.626  1.00  0.00     0.006 C 
ATOM     12  C   UNL     1       4.500  45.916   9.957  1.00  0.00     0.004 C 
ENDBRANCH   1  11
TORSDOF 4
ENDMDL
MODEL 8
REMARK VINA RESULT:    -4.092      1.899      2.796
REMARK INTER + INTRA:          -4.978
REMARK INTER:                  -4.883
REMARK INTRA:                  -0.095
REMARK UNBOUND:                -0.049
REMARK SMILES CC[C@H](C)[C@H]([NH3+])C(=O)[O-]
REMARK SMILES IDX 3 1 4 2 5 3 6 4 7 8 8 9 9 10 2 11 1 12
REMARK H PARENT 6 5 6 6 6 7
REMARK Flexibility Score: inf
ROOT
ATOM      1  C   UNL     1       2.839  45.038   9.761  1.00  0.00     0.050 C 
ATOM      2  C   UNL     1       1.584  44.694  10.588  1.00  0.00     0.014 C 
ENDROOT
BRANCH   1   3
ATOM      3  C   UNL     1       3.954  43.950   9.869  1.00  0.00     0.230 C 
BRANCH   3   4
ATOM      4  N   UNL     1       3.903  42.994   8.752  1.00  0.00    -0.350 N 
ATOM      5  H   UNL     1       3.834  43.480   7.830  1.00  0.00     0.345 HD
ATOM      6  H   UNL     1       4.755  42.388   8.759  1.00  0.00     0.345 HD
ATOM      7  H   UNL     1       3.066  42.376   8.862  1.00  0.00     0.345 HD
ENDBRANCH   3   4
BRANCH   3   8
ATOM      8  C   UNL     1       3.937  43.230  11.196  1.00  0.00     0.099 C 
ATOM      9  O   UNL     1       3.481  42.059  11.288  1.00  0.00    -0.544 OA
ATOM     10  O   UNL     1       4.396  43.875  12.337  1.00  0.00    -0.544 OA
ENDBRANCH   3   8
ENDBRANCH   1   3
BRANCH   1  11
ATOM     11  C   UNL     1       3.399  46.431  10.146  1.00  0.00     0.006 C 
ATOM     12  C   UNL     1       4.897  46.573   9.872  1.00  0.00     0.004 C 
ENDBRANCH   1  11
TORSDOF 4
ENDMDL
MODEL 9
REMARK VINA RESULT:    -4.069      1.496      2.090
REMARK INTER + INTRA:          -4.951
REMARK INTER:                  -4.858
REMARK INTRA:                  -0.094
REMARK UNBOUND:                -0.049
REMARK SMILES CC[C@H](C)[C@H]([NH3+])C(=O)[O-]
REMARK SMILES IDX 3 1 4 2 5 3 6 4 7 8 8 9 9 10 2 11 1 12
REMARK H PARENT 6 5 6 6 6 7
REMARK Flexibility Score: inf
ROOT
ATOM      1  C   UNL     1       2.586  44.687  10.185  1.00  0.00     0.050 C 
ATOM      2  C   UNL     1       1.889  43.647   9.285  1.00  0.00     0.014 C 
ENDROOT
BRANCH   1   3
ATOM      3  C   UNL     1       4.109  44.835   9.874  1.00  0.00     0.230 C 
BRANCH   3   4
ATOM      4  N   UNL     1       4.947  44.391  10.999  1.00  0.00    -0.350 N 
ATOM      5  H   UNL     1       4.727  43.410  11.282  1.00  0.00     0.345 HD
ATOM      6  H   UNL     1       5.959  44.456  10.741  1.00  0.00     0.345 HD
ATOM      7  H   UNL     1       4.783  45.016  11.822  1.00  0.00     0.345 HD
ENDBRANCH   3   4
BRANCH   3   8
ATOM      8  C   UNL     1       4.482  46.234   9.443  1.00  0.00     0.099 C 
ATOM      9  O   UNL     1       5.616  46.712   9.715  1.00  0.00    -0.544 OA
ATOM     10  O   UNL     1       3.554  47.018   8.770  1.00  0.00    -0.544 OA
ENDBRANCH   3   8
ENDBRANCH   1   3
BRANCH   1  11
ATOM     11  C   UNL     1       2.365  44.367  11.685  1.00  0.00     0.006 C 
ATOM     12  C   UNL     1       1.705  43.006  11.917  1.00  0.00     0.004 C 
ENDBRANCH   1  11
TORSDOF 4
ENDMDL
