MODEL 1
REMARK VINA RESULT:   148.488      0.000      0.000
REMARK INTER + INTRA:         152.829
REMARK INTER:                 152.829
REMARK INTRA:                   0.000
REMARK UNBOUND:                 0.000
REMARK SMILES CC1(C)CC[C@]2(C)CC[C@]3(C)C(=CC[C@H]4[C@@]5(C)CC[C@@H](O)C(C)(C)[C@H]5CC[C@@]43C)[C@H]2C1
REMARK SMILES IDX 1 1 2 2 4 3 5 4 6 5 8 6 9 7 10 8 12 9 13 10 14 11 15 12
REMARK SMILES IDX 28 13 27 14 26 15 25 16 16 17 18 18 19 19 20 20 22 21 23 22
REMARK SMILES IDX 24 23 17 24 29 25 30 26 31 27 11 28 7 29 3 30 21 31
REMARK H PARENT 21 32
REMARK Flexibility Score: inf
ROOT
ATOM      1  C   UNL     1     -31.665  35.124 -14.807  1.00  0.00     0.011 C 
ATOM      2  C   UNL     1     -30.900  34.144 -15.724  1.00  0.00    -0.035 C 
ATOM      3  C   UNL     1     -29.377  34.398 -15.558  1.00  0.00     0.007 C 
ATOM      4  C   UNL     1     -28.497  33.315 -16.211  1.00  0.00     0.008 C 
ATOM      5  C   UNL     1     -28.854  31.869 -15.762  1.00  0.00    -0.026 C 
ATOM      6  C   UNL     1     -28.038  30.869 -16.637  1.00  0.00     0.008 C 
ATOM      7  C   UNL     1     -28.455  29.386 -16.461  1.00  0.00     0.012 C 
ATOM      8  C   UNL     1     -29.998  29.110 -16.599  1.00  0.00    -0.006 C 
ATOM      9  C   UNL     1     -30.709  30.157 -15.703  1.00  0.00    -0.064 C 
ATOM     10  C   UNL     1     -31.343  29.819 -14.546  1.00  0.00    -0.027 C 
ATOM     11  C   UNL     1     -31.443  28.424 -13.991  1.00  0.00     0.032 C 
ATOM     12  C   UNL     1     -30.372  27.497 -14.601  1.00  0.00     0.006 C 
ATOM     13  C   UNL     1     -30.408  27.601 -16.179  1.00  0.00    -0.020 C 
ATOM     14  C   UNL     1     -29.467  26.517 -16.810  1.00  0.00     0.008 C 
ATOM     15  C   UNL     1     -28.401  25.995 -15.849  1.00  0.00     0.005 C 
ATOM     16  C   UNL     1     -29.006  25.248 -14.621  1.00  0.00     0.003 C 
ATOM     17  C   UNL     1     -30.255  26.038 -13.967  1.00  0.00    -0.025 C 
ATOM     18  C   UNL     1     -31.636  25.279 -14.019  1.00  0.00     0.010 C 
ATOM     19  C   UNL     1     -31.614  23.964 -14.775  1.00  0.00     0.033 C 
ATOM     20  C   UNL     1     -30.471  23.105 -14.235  1.00  0.00     0.120 C 
ATOM     21  C   UNL     1     -29.094  23.639 -14.739  1.00  0.00    -0.006 C 
ATOM     22  C   UNL     1     -28.829  23.097 -16.179  1.00  0.00     0.014 C 
ATOM     23  C   UNL     1     -28.002  23.001 -13.840  1.00  0.00     0.014 C 
ATOM     24  C   UNL     1     -29.917  26.205 -12.449  1.00  0.00     0.012 C 
ATOM     25  C   UNL     1     -31.844  27.296 -16.730  1.00  0.00     0.012 C 
ATOM     26  C   UNL     1     -30.374  31.625 -15.999  1.00  0.00     0.022 C 
ATOM     27  C   UNL     1     -31.254  32.692 -15.297  1.00  0.00     0.015 C 
ATOM     28  C   UNL     1     -30.393  29.368 -18.092  1.00  0.00     0.017 C 
ATOM     29  C   UNL     1     -28.452  31.672 -14.272  1.00  0.00     0.012 C 
ATOM     30  C   UNL     1     -31.344  34.423 -17.181  1.00  0.00     0.011 C 
ENDROOT
BRANCH  20  31
ATOM     31  O   UNL     1     -30.664  21.739 -14.529  1.00  0.00    -0.393 OA
ATOM     32  H   UNL     1     -29.922  21.217 -14.125  1.00  0.00     0.210 HD
ENDBRANCH  20  31
TORSDOF 1
ENDMDL
