MODEL 1
REMARK VINA RESULT:    -3.856      0.000      0.000
REMARK INTER + INTRA:          -4.212
REMARK INTER:                  -4.194
REMARK INTRA:                  -0.018
REMARK UNBOUND:                -0.018
REMARK SMILES COc1ccccc1O
REMARK SMILES IDX 3 1 4 2 5 3 6 4 7 5 8 6 2 7 1 8 9 9
REMARK H PARENT 9 10
REMARK Flexibility Score: inf
ROOT
ATOM      1  C   UNL     1     146.981 159.276 161.223  1.00  0.00     0.160 A 
ATOM      2  C   UNL     1     148.255 159.409 160.632  1.00  0.00     0.050 A 
ATOM      3  C   UNL     1     148.784 160.678 160.378  1.00  0.00     0.004 A 
ATOM      4  C   UNL     1     148.053 161.821 160.708  1.00  0.00     0.004 A 
ATOM      5  C   UNL     1     146.790 161.699 161.293  1.00  0.00     0.050 A 
ATOM      6  C   UNL     1     146.253 160.430 161.551  1.00  0.00     0.157 A 
ENDROOT
BRANCH   1   7
ATOM      7  O   UNL     1     146.411 158.023 161.496  1.00  0.00    -0.493 OA
ATOM      8  C   UNL     1     146.567 157.317 162.723  1.00  0.00     0.278 C 
ENDBRANCH   1   7
BRANCH   6   9
ATOM      9  O   UNL     1     144.993 160.307 162.135  1.00  0.00    -0.504 OA
ATOM     10  H   UNL     1     144.734 160.841 162.956  1.00  0.00     0.293 HD
ENDBRANCH   6   9
TORSDOF 2
ENDMDL
MODEL 2
REMARK VINA RESULT:    -3.835     13.855     14.809
REMARK INTER + INTRA:          -4.190
REMARK INTER:                  -4.161
REMARK INTRA:                  -0.029
REMARK UNBOUND:                -0.018
REMARK SMILES COc1ccccc1O
REMARK SMILES IDX 3 1 4 2 5 3 6 4 7 5 8 6 2 7 1 8 9 9
REMARK H PARENT 9 10
REMARK Flexibility Score: inf
ROOT
ATOM      1  C   UNL     1     161.042 162.869 165.001  1.00  0.00     0.160 A 
ATOM      2  C   UNL     1     160.175 163.920 164.640  1.00  0.00     0.050 A 
ATOM      3  C   UNL     1     158.985 164.125 165.344  1.00  0.00     0.004 A 
ATOM      4  C   UNL     1     158.648 163.288 166.410  1.00  0.00     0.004 A 
ATOM      5  C   UNL     1     159.501 162.243 166.775  1.00  0.00     0.050 A 
ATOM      6  C   UNL     1     160.696 162.032 166.073  1.00  0.00     0.157 A 
ENDROOT
BRANCH   1   7
ATOM      7  O   UNL     1     162.247 162.626 164.322  1.00  0.00    -0.493 OA
ATOM      8  C   UNL     1     162.500 163.001 162.972  1.00  0.00     0.278 C 
ENDBRANCH   1   7
BRANCH   6   9
ATOM      9  O   UNL     1     161.548 160.989 166.437  1.00  0.00    -0.504 OA
ATOM     10  H   UNL     1     162.178 160.561 165.769  1.00  0.00     0.293 HD
ENDBRANCH   6   9
TORSDOF 2
ENDMDL
MODEL 3
REMARK VINA RESULT:    -3.446     20.060     21.351
REMARK INTER + INTRA:          -3.767
REMARK INTER:                  -3.721
REMARK INTRA:                  -0.046
REMARK UNBOUND:                -0.018
REMARK SMILES COc1ccccc1O
REMARK SMILES IDX 3 1 4 2 5 3 6 4 7 5 8 6 2 7 1 8 9 9
REMARK H PARENT 9 10
REMARK Flexibility Score: inf
ROOT
ATOM      1  C   UNL     1     159.474 145.965 170.456  1.00  0.00     0.160 A 
ATOM      2  C   UNL     1     159.375 147.361 170.626  1.00  0.00     0.050 A 
ATOM      3  C   UNL     1     160.249 148.029 171.489  1.00  0.00     0.004 A 
ATOM      4  C   UNL     1     161.225 147.316 172.188  1.00  0.00     0.004 A 
ATOM      5  C   UNL     1     161.330 145.932 172.026  1.00  0.00     0.050 A 
ATOM      6  C   UNL     1     160.458 145.256 171.162  1.00  0.00     0.157 A 
ENDROOT
BRANCH   1   7
ATOM      7  O   UNL     1     158.618 145.254 169.600  1.00  0.00    -0.493 OA
ATOM      8  C   UNL     1     157.244 144.995 169.869  1.00  0.00     0.278 C 
ENDBRANCH   1   7
BRANCH   6   9
ATOM      9  O   UNL     1     160.562 143.875 170.999  1.00  0.00    -0.504 OA
ATOM     10  H   UNL     1     160.224 143.412 170.163  1.00  0.00     0.293 HD
ENDBRANCH   6   9
TORSDOF 2
ENDMDL
MODEL 4
REMARK VINA RESULT:    -3.364     20.588     22.000
REMARK INTER + INTRA:          -3.677
REMARK INTER:                  -3.635
REMARK INTRA:                  -0.041
REMARK UNBOUND:                -0.018
REMARK SMILES COc1ccccc1O
REMARK SMILES IDX 3 1 4 2 5 3 6 4 7 5 8 6 2 7 1 8 9 9
REMARK H PARENT 9 10
REMARK Flexibility Score: inf
ROOT
ATOM      1  C   UNL     1     160.860 146.108 172.086  1.00  0.00     0.160 A 
ATOM      2  C   UNL     1     160.573 147.487 172.018  1.00  0.00     0.050 A 
ATOM      3  C   UNL     1     159.726 147.981 171.021  1.00  0.00     0.004 A 
ATOM      4  C   UNL     1     159.160 147.111 170.088  1.00  0.00     0.004 A 
ATOM      5  C   UNL     1     159.439 145.743 170.148  1.00  0.00     0.050 A 
ATOM      6  C   UNL     1     160.287 145.240 171.144  1.00  0.00     0.157 A 
ENDROOT
BRANCH   1   7
ATOM      7  O   UNL     1     161.705 145.568 173.069  1.00  0.00    -0.493 OA
ATOM      8  C   UNL     1     161.465 145.649 174.470  1.00  0.00     0.278 C 
ENDBRANCH   1   7
BRANCH   6   9
ATOM      9  O   UNL     1     160.566 143.875 171.205  1.00  0.00    -0.504 OA
ATOM     10  H   UNL     1     161.443 143.497 170.866  1.00  0.00     0.293 HD
ENDBRANCH   6   9
TORSDOF 2
ENDMDL
MODEL 5
REMARK VINA RESULT:    -3.351      1.474      3.188
REMARK INTER + INTRA:          -3.663
REMARK INTER:                  -3.639
REMARK INTRA:                  -0.024
REMARK UNBOUND:                -0.018
REMARK SMILES COc1ccccc1O
REMARK SMILES IDX 3 1 4 2 5 3 6 4 7 5 8 6 2 7 1 8 9 9
REMARK H PARENT 9 10
REMARK Flexibility Score: inf
ROOT
ATOM      1  C   UNL     1     147.145 159.240 161.315  1.00  0.00     0.160 A 
ATOM      2  C   UNL     1     147.205 157.919 161.804  1.00  0.00     0.050 A 
ATOM      3  C   UNL     1     146.429 157.539 162.903  1.00  0.00     0.004 A 
ATOM      4  C   UNL     1     145.590 158.467 163.523  1.00  0.00     0.004 A 
ATOM      5  C   UNL     1     145.525 159.779 163.046  1.00  0.00     0.050 A 
ATOM      6  C   UNL     1     146.300 160.167 161.944  1.00  0.00     0.157 A 
ENDROOT
BRANCH   1   7
ATOM      7  O   UNL     1     147.906 159.665 160.215  1.00  0.00    -0.493 OA
ATOM      8  C   UNL     1     149.222 160.204 160.306  1.00  0.00     0.278 C 
ENDBRANCH   1   7
BRANCH   6   9
ATOM      9  O   UNL     1     146.235 161.475 161.467  1.00  0.00    -0.504 OA
ATOM     10  H   UNL     1     145.496 161.777 160.843  1.00  0.00     0.293 HD
ENDBRANCH   6   9
TORSDOF 2
ENDMDL
MODEL 6
REMARK VINA RESULT:    -3.280      1.079      2.314
REMARK INTER + INTRA:          -3.585
REMARK INTER:                  -3.648
REMARK INTRA:                   0.062
REMARK UNBOUND:                -0.018
REMARK SMILES COc1ccccc1O
REMARK SMILES IDX 3 1 4 2 5 3 6 4 7 5 8 6 2 7 1 8 9 9
REMARK H PARENT 9 10
REMARK Flexibility Score: inf
ROOT
ATOM      1  C   UNL     1     146.602 160.471 161.549  1.00  0.00     0.160 A 
ATOM      2  C   UNL     1     146.795 161.837 161.259  1.00  0.00     0.050 A 
ATOM      3  C   UNL     1     147.921 162.252 160.541  1.00  0.00     0.004 A 
ATOM      4  C   UNL     1     148.861 161.315 160.108  1.00  0.00     0.004 A 
ATOM      5  C   UNL     1     148.678 159.959 160.391  1.00  0.00     0.050 A 
ATOM      6  C   UNL     1     147.551 159.535 161.110  1.00  0.00     0.157 A 
ENDROOT
BRANCH   1   7
ATOM      7  O   UNL     1     145.487 160.009 162.266  1.00  0.00    -0.493 OA
ATOM      8  C   UNL     1     145.510 159.645 163.643  1.00  0.00     0.278 C 
ENDBRANCH   1   7
BRANCH   6   9
ATOM      9  O   UNL     1     147.367 158.182 161.392  1.00  0.00    -0.504 OA
ATOM     10  H   UNL     1     146.490 157.713 161.197  1.00  0.00     0.293 HD
ENDBRANCH   6   9
TORSDOF 2
ENDMDL
MODEL 7
REMARK VINA RESULT:    -3.161      2.073      3.233
REMARK INTER + INTRA:          -3.456
REMARK INTER:                  -3.427
REMARK INTRA:                  -0.029
REMARK UNBOUND:                -0.018
REMARK SMILES COc1ccccc1O
REMARK SMILES IDX 3 1 4 2 5 3 6 4 7 5 8 6 2 7 1 8 9 9
REMARK H PARENT 9 10
REMARK Flexibility Score: inf
ROOT
ATOM      1  C   UNL     1     147.539 161.543 160.910  1.00  0.00     0.160 A 
ATOM      2  C   UNL     1     146.753 162.702 160.745  1.00  0.00     0.050 A 
ATOM      3  C   UNL     1     147.349 163.908 160.363  1.00  0.00     0.004 A 
ATOM      4  C   UNL     1     148.727 163.970 160.143  1.00  0.00     0.004 A 
ATOM      5  C   UNL     1     149.513 162.827 160.304  1.00  0.00     0.050 A 
ATOM      6  C   UNL     1     148.923 161.614 160.687  1.00  0.00     0.157 A 
ENDROOT
BRANCH   1   7
ATOM      7  O   UNL     1     146.984 160.312 161.293  1.00  0.00    -0.493 OA
ATOM      8  C   UNL     1     145.817 160.170 162.098  1.00  0.00     0.278 C 
ENDBRANCH   1   7
BRANCH   6   9
ATOM      9  O   UNL     1     149.706 160.472 160.848  1.00  0.00    -0.504 OA
ATOM     10  H   UNL     1     149.306 159.593 161.153  1.00  0.00     0.293 HD
ENDBRANCH   6   9
TORSDOF 2
ENDMDL
MODEL 8
REMARK VINA RESULT:    -3.110     13.648     14.781
REMARK INTER + INTRA:          -3.400
REMARK INTER:                  -3.368
REMARK INTRA:                  -0.032
REMARK UNBOUND:                -0.018
REMARK SMILES COc1ccccc1O
REMARK SMILES IDX 3 1 4 2 5 3 6 4 7 5 8 6 2 7 1 8 9 9
REMARK H PARENT 9 10
REMARK Flexibility Score: inf
ROOT
ATOM      1  C   UNL     1     148.337 144.973 161.078  1.00  0.00     0.160 A 
ATOM      2  C   UNL     1     148.286 144.785 162.475  1.00  0.00     0.050 A 
ATOM      3  C   UNL     1     147.355 145.489 163.246  1.00  0.00     0.004 A 
ATOM      4  C   UNL     1     146.472 146.383 162.636  1.00  0.00     0.004 A 
ATOM      5  C   UNL     1     146.517 146.575 161.252  1.00  0.00     0.050 A 
ATOM      6  C   UNL     1     147.446 145.873 160.473  1.00  0.00     0.157 A 
ENDROOT
BRANCH   1   7
ATOM      7  O   UNL     1     149.254 144.288 160.265  1.00  0.00    -0.493 OA
ATOM      8  C   UNL     1     150.611 144.036 160.618  1.00  0.00     0.278 C 
ENDBRANCH   1   7
BRANCH   6   9
ATOM      9  O   UNL     1     147.491 146.063 159.092  1.00  0.00    -0.504 OA
ATOM     10  H   UNL     1     147.703 145.302 158.458  1.00  0.00     0.293 HD
ENDBRANCH   6   9
TORSDOF 2
ENDMDL
MODEL 9
REMARK VINA RESULT:    -3.023     14.176     15.083
REMARK INTER + INTRA:          -3.306
REMARK INTER:                  -3.279
REMARK INTRA:                  -0.027
REMARK UNBOUND:                -0.018
REMARK SMILES COc1ccccc1O
REMARK SMILES IDX 3 1 4 2 5 3 6 4 7 5 8 6 2 7 1 8 9 9
REMARK H PARENT 9 10
REMARK Flexibility Score: inf
ROOT
ATOM      1  C   UNL     1     148.305 144.748 161.822  1.00  0.00     0.160 A 
ATOM      2  C   UNL     1     148.136 145.623 160.729  1.00  0.00     0.050 A 
ATOM      3  C   UNL     1     147.025 146.470 160.669  1.00  0.00     0.004 A 
ATOM      4  C   UNL     1     146.076 146.454 161.694  1.00  0.00     0.004 A 
ATOM      5  C   UNL     1     146.235 145.590 162.781  1.00  0.00     0.050 A 
ATOM      6  C   UNL     1     147.346 144.738 162.847  1.00  0.00     0.157 A 
ENDROOT
BRANCH   1   7
ATOM      7  O   UNL     1     149.404 143.881 161.922  1.00  0.00    -0.493 OA
ATOM      8  C   UNL     1     150.527 143.899 161.047  1.00  0.00     0.278 C 
ENDBRANCH   1   7
BRANCH   6   9
ATOM      9  O   UNL     1     147.506 143.876 163.931  1.00  0.00    -0.504 OA
ATOM     10  H   UNL     1     148.422 143.651 164.300  1.00  0.00     0.293 HD
ENDBRANCH   6   9
TORSDOF 2
ENDMDL
