MODEL 1
REMARK VINA RESULT:    -5.926      0.000      0.000
REMARK INTER + INTRA:         -11.784
REMARK INTER:                 -10.776
REMARK INTRA:                  -1.008
REMARK UNBOUND:                -1.008
REMARK SMILES CCCCCCCCCCCCCC[C@H](C)C(=O)[O-]
REMARK SMILES IDX 9 1 10 2 11 3 12 4 13 5 14 6 15 7 16 8 17 9 18 10 19 11 8 12
REMARK SMILES IDX 7 13 6 14 5 15 4 16 3 17 2 18 1 19
REMARK H PARENT
REMARK Flexibility Score: inf
ROOT
ATOM      1  C   UNL     1     -11.045  -0.731  -9.290  1.00  0.00     0.000 C 
ENDROOT
BRANCH   1   2
ATOM      2  C   UNL     1     -10.687  -2.198  -9.593  1.00  0.00     0.000 C 
BRANCH   2   3
ATOM      3  C   UNL     1      -9.876  -2.910  -8.493  1.00  0.00     0.000 C 
BRANCH   3   4
ATOM      4  C   UNL     1     -10.646  -3.994  -7.713  1.00  0.00     0.000 C 
BRANCH   4   5
ATOM      5  C   UNL     1     -10.025  -5.402  -7.833  1.00  0.00     0.001 C 
BRANCH   5   6
ATOM      6  C   UNL     1     -10.907  -6.489  -7.195  1.00  0.00     0.009 C 
BRANCH   6   7
ATOM      7  C   UNL     1     -12.038  -5.892  -6.333  1.00  0.00     0.032 C 
ATOM      8  C   UNL     1     -11.718  -6.043  -4.842  1.00  0.00     0.014 C 
BRANCH   7   9
ATOM      9  C   UNL     1     -13.360  -6.544  -6.636  1.00  0.00     0.044 C 
ATOM     10  O   UNL     1     -14.029  -6.178  -7.639  1.00  0.00    -0.550 OA
ATOM     11  O   UNL     1     -13.853  -7.550  -5.815  1.00  0.00    -0.550 OA
ENDBRANCH   7   9
ENDBRANCH   6   7
ENDBRANCH   5   6
ENDBRANCH   4   5
ENDBRANCH   3   4
ENDBRANCH   2   3
ENDBRANCH   1   2
BRANCH   1  12
ATOM     12  C   UNL     1     -12.154  -0.185 -10.201  1.00  0.00     0.000 C 
BRANCH  12  13
ATOM     13  C   UNL     1     -13.256  -1.231 -10.413  1.00  0.00    -0.000 C 
BRANCH  13  14
ATOM     14  C   UNL     1     -14.598  -0.561 -10.731  1.00  0.00    -0.000 C 
BRANCH  14  15
ATOM     15  C   UNL     1     -15.035   0.366  -9.587  1.00  0.00    -0.000 C 
BRANCH  15  16
ATOM     16  C   UNL     1     -14.950   1.853  -9.966  1.00  0.00    -0.000 C 
BRANCH  16  17
ATOM     17  C   UNL     1     -14.241   2.698  -8.892  1.00  0.00    -0.000 C 
BRANCH  17  18
ATOM     18  C   UNL     1     -12.839   3.149  -9.329  1.00  0.00    -0.003 C 
ATOM     19  C   UNL     1     -12.039   3.775  -8.187  1.00  0.00     0.004 C 
ENDBRANCH  17  18
ENDBRANCH  16  17
ENDBRANCH  15  16
ENDBRANCH  14  15
ENDBRANCH  13  14
ENDBRANCH  12  13
ENDBRANCH   1  12
TORSDOF 14
ENDMDL
MODEL 2
REMARK VINA RESULT:    -5.861      1.114      1.584
REMARK INTER + INTRA:         -11.665
REMARK INTER:                 -10.521
REMARK INTRA:                  -1.144
REMARK UNBOUND:                -1.008
REMARK SMILES CCCCCCCCCCCCCC[C@H](C)C(=O)[O-]
REMARK SMILES IDX 9 1 10 2 11 3 12 4 13 5 14 6 15 7 16 8 17 9 18 10 19 11 8 12
REMARK SMILES IDX 7 13 6 14 5 15 4 16 3 17 2 18 1 19
REMARK H PARENT
REMARK Flexibility Score: inf
ROOT
ATOM      1  C   UNL     1     -11.067  -1.007  -9.326  1.00  0.00     0.000 C 
ENDROOT
BRANCH   1   2
ATOM      2  C   UNL     1     -10.279  -1.771 -10.406  1.00  0.00     0.000 C 
BRANCH   2   3
ATOM      3  C   UNL     1      -9.901  -3.218 -10.033  1.00  0.00     0.000 C 
BRANCH   3   4
ATOM      4  C   UNL     1      -9.247  -3.384  -8.648  1.00  0.00     0.000 C 
BRANCH   4   5
ATOM      5  C   UNL     1      -9.600  -4.714  -7.950  1.00  0.00     0.001 C 
BRANCH   5   6
ATOM      6  C   UNL     1     -10.932  -4.640  -7.183  1.00  0.00     0.009 C 
BRANCH   6   7
ATOM      7  C   UNL     1     -11.747  -5.944  -7.300  1.00  0.00     0.032 C 
ATOM      8  C   UNL     1     -12.782  -5.835  -8.424  1.00  0.00     0.014 C 
BRANCH   7   9
ATOM      9  C   UNL     1     -12.436  -6.278  -6.005  1.00  0.00     0.044 C 
ATOM     10  O   UNL     1     -13.665  -6.553  -5.996  1.00  0.00    -0.550 OA
ATOM     11  O   UNL     1     -11.725  -6.283  -4.811  1.00  0.00    -0.550 OA
ENDBRANCH   7   9
ENDBRANCH   6   7
ENDBRANCH   5   6
ENDBRANCH   4   5
ENDBRANCH   3   4
ENDBRANCH   2   3
ENDBRANCH   1   2
BRANCH   1  12
ATOM     12  C   UNL     1     -12.022   0.043  -9.912  1.00  0.00     0.000 C 
BRANCH  12  13
ATOM     13  C   UNL     1     -13.347  -0.598 -10.342  1.00  0.00    -0.000 C 
BRANCH  13  14
ATOM     14  C   UNL     1     -14.538   0.289  -9.960  1.00  0.00    -0.000 C 
BRANCH  14  15
ATOM     15  C   UNL     1     -14.129   1.769  -9.916  1.00  0.00    -0.000 C 
BRANCH  15  16
ATOM     16  C   UNL     1     -14.455   2.433  -8.569  1.00  0.00    -0.000 C 
BRANCH  16  17
ATOM     17  C   UNL     1     -13.897   3.863  -8.464  1.00  0.00    -0.000 C 
BRANCH  17  18
ATOM     18  C   UNL     1     -12.494   3.994  -9.077  1.00  0.00    -0.003 C 
ATOM     19  C   UNL     1     -11.386   3.591  -8.104  1.00  0.00     0.004 C 
ENDBRANCH  17  18
ENDBRANCH  16  17
ENDBRANCH  15  16
ENDBRANCH  14  15
ENDBRANCH  13  14
ENDBRANCH  12  13
ENDBRANCH   1  12
TORSDOF 14
ENDMDL
MODEL 3
REMARK VINA RESULT:    -5.572      3.761      8.236
REMARK INTER + INTRA:         -11.139
REMARK INTER:                  -9.903
REMARK INTRA:                  -1.236
REMARK UNBOUND:                -1.008
REMARK SMILES CCCCCCCCCCCCCC[C@H](C)C(=O)[O-]
REMARK SMILES IDX 9 1 10 2 11 3 12 4 13 5 14 6 15 7 16 8 17 9 18 10 19 11 8 12
REMARK SMILES IDX 7 13 6 14 5 15 4 16 3 17 2 18 1 19
REMARK H PARENT
REMARK Flexibility Score: inf
ROOT
ATOM      1  C   UNL     1     -10.233  -2.525  -8.055  1.00  0.00     0.000 C 
ENDROOT
BRANCH   1   2
ATOM      2  C   UNL     1     -10.424  -2.261  -9.560  1.00  0.00     0.000 C 
BRANCH   2   3
ATOM      3  C   UNL     1     -11.210  -0.981  -9.901  1.00  0.00     0.000 C 
BRANCH   3   4
ATOM      4  C   UNL     1     -12.653  -1.213 -10.391  1.00  0.00     0.000 C 
BRANCH   4   5
ATOM      5  C   UNL     1     -13.573   0.013 -10.213  1.00  0.00     0.001 C 
BRANCH   5   6
ATOM      6  C   UNL     1     -12.827   1.230  -9.640  1.00  0.00     0.009 C 
BRANCH   6   7
ATOM      7  C   UNL     1     -13.755   2.152  -8.823  1.00  0.00     0.032 C 
ATOM      8  C   UNL     1     -15.125   2.273  -9.497  1.00  0.00     0.014 C 
BRANCH   7   9
ATOM      9  C   UNL     1     -13.152   3.520  -8.648  1.00  0.00     0.044 C 
ATOM     10  O   UNL     1     -13.591   4.294  -7.757  1.00  0.00    -0.550 OA
ATOM     11  O   UNL     1     -12.110   3.939  -9.467  1.00  0.00    -0.550 OA
ENDBRANCH   7   9
ENDBRANCH   6   7
ENDBRANCH   5   6
ENDBRANCH   4   5
ENDBRANCH   3   4
ENDBRANCH   2   3
ENDBRANCH   1   2
BRANCH   1  12
ATOM     12  C   UNL     1     -10.680  -3.932  -7.632  1.00  0.00     0.000 C 
BRANCH  12  13
ATOM     13  C   UNL     1     -11.014  -4.793  -8.856  1.00  0.00    -0.000 C 
BRANCH  13  14
ATOM     14  C   UNL     1     -10.799  -6.282  -8.558  1.00  0.00    -0.000 C 
BRANCH  14  15
ATOM     15  C   UNL     1     -10.348  -6.492  -7.105  1.00  0.00    -0.000 C 
BRANCH  15  16
ATOM     16  C   UNL     1     -11.357  -7.314  -6.286  1.00  0.00    -0.000 C 
BRANCH  16  17
ATOM     17  C   UNL     1     -12.350  -6.429  -5.512  1.00  0.00    -0.000 C 
BRANCH  17  18
ATOM     18  C   UNL     1     -13.813  -6.731  -5.875  1.00  0.00    -0.003 C 
ATOM     19  C   UNL     1     -14.108  -6.515  -7.359  1.00  0.00     0.004 C 
ENDBRANCH  17  18
ENDBRANCH  16  17
ENDBRANCH  15  16
ENDBRANCH  14  15
ENDBRANCH  13  14
ENDBRANCH  12  13
ENDBRANCH   1  12
TORSDOF 14
ENDMDL
MODEL 4
REMARK VINA RESULT:    -5.543      3.637      8.228
REMARK INTER + INTRA:         -11.087
REMARK INTER:                 -10.053
REMARK INTRA:                  -1.035
REMARK UNBOUND:                -1.008
REMARK SMILES CCCCCCCCCCCCCC[C@H](C)C(=O)[O-]
REMARK SMILES IDX 9 1 10 2 11 3 12 4 13 5 14 6 15 7 16 8 17 9 18 10 19 11 8 12
REMARK SMILES IDX 7 13 6 14 5 15 4 16 3 17 2 18 1 19
REMARK H PARENT
REMARK Flexibility Score: inf
ROOT
ATOM      1  C   UNL     1     -11.124  -0.658  -9.252  1.00  0.00     0.000 C 
ENDROOT
BRANCH   1   2
ATOM      2  C   UNL     1     -12.066  -0.264 -10.405  1.00  0.00     0.000 C 
BRANCH   2   3
ATOM      3  C   UNL     1     -13.457  -0.926 -10.361  1.00  0.00     0.000 C 
BRANCH   3   4
ATOM      4  C   UNL     1     -14.645   0.044 -10.519  1.00  0.00     0.000 C 
BRANCH   4   5
ATOM      5  C   UNL     1     -14.829   1.000  -9.322  1.00  0.00     0.001 C 
BRANCH   5   6
ATOM      6  C   UNL     1     -14.275   2.408  -9.602  1.00  0.00     0.009 C 
BRANCH   6   7
ATOM      7  C   UNL     1     -13.462   2.963  -8.415  1.00  0.00     0.032 C 
ATOM      8  C   UNL     1     -14.277   4.005  -7.644  1.00  0.00     0.014 C 
BRANCH   7   9
ATOM      9  C   UNL     1     -12.165   3.571  -8.876  1.00  0.00     0.044 C 
ATOM     10  O   UNL     1     -12.072   4.057 -10.034  1.00  0.00    -0.550 OA
ATOM     11  O   UNL     1     -11.063   3.600  -8.030  1.00  0.00    -0.550 OA
ENDBRANCH   7   9
ENDBRANCH   6   7
ENDBRANCH   5   6
ENDBRANCH   4   5
ENDBRANCH   3   4
ENDBRANCH   2   3
ENDBRANCH   1   2
BRANCH   1  12
ATOM     12  C   UNL     1     -10.402  -1.991  -9.497  1.00  0.00     0.000 C 
BRANCH  12  13
ATOM     13  C   UNL     1     -10.403  -2.857  -8.231  1.00  0.00    -0.000 C 
BRANCH  13  14
ATOM     14  C   UNL     1      -9.316  -3.936  -8.300  1.00  0.00    -0.000 C 
BRANCH  14  15
ATOM     15  C   UNL     1      -9.785  -5.136  -9.137  1.00  0.00    -0.000 C 
BRANCH  15  16
ATOM     16  C   UNL     1     -11.160  -5.662  -8.697  1.00  0.00    -0.000 C 
BRANCH  16  17
ATOM     17  C   UNL     1     -11.075  -6.590  -7.472  1.00  0.00    -0.000 C 
BRANCH  17  18
ATOM     18  C   UNL     1     -12.242  -6.381  -6.494  1.00  0.00    -0.003 C 
ATOM     19  C   UNL     1     -11.788  -5.812  -5.150  1.00  0.00     0.004 C 
ENDBRANCH  17  18
ENDBRANCH  16  17
ENDBRANCH  15  16
ENDBRANCH  14  15
ENDBRANCH  13  14
ENDBRANCH  12  13
ENDBRANCH   1  12
TORSDOF 14
ENDMDL
MODEL 5
REMARK VINA RESULT:    -5.181      1.356      2.139
REMARK INTER + INTRA:         -10.429
REMARK INTER:                  -9.532
REMARK INTRA:                  -0.897
REMARK UNBOUND:                -1.008
REMARK SMILES CCCCCCCCCCCCCC[C@H](C)C(=O)[O-]
REMARK SMILES IDX 9 1 10 2 11 3 12 4 13 5 14 6 15 7 16 8 17 9 18 10 19 11 8 12
REMARK SMILES IDX 7 13 6 14 5 15 4 16 3 17 2 18 1 19
REMARK H PARENT
REMARK Flexibility Score: inf
ROOT
ATOM      1  C   UNL     1     -10.436  -2.664  -8.371  1.00  0.00     0.000 C 
ENDROOT
BRANCH   1   2
ATOM      2  C   UNL     1     -10.378  -3.989  -9.154  1.00  0.00     0.000 C 
BRANCH   2   3
ATOM      3  C   UNL     1      -9.973  -5.219  -8.320  1.00  0.00     0.000 C 
BRANCH   3   4
ATOM      4  C   UNL     1     -10.656  -6.539  -8.730  1.00  0.00     0.000 C 
BRANCH   4   5
ATOM      5  C   UNL     1     -12.198  -6.462  -8.739  1.00  0.00     0.001 C 
BRANCH   5   6
ATOM      6  C   UNL     1     -12.768  -5.941  -7.408  1.00  0.00     0.009 C 
BRANCH   6   7
ATOM      7  C   UNL     1     -13.035  -7.080  -6.402  1.00  0.00     0.032 C 
ATOM      8  C   UNL     1     -14.439  -6.952  -5.803  1.00  0.00     0.014 C 
BRANCH   7   9
ATOM      9  C   UNL     1     -12.011  -7.088  -5.299  1.00  0.00     0.044 C 
ATOM     10  O   UNL     1     -11.839  -8.125  -4.605  1.00  0.00    -0.550 OA
ATOM     11  O   UNL     1     -11.252  -5.954  -5.037  1.00  0.00    -0.550 OA
ENDBRANCH   7   9
ENDBRANCH   6   7
ENDBRANCH   5   6
ENDBRANCH   4   5
ENDBRANCH   3   4
ENDBRANCH   2   3
ENDBRANCH   1   2
BRANCH   1  12
ATOM     12  C   UNL     1     -10.766  -1.456  -9.260  1.00  0.00     0.000 C 
BRANCH  12  13
ATOM     13  C   UNL     1     -12.094  -1.664  -9.998  1.00  0.00    -0.000 C 
BRANCH  13  14
ATOM     14  C   UNL     1     -12.666  -0.329 -10.490  1.00  0.00    -0.000 C 
BRANCH  14  15
ATOM     15  C   UNL     1     -14.103  -0.127  -9.987  1.00  0.00    -0.000 C 
BRANCH  15  16
ATOM     16  C   UNL     1     -14.578   1.328 -10.121  1.00  0.00    -0.000 C 
BRANCH  16  17
ATOM     17  C   UNL     1     -14.072   2.223  -8.976  1.00  0.00    -0.000 C 
BRANCH  17  18
ATOM     18  C   UNL     1     -12.917   3.138  -9.411  1.00  0.00    -0.003 C 
ATOM     19  C   UNL     1     -12.171   3.750  -8.224  1.00  0.00     0.004 C 
ENDBRANCH  17  18
ENDBRANCH  16  17
ENDBRANCH  15  16
ENDBRANCH  14  15
ENDBRANCH  13  14
ENDBRANCH  12  13
ENDBRANCH   1  12
TORSDOF 14
ENDMDL
MODEL 6
REMARK VINA RESULT:    -4.978      1.194      2.627
REMARK INTER + INTRA:         -10.059
REMARK INTER:                  -9.229
REMARK INTRA:                  -0.830
REMARK UNBOUND:                -1.008
REMARK SMILES CCCCCCCCCCCCCC[C@H](C)C(=O)[O-]
REMARK SMILES IDX 9 1 10 2 11 3 12 4 13 5 14 6 15 7 16 8 17 9 18 10 19 11 8 12
REMARK SMILES IDX 7 13 6 14 5 15 4 16 3 17 2 18 1 19
REMARK H PARENT
REMARK Flexibility Score: inf
ROOT
ATOM      1  C   UNL     1     -10.487  -3.851  -8.022  1.00  0.00     0.000 C 
ENDROOT
BRANCH   1   2
ATOM      2  C   UNL     1     -11.694  -4.407  -8.800  1.00  0.00     0.000 C 
BRANCH   2   3
ATOM      3  C   UNL     1     -11.597  -5.899  -9.170  1.00  0.00     0.000 C 
BRANCH   3   4
ATOM      4  C   UNL     1     -10.387  -6.642  -8.571  1.00  0.00     0.000 C 
BRANCH   4   5
ATOM      5  C   UNL     1     -10.734  -8.032  -7.997  1.00  0.00     0.001 C 
BRANCH   5   6
ATOM      6  C   UNL     1     -11.120  -7.974  -6.509  1.00  0.00     0.009 C 
BRANCH   6   7
ATOM      7  C   UNL     1     -12.220  -6.929  -6.232  1.00  0.00     0.032 C 
ATOM      8  C   UNL     1     -11.932  -6.174  -4.930  1.00  0.00     0.014 C 
BRANCH   7   9
ATOM      9  C   UNL     1     -13.579  -7.571  -6.156  1.00  0.00     0.044 C 
ATOM     10  O   UNL     1     -14.198  -7.612  -5.059  1.00  0.00    -0.550 OA
ATOM     11  O   UNL     1     -14.159  -8.125  -7.290  1.00  0.00    -0.550 OA
ENDBRANCH   7   9
ENDBRANCH   6   7
ENDBRANCH   5   6
ENDBRANCH   4   5
ENDBRANCH   3   4
ENDBRANCH   2   3
ENDBRANCH   1   2
BRANCH   1  12
ATOM     12  C   UNL     1      -9.462  -3.151  -8.926  1.00  0.00     0.000 C 
BRANCH  12  13
ATOM     13  C   UNL     1     -10.159  -2.267  -9.966  1.00  0.00    -0.000 C 
BRANCH  13  14
ATOM     14  C   UNL     1     -10.987  -1.168  -9.289  1.00  0.00    -0.000 C 
BRANCH  14  15
ATOM     15  C   UNL     1     -11.713  -0.305 -10.332  1.00  0.00    -0.000 C 
BRANCH  15  16
ATOM     16  C   UNL     1     -13.221  -0.191 -10.059  1.00  0.00    -0.000 C 
BRANCH  16  17
ATOM     17  C   UNL     1     -13.649   1.240  -9.687  1.00  0.00    -0.000 C 
BRANCH  17  18
ATOM     18  C   UNL     1     -12.458   2.122  -9.279  1.00  0.00    -0.003 C 
ATOM     19  C   UNL     1     -12.891   3.501  -8.781  1.00  0.00     0.004 C 
ENDBRANCH  17  18
ENDBRANCH  16  17
ENDBRANCH  15  16
ENDBRANCH  14  15
ENDBRANCH  13  14
ENDBRANCH  12  13
ENDBRANCH   1  12
TORSDOF 14
ENDMDL
MODEL 7
REMARK VINA RESULT:    -4.891     17.095     19.730
REMARK INTER + INTRA:          -9.902
REMARK INTER:                  -8.259
REMARK INTRA:                  -1.642
REMARK UNBOUND:                -1.008
REMARK SMILES CCCCCCCCCCCCCC[C@H](C)C(=O)[O-]
REMARK SMILES IDX 9 1 10 2 11 3 12 4 13 5 14 6 15 7 16 8 17 9 18 10 19 11 8 12
REMARK SMILES IDX 7 13 6 14 5 15 4 16 3 17 2 18 1 19
REMARK H PARENT
REMARK Flexibility Score: inf
ROOT
ATOM      1  C   UNL     1      -9.992   5.379   5.678  1.00  0.00     0.000 C 
ENDROOT
BRANCH   1   2
ATOM      2  C   UNL     1     -10.129   6.816   6.214  1.00  0.00     0.000 C 
BRANCH   2   3
ATOM      3  C   UNL     1      -8.816   7.622   6.256  1.00  0.00     0.000 C 
BRANCH   3   4
ATOM      4  C   UNL     1      -8.735   8.789   5.253  1.00  0.00     0.000 C 
BRANCH   4   5
ATOM      5  C   UNL     1      -7.322   9.397   5.122  1.00  0.00     0.001 C 
BRANCH   5   6
ATOM      6  C   UNL     1      -7.310  10.915   5.374  1.00  0.00     0.009 C 
BRANCH   6   7
ATOM      7  C   UNL     1      -6.415  11.301   6.569  1.00  0.00     0.032 C 
ATOM      8  C   UNL     1      -5.318  10.254   6.783  1.00  0.00     0.014 C 
BRANCH   7   9
ATOM      9  C   UNL     1      -7.222  11.455   7.830  1.00  0.00     0.044 C 
ATOM     10  O   UNL     1      -8.466  11.643   7.765  1.00  0.00    -0.550 OA
ATOM     11  O   UNL     1      -6.603  11.394   9.073  1.00  0.00    -0.550 OA
ENDBRANCH   7   9
ENDBRANCH   6   7
ENDBRANCH   5   6
ENDBRANCH   4   5
ENDBRANCH   3   4
ENDBRANCH   2   3
ENDBRANCH   1   2
BRANCH   1  12
ATOM     12  C   UNL     1     -11.312   4.814   5.134  1.00  0.00     0.000 C 
BRANCH  12  13
ATOM     13  C   UNL     1     -11.961   3.862   6.146  1.00  0.00    -0.000 C 
BRANCH  13  14
ATOM     14  C   UNL     1     -10.991   3.524   7.285  1.00  0.00    -0.000 C 
BRANCH  14  15
ATOM     15  C   UNL     1     -11.661   3.722   8.654  1.00  0.00    -0.000 C 
BRANCH  15  16
ATOM     16  C   UNL     1     -12.864   4.675   8.592  1.00  0.00    -0.000 C 
BRANCH  16  17
ATOM     17  C   UNL     1     -12.510   6.104   9.039  1.00  0.00    -0.000 C 
BRANCH  17  18
ATOM     18  C   UNL     1     -13.509   7.149   8.517  1.00  0.00    -0.003 C 
ATOM     19  C   UNL     1     -13.758   7.026   7.014  1.00  0.00     0.004 C 
ENDBRANCH  17  18
ENDBRANCH  16  17
ENDBRANCH  15  16
ENDBRANCH  14  15
ENDBRANCH  13  14
ENDBRANCH  12  13
ENDBRANCH   1  12
TORSDOF 14
ENDMDL
MODEL 8
REMARK VINA RESULT:    -4.887     16.712     19.156
REMARK INTER + INTRA:          -9.893
REMARK INTER:                  -8.078
REMARK INTRA:                  -1.815
REMARK UNBOUND:                -1.008
REMARK SMILES CCCCCCCCCCCCCC[C@H](C)C(=O)[O-]
REMARK SMILES IDX 9 1 10 2 11 3 12 4 13 5 14 6 15 7 16 8 17 9 18 10 19 11 8 12
REMARK SMILES IDX 7 13 6 14 5 15 4 16 3 17 2 18 1 19
REMARK H PARENT
REMARK Flexibility Score: inf
ROOT
ATOM      1  C   UNL     1     -11.218   3.949   6.420  1.00  0.00     0.000 C 
ENDROOT
BRANCH   1   2
ATOM      2  C   UNL     1     -10.549   5.018   5.535  1.00  0.00     0.000 C 
BRANCH   2   3
ATOM      3  C   UNL     1      -9.496   5.886   6.249  1.00  0.00     0.000 C 
BRANCH   3   4
ATOM      4  C   UNL     1      -9.614   7.401   5.989  1.00  0.00     0.000 C 
BRANCH   4   5
ATOM      5  C   UNL     1      -8.346   8.195   6.367  1.00  0.00     0.001 C 
BRANCH   5   6
ATOM      6  C   UNL     1      -7.818   9.050   5.202  1.00  0.00     0.009 C 
BRANCH   6   7
ATOM      7  C   UNL     1      -7.033  10.284   5.691  1.00  0.00     0.032 C 
ATOM      8  C   UNL     1      -5.755   9.856   6.420  1.00  0.00     0.014 C 
BRANCH   7   9
ATOM      9  C   UNL     1      -7.872  11.142   6.599  1.00  0.00     0.044 C 
ATOM     10  O   UNL     1      -8.865  11.765   6.139  1.00  0.00    -0.550 OA
ATOM     11  O   UNL     1      -7.558  11.255   7.948  1.00  0.00    -0.550 OA
ENDBRANCH   7   9
ENDBRANCH   6   7
ENDBRANCH   5   6
ENDBRANCH   4   5
ENDBRANCH   3   4
ENDBRANCH   2   3
ENDBRANCH   1   2
BRANCH   1  12
ATOM     12  C   UNL     1     -10.644   3.905   7.843  1.00  0.00     0.000 C 
BRANCH  12  13
ATOM     13  C   UNL     1     -11.763   3.951   8.889  1.00  0.00    -0.000 C 
BRANCH  13  14
ATOM     14  C   UNL     1     -12.967   4.748   8.373  1.00  0.00    -0.000 C 
BRANCH  14  15
ATOM     15  C   UNL     1     -12.838   6.235   8.734  1.00  0.00    -0.000 C 
BRANCH  15  16
ATOM     16  C   UNL     1     -13.742   7.133   7.875  1.00  0.00    -0.000 C 
BRANCH  16  17
ATOM     17  C   UNL     1     -13.154   7.400   6.478  1.00  0.00    -0.000 C 
BRANCH  17  18
ATOM     18  C   UNL     1     -14.176   7.162   5.355  1.00  0.00    -0.003 C 
ATOM     19  C   UNL     1     -13.928   5.855   4.602  1.00  0.00     0.004 C 
ENDBRANCH  17  18
ENDBRANCH  16  17
ENDBRANCH  15  16
ENDBRANCH  14  15
ENDBRANCH  13  14
ENDBRANCH  12  13
ENDBRANCH   1  12
TORSDOF 14
ENDMDL
MODEL 9
REMARK VINA RESULT:    -4.768     17.041     19.630
REMARK INTER + INTRA:          -9.677
REMARK INTER:                  -7.723
REMARK INTRA:                  -1.954
REMARK UNBOUND:                -1.008
REMARK SMILES CCCCCCCCCCCCCC[C@H](C)C(=O)[O-]
REMARK SMILES IDX 9 1 10 2 11 3 12 4 13 5 14 6 15 7 16 8 17 9 18 10 19 11 8 12
REMARK SMILES IDX 7 13 6 14 5 15 4 16 3 17 2 18 1 19
REMARK H PARENT
REMARK Flexibility Score: inf
ROOT
ATOM      1  C   UNL     1     -10.242   4.665   7.536  1.00  0.00     0.000 C 
ENDROOT
BRANCH   1   2
ATOM      2  C   UNL     1      -9.811   5.450   6.283  1.00  0.00     0.000 C 
BRANCH   2   3
ATOM      3  C   UNL     1      -9.124   6.800   6.565  1.00  0.00     0.000 C 
BRANCH   3   4
ATOM      4  C   UNL     1      -9.058   7.762   5.363  1.00  0.00     0.000 C 
BRANCH   4   5
ATOM      5  C   UNL     1      -8.710   9.215   5.750  1.00  0.00     0.001 C 
BRANCH   5   6
ATOM      6  C   UNL     1      -7.294   9.344   6.339  1.00  0.00     0.009 C 
BRANCH   6   7
ATOM      7  C   UNL     1      -7.162  10.557   7.281  1.00  0.00     0.032 C 
ATOM      8  C   UNL     1      -8.240  11.601   6.972  1.00  0.00     0.014 C 
BRANCH   7   9
ATOM      9  C   UNL     1      -5.800  11.188   7.174  1.00  0.00     0.044 C 
ATOM     10  O   UNL     1      -5.376  11.934   8.096  1.00  0.00    -0.550 OA
ATOM     11  O   UNL     1      -5.003  10.954   6.061  1.00  0.00    -0.550 OA
ENDBRANCH   7   9
ENDBRANCH   6   7
ENDBRANCH   5   6
ENDBRANCH   4   5
ENDBRANCH   3   4
ENDBRANCH   2   3
ENDBRANCH   1   2
BRANCH   1  12
ATOM     12  C   UNL     1     -11.522   3.845   7.319  1.00  0.00     0.000 C 
BRANCH  12  13
ATOM     13  C   UNL     1     -12.413   3.877   8.566  1.00  0.00    -0.000 C 
BRANCH  13  14
ATOM     14  C   UNL     1     -12.528   5.300   9.125  1.00  0.00    -0.000 C 
BRANCH  14  15
ATOM     15  C   UNL     1     -13.454   6.161   8.252  1.00  0.00    -0.000 C 
BRANCH  15  16
ATOM     16  C   UNL     1     -12.741   7.392   7.670  1.00  0.00    -0.000 C 
BRANCH  16  17
ATOM     17  C   UNL     1     -12.988   7.560   6.160  1.00  0.00    -0.000 C 
BRANCH  17  18
ATOM     18  C   UNL     1     -13.930   6.485   5.595  1.00  0.00    -0.003 C 
ATOM     19  C   UNL     1     -13.225   5.535   4.627  1.00  0.00     0.004 C 
ENDBRANCH  17  18
ENDBRANCH  16  17
ENDBRANCH  15  16
ENDBRANCH  14  15
ENDBRANCH  13  14
ENDBRANCH  12  13
ENDBRANCH   1  12
TORSDOF 14
ENDMDL
