MODEL 1
REMARK VINA RESULT:     5.884      0.000      0.000
REMARK INTER + INTRA:           7.173
REMARK INTER:                   6.744
REMARK INTRA:                   0.429
REMARK UNBOUND:                 0.429
REMARK SMILES CC1(C)CC[C@]23CO[C@@]4(C=C[C@H]5[C@@]6(C)CC[C@@H](O)[C@](C)(CO)[C@H]6CC[C@@]5(C)[C@]4(C)C[C@@H]2O)[C@H]3C1
REMARK SMILES IDX 1 1 2 2 4 3 5 4 6 5 7 6 8 7 9 8 33 9 34 10 10 11 11 12 12 13
REMARK SMILES IDX 13 14 15 15 16 16 17 17 19 18 23 19 24 20 25 21 26 22 28 23
REMARK SMILES IDX 30 24 31 25 29 26 27 27 20 28 14 29 3 30 32 31 21 33 22 34
REMARK SMILES IDX 18 36
REMARK H PARENT 32 32 22 35 18 37
REMARK Flexibility Score: inf
ROOT
ATOM      1  C   UNL     1     102.248 141.472  55.075  1.00  0.00     0.011 C 
ATOM      2  C   UNL     1     103.534 140.665  54.791  1.00  0.00    -0.035 C 
ATOM      3  C   UNL     1     104.296 140.468  56.123  1.00  0.00     0.007 C 
ATOM      4  C   UNL     1     105.502 139.525  55.993  1.00  0.00     0.013 C 
ATOM      5  C   UNL     1     105.186 138.173  55.300  1.00  0.00     0.026 C 
ATOM      6  C   UNL     1     104.289 137.256  56.125  1.00  0.00     0.171 C 
ATOM      7  O   UNL     1     103.647 136.388  55.218  1.00  0.00    -0.369 OA
ATOM      8  C   UNL     1     103.924 136.826  53.887  1.00  0.00     0.096 C 
ATOM      9  C   UNL     1     104.340 138.315  54.035  1.00  0.00     0.037 C 
ATOM     10  C   UNL     1     103.136 139.286  54.211  1.00  0.00     0.014 C 
ATOM     11  C   UNL     1     102.681 136.567  53.079  1.00  0.00     0.005 C 
ATOM     12  C   UNL     1     102.278 135.298  52.921  1.00  0.00    -0.024 C 
ATOM     13  C   UNL     1     103.157 134.144  53.447  1.00  0.00     0.024 C 
ATOM     14  C   UNL     1     102.571 132.661  53.221  1.00  0.00    -0.022 C 
ATOM     15  C   UNL     1     101.027 132.674  53.511  1.00  0.00     0.010 C 
ATOM     16  C   UNL     1     100.284 131.421  53.056  1.00  0.00     0.033 C 
ATOM     17  C   UNL     1     100.454 131.216  51.552  1.00  0.00     0.123 C 
ATOM     18  C   UNL     1     101.943 131.002  51.132  1.00  0.00     0.020 C 
ATOM     19  C   UNL     1     102.934 132.100  51.764  1.00  0.00     0.006 C 
ATOM     20  C   UNL     1     103.291 133.263  50.803  1.00  0.00     0.005 C 
ATOM     21  C   UNL     1     104.429 134.201  51.287  1.00  0.00     0.008 C 
ATOM     22  C   UNL     1     104.592 134.422  52.851  1.00  0.00    -0.017 C 
ATOM     23  C   UNL     1     105.113 135.950  53.261  1.00  0.00     0.009 C 
ATOM     24  C   UNL     1     106.254 135.987  54.350  1.00  0.00     0.043 C 
ATOM     25  C   UNL     1     106.514 137.403  54.963  1.00  0.00     0.124 C 
ATOM     26  C   UNL     1     105.737 136.644  51.999  1.00  0.00     0.015 C 
ATOM     27  C   UNL     1     105.640 133.379  53.342  1.00  0.00     0.013 C 
ATOM     28  C   UNL     1     101.972 131.002  49.571  1.00  0.00     0.017 C 
ATOM     29  C   UNL     1     103.193 131.721  54.322  1.00  0.00     0.012 C 
ATOM     30  C   UNL     1     104.388 141.467  53.780  1.00  0.00     0.011 C 
ENDROOT
BRANCH  25  31
ATOM     31  O   UNL     1     107.293 137.237  56.124  1.00  0.00    -0.392 OA
ATOM     32  H   UNL     1     108.077 136.680  55.881  1.00  0.00     0.210 HD
ENDBRANCH  25  31
BRANCH  18  33
ATOM     33  C   UNL     1     102.411 129.551  51.498  1.00  0.00     0.165 C 
BRANCH  33  34
ATOM     34  O   UNL     1     103.330 129.518  52.548  1.00  0.00    -0.396 OA
ATOM     35  H   UNL     1     103.218 128.636  52.992  1.00  0.00     0.210 HD
ENDBRANCH  33  34
ENDBRANCH  18  33
BRANCH  17  36
ATOM     36  O   UNL     1      99.910 132.323  50.871  1.00  0.00    -0.392 OA
ATOM     37  H   UNL     1     100.496 133.101  51.062  1.00  0.00     0.210 HD
ENDBRANCH  17  36
TORSDOF 4
ENDMDL
