MODEL 1
REMARK VINA RESULT:    -4.916      0.000      0.000
REMARK INTER + INTRA:          -5.204
REMARK INTER:                  -5.204
REMARK INTRA:                   0.000
REMARK UNBOUND:                 0.000
REMARK SMILES C[C@@H]1CC[C@@H]2[N@@H+](C1)C[C@@H]1[C@H]3C[C@H]4[C@@H](CC(=O)[C@@H]5C[C@H](O)CC[C@@]54C)[C@@H]3CC[C@@H]1[C@@]2(C)O
REMARK SMILES IDX 5 1 6 2 8 3 7 4 4 5 29 6 3 7 28 8 30 9 2 10 27 11 9 12 1 13
REMARK SMILES IDX 26 14 10 15 25 16 11 17 13 18 12 19 14 20 23 21 15 22 17 23
REMARK SMILES IDX 22 24 24 25 16 26 18 27 21 28 19 29 31 31 20 33
REMARK H PARENT 6 30 31 32 20 34
REMARK Flexibility Score: inf
ROOT
ATOM      1  C   UNL     1      -7.861   8.113   6.863  1.00  0.00     0.216 C 
ATOM      2  N   UNL     1      -7.184   7.138   7.764  1.00  0.00    -0.330 N 
ATOM      3  C   UNL     1      -6.362   6.198   6.972  1.00  0.00     0.266 C 
ATOM      4  C   UNL     1      -8.163   6.324   8.532  1.00  0.00     0.265 C 
ATOM      5  C   UNL     1      -8.880   8.988   7.646  1.00  0.00     0.069 C 
ATOM      6  C   UNL     1      -6.849   8.998   6.038  1.00  0.00     0.117 C 
ATOM      7  C   UNL     1      -9.888   8.130   8.398  1.00  0.00     0.015 C 
ATOM      8  C   UNL     1      -5.764   8.085   5.338  1.00  0.00     0.036 C 
ATOM      9  C   UNL     1      -6.229  10.122   6.917  1.00  0.00     0.049 C 
ATOM     10  C   UNL     1      -9.139   7.189   9.345  1.00  0.00     0.041 C 
ATOM     11  C   UNL     1      -4.596   8.856   4.623  1.00  0.00     0.007 C 
ATOM     12  C   UNL     1      -5.235   6.885   6.189  1.00  0.00     0.054 C 
ATOM     13  C   UNL     1     -10.125   6.312  10.125  1.00  0.00     0.013 C 
ATOM     14  C   UNL     1      -3.328   9.101   5.481  1.00  0.00     0.004 C 
ATOM     15  C   UNL     1      -4.030   7.299   7.058  1.00  0.00     0.002 C 
ATOM     16  C   UNL     1      -2.909   7.797   6.147  1.00  0.00    -0.004 C 
ATOM     17  C   UNL     1      -3.363   6.224   7.943  1.00  0.00     0.009 C 
ATOM     18  C   UNL     1      -1.737   7.848   7.108  1.00  0.00     0.003 C 
ATOM     19  C   UNL     1      -1.849   6.478   7.789  1.00  0.00    -0.000 C 
ATOM     20  C   UNL     1      -0.340   8.032   6.512  1.00  0.00     0.080 C 
ATOM     21  C   UNL     1      -0.897   6.359   9.027  1.00  0.00    -0.020 C 
ATOM     22  C   UNL     1       0.681   7.809   7.610  1.00  0.00     0.136 C 
ATOM     23  C   UNL     1       0.583   6.593   8.527  1.00  0.00     0.065 C 
ATOM     24  C   UNL     1      -1.040   4.962   9.707  1.00  0.00     0.010 C 
ATOM     25  C   UNL     1      -1.231   7.425  10.109  1.00  0.00     0.012 C 
ATOM     26  O   UNL     1       1.628   8.573   7.717  1.00  0.00    -0.299 OA
ATOM     27  C   UNL     1       1.183   5.379   7.781  1.00  0.00     0.043 C 
ATOM     28  C   UNL     1      -0.451   3.811   8.886  1.00  0.00     0.032 C 
ATOM     29  C   UNL     1       1.026   4.078   8.577  1.00  0.00     0.115 C 
ATOM     30  H   UNL     1      -6.572   7.643   8.447  1.00  0.00     0.348 HD
ENDROOT
BRANCH   6  31
ATOM     31  O   UNL     1      -7.619   9.613   5.025  1.00  0.00    -0.384 OA
ATOM     32  H   UNL     1      -7.209  10.481   4.783  1.00  0.00     0.211 HD
ENDBRANCH   6  31
BRANCH  29  33
ATOM     33  O   UNL     1       1.589   2.997   7.875  1.00  0.00    -0.393 OA
ATOM     34  H   UNL     1       0.856   2.534   7.392  1.00  0.00     0.210 HD
ENDBRANCH  29  33
TORSDOF 2
ENDMDL
MODEL 2
REMARK VINA RESULT:    -3.144      1.963      7.836
REMARK INTER + INTRA:          -3.328
REMARK INTER:                  -3.328
REMARK INTRA:                   0.000
REMARK UNBOUND:                 0.000
REMARK SMILES C[C@@H]1CC[C@@H]2[N@@H+](C1)C[C@@H]1[C@H]3C[C@H]4[C@@H](CC(=O)[C@@H]5C[C@H](O)CC[C@@]54C)[C@@H]3CC[C@@H]1[C@@]2(C)O
REMARK SMILES IDX 5 1 6 2 8 3 7 4 4 5 29 6 3 7 28 8 30 9 2 10 27 11 9 12 1 13
REMARK SMILES IDX 26 14 10 15 25 16 11 17 13 18 12 19 14 20 23 21 15 22 17 23
REMARK SMILES IDX 22 24 24 25 16 26 18 27 21 28 19 29 31 31 20 33
REMARK H PARENT 6 30 31 32 20 34
REMARK Flexibility Score: inf
ROOT
ATOM      1  C   UNL     1       0.507   6.715   8.260  1.00  0.00     0.216 C 
ATOM      2  N   UNL     1      -0.746   6.152   8.839  1.00  0.00    -0.330 N 
ATOM      3  C   UNL     1      -1.467   7.192   9.603  1.00  0.00     0.266 C 
ATOM      4  C   UNL     1      -0.467   5.033   9.777  1.00  0.00     0.265 C 
ATOM      5  C   UNL     1       1.380   5.600   7.617  1.00  0.00     0.069 C 
ATOM      6  C   UNL     1       0.246   7.900   7.254  1.00  0.00     0.117 C 
ATOM      7  C   UNL     1       1.675   4.483   8.609  1.00  0.00     0.015 C 
ATOM      8  C   UNL     1      -0.728   8.966   7.900  1.00  0.00     0.036 C 
ATOM      9  C   UNL     1      -0.247   7.377   5.875  1.00  0.00     0.049 C 
ATOM     10  C   UNL     1       0.354   3.909   9.126  1.00  0.00     0.041 C 
ATOM     11  C   UNL     1      -1.204  10.113   6.938  1.00  0.00     0.007 C 
ATOM     12  C   UNL     1      -1.910   8.383   8.742  1.00  0.00     0.054 C 
ATOM     13  C   UNL     1       0.612   2.774  10.124  1.00  0.00     0.013 C 
ATOM     14  C   UNL     1      -2.542   9.858   6.198  1.00  0.00     0.004 C 
ATOM     15  C   UNL     1      -3.141   8.095   7.860  1.00  0.00     0.002 C 
ATOM     16  C   UNL     1      -3.593   9.397   7.199  1.00  0.00    -0.004 C 
ATOM     17  C   UNL     1      -4.412   7.540   8.537  1.00  0.00     0.009 C 
ATOM     18  C   UNL     1      -4.952   9.004   6.653  1.00  0.00     0.003 C 
ATOM     19  C   UNL     1      -5.574   8.309   7.872  1.00  0.00    -0.000 C 
ATOM     20  C   UNL     1      -5.868  10.125   6.158  1.00  0.00     0.080 C 
ATOM     21  C   UNL     1      -6.906   7.569   7.509  1.00  0.00    -0.020 C 
ATOM     22  C   UNL     1      -7.241   9.539   5.894  1.00  0.00     0.136 C 
ATOM     23  C   UNL     1      -7.912   8.638   6.926  1.00  0.00     0.065 C 
ATOM     24  C   UNL     1      -7.510   6.862   8.762  1.00  0.00     0.010 C 
ATOM     25  C   UNL     1      -6.674   6.467   6.436  1.00  0.00     0.012 C 
ATOM     26  O   UNL     1      -7.842   9.847   4.876  1.00  0.00    -0.299 OA
ATOM     27  C   UNL     1      -8.551   9.540   8.008  1.00  0.00     0.043 C 
ATOM     28  C   UNL     1      -8.089   7.829   9.799  1.00  0.00     0.032 C 
ATOM     29  C   UNL     1      -9.155   8.723   9.157  1.00  0.00     0.115 C 
ATOM     30  H   UNL     1      -1.365   5.791   8.075  1.00  0.00     0.348 HD
ENDROOT
BRANCH   6  31
ATOM     31  O   UNL     1       1.501   8.520   7.061  1.00  0.00    -0.384 OA
ATOM     32  H   UNL     1       1.993   8.538   7.920  1.00  0.00     0.211 HD
ENDBRANCH   6  31
BRANCH  29  33
ATOM     33  O   UNL     1      -9.734   9.572  10.117  1.00  0.00    -0.393 OA
ATOM     34  H   UNL     1     -10.627   9.846   9.781  1.00  0.00     0.210 HD
ENDBRANCH  29  33
TORSDOF 2
ENDMDL
