MODEL 1
REMARK VINA RESULT:    -3.611      0.000      0.000
REMARK INTER + INTRA:          -4.846
REMARK INTER:                  -4.456
REMARK INTRA:                  -0.390
REMARK UNBOUND:                -0.390
REMARK SMILES CCCCC=CC(C)=O
REMARK SMILES IDX 4 1 3 2 2 3 1 4 5 5 6 6 7 7 9 8 8 9
REMARK H PARENT
REMARK Flexibility Score: inf
ROOT
ATOM      1  C   UNL     1      26.402  -2.897  51.829  1.00  0.00     0.027 C 
ENDROOT
BRANCH   1   2
ATOM      2  C   UNL     1      25.822  -2.414  53.174  1.00  0.00     0.004 C 
BRANCH   2   3
ATOM      3  C   UNL     1      24.544  -3.158  53.603  1.00  0.00    -0.003 C 
ATOM      4  C   UNL     1      24.692  -3.883  54.940  1.00  0.00     0.004 C 
ENDBRANCH   2   3
ENDBRANCH   1   2
BRANCH   1   5
ATOM      5  C   UNL     1      25.984  -4.299  51.472  1.00  0.00    -0.023 C 
ATOM      6  C   UNL     1      26.688  -5.419  51.703  1.00  0.00     0.042 C 
BRANCH   6   7
ATOM      7  C   UNL     1      28.049  -5.498  52.274  1.00  0.00     0.152 C 
ATOM      8  O   UNL     1      28.171  -5.583  53.524  1.00  0.00    -0.295 OA
ATOM      9  C   UNL     1      29.283  -5.549  51.427  1.00  0.00     0.093 C 
ENDBRANCH   6   7
ENDBRANCH   1   5
TORSDOF 4
ENDMDL
MODEL 2
REMARK VINA RESULT:    -3.538      1.685      3.670
REMARK INTER + INTRA:          -4.756
REMARK INTER:                  -4.232
REMARK INTRA:                  -0.524
REMARK UNBOUND:                -0.390
REMARK SMILES CCCCC=CC(C)=O
REMARK SMILES IDX 4 1 3 2 2 3 1 4 5 5 6 6 7 7 9 8 8 9
REMARK H PARENT
REMARK Flexibility Score: inf
ROOT
ATOM      1  C   UNL     1      25.903  -2.903  52.765  1.00  0.00     0.027 C 
ENDROOT
BRANCH   1   2
ATOM      2  C   UNL     1      26.218  -3.708  51.488  1.00  0.00     0.004 C 
BRANCH   2   3
ATOM      3  C   UNL     1      26.520  -5.194  51.749  1.00  0.00    -0.003 C 
ATOM      4  C   UNL     1      27.962  -5.444  52.191  1.00  0.00     0.004 C 
ENDBRANCH   2   3
ENDBRANCH   1   2
BRANCH   1   5
ATOM      5  C   UNL     1      24.630  -3.338  53.442  1.00  0.00    -0.023 C 
ATOM      6  C   UNL     1      24.531  -3.900  54.658  1.00  0.00     0.042 C 
BRANCH   6   7
ATOM      7  C   UNL     1      25.652  -4.287  55.540  1.00  0.00     0.152 C 
ATOM      8  O   UNL     1      26.078  -3.445  56.373  1.00  0.00    -0.295 OA
ATOM      9  C   UNL     1      26.257  -5.657  55.530  1.00  0.00     0.093 C 
ENDBRANCH   6   7
ENDBRANCH   1   5
TORSDOF 4
ENDMDL
MODEL 3
REMARK VINA RESULT:    -3.461      1.216      1.614
REMARK INTER + INTRA:          -4.660
REMARK INTER:                  -4.255
REMARK INTRA:                  -0.405
REMARK UNBOUND:                -0.390
REMARK SMILES CCCCC=CC(C)=O
REMARK SMILES IDX 4 1 3 2 2 3 1 4 5 5 6 6 7 7 9 8 8 9
REMARK H PARENT
REMARK Flexibility Score: inf
ROOT
ATOM      1  C   UNL     1      25.741  -3.967  52.173  1.00  0.00     0.027 C 
ENDROOT
BRANCH   1   2
ATOM      2  C   UNL     1      24.917  -3.296  53.290  1.00  0.00     0.004 C 
BRANCH   2   3
ATOM      3  C   UNL     1      24.952  -4.054  54.629  1.00  0.00    -0.003 C 
ATOM      4  C   UNL     1      26.073  -5.090  54.702  1.00  0.00     0.004 C 
ENDBRANCH   2   3
ENDBRANCH   1   2
BRANCH   1   5
ATOM      5  C   UNL     1      26.711  -3.027  51.506  1.00  0.00    -0.023 C 
ATOM      6  C   UNL     1      28.044  -3.183  51.435  1.00  0.00     0.042 C 
BRANCH   6   7
ATOM      7  C   UNL     1      28.837  -4.256  52.071  1.00  0.00     0.152 C 
ATOM      8  O   UNL     1      29.222  -4.094  53.258  1.00  0.00    -0.295 OA
ATOM      9  C   UNL     1      29.143  -5.553  51.387  1.00  0.00     0.093 C 
ENDBRANCH   6   7
ENDBRANCH   1   5
TORSDOF 4
ENDMDL
MODEL 4
REMARK VINA RESULT:    -3.373      1.739      2.662
REMARK INTER + INTRA:          -4.552
REMARK INTER:                  -4.001
REMARK INTRA:                  -0.551
REMARK UNBOUND:                -0.390
REMARK SMILES CCCCC=CC(C)=O
REMARK SMILES IDX 4 1 3 2 2 3 1 4 5 5 6 6 7 7 9 8 8 9
REMARK H PARENT
REMARK Flexibility Score: inf
ROOT
ATOM      1  C   UNL     1      27.096  -4.421  54.509  1.00  0.00     0.027 C 
ENDROOT
BRANCH   1   2
ATOM      2  C   UNL     1      25.710  -4.849  55.031  1.00  0.00     0.004 C 
BRANCH   2   3
ATOM      3  C   UNL     1      24.570  -3.903  54.614  1.00  0.00    -0.003 C 
ATOM      4  C   UNL     1      25.018  -2.450  54.470  1.00  0.00     0.004 C 
ENDBRANCH   2   3
ENDBRANCH   1   2
BRANCH   1   5
ATOM      5  C   UNL     1      27.647  -5.348  53.457  1.00  0.00    -0.023 C 
ATOM      6  C   UNL     1      27.435  -5.261  52.134  1.00  0.00     0.042 C 
BRANCH   6   7
ATOM      7  C   UNL     1      26.550  -4.295  51.449  1.00  0.00     0.152 C 
ATOM      8  O   UNL     1      25.432  -4.696  51.032  1.00  0.00    -0.295 OA
ATOM      9  C   UNL     1      26.898  -2.847  51.290  1.00  0.00     0.093 C 
ENDBRANCH   6   7
ENDBRANCH   1   5
TORSDOF 4
ENDMDL
MODEL 5
REMARK VINA RESULT:    -3.334      1.196      1.872
REMARK INTER + INTRA:          -4.503
REMARK INTER:                  -4.054
REMARK INTRA:                  -0.450
REMARK UNBOUND:                -0.390
REMARK SMILES CCCCC=CC(C)=O
REMARK SMILES IDX 4 1 3 2 2 3 1 4 5 5 6 6 7 7 9 8 8 9
REMARK H PARENT
REMARK Flexibility Score: inf
ROOT
ATOM      1  C   UNL     1      25.898  -2.306  53.534  1.00  0.00     0.027 C 
ENDROOT
BRANCH   1   2
ATOM      2  C   UNL     1      24.629  -3.168  53.695  1.00  0.00     0.004 C 
BRANCH   2   3
ATOM      3  C   UNL     1      24.606  -4.005  54.986  1.00  0.00    -0.003 C 
ATOM      4  C   UNL     1      25.842  -4.888  55.150  1.00  0.00     0.004 C 
ENDBRANCH   2   3
ENDBRANCH   1   2
BRANCH   1   5
ATOM      5  C   UNL     1      26.347  -2.172  52.103  1.00  0.00    -0.023 C 
ATOM      6  C   UNL     1      26.897  -3.140  51.351  1.00  0.00     0.042 C 
BRANCH   6   7
ATOM      7  C   UNL     1      27.253  -4.503  51.798  1.00  0.00     0.152 C 
ATOM      8  O   UNL     1      26.409  -5.424  51.646  1.00  0.00    -0.295 OA
ATOM      9  C   UNL     1      28.598  -4.847  52.361  1.00  0.00     0.093 C 
ENDBRANCH   6   7
ENDBRANCH   1   5
TORSDOF 4
ENDMDL
MODEL 6
REMARK VINA RESULT:    -3.269     11.315     13.056
REMARK INTER + INTRA:          -4.423
REMARK INTER:                  -4.083
REMARK INTRA:                  -0.340
REMARK UNBOUND:                -0.390
REMARK SMILES CCCCC=CC(C)=O
REMARK SMILES IDX 4 1 3 2 2 3 1 4 5 5 6 6 7 7 9 8 8 9
REMARK H PARENT
REMARK Flexibility Score: inf
ROOT
ATOM      1  C   UNL     1      16.034   2.564  57.795  1.00  0.00     0.027 C 
ENDROOT
BRANCH   1   2
ATOM      2  C   UNL     1      15.470   3.913  57.306  1.00  0.00     0.004 C 
BRANCH   2   3
ATOM      3  C   UNL     1      16.191   4.475  56.068  1.00  0.00    -0.003 C 
ATOM      4  C   UNL     1      17.246   3.525  55.504  1.00  0.00     0.004 C 
ENDBRANCH   2   3
ENDBRANCH   1   2
BRANCH   1   5
ATOM      5  C   UNL     1      14.976   1.506  57.969  1.00  0.00    -0.023 C 
ATOM      6  C   UNL     1      15.129   0.188  57.755  1.00  0.00     0.042 C 
BRANCH   6   7
ATOM      7  C   UNL     1      16.335  -0.480  57.222  1.00  0.00     0.152 C 
ATOM      8  O   UNL     1      17.045  -1.154  58.012  1.00  0.00    -0.295 OA
ATOM      9  C   UNL     1      16.709  -0.444  55.772  1.00  0.00     0.093 C 
ENDBRANCH   6   7
ENDBRANCH   1   5
TORSDOF 4
ENDMDL
MODEL 7
REMARK VINA RESULT:    -3.237      1.379      3.773
REMARK INTER + INTRA:          -4.384
REMARK INTER:                  -3.912
REMARK INTRA:                  -0.472
REMARK UNBOUND:                -0.390
REMARK SMILES CCCCC=CC(C)=O
REMARK SMILES IDX 4 1 3 2 2 3 1 4 5 5 6 6 7 7 9 8 8 9
REMARK H PARENT
REMARK Flexibility Score: inf
ROOT
ATOM      1  C   UNL     1      27.740  -2.498  51.841  1.00  0.00     0.027 C 
ENDROOT
BRANCH   1   2
ATOM      2  C   UNL     1      29.068  -3.101  51.340  1.00  0.00     0.004 C 
BRANCH   2   3
ATOM      3  C   UNL     1      29.511  -4.356  52.112  1.00  0.00    -0.003 C 
ATOM      4  C   UNL     1      29.337  -5.646  51.311  1.00  0.00     0.004 C 
ENDBRANCH   2   3
ENDBRANCH   1   2
BRANCH   1   5
ATOM      5  C   UNL     1      26.527  -3.250  51.358  1.00  0.00    -0.023 C 
ATOM      6  C   UNL     1      25.708  -4.002  52.111  1.00  0.00     0.042 C 
BRANCH   6   7
ATOM      7  C   UNL     1      25.879  -4.318  53.545  1.00  0.00     0.152 C 
ATOM      8  O   UNL     1      26.642  -5.268  53.863  1.00  0.00    -0.295 OA
ATOM      9  C   UNL     1      25.238  -3.516  54.635  1.00  0.00     0.093 C 
ENDBRANCH   6   7
ENDBRANCH   1   5
TORSDOF 4
ENDMDL
MODEL 8
REMARK VINA RESULT:    -3.222      1.909      3.388
REMARK INTER + INTRA:          -4.365
REMARK INTER:                  -3.793
REMARK INTRA:                  -0.573
REMARK UNBOUND:                -0.390
REMARK SMILES CCCCC=CC(C)=O
REMARK SMILES IDX 4 1 3 2 2 3 1 4 5 5 6 6 7 7 9 8 8 9
REMARK H PARENT
REMARK Flexibility Score: inf
ROOT
ATOM      1  C   UNL     1      25.928  -3.828  55.133  1.00  0.00     0.027 C 
ENDROOT
BRANCH   1   2
ATOM      2  C   UNL     1      26.130  -5.323  55.451  1.00  0.00     0.004 C 
BRANCH   2   3
ATOM      3  C   UNL     1      27.550  -5.836  55.151  1.00  0.00    -0.003 C 
ATOM      4  C   UNL     1      28.513  -4.726  54.733  1.00  0.00     0.004 C 
ENDBRANCH   2   3
ENDBRANCH   1   2
BRANCH   1   5
ATOM      5  C   UNL     1      24.785  -3.571  54.187  1.00  0.00    -0.023 C 
ATOM      6  C   UNL     1      24.832  -3.653  52.847  1.00  0.00     0.042 C 
BRANCH   6   7
ATOM      7  C   UNL     1      26.031  -3.924  52.026  1.00  0.00     0.152 C 
ATOM      8  O   UNL     1      26.347  -5.123  51.805  1.00  0.00    -0.295 OA
ATOM      9  C   UNL     1      26.843  -2.838  51.391  1.00  0.00     0.093 C 
ENDBRANCH   6   7
ENDBRANCH   1   5
TORSDOF 4
ENDMDL
MODEL 9
REMARK VINA RESULT:    -3.196      1.873      4.085
REMARK INTER + INTRA:          -4.333
REMARK INTER:                  -3.874
REMARK INTRA:                  -0.459
REMARK UNBOUND:                -0.390
REMARK SMILES CCCCC=CC(C)=O
REMARK SMILES IDX 4 1 3 2 2 3 1 4 5 5 6 6 7 7 9 8 8 9
REMARK H PARENT
REMARK Flexibility Score: inf
ROOT
ATOM      1  C   UNL     1      27.618  -5.468  52.472  1.00  0.00     0.027 C 
ENDROOT
BRANCH   1   2
ATOM      2  C   UNL     1      28.984  -5.302  51.776  1.00  0.00     0.004 C 
BRANCH   2   3
ATOM      3  C   UNL     1      29.300  -3.853  51.365  1.00  0.00    -0.003 C 
ATOM      4  C   UNL     1      29.345  -2.890  52.550  1.00  0.00     0.004 C 
ENDBRANCH   2   3
ENDBRANCH   1   2
BRANCH   1   5
ATOM      5  C   UNL     1      26.451  -5.155  51.572  1.00  0.00    -0.023 C 
ATOM      6  C   UNL     1      25.553  -4.172  51.751  1.00  0.00     0.042 C 
BRANCH   6   7
ATOM      7  C   UNL     1      25.474  -3.257  52.909  1.00  0.00     0.152 C 
ATOM      8  O   UNL     1      25.911  -2.083  52.776  1.00  0.00    -0.295 OA
ATOM      9  C   UNL     1      24.837  -3.643  54.208  1.00  0.00     0.093 C 
ENDBRANCH   6   7
ENDBRANCH   1   5
TORSDOF 4
ENDMDL
