MODEL 1
REMARK VINA RESULT:    -7.991      0.000      0.000
REMARK INTER + INTRA:         -11.909
REMARK INTER:                 -11.261
REMARK INTRA:                  -0.648
REMARK UNBOUND:                -0.648
REMARK SMILES C=C(CC[C@H](C(=O)[O-])[C@H]1[C@@H](O)C[C@@]2(C)C3=C(CC[C@@]12C)[C@@]1(C)CC[C@H](O)C(C)(C)[C@H]1CC3)C(C)C
REMARK SMILES IDX 4 1 5 2 6 3 7 4 8 5 9 6 10 7 19 8 12 9 13 10 18 11 20 12
REMARK SMILES IDX 14 13 15 14 17 15 16 16 32 17 21 18 31 19 30 20 23 21 22 22
REMARK SMILES IDX 27 23 24 24 25 25 28 26 29 27 11 28 26 30 3 32 2 33 1 34
REMARK SMILES IDX 33 35 34 36 35 37
REMARK H PARENT 11 29 26 31
REMARK Flexibility Score: inf
ROOT
ATOM      1  C   UNL     1      46.628  12.314  21.927  1.00  0.00     0.014 C 
ENDROOT
BRANCH   1   2
ATOM      2  C   UNL     1      46.234  10.933  22.517  1.00  0.00     0.042 C 
BRANCH   2   3
ATOM      3  C   UNL     1      45.850  11.091  23.976  1.00  0.00     0.045 C 
ATOM      4  O   UNL     1      46.233  12.081  24.651  1.00  0.00    -0.550 OA
ATOM      5  O   UNL     1      44.996  10.171  24.570  1.00  0.00    -0.550 OA
ENDBRANCH   2   3
BRANCH   2   6
ATOM      6  C   UNL     1      47.316   9.823  22.204  1.00  0.00     0.033 C 
ATOM      7  C   UNL     1      48.270   9.386  23.347  1.00  0.00     0.119 C 
ATOM      8  C   UNL     1      46.877   8.515  21.417  1.00  0.00    -0.017 C 
ATOM      9  C   UNL     1      48.142   7.878  23.469  1.00  0.00     0.043 C 
ATOM     10  C   UNL     1      47.752   7.346  22.073  1.00  0.00    -0.003 C 
ATOM     11  C   UNL     1      45.349   8.187  21.484  1.00  0.00     0.012 C 
ATOM     12  C   UNL     1      47.162   8.725  19.894  1.00  0.00     0.013 C 
ATOM     13  C   UNL     1      49.078   7.126  21.281  1.00  0.00     0.017 C 
ATOM     14  C   UNL     1      46.979   6.006  22.281  1.00  0.00    -0.064 C 
ATOM     15  C   UNL     1      44.980   7.382  22.712  1.00  0.00     0.032 C 
ATOM     16  C   UNL     1      45.655   6.022  22.623  1.00  0.00    -0.064 C 
ATOM     17  C   UNL     1      47.757   4.722  22.457  1.00  0.00     0.032 C 
ATOM     18  C   UNL     1      44.843   4.755  23.029  1.00  0.00    -0.008 C 
ATOM     19  C   UNL     1      46.928   3.511  22.100  1.00  0.00     0.009 C 
ATOM     20  C   UNL     1      45.684   3.397  23.008  1.00  0.00     0.007 C 
ATOM     21  C   UNL     1      43.576   4.636  22.109  1.00  0.00     0.014 C 
ATOM     22  C   UNL     1      44.382   5.025  24.490  1.00  0.00     0.016 C 
ATOM     23  C   UNL     1      44.833   2.101  22.655  1.00  0.00    -0.006 C 
ATOM     24  C   UNL     1      43.796   3.739  20.897  1.00  0.00     0.033 C 
ATOM     25  C   UNL     1      44.084   2.274  21.280  1.00  0.00     0.120 C 
ATOM     26  C   UNL     1      45.746   0.845  22.562  1.00  0.00     0.014 C 
ATOM     27  C   UNL     1      43.833   1.782  23.806  1.00  0.00     0.014 C 
BRANCH   7  28
ATOM     28  O   UNL     1      48.015  10.008  24.575  1.00  0.00    -0.393 OA
ATOM     29  H   UNL     1      47.576   9.333  25.154  1.00  0.00     0.210 HD
ENDBRANCH   7  28
BRANCH  25  30
ATOM     30  O   UNL     1      42.875   1.554  21.262  1.00  0.00    -0.393 OA
ATOM     31  H   UNL     1      42.870   0.978  22.072  1.00  0.00     0.210 HD
ENDBRANCH  25  30
ENDBRANCH   2   6
ENDBRANCH   1   2
BRANCH   1  32
ATOM     32  C   UNL     1      47.008  12.226  20.438  1.00  0.00     0.031 C 
BRANCH  32  33
ATOM     33  C   UNL     1      47.633  13.522  19.966  1.00  0.00    -0.075 C 
ATOM     34  C   UNL     1      47.390  14.652  20.658  1.00  0.00     0.008 C 
BRANCH  33  35
ATOM     35  C   UNL     1      48.520  13.530  18.729  1.00  0.00     0.008 C 
ATOM     36  C   UNL     1      49.525  14.690  18.776  1.00  0.00     0.012 C 
ATOM     37  C   UNL     1      49.240  12.187  18.548  1.00  0.00     0.012 C 
ENDBRANCH  33  35
ENDBRANCH  32  33
ENDBRANCH   1  32
TORSDOF 8
ENDMDL
MODEL 2
REMARK VINA RESULT:    -7.900      3.803      9.359
REMARK INTER + INTRA:         -11.780
REMARK INTER:                 -10.739
REMARK INTRA:                  -1.041
REMARK UNBOUND:                -0.648
REMARK SMILES C=C(CC[C@H](C(=O)[O-])[C@H]1[C@@H](O)C[C@@]2(C)C3=C(CC[C@@]12C)[C@@]1(C)CC[C@H](O)C(C)(C)[C@H]1CC3)C(C)C
REMARK SMILES IDX 4 1 5 2 6 3 7 4 8 5 9 6 10 7 19 8 12 9 13 10 18 11 20 12
REMARK SMILES IDX 14 13 15 14 17 15 16 16 32 17 21 18 31 19 30 20 23 21 22 22
REMARK SMILES IDX 27 23 24 24 25 25 28 26 29 27 11 28 26 30 3 32 2 33 1 34
REMARK SMILES IDX 33 35 34 36 35 37
REMARK H PARENT 11 29 26 31
REMARK Flexibility Score: inf
ROOT
ATOM      1  C   UNL     1      46.248  -0.044  23.287  1.00  0.00     0.014 C 
ENDROOT
BRANCH   1   2
ATOM      2  C   UNL     1      47.262  -0.745  22.343  1.00  0.00     0.042 C 
BRANCH   2   3
ATOM      3  C   UNL     1      47.988  -1.842  23.099  1.00  0.00     0.045 C 
ATOM      4  O   UNL     1      48.837  -2.577  22.532  1.00  0.00    -0.550 OA
ATOM      5  O   UNL     1      47.774  -2.001  24.462  1.00  0.00    -0.550 OA
ENDBRANCH   2   3
BRANCH   2   6
ATOM      6  C   UNL     1      48.180   0.292  21.581  1.00  0.00     0.033 C 
ATOM      7  C   UNL     1      47.582   1.043  20.362  1.00  0.00     0.119 C 
ATOM      8  C   UNL     1      49.028   1.340  22.423  1.00  0.00    -0.017 C 
ATOM      9  C   UNL     1      47.761   2.527  20.633  1.00  0.00     0.043 C 
ATOM     10  C   UNL     1      49.006   2.672  21.535  1.00  0.00    -0.003 C 
ATOM     11  C   UNL     1      48.493   1.611  23.868  1.00  0.00     0.012 C 
ATOM     12  C   UNL     1      50.464   0.763  22.643  1.00  0.00     0.013 C 
ATOM     13  C   UNL     1      50.248   2.738  20.592  1.00  0.00     0.017 C 
ATOM     14  C   UNL     1      48.838   3.988  22.357  1.00  0.00    -0.064 C 
ATOM     15  C   UNL     1      47.426   2.685  23.901  1.00  0.00     0.032 C 
ATOM     16  C   UNL     1      48.051   4.005  23.475  1.00  0.00    -0.064 C 
ATOM     17  C   UNL     1      49.243   5.305  21.735  1.00  0.00     0.032 C 
ATOM     18  C   UNL     1      47.674   5.299  24.258  1.00  0.00    -0.008 C 
ATOM     19  C   UNL     1      49.539   6.352  22.784  1.00  0.00     0.009 C 
ATOM     20  C   UNL     1      48.295   6.641  23.653  1.00  0.00     0.007 C 
ATOM     21  C   UNL     1      48.081   5.130  25.764  1.00  0.00     0.014 C 
ATOM     22  C   UNL     1      46.123   5.389  24.161  1.00  0.00     0.016 C 
ATOM     23  C   UNL     1      48.599   7.769  24.731  1.00  0.00    -0.006 C 
ATOM     24  C   UNL     1      49.458   5.699  26.082  1.00  0.00     0.033 C 
ATOM     25  C   UNL     1      49.539   7.224  25.871  1.00  0.00     0.120 C 
ATOM     26  C   UNL     1      49.290   8.997  24.071  1.00  0.00     0.014 C 
ATOM     27  C   UNL     1      47.268   8.328  25.317  1.00  0.00     0.014 C 
BRANCH   7  28
ATOM     28  O   UNL     1      46.239   0.743  20.107  1.00  0.00    -0.393 OA
ATOM     29  H   UNL     1      45.867   1.503  19.589  1.00  0.00     0.210 HD
ENDBRANCH   7  28
BRANCH  25  30
ATOM     30  O   UNL     1      49.284   7.865  27.097  1.00  0.00    -0.393 OA
ATOM     31  H   UNL     1      50.165   8.141  27.467  1.00  0.00     0.210 HD
ENDBRANCH  25  30
ENDBRANCH   2   6
ENDBRANCH   1   2
BRANCH   1  32
ATOM     32  C   UNL     1      44.804  -0.523  23.052  1.00  0.00     0.031 C 
BRANCH  32  33
ATOM     33  C   UNL     1      43.948   0.600  22.506  1.00  0.00    -0.075 C 
ATOM     34  C   UNL     1      42.879   0.293  21.747  1.00  0.00     0.008 C 
BRANCH  33  35
ATOM     35  C   UNL     1      44.304   2.046  22.820  1.00  0.00     0.008 C 
ATOM     36  C   UNL     1      44.036   2.956  21.613  1.00  0.00     0.012 C 
ATOM     37  C   UNL     1      43.556   2.549  24.062  1.00  0.00     0.012 C 
ENDBRANCH  33  35
ENDBRANCH  32  33
ENDBRANCH   1  32
TORSDOF 8
ENDMDL
MODEL 3
REMARK VINA RESULT:    -7.586      1.594      2.081
REMARK INTER + INTRA:         -11.339
REMARK INTER:                 -10.788
REMARK INTRA:                  -0.551
REMARK UNBOUND:                -0.648
REMARK SMILES C=C(CC[C@H](C(=O)[O-])[C@H]1[C@@H](O)C[C@@]2(C)C3=C(CC[C@@]12C)[C@@]1(C)CC[C@H](O)C(C)(C)[C@H]1CC3)C(C)C
REMARK SMILES IDX 4 1 5 2 6 3 7 4 8 5 9 6 10 7 19 8 12 9 13 10 18 11 20 12
REMARK SMILES IDX 14 13 15 14 17 15 16 16 32 17 21 18 31 19 30 20 23 21 22 22
REMARK SMILES IDX 27 23 24 24 25 25 28 26 29 27 11 28 26 30 3 32 2 33 1 34
REMARK SMILES IDX 33 35 34 36 35 37
REMARK H PARENT 11 29 26 31
REMARK Flexibility Score: inf
ROOT
ATOM      1  C   UNL     1      46.684  11.597  21.445  1.00  0.00     0.014 C 
ENDROOT
BRANCH   1   2
ATOM      2  C   UNL     1      46.334  10.127  21.800  1.00  0.00     0.042 C 
BRANCH   2   3
ATOM      3  C   UNL     1      45.011  10.082  22.540  1.00  0.00     0.045 C 
ATOM      4  O   UNL     1      44.489  11.123  23.014  1.00  0.00    -0.550 OA
ATOM      5  O   UNL     1      44.315   8.884  22.639  1.00  0.00    -0.550 OA
ENDBRANCH   2   3
BRANCH   2   6
ATOM      6  C   UNL     1      47.541   9.381  22.496  1.00  0.00     0.033 C 
ATOM      7  C   UNL     1      47.497   9.190  24.035  1.00  0.00     0.119 C 
ATOM      8  C   UNL     1      48.088   8.032  21.859  1.00  0.00    -0.017 C 
ATOM      9  C   UNL     1      47.667   7.703  24.295  1.00  0.00     0.043 C 
ATOM     10  C   UNL     1      48.494   7.134  23.121  1.00  0.00    -0.003 C 
ATOM     11  C   UNL     1      47.074   7.283  20.932  1.00  0.00     0.012 C 
ATOM     12  C   UNL     1      49.293   8.370  20.922  1.00  0.00     0.013 C 
ATOM     13  C   UNL     1      49.999   7.328  23.485  1.00  0.00     0.017 C 
ATOM     14  C   UNL     1      48.127   5.624  22.978  1.00  0.00    -0.064 C 
ATOM     15  C   UNL     1      46.152   6.362  21.702  1.00  0.00     0.032 C 
ATOM     16  C   UNL     1      46.984   5.252  22.327  1.00  0.00    -0.064 C 
ATOM     17  C   UNL     1      48.828   4.607  23.850  1.00  0.00     0.032 C 
ATOM     18  C   UNL     1      46.436   3.794  22.287  1.00  0.00    -0.008 C 
ATOM     19  C   UNL     1      48.786   3.225  23.242  1.00  0.00     0.009 C 
ATOM     20  C   UNL     1      47.333   2.731  23.073  1.00  0.00     0.007 C 
ATOM     21  C   UNL     1      46.239   3.355  20.793  1.00  0.00     0.014 C 
ATOM     22  C   UNL     1      45.044   3.868  22.978  1.00  0.00     0.016 C 
ATOM     23  C   UNL     1      47.293   1.261  22.468  1.00  0.00    -0.006 C 
ATOM     24  C   UNL     1      47.436   2.602  20.225  1.00  0.00     0.033 C 
ATOM     25  C   UNL     1      47.700   1.265  20.946  1.00  0.00     0.120 C 
ATOM     26  C   UNL     1      48.267   0.318  23.232  1.00  0.00     0.014 C 
ATOM     27  C   UNL     1      45.884   0.630  22.674  1.00  0.00     0.014 C 
BRANCH   7  28
ATOM     28  O   UNL     1      46.328   9.668  24.638  1.00  0.00    -0.393 OA
ATOM     29  H   UNL     1      46.316  10.651  24.505  1.00  0.00     0.210 HD
ENDBRANCH   7  28
BRANCH  25  30
ATOM     30  O   UNL     1      47.053   0.235  20.240  1.00  0.00    -0.393 OA
ATOM     31  H   UNL     1      46.332  -0.112  20.831  1.00  0.00     0.210 HD
ENDBRANCH  25  30
ENDBRANCH   2   6
ENDBRANCH   1   2
BRANCH   1  32
ATOM     32  C   UNL     1      47.372  11.720  20.073  1.00  0.00     0.031 C 
BRANCH  32  33
ATOM     33  C   UNL     1      47.744  13.159  19.786  1.00  0.00    -0.075 C 
ATOM     34  C   UNL     1      47.293  14.125  20.609  1.00  0.00     0.008 C 
BRANCH  33  35
ATOM     35  C   UNL     1      48.615  13.491  18.582  1.00  0.00     0.008 C 
ATOM     36  C   UNL     1      49.388  14.799  18.803  1.00  0.00     0.012 C 
ATOM     37  C   UNL     1      49.572  12.338  18.249  1.00  0.00     0.012 C 
ENDBRANCH  33  35
ENDBRANCH  32  33
ENDBRANCH   1  32
TORSDOF 8
ENDMDL
MODEL 4
REMARK VINA RESULT:    -7.548      2.515      4.798
REMARK INTER + INTRA:         -11.284
REMARK INTER:                 -10.445
REMARK INTRA:                  -0.839
REMARK UNBOUND:                -0.648
REMARK SMILES C=C(CC[C@H](C(=O)[O-])[C@H]1[C@@H](O)C[C@@]2(C)C3=C(CC[C@@]12C)[C@@]1(C)CC[C@H](O)C(C)(C)[C@H]1CC3)C(C)C
REMARK SMILES IDX 4 1 5 2 6 3 7 4 8 5 9 6 10 7 19 8 12 9 13 10 18 11 20 12
REMARK SMILES IDX 14 13 15 14 17 15 16 16 32 17 21 18 31 19 30 20 23 21 22 22
REMARK SMILES IDX 27 23 24 24 25 25 28 26 29 27 11 28 26 30 3 32 2 33 1 34
REMARK SMILES IDX 33 35 34 36 35 37
REMARK H PARENT 11 29 26 31
REMARK Flexibility Score: inf
ROOT
ATOM      1  C   UNL     1      46.506   8.763  25.182  1.00  0.00     0.014 C 
ENDROOT
BRANCH   1   2
ATOM      2  C   UNL     1      47.358   9.781  24.377  1.00  0.00     0.042 C 
BRANCH   2   3
ATOM      3  C   UNL     1      46.468  10.893  23.857  1.00  0.00     0.045 C 
ATOM      4  O   UNL     1      46.930  12.031  23.584  1.00  0.00    -0.550 OA
ATOM      5  O   UNL     1      45.126  10.641  23.600  1.00  0.00    -0.550 OA
ENDBRANCH   2   3
BRANCH   2   6
ATOM      6  C   UNL     1      48.276   9.071  23.304  1.00  0.00     0.033 C 
ATOM      7  C   UNL     1      49.654   8.526  23.763  1.00  0.00     0.119 C 
ATOM      8  C   UNL     1      47.635   7.995  22.327  1.00  0.00    -0.017 C 
ATOM      9  C   UNL     1      49.694   7.058  23.374  1.00  0.00     0.043 C 
ATOM     10  C   UNL     1      48.783   6.897  22.138  1.00  0.00    -0.003 C 
ATOM     11  C   UNL     1      46.307   7.347  22.843  1.00  0.00     0.012 C 
ATOM     12  C   UNL     1      47.227   8.705  20.995  1.00  0.00     0.013 C 
ATOM     13  C   UNL     1      49.656   7.209  20.883  1.00  0.00     0.017 C 
ATOM     14  C   UNL     1      48.267   5.424  22.126  1.00  0.00    -0.064 C 
ATOM     15  C   UNL     1      46.554   6.153  23.741  1.00  0.00     0.032 C 
ATOM     16  C   UNL     1      47.217   5.056  22.922  1.00  0.00    -0.064 C 
ATOM     17  C   UNL     1      49.132   4.342  21.521  1.00  0.00     0.032 C 
ATOM     18  C   UNL     1      46.745   3.585  23.120  1.00  0.00    -0.008 C 
ATOM     19  C   UNL     1      48.315   3.145  21.094  1.00  0.00     0.009 C 
ATOM     20  C   UNL     1      47.588   2.505  22.297  1.00  0.00     0.007 C 
ATOM     21  C   UNL     1      45.219   3.479  22.769  1.00  0.00     0.014 C 
ATOM     22  C   UNL     1      46.934   3.302  24.638  1.00  0.00     0.016 C 
ATOM     23  C   UNL     1      46.758   1.224  21.851  1.00  0.00    -0.006 C 
ATOM     24  C   UNL     1      44.961   3.053  21.329  1.00  0.00     0.033 C 
ATOM     25  C   UNL     1      45.484   1.636  21.021  1.00  0.00     0.120 C 
ATOM     26  C   UNL     1      47.628   0.275  20.976  1.00  0.00     0.014 C 
ATOM     27  C   UNL     1      46.370   0.372  23.096  1.00  0.00     0.014 C 
BRANCH   7  28
ATOM     28  O   UNL     1      49.906   8.684  25.131  1.00  0.00    -0.393 OA
ATOM     29  H   UNL     1      50.573   7.995  25.383  1.00  0.00     0.210 HD
ENDBRANCH   7  28
BRANCH  25  30
ATOM     30  O   UNL     1      44.436   0.716  21.202  1.00  0.00    -0.393 OA
ATOM     31  H   UNL     1      44.328   0.591  22.183  1.00  0.00     0.210 HD
ENDBRANCH  25  30
ENDBRANCH   2   6
ENDBRANCH   1   2
BRANCH   1  32
ATOM     32  C   UNL     1      46.994   8.611  26.634  1.00  0.00     0.031 C 
BRANCH  32  33
ATOM     33  C   UNL     1      46.356   7.407  27.292  1.00  0.00    -0.075 C 
ATOM     34  C   UNL     1      45.014   7.354  27.392  1.00  0.00     0.008 C 
BRANCH  33  35
ATOM     35  C   UNL     1      47.232   6.281  27.825  1.00  0.00     0.008 C 
ATOM     36  C   UNL     1      46.426   4.984  27.990  1.00  0.00     0.012 C 
ATOM     37  C   UNL     1      48.458   6.055  26.932  1.00  0.00     0.012 C 
ENDBRANCH  33  35
ENDBRANCH  32  33
ENDBRANCH   1  32
TORSDOF 8
ENDMDL
MODEL 5
REMARK VINA RESULT:    -7.535      2.729      8.776
REMARK INTER + INTRA:         -11.266
REMARK INTER:                  -9.859
REMARK INTRA:                  -1.407
REMARK UNBOUND:                -0.648
REMARK SMILES C=C(CC[C@H](C(=O)[O-])[C@H]1[C@@H](O)C[C@@]2(C)C3=C(CC[C@@]12C)[C@@]1(C)CC[C@H](O)C(C)(C)[C@H]1CC3)C(C)C
REMARK SMILES IDX 4 1 5 2 6 3 7 4 8 5 9 6 10 7 19 8 12 9 13 10 18 11 20 12
REMARK SMILES IDX 14 13 15 14 17 15 16 16 32 17 21 18 31 19 30 20 23 21 22 22
REMARK SMILES IDX 27 23 24 24 25 25 28 26 29 27 11 28 26 30 3 32 2 33 1 34
REMARK SMILES IDX 33 35 34 36 35 37
REMARK H PARENT 11 29 26 31
REMARK Flexibility Score: inf
ROOT
ATOM      1  C   UNL     1      48.179   0.638  22.823  1.00  0.00     0.014 C 
ENDROOT
BRANCH   1   2
ATOM      2  C   UNL     1      48.281   2.130  22.405  1.00  0.00     0.042 C 
BRANCH   2   3
ATOM      3  C   UNL     1      49.404   2.303  21.400  1.00  0.00     0.045 C 
ATOM      4  O   UNL     1      49.440   3.290  20.622  1.00  0.00    -0.550 OA
ATOM      5  O   UNL     1      50.458   1.399  21.379  1.00  0.00    -0.550 OA
ENDBRANCH   2   3
BRANCH   2   6
ATOM      6  C   UNL     1      48.318   3.095  23.656  1.00  0.00     0.033 C 
ATOM      7  C   UNL     1      49.686   3.690  24.084  1.00  0.00     0.119 C 
ATOM      8  C   UNL     1      47.234   4.250  23.775  1.00  0.00    -0.017 C 
ATOM      9  C   UNL     1      49.514   5.198  24.120  1.00  0.00     0.043 C 
ATOM     10  C   UNL     1      48.027   5.473  24.437  1.00  0.00    -0.003 C 
ATOM     11  C   UNL     1      46.569   4.670  22.423  1.00  0.00     0.012 C 
ATOM     12  C   UNL     1      46.044   3.735  24.649  1.00  0.00     0.013 C 
ATOM     13  C   UNL     1      47.881   5.461  25.990  1.00  0.00     0.017 C 
ATOM     14  C   UNL     1      47.671   6.869  23.837  1.00  0.00    -0.064 C 
ATOM     15  C   UNL     1      47.372   5.716  21.679  1.00  0.00     0.032 C 
ATOM     16  C   UNL     1      47.390   6.994  22.505  1.00  0.00    -0.064 C 
ATOM     17  C   UNL     1      47.981   8.116  24.633  1.00  0.00     0.032 C 
ATOM     18  C   UNL     1      47.202   8.358  21.776  1.00  0.00    -0.008 C 
ATOM     19  C   UNL     1      47.119   9.281  24.205  1.00  0.00     0.009 C 
ATOM     20  C   UNL     1      47.354   9.637  22.722  1.00  0.00     0.007 C 
ATOM     21  C   UNL     1      45.810   8.370  21.049  1.00  0.00     0.014 C 
ATOM     22  C   UNL     1      48.330   8.401  20.706  1.00  0.00     0.016 C 
ATOM     23  C   UNL     1      46.474  10.887  22.284  1.00  0.00    -0.006 C 
ATOM     24  C   UNL     1      44.703   9.003  21.882  1.00  0.00     0.033 C 
ATOM     25  C   UNL     1      44.951  10.496  22.175  1.00  0.00     0.120 C 
ATOM     26  C   UNL     1      46.609  12.049  23.311  1.00  0.00     0.014 C 
ATOM     27  C   UNL     1      47.002  11.477  20.943  1.00  0.00     0.014 C 
BRANCH   7  28
ATOM     28  O   UNL     1      50.752   3.331  23.250  1.00  0.00    -0.393 OA
ATOM     29  H   UNL     1      50.929   2.368  23.406  1.00  0.00     0.210 HD
ENDBRANCH   7  28
BRANCH  25  30
ATOM     30  O   UNL     1      44.293  11.265  21.198  1.00  0.00    -0.393 OA
ATOM     31  H   UNL     1      44.999  11.697  20.648  1.00  0.00     0.210 HD
ENDBRANCH  25  30
ENDBRANCH   2   6
ENDBRANCH   1   2
BRANCH   1  32
ATOM     32  C   UNL     1      46.923  -0.045  22.251  1.00  0.00     0.031 C 
BRANCH  32  33
ATOM     33  C   UNL     1      45.735   0.164  23.166  1.00  0.00    -0.075 C 
ATOM     34  C   UNL     1      45.786  -0.323  24.421  1.00  0.00     0.008 C 
BRANCH  33  35
ATOM     35  C   UNL     1      44.511   0.915  22.661  1.00  0.00     0.008 C 
ATOM     36  C   UNL     1      44.791   1.582  21.306  1.00  0.00     0.012 C 
ATOM     37  C   UNL     1      43.286  -0.004  22.577  1.00  0.00     0.012 C 
ENDBRANCH  33  35
ENDBRANCH  32  33
ENDBRANCH   1  32
TORSDOF 8
ENDMDL
MODEL 6
REMARK VINA RESULT:    -7.491      3.572      6.626
REMARK INTER + INTRA:         -11.204
REMARK INTER:                  -9.576
REMARK INTRA:                  -1.628
REMARK UNBOUND:                -0.648
REMARK SMILES C=C(CC[C@H](C(=O)[O-])[C@H]1[C@@H](O)C[C@@]2(C)C3=C(CC[C@@]12C)[C@@]1(C)CC[C@H](O)C(C)(C)[C@H]1CC3)C(C)C
REMARK SMILES IDX 4 1 5 2 6 3 7 4 8 5 9 6 10 7 19 8 12 9 13 10 18 11 20 12
REMARK SMILES IDX 14 13 15 14 17 15 16 16 32 17 21 18 31 19 30 20 23 21 22 22
REMARK SMILES IDX 27 23 24 24 25 25 28 26 29 27 11 28 26 30 3 32 2 33 1 34
REMARK SMILES IDX 33 35 34 36 35 37
REMARK H PARENT 11 29 26 31
REMARK Flexibility Score: inf
ROOT
ATOM      1  C   UNL     1      46.337   7.452  24.801  1.00  0.00     0.014 C 
ENDROOT
BRANCH   1   2
ATOM      2  C   UNL     1      46.785   7.006  23.383  1.00  0.00     0.042 C 
BRANCH   2   3
ATOM      3  C   UNL     1      46.788   8.201  22.449  1.00  0.00     0.045 C 
ATOM      4  O   UNL     1      45.743   8.866  22.231  1.00  0.00    -0.550 OA
ATOM      5  O   UNL     1      47.979   8.627  21.876  1.00  0.00    -0.550 OA
ENDBRANCH   2   3
BRANCH   2   6
ATOM      6  C   UNL     1      45.986   5.738  22.880  1.00  0.00     0.033 C 
ATOM      7  C   UNL     1      45.891   5.491  21.351  1.00  0.00     0.119 C 
ATOM      8  C   UNL     1      46.242   4.335  23.579  1.00  0.00    -0.017 C 
ATOM      9  C   UNL     1      46.407   4.084  21.104  1.00  0.00     0.043 C 
ATOM     10  C   UNL     1      46.129   3.272  22.388  1.00  0.00    -0.003 C 
ATOM     11  C   UNL     1      47.612   4.210  24.323  1.00  0.00     0.012 C 
ATOM     12  C   UNL     1      45.172   4.129  24.700  1.00  0.00     0.013 C 
ATOM     13  C   UNL     1      44.677   2.714  22.269  1.00  0.00     0.017 C 
ATOM     14  C   UNL     1      47.182   2.122  22.451  1.00  0.00    -0.064 C 
ATOM     15  C   UNL     1      48.736   3.780  23.405  1.00  0.00     0.032 C 
ATOM     16  C   UNL     1      48.447   2.372  22.908  1.00  0.00    -0.064 C 
ATOM     17  C   UNL     1      46.927   0.841  21.690  1.00  0.00     0.032 C 
ATOM     18  C   UNL     1      49.618   1.346  22.842  1.00  0.00    -0.008 C 
ATOM     19  C   UNL     1      47.705  -0.318  22.267  1.00  0.00     0.009 C 
ATOM     20  C   UNL     1      49.226  -0.062  22.196  1.00  0.00     0.007 C 
ATOM     21  C   UNL     1      50.215   1.148  24.280  1.00  0.00     0.014 C 
ATOM     22  C   UNL     1      50.692   2.019  21.939  1.00  0.00     0.016 C 
ATOM     23  C   UNL     1      50.044  -1.299  22.770  1.00  0.00    -0.006 C 
ATOM     24  C   UNL     1      49.613  -0.039  25.022  1.00  0.00     0.033 C 
ATOM     25  C   UNL     1      49.911  -1.387  24.337  1.00  0.00     0.120 C 
ATOM     26  C   UNL     1      49.532  -2.635  22.158  1.00  0.00     0.014 C 
ATOM     27  C   UNL     1      51.537  -1.208  22.334  1.00  0.00     0.014 C 
BRANCH   7  28
ATOM     28  O   UNL     1      46.593   6.421  20.575  1.00  0.00    -0.393 OA
ATOM     29  H   UNL     1      47.357   5.938  20.168  1.00  0.00     0.210 HD
ENDBRANCH   7  28
BRANCH  25  30
ATOM     30  O   UNL     1      51.063  -1.946  24.918  1.00  0.00    -0.393 OA
ATOM     31  H   UNL     1      50.811  -2.238  25.835  1.00  0.00     0.210 HD
ENDBRANCH  25  30
ENDBRANCH   2   6
ENDBRANCH   1   2
BRANCH   1  32
ATOM     32  C   UNL     1      47.486   8.091  25.603  1.00  0.00     0.031 C 
BRANCH  32  33
ATOM     33  C   UNL     1      48.181   7.056  26.461  1.00  0.00    -0.075 C 
ATOM     34  C   UNL     1      47.457   6.365  27.363  1.00  0.00     0.008 C 
BRANCH  33  35
ATOM     35  C   UNL     1      49.674   6.812  26.295  1.00  0.00     0.008 C 
ATOM     36  C   UNL     1      50.067   5.418  26.806  1.00  0.00     0.012 C 
ATOM     37  C   UNL     1      50.115   7.007  24.839  1.00  0.00     0.012 C 
ENDBRANCH  33  35
ENDBRANCH  32  33
ENDBRANCH   1  32
TORSDOF 8
ENDMDL
MODEL 7
REMARK VINA RESULT:    -7.468      3.650      5.778
REMARK INTER + INTRA:         -11.172
REMARK INTER:                  -9.788
REMARK INTRA:                  -1.384
REMARK UNBOUND:                -0.648
REMARK SMILES C=C(CC[C@H](C(=O)[O-])[C@H]1[C@@H](O)C[C@@]2(C)C3=C(CC[C@@]12C)[C@@]1(C)CC[C@H](O)C(C)(C)[C@H]1CC3)C(C)C
REMARK SMILES IDX 4 1 5 2 6 3 7 4 8 5 9 6 10 7 19 8 12 9 13 10 18 11 20 12
REMARK SMILES IDX 14 13 15 14 17 15 16 16 32 17 21 18 31 19 30 20 23 21 22 22
REMARK SMILES IDX 27 23 24 24 25 25 28 26 29 27 11 28 26 30 3 32 2 33 1 34
REMARK SMILES IDX 33 35 34 36 35 37
REMARK H PARENT 11 29 26 31
REMARK Flexibility Score: inf
ROOT
ATOM      1  C   UNL     1      48.999   8.350  23.489  1.00  0.00     0.014 C 
ENDROOT
BRANCH   1   2
ATOM      2  C   UNL     1      47.788   7.581  24.082  1.00  0.00     0.042 C 
BRANCH   2   3
ATOM      3  C   UNL     1      46.650   8.548  24.349  1.00  0.00     0.045 C 
ATOM      4  O   UNL     1      45.598   8.528  23.660  1.00  0.00    -0.550 OA
ATOM      5  O   UNL     1      46.728   9.428  25.420  1.00  0.00    -0.550 OA
ENDBRANCH   2   3
BRANCH   2   6
ATOM      6  C   UNL     1      48.207   6.656  25.293  1.00  0.00     0.033 C 
ATOM      7  C   UNL     1      47.083   6.015  26.151  1.00  0.00     0.119 C 
ATOM      8  C   UNL     1      49.331   5.555  25.074  1.00  0.00    -0.017 C 
ATOM      9  C   UNL     1      47.338   4.518  26.154  1.00  0.00     0.043 C 
ATOM     10  C   UNL     1      48.859   4.321  25.977  1.00  0.00    -0.003 C 
ATOM     11  C   UNL     1      49.546   5.121  23.586  1.00  0.00     0.012 C 
ATOM     12  C   UNL     1      50.710   6.151  25.506  1.00  0.00     0.013 C 
ATOM     13  C   UNL     1      49.498   4.390  27.399  1.00  0.00     0.017 C 
ATOM     14  C   UNL     1      49.076   2.923  25.318  1.00  0.00    -0.064 C 
ATOM     15  C   UNL     1      48.602   4.016  23.160  1.00  0.00     0.032 C 
ATOM     16  C   UNL     1      48.919   2.767  23.968  1.00  0.00    -0.064 C 
ATOM     17  C   UNL     1      49.106   1.689  26.191  1.00  0.00     0.032 C 
ATOM     18  C   UNL     1      48.933   1.389  23.241  1.00  0.00    -0.008 C 
ATOM     19  C   UNL     1      49.844   0.550  25.527  1.00  0.00     0.009 C 
ATOM     20  C   UNL     1      49.161   0.136  24.206  1.00  0.00     0.007 C 
ATOM     21  C   UNL     1      50.014   1.416  22.103  1.00  0.00     0.014 C 
ATOM     22  C   UNL     1      47.524   1.261  22.594  1.00  0.00     0.016 C 
ATOM     23  C   UNL     1      49.918  -1.087  23.527  1.00  0.00    -0.006 C 
ATOM     24  C   UNL     1      51.363   0.860  22.543  1.00  0.00     0.033 C 
ATOM     25  C   UNL     1      51.301  -0.632  22.925  1.00  0.00     0.120 C 
ATOM     26  C   UNL     1      50.183  -2.219  24.562  1.00  0.00     0.014 C 
ATOM     27  C   UNL     1      49.018  -1.744  22.440  1.00  0.00     0.014 C 
BRANCH   7  28
ATOM     28  O   UNL     1      45.788   6.299  25.701  1.00  0.00    -0.393 OA
ATOM     29  H   UNL     1      45.262   6.576  26.494  1.00  0.00     0.210 HD
ENDBRANCH   7  28
BRANCH  25  30
ATOM     30  O   UNL     1      51.648  -1.403  21.801  1.00  0.00    -0.393 OA
ATOM     31  H   UNL     1      51.210  -2.288  21.911  1.00  0.00     0.210 HD
ENDBRANCH  25  30
ENDBRANCH   2   6
ENDBRANCH   1   2
BRANCH   1  32
ATOM     32  C   UNL     1      48.686   8.960  22.110  1.00  0.00     0.031 C 
BRANCH  32  33
ATOM     33  C   UNL     1      48.689   7.892  21.038  1.00  0.00    -0.075 C 
ATOM     34  C   UNL     1      49.854   7.296  20.715  1.00  0.00     0.008 C 
BRANCH  33  35
ATOM     35  C   UNL     1      47.389   7.509  20.345  1.00  0.00     0.008 C 
ATOM     36  C   UNL     1      46.727   6.307  21.034  1.00  0.00     0.012 C 
ATOM     37  C   UNL     1      46.423   8.699  20.270  1.00  0.00     0.012 C 
ENDBRANCH  33  35
ENDBRANCH  32  33
ENDBRANCH   1  32
TORSDOF 8
ENDMDL
MODEL 8
REMARK VINA RESULT:    -7.228      3.478      5.481
REMARK INTER + INTRA:         -10.833
REMARK INTER:                  -9.491
REMARK INTRA:                  -1.342
REMARK UNBOUND:                -0.648
REMARK SMILES C=C(CC[C@H](C(=O)[O-])[C@H]1[C@@H](O)C[C@@]2(C)C3=C(CC[C@@]12C)[C@@]1(C)CC[C@H](O)C(C)(C)[C@H]1CC3)C(C)C
REMARK SMILES IDX 4 1 5 2 6 3 7 4 8 5 9 6 10 7 19 8 12 9 13 10 18 11 20 12
REMARK SMILES IDX 14 13 15 14 17 15 16 16 32 17 21 18 31 19 30 20 23 21 22 22
REMARK SMILES IDX 27 23 24 24 25 25 28 26 29 27 11 28 26 30 3 32 2 33 1 34
REMARK SMILES IDX 33 35 34 36 35 37
REMARK H PARENT 11 29 26 31
REMARK Flexibility Score: inf
ROOT
ATOM      1  C   UNL     1      46.016   7.681  24.500  1.00  0.00     0.014 C 
ENDROOT
BRANCH   1   2
ATOM      2  C   UNL     1      46.622   6.268  24.709  1.00  0.00     0.042 C 
BRANCH   2   3
ATOM      3  C   UNL     1      46.973   6.074  26.172  1.00  0.00     0.045 C 
ATOM      4  O   UNL     1      47.180   4.930  26.651  1.00  0.00    -0.550 OA
ATOM      5  O   UNL     1      47.148   7.181  26.993  1.00  0.00    -0.550 OA
ENDBRANCH   2   3
BRANCH   2   6
ATOM      6  C   UNL     1      47.775   5.957  23.674  1.00  0.00     0.033 C 
ATOM      7  C   UNL     1      49.244   6.175  24.125  1.00  0.00     0.119 C 
ATOM      8  C   UNL     1      47.724   4.605  22.841  1.00  0.00    -0.017 C 
ATOM      9  C   UNL     1      49.973   4.864  23.886  1.00  0.00     0.043 C 
ATOM     10  C   UNL     1      49.256   4.159  22.714  1.00  0.00    -0.003 C 
ATOM     11  C   UNL     1      46.854   3.471  23.478  1.00  0.00     0.012 C 
ATOM     12  C   UNL     1      47.042   4.889  21.463  1.00  0.00     0.013 C 
ATOM     13  C   UNL     1      49.891   4.703  21.396  1.00  0.00     0.017 C 
ATOM     14  C   UNL     1      49.494   2.625  22.874  1.00  0.00    -0.064 C 
ATOM     15  C   UNL     1      47.625   2.640  24.481  1.00  0.00     0.032 C 
ATOM     16  C   UNL     1      48.734   1.899  23.750  1.00  0.00    -0.064 C 
ATOM     17  C   UNL     1      50.772   2.015  22.345  1.00  0.00     0.032 C 
ATOM     18  C   UNL     1      49.008   0.410  24.117  1.00  0.00    -0.008 C 
ATOM     19  C   UNL     1      50.618   0.536  22.079  1.00  0.00     0.009 C 
ATOM     20  C   UNL     1      50.268  -0.232  23.372  1.00  0.00     0.007 C 
ATOM     21  C   UNL     1      47.714  -0.436  23.846  1.00  0.00     0.014 C 
ATOM     22  C   UNL     1      49.295   0.419  25.646  1.00  0.00     0.016 C 
ATOM     23  C   UNL     1      50.143  -1.793  23.096  1.00  0.00    -0.006 C 
ATOM     24  C   UNL     1      47.701  -1.091  22.470  1.00  0.00     0.033 C 
ATOM     25  C   UNL     1      48.832  -2.121  22.285  1.00  0.00     0.120 C 
ATOM     26  C   UNL     1      51.364  -2.314  22.284  1.00  0.00     0.014 C 
ATOM     27  C   UNL     1      50.190  -2.584  24.436  1.00  0.00     0.014 C 
BRANCH   7  28
ATOM     28  O   UNL     1      49.379   6.583  25.457  1.00  0.00    -0.393 OA
ATOM     29  H   UNL     1      48.583   7.135  25.672  1.00  0.00     0.210 HD
ENDBRANCH   7  28
BRANCH  25  30
ATOM     30  O   UNL     1      48.338  -3.399  22.605  1.00  0.00    -0.393 OA
ATOM     31  H   UNL     1      48.321  -3.461  23.597  1.00  0.00     0.210 HD
ENDBRANCH  25  30
ENDBRANCH   2   6
ENDBRANCH   1   2
BRANCH   1  32
ATOM     32  C   UNL     1      45.969   8.083  23.014  1.00  0.00     0.031 C 
BRANCH  32  33
ATOM     33  C   UNL     1      47.126   8.995  22.668  1.00  0.00    -0.075 C 
ATOM     34  C   UNL     1      47.673   9.752  23.639  1.00  0.00     0.008 C 
BRANCH  33  35
ATOM     35  C   UNL     1      47.653   9.043  21.240  1.00  0.00     0.008 C 
ATOM     36  C   UNL     1      48.970   8.265  21.110  1.00  0.00     0.012 C 
ATOM     37  C   UNL     1      46.609   8.525  20.241  1.00  0.00     0.012 C 
ENDBRANCH  33  35
ENDBRANCH  32  33
ENDBRANCH   1  32
TORSDOF 8
ENDMDL
