MODEL 1
REMARK VINA RESULT:    -4.840      0.000      0.000
REMARK INTER + INTRA:          -5.983
REMARK INTER:                  -5.688
REMARK INTRA:                  -0.295
REMARK UNBOUND:                -0.295
REMARK SMILES COc1cc2ccc(=O)oc2c(OC)c1OC
REMARK SMILES IDX 3 1 15 2 12 3 11 4 5 5 4 6 6 7 7 8 8 9 9 10 10 11 2 12 1 13
REMARK SMILES IDX 16 14 17 15 13 16 14 17
REMARK H PARENT
REMARK Flexibility Score: inf
ROOT
ATOM      1  C   UNL     1      20.204   0.974 -15.548  1.00  0.00     0.165 A 
ATOM      2  C   UNL     1      21.461   1.291 -16.087  1.00  0.00     0.207 A 
ATOM      3  C   UNL     1      21.763   0.960 -17.427  1.00  0.00     0.208 A 
ATOM      4  C   UNL     1      20.840   0.229 -18.186  1.00  0.00     0.184 A 
ATOM      5  C   UNL     1      19.590  -0.118 -17.634  1.00  0.00     0.025 A 
ATOM      6  C   UNL     1      19.268   0.268 -16.328  1.00  0.00     0.062 A 
ATOM      7  C   UNL     1      18.688  -0.839 -18.424  1.00  0.00     0.020 A 
ATOM      8  C   UNL     1      19.046  -1.191 -19.725  1.00  0.00     0.094 A 
ATOM      9  C   UNL     1      20.301  -0.811 -20.207  1.00  0.00     0.336 A 
ATOM     10  O   UNL     1      20.643  -1.116 -21.380  1.00  0.00    -0.246 OA
ATOM     11  O   UNL     1      21.139  -0.124 -19.435  1.00  0.00    -0.419 OA
ENDROOT
BRANCH   1  12
ATOM     12  O   UNL     1      19.930   1.361 -14.227  1.00  0.00    -0.493 OA
ATOM     13  C   UNL     1      19.933   0.479 -13.108  1.00  0.00     0.278 C 
ENDBRANCH   1  12
BRANCH   2  14
ATOM     14  O   UNL     1      22.397   1.922 -15.262  1.00  0.00    -0.490 OA
ATOM     15  C   UNL     1      23.435   1.204 -14.601  1.00  0.00     0.278 C 
ENDBRANCH   2  14
BRANCH   3  16
ATOM     16  O   UNL     1      22.961   1.355 -18.032  1.00  0.00    -0.490 OA
ATOM     17  C   UNL     1      23.134   2.643 -18.616  1.00  0.00     0.278 C 
ENDBRANCH   3  16
TORSDOF 3
ENDMDL
MODEL 2
REMARK VINA RESULT:    -4.677      6.772      8.948
REMARK INTER + INTRA:          -5.792
REMARK INTER:                  -5.579
REMARK INTRA:                  -0.212
REMARK UNBOUND:                -0.295
REMARK SMILES COc1cc2ccc(=O)oc2c(OC)c1OC
REMARK SMILES IDX 3 1 15 2 12 3 11 4 5 5 4 6 6 7 7 8 8 9 9 10 10 11 2 12 1 13
REMARK SMILES IDX 16 14 17 15 13 16 14 17
REMARK H PARENT
REMARK Flexibility Score: inf
ROOT
ATOM      1  C   UNL     1      24.043   9.863 -17.593  1.00  0.00     0.165 A 
ATOM      2  C   UNL     1      22.662   9.816 -17.844  1.00  0.00     0.207 A 
ATOM      3  C   UNL     1      22.097   8.701 -18.501  1.00  0.00     0.208 A 
ATOM      4  C   UNL     1      22.931   7.686 -18.988  1.00  0.00     0.184 A 
ATOM      5  C   UNL     1      24.322   7.748 -18.764  1.00  0.00     0.025 A 
ATOM      6  C   UNL     1      24.872   8.822 -18.056  1.00  0.00     0.062 A 
ATOM      7  C   UNL     1      25.124   6.711 -19.253  1.00  0.00     0.020 A 
ATOM      8  C   UNL     1      24.532   5.654 -19.943  1.00  0.00     0.094 A 
ATOM      9  C   UNL     1      23.146   5.657 -20.124  1.00  0.00     0.336 A 
ATOM     10  O   UNL     1      22.591   4.710 -20.741  1.00  0.00    -0.246 OA
ATOM     11  O   UNL     1      22.407   6.654 -19.647  1.00  0.00    -0.419 OA
ENDROOT
BRANCH   1  12
ATOM     12  O   UNL     1      24.556  10.969 -16.898  1.00  0.00    -0.493 OA
ATOM     13  C   UNL     1      24.714  11.033 -15.483  1.00  0.00     0.278 C 
ENDBRANCH   1  12
BRANCH   2  14
ATOM     14  O   UNL     1      21.878  10.902 -17.443  1.00  0.00    -0.490 OA
ATOM     15  C   UNL     1      21.106  10.882 -16.246  1.00  0.00     0.278 C 
ENDBRANCH   2  14
BRANCH   3  16
ATOM     16  O   UNL     1      20.715   8.568 -18.673  1.00  0.00    -0.490 OA
ATOM     17  C   UNL     1      20.020   9.161 -19.765  1.00  0.00     0.278 C 
ENDBRANCH   3  16
TORSDOF 3
ENDMDL
MODEL 3
REMARK VINA RESULT:    -4.616      1.657      5.604
REMARK INTER + INTRA:          -5.720
REMARK INTER:                  -5.469
REMARK INTRA:                  -0.251
REMARK UNBOUND:                -0.295
REMARK SMILES COc1cc2ccc(=O)oc2c(OC)c1OC
REMARK SMILES IDX 3 1 15 2 12 3 11 4 5 5 4 6 6 7 7 8 8 9 9 10 10 11 2 12 1 13
REMARK SMILES IDX 16 14 17 15 13 16 14 17
REMARK H PARENT
REMARK Flexibility Score: inf
ROOT
ATOM      1  C   UNL     1      20.400  -0.198 -19.903  1.00  0.00     0.165 A 
ATOM      2  C   UNL     1      19.635  -0.736 -18.856  1.00  0.00     0.207 A 
ATOM      3  C   UNL     1      19.880  -0.344 -17.521  1.00  0.00     0.208 A 
ATOM      4  C   UNL     1      20.953   0.510 -17.235  1.00  0.00     0.184 A 
ATOM      5  C   UNL     1      21.743   1.025 -18.283  1.00  0.00     0.025 A 
ATOM      6  C   UNL     1      21.457   0.686 -19.610  1.00  0.00     0.062 A 
ATOM      7  C   UNL     1      22.799   1.885 -17.962  1.00  0.00     0.020 A 
ATOM      8  C   UNL     1      23.040   2.206 -16.627  1.00  0.00     0.094 A 
ATOM      9  C   UNL     1      22.214   1.660 -15.641  1.00  0.00     0.336 A 
ATOM     10  O   UNL     1      22.412   1.939 -14.429  1.00  0.00    -0.246 OA
ATOM     11  O   UNL     1      21.215   0.847 -15.974  1.00  0.00    -0.419 OA
ENDROOT
BRANCH   1  12
ATOM     12  O   UNL     1      20.093  -0.581 -21.217  1.00  0.00    -0.493 OA
ATOM     13  C   UNL     1      21.061  -0.857 -22.226  1.00  0.00     0.278 C 
ENDBRANCH   1  12
BRANCH   2  14
ATOM     14  O   UNL     1      18.645  -1.673 -19.172  1.00  0.00    -0.490 OA
ATOM     15  C   UNL     1      18.842  -3.074 -19.005  1.00  0.00     0.278 C 
ENDBRANCH   2  14
BRANCH   3  16
ATOM     16  O   UNL     1      19.069  -0.774 -16.465  1.00  0.00    -0.490 OA
ATOM     17  C   UNL     1      17.835  -0.141 -16.143  1.00  0.00     0.278 C 
ENDBRANCH   3  16
TORSDOF 3
ENDMDL
MODEL 4
REMARK VINA RESULT:    -4.359      1.717      2.531
REMARK INTER + INTRA:          -5.418
REMARK INTER:                  -5.204
REMARK INTRA:                  -0.214
REMARK UNBOUND:                -0.295
REMARK SMILES COc1cc2ccc(=O)oc2c(OC)c1OC
REMARK SMILES IDX 3 1 15 2 12 3 11 4 5 5 4 6 6 7 7 8 8 9 9 10 10 11 2 12 1 13
REMARK SMILES IDX 16 14 17 15 13 16 14 17
REMARK H PARENT
REMARK Flexibility Score: inf
ROOT
ATOM      1  C   UNL     1      18.565  -0.667 -16.628  1.00  0.00     0.165 A 
ATOM      2  C   UNL     1      19.645   0.119 -16.195  1.00  0.00     0.207 A 
ATOM      3  C   UNL     1      20.555   0.655 -17.133  1.00  0.00     0.208 A 
ATOM      4  C   UNL     1      20.433   0.321 -18.487  1.00  0.00     0.184 A 
ATOM      5  C   UNL     1      19.367  -0.495 -18.919  1.00  0.00     0.025 A 
ATOM      6  C   UNL     1      18.429  -0.971 -17.997  1.00  0.00     0.062 A 
ATOM      7  C   UNL     1      19.268  -0.799 -20.282  1.00  0.00     0.020 A 
ATOM      8  C   UNL     1      20.218  -0.291 -21.168  1.00  0.00     0.094 A 
ATOM      9  C   UNL     1      21.246   0.513 -20.668  1.00  0.00     0.336 A 
ATOM     10  O   UNL     1      22.113   0.984 -21.451  1.00  0.00    -0.246 OA
ATOM     11  O   UNL     1      21.315   0.788 -19.369  1.00  0.00    -0.419 OA
ENDROOT
BRANCH   1  12
ATOM     12  O   UNL     1      17.659  -1.142 -15.667  1.00  0.00    -0.493 OA
ATOM     13  C   UNL     1      17.647  -2.471 -15.155  1.00  0.00     0.278 C 
ENDBRANCH   1  12
BRANCH   2  14
ATOM     14  O   UNL     1      19.797   0.337 -14.822  1.00  0.00    -0.490 OA
ATOM     15  C   UNL     1      19.227   1.463 -14.162  1.00  0.00     0.278 C 
ENDBRANCH   2  14
BRANCH   3  16
ATOM     16  O   UNL     1      21.578   1.529 -16.751  1.00  0.00    -0.490 OA
ATOM     17  C   UNL     1      22.852   1.069 -16.310  1.00  0.00     0.278 C 
ENDBRANCH   3  16
TORSDOF 3
ENDMDL
MODEL 5
REMARK VINA RESULT:    -4.356      1.468      4.769
REMARK INTER + INTRA:          -5.414
REMARK INTER:                  -5.152
REMARK INTRA:                  -0.263
REMARK UNBOUND:                -0.295
REMARK SMILES COc1cc2ccc(=O)oc2c(OC)c1OC
REMARK SMILES IDX 3 1 15 2 12 3 11 4 5 5 4 6 6 7 7 8 8 9 9 10 10 11 2 12 1 13
REMARK SMILES IDX 16 14 17 15 13 16 14 17
REMARK H PARENT
REMARK Flexibility Score: inf
ROOT
ATOM      1  C   UNL     1      20.026  -0.528 -18.354  1.00  0.00     0.165 A 
ATOM      2  C   UNL     1      20.918   0.363 -17.736  1.00  0.00     0.207 A 
ATOM      3  C   UNL     1      20.631   0.883 -16.454  1.00  0.00     0.208 A 
ATOM      4  C   UNL     1      19.407   0.582 -15.843  1.00  0.00     0.184 A 
ATOM      5  C   UNL     1      18.496  -0.288 -16.478  1.00  0.00     0.025 A 
ATOM      6  C   UNL     1      18.812  -0.852 -17.718  1.00  0.00     0.062 A 
ATOM      7  C   UNL     1      17.288  -0.576 -15.833  1.00  0.00     0.020 A 
ATOM      8  C   UNL     1      17.019  -0.001 -14.591  1.00  0.00     0.094 A 
ATOM      9  C   UNL     1      17.971   0.850 -14.021  1.00  0.00     0.336 A 
ATOM     10  O   UNL     1      17.750   1.378 -12.899  1.00  0.00    -0.246 OA
ATOM     11  O   UNL     1      19.112   1.105 -14.654  1.00  0.00    -0.419 OA
ENDROOT
BRANCH   1  12
ATOM     12  O   UNL     1      20.373  -1.055 -19.608  1.00  0.00    -0.493 OA
ATOM     13  C   UNL     1      19.833  -0.610 -20.849  1.00  0.00     0.278 C 
ENDBRANCH   1  12
BRANCH   2  14
ATOM     14  O   UNL     1      22.078   0.727 -18.429  1.00  0.00    -0.490 OA
ATOM     15  C   UNL     1      22.120   1.850 -19.304  1.00  0.00     0.278 C 
ENDBRANCH   2  14
BRANCH   3  16
ATOM     16  O   UNL     1      21.543   1.685 -15.762  1.00  0.00    -0.490 OA
ATOM     17  C   UNL     1      22.633   1.141 -15.024  1.00  0.00     0.278 C 
ENDBRANCH   3  16
TORSDOF 3
ENDMDL
MODEL 6
REMARK VINA RESULT:    -4.297     13.739     16.331
REMARK INTER + INTRA:          -5.345
REMARK INTER:                  -5.171
REMARK INTRA:                  -0.173
REMARK UNBOUND:                -0.295
REMARK SMILES COc1cc2ccc(=O)oc2c(OC)c1OC
REMARK SMILES IDX 3 1 15 2 12 3 11 4 5 5 4 6 6 7 7 8 8 9 9 10 10 11 2 12 1 13
REMARK SMILES IDX 16 14 17 15 13 16 14 17
REMARK H PARENT
REMARK Flexibility Score: inf
ROOT
ATOM      1  C   UNL     1      11.304  -6.367 -10.466  1.00  0.00     0.165 A 
ATOM      2  C   UNL     1      10.548  -7.441 -10.962  1.00  0.00     0.207 A 
ATOM      3  C   UNL     1       9.474  -7.964 -10.208  1.00  0.00     0.208 A 
ATOM      4  C   UNL     1       9.226  -7.470  -8.920  1.00  0.00     0.184 A 
ATOM      5  C   UNL     1      10.006  -6.413  -8.408  1.00  0.00     0.025 A 
ATOM      6  C   UNL     1      11.027  -5.854  -9.183  1.00  0.00     0.062 A 
ATOM      7  C   UNL     1       9.724  -5.937  -7.123  1.00  0.00     0.020 A 
ATOM      8  C   UNL     1       8.688  -6.515  -6.390  1.00  0.00     0.094 A 
ATOM      9  C   UNL     1       7.955  -7.558  -6.963  1.00  0.00     0.336 A 
ATOM     10  O   UNL     1       7.014  -8.093  -6.319  1.00  0.00    -0.246 OA
ATOM     11  O   UNL     1       8.243  -7.990  -8.187  1.00  0.00    -0.419 OA
ENDROOT
BRANCH   1  12
ATOM     12  O   UNL     1      12.333  -5.850 -11.268  1.00  0.00    -0.493 OA
ATOM     13  C   UNL     1      13.434  -5.089 -10.780  1.00  0.00     0.278 C 
ENDBRANCH   1  12
BRANCH   2  14
ATOM     14  O   UNL     1      10.898  -7.981 -12.204  1.00  0.00    -0.490 OA
ATOM     15  C   UNL     1      11.737  -9.125 -12.327  1.00  0.00     0.278 C 
ENDBRANCH   2  14
BRANCH   3  16
ATOM     16  O   UNL     1       8.632  -8.959 -10.714  1.00  0.00    -0.490 OA
ATOM     17  C   UNL     1       7.368  -8.664 -11.302  1.00  0.00     0.278 C 
ENDBRANCH   3  16
TORSDOF 3
ENDMDL
MODEL 7
REMARK VINA RESULT:    -4.280     10.835     14.698
REMARK INTER + INTRA:          -5.325
REMARK INTER:                  -5.078
REMARK INTRA:                  -0.247
REMARK UNBOUND:                -0.295
REMARK SMILES COc1cc2ccc(=O)oc2c(OC)c1OC
REMARK SMILES IDX 3 1 15 2 12 3 11 4 5 5 4 6 6 7 7 8 8 9 9 10 10 11 2 12 1 13
REMARK SMILES IDX 16 14 17 15 13 16 14 17
REMARK H PARENT
REMARK Flexibility Score: inf
ROOT
ATOM      1  C   UNL     1      15.000   3.823  -6.481  1.00  0.00     0.165 A 
ATOM      2  C   UNL     1      14.062   3.271  -7.368  1.00  0.00     0.207 A 
ATOM      3  C   UNL     1      12.759   2.957  -6.921  1.00  0.00     0.208 A 
ATOM      4  C   UNL     1      12.436   3.108  -5.566  1.00  0.00     0.184 A 
ATOM      5  C   UNL     1      13.388   3.633  -4.668  1.00  0.00     0.025 A 
ATOM      6  C   UNL     1      14.656   4.003  -5.127  1.00  0.00     0.062 A 
ATOM      7  C   UNL     1      13.027   3.782  -3.324  1.00  0.00     0.020 A 
ATOM      8  C   UNL     1      11.747   3.411  -2.913  1.00  0.00     0.094 A 
ATOM      9  C   UNL     1      10.854   2.901  -3.860  1.00  0.00     0.336 A 
ATOM     10  O   UNL     1       9.693   2.563  -3.511  1.00  0.00    -0.246 OA
ATOM     11  O   UNL     1      11.223   2.772  -5.131  1.00  0.00    -0.419 OA
ENDROOT
BRANCH   1  12
ATOM     12  O   UNL     1      16.268   4.161  -6.978  1.00  0.00    -0.493 OA
ATOM     13  C   UNL     1      16.812   5.478  -6.978  1.00  0.00     0.278 C 
ENDBRANCH   1  12
BRANCH   2  14
ATOM     14  O   UNL     1      14.459   3.030  -8.687  1.00  0.00    -0.490 OA
ATOM     15  C   UNL     1      14.921   1.754  -9.122  1.00  0.00     0.278 C 
ENDBRANCH   2  14
BRANCH   3  16
ATOM     16  O   UNL     1      11.766   2.508  -7.797  1.00  0.00    -0.490 OA
ATOM     17  C   UNL     1      11.065   3.387  -8.672  1.00  0.00     0.278 C 
ENDBRANCH   3  16
TORSDOF 3
ENDMDL
MODEL 8
REMARK VINA RESULT:    -4.271      8.138     11.088
REMARK INTER + INTRA:          -5.315
REMARK INTER:                  -5.097
REMARK INTRA:                  -0.218
REMARK UNBOUND:                -0.295
REMARK SMILES COc1cc2ccc(=O)oc2c(OC)c1OC
REMARK SMILES IDX 3 1 15 2 12 3 11 4 5 5 4 6 6 7 7 8 8 9 9 10 10 11 2 12 1 13
REMARK SMILES IDX 16 14 17 15 13 16 14 17
REMARK H PARENT
REMARK Flexibility Score: inf
ROOT
ATOM      1  C   UNL     1      23.018  -5.555 -10.927  1.00  0.00     0.165 A 
ATOM      2  C   UNL     1      22.671  -4.225 -10.639  1.00  0.00     0.207 A 
ATOM      3  C   UNL     1      22.998  -3.660  -9.385  1.00  0.00     0.208 A 
ATOM      4  C   UNL     1      23.583  -4.461  -8.396  1.00  0.00     0.184 A 
ATOM      5  C   UNL     1      23.902  -5.806  -8.674  1.00  0.00     0.025 A 
ATOM      6  C   UNL     1      23.636  -6.344  -9.937  1.00  0.00     0.062 A 
ATOM      7  C   UNL     1      24.496  -6.573  -7.665  1.00  0.00     0.020 A 
ATOM      8  C   UNL     1      24.755  -5.993  -6.424  1.00  0.00     0.094 A 
ATOM      9  C   UNL     1      24.413  -4.653  -6.221  1.00  0.00     0.336 A 
ATOM     10  O   UNL     1      24.641  -4.108  -5.109  1.00  0.00    -0.246 OA
ATOM     11  O   UNL     1      23.852  -3.945  -7.197  1.00  0.00    -0.419 OA
ENDROOT
BRANCH   1  12
ATOM     12  O   UNL     1      22.715  -6.061 -12.200  1.00  0.00    -0.493 OA
ATOM     13  C   UNL     1      23.643  -6.736 -13.045  1.00  0.00     0.278 C 
ENDBRANCH   1  12
BRANCH   2  14
ATOM     14  O   UNL     1      21.987  -3.492 -11.613  1.00  0.00    -0.490 OA
ATOM     15  C   UNL     1      20.603  -3.178 -11.497  1.00  0.00     0.278 C 
ENDBRANCH   2  14
BRANCH   3  16
ATOM     16  O   UNL     1      22.767  -2.311  -9.101  1.00  0.00    -0.490 OA
ATOM     17  C   UNL     1      23.694  -1.287  -9.451  1.00  0.00     0.278 C 
ENDBRANCH   3  16
TORSDOF 3
ENDMDL
MODEL 9
REMARK VINA RESULT:    -4.258      7.801     10.097
REMARK INTER + INTRA:          -5.300
REMARK INTER:                  -5.061
REMARK INTRA:                  -0.239
REMARK UNBOUND:                -0.295
REMARK SMILES COc1cc2ccc(=O)oc2c(OC)c1OC
REMARK SMILES IDX 3 1 15 2 12 3 11 4 5 5 4 6 6 7 7 8 8 9 9 10 10 11 2 12 1 13
REMARK SMILES IDX 16 14 17 15 13 16 14 17
REMARK H PARENT
REMARK Flexibility Score: inf
ROOT
ATOM      1  C   UNL     1      21.911  -2.762  -6.612  1.00  0.00     0.165 A 
ATOM      2  C   UNL     1      22.297  -2.628  -7.955  1.00  0.00     0.207 A 
ATOM      3  C   UNL     1      21.327  -2.381  -8.952  1.00  0.00     0.208 A 
ATOM      4  C   UNL     1      19.969  -2.367  -8.610  1.00  0.00     0.184 A 
ATOM      5  C   UNL     1      19.579  -2.533  -7.265  1.00  0.00     0.025 A 
ATOM      6  C   UNL     1      20.546  -2.713  -6.271  1.00  0.00     0.062 A 
ATOM      7  C   UNL     1      18.214  -2.501  -6.957  1.00  0.00     0.020 A 
ATOM      8  C   UNL     1      17.285  -2.307  -7.979  1.00  0.00     0.094 A 
ATOM      9  C   UNL     1      17.745  -2.146  -9.289  1.00  0.00     0.336 A 
ATOM     10  O   UNL     1      16.924  -1.967 -10.226  1.00  0.00    -0.246 OA
ATOM     11  O   UNL     1      19.048  -2.179  -9.554  1.00  0.00    -0.419 OA
ENDROOT
BRANCH   1  12
ATOM     12  O   UNL     1      22.912  -2.961  -5.649  1.00  0.00    -0.493 OA
ATOM     13  C   UNL     1      23.262  -4.227  -5.095  1.00  0.00     0.278 C 
ENDBRANCH   1  12
BRANCH   2  14
ATOM     14  O   UNL     1      23.653  -2.761  -8.272  1.00  0.00    -0.490 OA
ATOM     15  C   UNL     1      24.218  -4.000  -8.689  1.00  0.00     0.278 C 
ENDBRANCH   2  14
BRANCH   3  16
ATOM     16  O   UNL     1      21.683  -2.135 -10.282  1.00  0.00    -0.490 OA
ATOM     17  C   UNL     1      21.752  -3.169 -11.259  1.00  0.00     0.278 C 
ENDBRANCH   3  16
TORSDOF 3
ENDMDL
