MODEL 1
REMARK VINA RESULT:    -2.760      0.000      0.000
REMARK INTER + INTRA:          -3.015
REMARK INTER:                  -2.922
REMARK INTRA:                  -0.094
REMARK UNBOUND:                -0.094
REMARK SMILES C=C(C)[C@@H]1CC=C(C)C(=O)C1
REMARK SMILES IDX 8 1 7 2 6 3 5 4 4 5 11 6 9 7 10 8 2 9 1 10 3 11
REMARK H PARENT
REMARK Flexibility Score: inf
ROOT
ATOM      1  C   UNL     1     119.471  87.580  58.778  1.00  0.00     0.048 C 
ATOM      2  C   UNL     1     120.752  87.304  58.040  1.00  0.00    -0.012 C 
ATOM      3  C   UNL     1     121.185  88.169  57.106  1.00  0.00    -0.019 C 
ATOM      4  C   UNL     1     122.470  87.951  56.351  1.00  0.00     0.036 C 
ATOM      5  C   UNL     1     122.744  86.448  56.145  1.00  0.00     0.025 C 
ATOM      6  C   UNL     1     122.730  85.712  57.498  1.00  0.00     0.089 C 
ATOM      7  C   UNL     1     121.468  86.022  58.255  1.00  0.00     0.158 C 
ATOM      8  O   UNL     1     121.043  85.195  59.105  1.00  0.00    -0.295 OA
ENDROOT
BRANCH   5   9
ATOM      9  C   UNL     1     124.045  86.212  55.390  1.00  0.00    -0.077 C 
ATOM     10  C   UNL     1     124.323  86.871  54.253  1.00  0.00     0.008 C 
ATOM     11  C   UNL     1     125.054  85.222  55.914  1.00  0.00     0.039 C 
ENDBRANCH   5   9
TORSDOF 1
ENDMDL
MODEL 2
REMARK VINA RESULT:    -2.641      0.222      1.066
REMARK INTER + INTRA:          -2.890
REMARK INTER:                  -2.793
REMARK INTRA:                  -0.097
REMARK UNBOUND:                -0.094
REMARK SMILES C=C(C)[C@@H]1CC=C(C)C(=O)C1
REMARK SMILES IDX 8 1 7 2 6 3 5 4 4 5 11 6 9 7 10 8 2 9 1 10 3 11
REMARK H PARENT
REMARK Flexibility Score: inf
ROOT
ATOM      1  C   UNL     1     119.671  87.544  58.719  1.00  0.00     0.048 C 
ATOM      2  C   UNL     1     120.945  87.248  57.977  1.00  0.00    -0.012 C 
ATOM      3  C   UNL     1     121.367  88.084  57.012  1.00  0.00    -0.019 C 
ATOM      4  C   UNL     1     122.644  87.845  56.251  1.00  0.00     0.036 C 
ATOM      5  C   UNL     1     122.920  86.337  56.089  1.00  0.00     0.025 C 
ATOM      6  C   UNL     1     122.922  85.644  57.465  1.00  0.00     0.089 C 
ATOM      7  C   UNL     1     121.666  85.975  58.225  1.00  0.00     0.158 C 
ATOM      8  O   UNL     1     121.252  85.173  59.104  1.00  0.00    -0.295 OA
ENDROOT
BRANCH   5   9
ATOM      9  C   UNL     1     124.214  86.081  55.329  1.00  0.00    -0.077 C 
ATOM     10  C   UNL     1     125.071  85.119  55.712  1.00  0.00     0.008 C 
ATOM     11  C   UNL     1     124.560  86.914  54.122  1.00  0.00     0.039 C 
ENDBRANCH   5   9
TORSDOF 1
ENDMDL
MODEL 3
REMARK VINA RESULT:    -2.631      9.337     12.310
REMARK INTER + INTRA:          -2.879
REMARK INTER:                  -2.784
REMARK INTRA:                  -0.095
REMARK UNBOUND:                -0.094
REMARK SMILES C=C(C)[C@@H]1CC=C(C)C(=O)C1
REMARK SMILES IDX 8 1 7 2 6 3 5 4 4 5 11 6 9 7 10 8 2 9 1 10 3 11
REMARK H PARENT
REMARK Flexibility Score: inf
ROOT
ATOM      1  C   UNL     1     113.957  89.125  57.222  1.00  0.00     0.048 C 
ATOM      2  C   UNL     1     112.569  88.553  57.135  1.00  0.00    -0.012 C 
ATOM      3  C   UNL     1     111.726  88.985  56.181  1.00  0.00    -0.019 C 
ATOM      4  C   UNL     1     110.332  88.433  56.037  1.00  0.00     0.036 C 
ATOM      5  C   UNL     1     109.749  88.034  57.406  1.00  0.00     0.025 C 
ATOM      6  C   UNL     1     110.695  87.052  58.124  1.00  0.00     0.089 C 
ATOM      7  C   UNL     1     112.093  87.606  58.174  1.00  0.00     0.158 C 
ATOM      8  O   UNL     1     112.871  87.227  59.089  1.00  0.00    -0.295 OA
ENDROOT
BRANCH   5   9
ATOM      9  C   UNL     1     108.343  87.465  57.275  1.00  0.00    -0.077 C 
ATOM     10  C   UNL     1     107.531  87.831  56.269  1.00  0.00     0.008 C 
ATOM     11  C   UNL     1     107.833  86.469  58.286  1.00  0.00     0.039 C 
ENDBRANCH   5   9
TORSDOF 1
ENDMDL
MODEL 4
REMARK VINA RESULT:    -2.612      1.745      4.531
REMARK INTER + INTRA:          -2.859
REMARK INTER:                  -2.762
REMARK INTRA:                  -0.098
REMARK UNBOUND:                -0.094
REMARK SMILES C=C(C)[C@@H]1CC=C(C)C(=O)C1
REMARK SMILES IDX 8 1 7 2 6 3 5 4 4 5 11 6 9 7 10 8 2 9 1 10 3 11
REMARK H PARENT
REMARK Flexibility Score: inf
ROOT
ATOM      1  C   UNL     1     124.966  86.913  53.598  1.00  0.00     0.048 C 
ATOM      2  C   UNL     1     123.787  87.065  54.519  1.00  0.00    -0.012 C 
ATOM      3  C   UNL     1     122.876  88.027  54.285  1.00  0.00    -0.019 C 
ATOM      4  C   UNL     1     121.667  88.212  55.165  1.00  0.00     0.036 C 
ATOM      5  C   UNL     1     121.981  87.836  56.626  1.00  0.00     0.025 C 
ATOM      6  C   UNL     1     122.543  86.404  56.700  1.00  0.00     0.089 C 
ATOM      7  C   UNL     1     123.696  86.239  55.748  1.00  0.00     0.158 C 
ATOM      8  O   UNL     1     124.568  85.361  55.987  1.00  0.00    -0.295 OA
ENDROOT
BRANCH   5   9
ATOM      9  C   UNL     1     120.764  88.009  57.525  1.00  0.00    -0.077 C 
ATOM     10  C   UNL     1     120.536  87.183  58.559  1.00  0.00     0.008 C 
ATOM     11  C   UNL     1     119.784  89.124  57.263  1.00  0.00     0.039 C 
ENDBRANCH   5   9
TORSDOF 1
ENDMDL
MODEL 5
REMARK VINA RESULT:    -2.528      1.914      4.583
REMARK INTER + INTRA:          -2.770
REMARK INTER:                  -2.672
REMARK INTRA:                  -0.097
REMARK UNBOUND:                -0.094
REMARK SMILES C=C(C)[C@@H]1CC=C(C)C(=O)C1
REMARK SMILES IDX 8 1 7 2 6 3 5 4 4 5 11 6 9 7 10 8 2 9 1 10 3 11
REMARK H PARENT
REMARK Flexibility Score: inf
ROOT
ATOM      1  C   UNL     1     124.821  84.119  55.848  1.00  0.00     0.048 C 
ATOM      2  C   UNL     1     123.847  85.089  56.461  1.00  0.00    -0.012 C 
ATOM      3  C   UNL     1     123.234  84.780  57.618  1.00  0.00    -0.019 C 
ATOM      4  C   UNL     1     122.266  85.721  58.284  1.00  0.00     0.036 C 
ATOM      5  C   UNL     1     121.492  86.551  57.241  1.00  0.00     0.025 C 
ATOM      6  C   UNL     1     122.473  87.287  56.309  1.00  0.00     0.089 C 
ATOM      7  C   UNL     1     123.473  86.324  55.729  1.00  0.00     0.158 C 
ATOM      8  O   UNL     1     124.021  86.598  54.628  1.00  0.00    -0.295 OA
ENDROOT
BRANCH   5   9
ATOM      9  C   UNL     1     120.515  87.514  57.901  1.00  0.00    -0.077 C 
ATOM     10  C   UNL     1     120.319  88.752  57.417  1.00  0.00     0.008 C 
ATOM     11  C   UNL     1     119.745  87.089  59.125  1.00  0.00     0.039 C 
ENDBRANCH   5   9
TORSDOF 1
ENDMDL
MODEL 6
REMARK VINA RESULT:    -2.500     13.029     15.121
REMARK INTER + INTRA:          -2.740
REMARK INTER:                  -2.642
REMARK INTRA:                  -0.097
REMARK UNBOUND:                -0.094
REMARK SMILES C=C(C)[C@@H]1CC=C(C)C(=O)C1
REMARK SMILES IDX 8 1 7 2 6 3 5 4 4 5 11 6 9 7 10 8 2 9 1 10 3 11
REMARK H PARENT
REMARK Flexibility Score: inf
ROOT
ATOM      1  C   UNL     1     104.876  83.566  57.000  1.00  0.00     0.048 C 
ATOM      2  C   UNL     1     106.105  84.414  57.181  1.00  0.00    -0.012 C 
ATOM      3  C   UNL     1     106.720  84.453  58.376  1.00  0.00    -0.019 C 
ATOM      4  C   UNL     1     107.965  85.271  58.607  1.00  0.00     0.036 C 
ATOM      5  C   UNL     1     107.960  86.545  57.741  1.00  0.00     0.025 C 
ATOM      6  C   UNL     1     107.769  86.181  56.256  1.00  0.00     0.089 C 
ATOM      7  C   UNL     1     106.563  85.298  56.080  1.00  0.00     0.158 C 
ATOM      8  O   UNL     1     105.966  85.289  54.971  1.00  0.00    -0.295 OA
ENDROOT
BRANCH   5   9
ATOM      9  C   UNL     1     109.217  87.377  57.958  1.00  0.00    -0.077 C 
ATOM     10  C   UNL     1     109.544  88.380  57.125  1.00  0.00     0.008 C 
ATOM     11  C   UNL     1     110.126  87.083  59.123  1.00  0.00     0.039 C 
ENDBRANCH   5   9
TORSDOF 1
ENDMDL
MODEL 7
REMARK VINA RESULT:    -2.496     11.227     13.729
REMARK INTER + INTRA:          -2.736
REMARK INTER:                  -2.640
REMARK INTRA:                  -0.096
REMARK UNBOUND:                -0.094
REMARK SMILES C=C(C)[C@@H]1CC=C(C)C(=O)C1
REMARK SMILES IDX 8 1 7 2 6 3 5 4 4 5 11 6 9 7 10 8 2 9 1 10 3 11
REMARK H PARENT
REMARK Flexibility Score: inf
ROOT
ATOM      1  C   UNL     1     111.574  87.016  59.061  1.00  0.00     0.048 C 
ATOM      2  C   UNL     1     110.443  87.386  58.141  1.00  0.00    -0.012 C 
ATOM      3  C   UNL     1     109.217  86.875  58.348  1.00  0.00    -0.019 C 
ATOM      4  C   UNL     1     108.046  87.227  57.468  1.00  0.00     0.036 C 
ATOM      5  C   UNL     1     108.499  87.486  56.018  1.00  0.00     0.025 C 
ATOM      6  C   UNL     1     109.598  88.565  55.986  1.00  0.00     0.089 C 
ATOM      7  C   UNL     1     110.709  88.215  56.938  1.00  0.00     0.158 C 
ATOM      8  O   UNL     1     111.866  88.666  56.723  1.00  0.00    -0.295 OA
ENDROOT
BRANCH   5   9
ATOM      9  C   UNL     1     107.326  87.853  55.120  1.00  0.00    -0.077 C 
ATOM     10  C   UNL     1     107.122  89.119  54.718  1.00  0.00     0.008 C 
ATOM     11  C   UNL     1     106.362  86.788  54.662  1.00  0.00     0.039 C 
ENDBRANCH   5   9
TORSDOF 1
ENDMDL
MODEL 8
REMARK VINA RESULT:    -2.462      1.983      3.009
REMARK INTER + INTRA:          -2.700
REMARK INTER:                  -2.602
REMARK INTRA:                  -0.098
REMARK UNBOUND:                -0.094
REMARK SMILES C=C(C)[C@@H]1CC=C(C)C(=O)C1
REMARK SMILES IDX 8 1 7 2 6 3 5 4 4 5 11 6 9 7 10 8 2 9 1 10 3 11
REMARK H PARENT
REMARK Flexibility Score: inf
ROOT
ATOM      1  C   UNL     1     119.981  88.745  57.626  1.00  0.00     0.048 C 
ATOM      2  C   UNL     1     120.827  87.501  57.644  1.00  0.00    -0.012 C 
ATOM      3  C   UNL     1     120.648  86.583  58.610  1.00  0.00    -0.019 C 
ATOM      4  C   UNL     1     121.455  85.313  58.663  1.00  0.00     0.036 C 
ATOM      5  C   UNL     1     122.878  85.536  58.117  1.00  0.00     0.025 C 
ATOM      6  C   UNL     1     122.819  86.130  56.697  1.00  0.00     0.089 C 
ATOM      7  C   UNL     1     121.938  87.349  56.671  1.00  0.00     0.158 C 
ATOM      8  O   UNL     1     122.130  88.226  55.787  1.00  0.00    -0.295 OA
ENDROOT
BRANCH   5   9
ATOM      9  C   UNL     1     123.703  84.257  58.157  1.00  0.00    -0.077 C 
ATOM     10  C   UNL     1     124.766  84.084  57.352  1.00  0.00     0.008 C 
ATOM     11  C   UNL     1     123.334  83.149  59.110  1.00  0.00     0.039 C 
ENDBRANCH   5   9
TORSDOF 1
ENDMDL
MODEL 9
REMARK VINA RESULT:    -0.209      1.232      4.086
REMARK INTER + INTRA:          -0.315
REMARK INTER:                  -0.218
REMARK INTRA:                  -0.098
REMARK UNBOUND:                -0.094
REMARK SMILES C=C(C)[C@@H]1CC=C(C)C(=O)C1
REMARK SMILES IDX 8 1 7 2 6 3 5 4 4 5 11 6 9 7 10 8 2 9 1 10 3 11
REMARK H PARENT
REMARK Flexibility Score: inf
ROOT
ATOM      1  C   UNL     1     125.125  84.185  56.595  1.00  0.00     0.048 C 
ATOM      2  C   UNL     1     123.895  85.042  56.708  1.00  0.00    -0.012 C 
ATOM      3  C   UNL     1     123.623  85.951  55.754  1.00  0.00    -0.019 C 
ATOM      4  C   UNL     1     122.395  86.822  55.809  1.00  0.00     0.036 C 
ATOM      5  C   UNL     1     122.009  87.146  57.265  1.00  0.00     0.025 C 
ATOM      6  C   UNL     1     121.838  85.847  58.074  1.00  0.00     0.089 C 
ATOM      7  C   UNL     1     123.052  84.970  57.927  1.00  0.00     0.158 C 
ATOM      8  O   UNL     1     123.325  84.143  58.838  1.00  0.00    -0.295 OA
ENDROOT
BRANCH   5   9
ATOM      9  C   UNL     1     120.763  88.019  57.335  1.00  0.00    -0.077 C 
ATOM     10  C   UNL     1     119.960  88.006  58.412  1.00  0.00     0.008 C 
ATOM     11  C   UNL     1     120.407  88.922  56.181  1.00  0.00     0.039 C 
ENDBRANCH   5   9
TORSDOF 1
ENDMDL
