MODEL 1
REMARK VINA RESULT:    -5.002      0.000      0.000
REMARK INTER + INTRA:         -10.480
REMARK INTER:                  -9.097
REMARK INTRA:                  -1.383
REMARK UNBOUND:                -1.383
REMARK SMILES CCCCCCCCCCCCCC[C@H](C)C(=O)[O-]
REMARK SMILES IDX 9 1 10 2 11 3 12 4 13 5 14 6 15 7 16 8 17 9 18 10 19 11 8 12
REMARK SMILES IDX 7 13 6 14 5 15 4 16 3 17 2 18 1 19
REMARK H PARENT
REMARK Flexibility Score: inf
ROOT
ATOM      1  C   UNL     1       1.918  25.629  50.571  1.00  0.00     0.000 C 
ENDROOT
BRANCH   1   2
ATOM      2  C   UNL     1       1.255  25.610  49.181  1.00  0.00     0.000 C 
BRANCH   2   3
ATOM      3  C   UNL     1       2.095  24.867  48.128  1.00  0.00     0.000 C 
BRANCH   3   4
ATOM      4  C   UNL     1       1.236  24.178  47.051  1.00  0.00     0.000 C 
BRANCH   4   5
ATOM      5  C   UNL     1       1.866  24.110  45.646  1.00  0.00     0.001 C 
BRANCH   5   6
ATOM      6  C   UNL     1       2.435  22.720  45.309  1.00  0.00     0.009 C 
BRANCH   6   7
ATOM      7  C   UNL     1       3.184  22.696  43.959  1.00  0.00     0.032 C 
ATOM      8  C   UNL     1       3.513  24.105  43.448  1.00  0.00     0.014 C 
BRANCH   7   9
ATOM      9  C   UNL     1       2.356  21.974  42.931  1.00  0.00     0.044 C 
ATOM     10  O   UNL     1       1.415  21.220  43.293  1.00  0.00    -0.550 OA
ATOM     11  O   UNL     1       2.622  22.135  41.576  1.00  0.00    -0.550 OA
ENDBRANCH   7   9
ENDBRANCH   6   7
ENDBRANCH   5   6
ENDBRANCH   4   5
ENDBRANCH   3   4
ENDBRANCH   2   3
ENDBRANCH   1   2
BRANCH   1  12
ATOM     12  C   UNL     1       1.152  24.879  51.679  1.00  0.00     0.000 C 
BRANCH  12  13
ATOM     13  C   UNL     1       0.572  23.513  51.269  1.00  0.00    -0.000 C 
BRANCH  13  14
ATOM     14  C   UNL     1       1.659  22.448  51.045  1.00  0.00    -0.000 C 
BRANCH  14  15
ATOM     15  C   UNL     1       2.192  21.865  52.364  1.00  0.00    -0.000 C 
BRANCH  15  16
ATOM     16  C   UNL     1       3.696  21.546  52.301  1.00  0.00    -0.000 C 
BRANCH  16  17
ATOM     17  C   UNL     1       4.579  22.797  52.459  1.00  0.00    -0.000 C 
BRANCH  17  18
ATOM     18  C   UNL     1       5.497  23.100  51.261  1.00  0.00    -0.003 C 
ATOM     19  C   UNL     1       5.525  24.581  50.888  1.00  0.00     0.004 C 
ENDBRANCH  17  18
ENDBRANCH  16  17
ENDBRANCH  15  16
ENDBRANCH  14  15
ENDBRANCH  13  14
ENDBRANCH  12  13
ENDBRANCH   1  12
TORSDOF 14
ENDMDL
MODEL 2
REMARK VINA RESULT:    -4.974      1.167      2.113
REMARK INTER + INTRA:         -10.427
REMARK INTER:                  -9.032
REMARK INTRA:                  -1.395
REMARK UNBOUND:                -1.383
REMARK SMILES CCCCCCCCCCCCCC[C@H](C)C(=O)[O-]
REMARK SMILES IDX 9 1 10 2 11 3 12 4 13 5 14 6 15 7 16 8 17 9 18 10 19 11 8 12
REMARK SMILES IDX 7 13 6 14 5 15 4 16 3 17 2 18 1 19
REMARK H PARENT
REMARK Flexibility Score: inf
ROOT
ATOM      1  C   UNL     1       1.479  24.065  49.879  1.00  0.00     0.000 C 
ENDROOT
BRANCH   1   2
ATOM      2  C   UNL     1       1.545  25.287  48.945  1.00  0.00     0.000 C 
BRANCH   2   3
ATOM      3  C   UNL     1       0.899  25.026  47.573  1.00  0.00     0.000 C 
BRANCH   3   4
ATOM      4  C   UNL     1       1.933  24.755  46.464  1.00  0.00     0.000 C 
BRANCH   4   5
ATOM      5  C   UNL     1       1.518  23.707  45.414  1.00  0.00     0.001 C 
BRANCH   5   6
ATOM      6  C   UNL     1       2.572  22.602  45.218  1.00  0.00     0.009 C 
BRANCH   6   7
ATOM      7  C   UNL     1       3.217  22.637  43.815  1.00  0.00     0.032 C 
ATOM      8  C   UNL     1       3.444  24.069  43.313  1.00  0.00     0.014 C 
BRANCH   7   9
ATOM      9  C   UNL     1       2.346  21.898  42.836  1.00  0.00     0.044 C 
ATOM     10  O   UNL     1       2.531  22.032  41.598  1.00  0.00    -0.550 OA
ATOM     11  O   UNL     1       1.331  21.064  43.291  1.00  0.00    -0.550 OA
ENDBRANCH   7   9
ENDBRANCH   6   7
ENDBRANCH   5   6
ENDBRANCH   4   5
ENDBRANCH   3   4
ENDBRANCH   2   3
ENDBRANCH   1   2
BRANCH   1  12
ATOM     12  C   UNL     1       2.671  23.092  49.782  1.00  0.00     0.000 C 
BRANCH  12  13
ATOM     13  C   UNL     1       2.653  21.927  50.787  1.00  0.00    -0.000 C 
BRANCH  13  14
ATOM     14  C   UNL     1       3.843  21.963  51.762  1.00  0.00    -0.000 C 
BRANCH  14  15
ATOM     15  C   UNL     1       5.037  22.754  51.203  1.00  0.00    -0.000 C 
BRANCH  15  16
ATOM     16  C   UNL     1       5.761  23.571  52.286  1.00  0.00    -0.000 C 
BRANCH  16  17
ATOM     17  C   UNL     1       4.791  24.273  53.253  1.00  0.00    -0.000 C 
BRANCH  17  18
ATOM     18  C   UNL     1       3.990  25.435  52.640  1.00  0.00    -0.003 C 
ATOM     19  C   UNL     1       2.548  25.499  53.141  1.00  0.00     0.004 C 
ENDBRANCH  17  18
ENDBRANCH  16  17
ENDBRANCH  15  16
ENDBRANCH  14  15
ENDBRANCH  13  14
ENDBRANCH  12  13
ENDBRANCH   1  12
TORSDOF 14
ENDMDL
MODEL 3
REMARK VINA RESULT:    -4.829      1.605      2.261
REMARK INTER + INTRA:         -10.164
REMARK INTER:                  -8.507
REMARK INTRA:                  -1.657
REMARK UNBOUND:                -1.383
REMARK SMILES CCCCCCCCCCCCCC[C@H](C)C(=O)[O-]
REMARK SMILES IDX 9 1 10 2 11 3 12 4 13 5 14 6 15 7 16 8 17 9 18 10 19 11 8 12
REMARK SMILES IDX 7 13 6 14 5 15 4 16 3 17 2 18 1 19
REMARK H PARENT
REMARK Flexibility Score: inf
ROOT
ATOM      1  C   UNL     1       0.802  24.189  51.162  1.00  0.00     0.000 C 
ENDROOT
BRANCH   1   2
ATOM      2  C   UNL     1       2.027  24.607  50.328  1.00  0.00     0.000 C 
BRANCH   2   3
ATOM      3  C   UNL     1       1.980  24.071  48.888  1.00  0.00     0.000 C 
BRANCH   3   4
ATOM      4  C   UNL     1       1.254  25.021  47.916  1.00  0.00     0.000 C 
BRANCH   4   5
ATOM      5  C   UNL     1       0.902  24.420  46.542  1.00  0.00     0.001 C 
BRANCH   5   6
ATOM      6  C   UNL     1       2.005  23.499  45.988  1.00  0.00     0.009 C 
BRANCH   6   7
ATOM      7  C   UNL     1       1.923  23.329  44.455  1.00  0.00     0.032 C 
ATOM      8  C   UNL     1       2.170  21.879  44.015  1.00  0.00     0.014 C 
BRANCH   7   9
ATOM      9  C   UNL     1       2.928  24.229  43.789  1.00  0.00     0.044 C 
ATOM     10  O   UNL     1       3.949  23.740  43.238  1.00  0.00    -0.550 OA
ATOM     11  O   UNL     1       2.736  25.606  43.777  1.00  0.00    -0.550 OA
ENDBRANCH   7   9
ENDBRANCH   6   7
ENDBRANCH   5   6
ENDBRANCH   4   5
ENDBRANCH   3   4
ENDBRANCH   2   3
ENDBRANCH   1   2
BRANCH   1  12
ATOM     12  C   UNL     1       0.687  22.680  51.459  1.00  0.00     0.000 C 
BRANCH  12  13
ATOM     13  C   UNL     1       1.668  22.141  52.517  1.00  0.00    -0.000 C 
BRANCH  13  14
ATOM     14  C   UNL     1       2.845  21.368  51.897  1.00  0.00    -0.000 C 
BRANCH  14  15
ATOM     15  C   UNL     1       4.206  21.836  52.437  1.00  0.00    -0.000 C 
BRANCH  15  16
ATOM     16  C   UNL     1       4.974  22.703  51.425  1.00  0.00    -0.000 C 
BRANCH  16  17
ATOM     17  C   UNL     1       5.318  24.099  51.974  1.00  0.00    -0.000 C 
BRANCH  17  18
ATOM     18  C   UNL     1       4.590  24.484  53.275  1.00  0.00    -0.003 C 
ATOM     19  C   UNL     1       3.928  25.859  53.206  1.00  0.00     0.004 C 
ENDBRANCH  17  18
ENDBRANCH  16  17
ENDBRANCH  15  16
ENDBRANCH  14  15
ENDBRANCH  13  14
ENDBRANCH  12  13
ENDBRANCH   1  12
TORSDOF 14
ENDMDL
MODEL 4
REMARK VINA RESULT:    -4.763      4.718      6.675
REMARK INTER + INTRA:         -10.045
REMARK INTER:                  -8.059
REMARK INTRA:                  -1.986
REMARK UNBOUND:                -1.383
REMARK SMILES CCCCCCCCCCCCCC[C@H](C)C(=O)[O-]
REMARK SMILES IDX 9 1 10 2 11 3 12 4 13 5 14 6 15 7 16 8 17 9 18 10 19 11 8 12
REMARK SMILES IDX 7 13 6 14 5 15 4 16 3 17 2 18 1 19
REMARK H PARENT
REMARK Flexibility Score: inf
ROOT
ATOM      1  C   UNL     1       0.427  25.182  53.375  1.00  0.00     0.000 C 
ENDROOT
BRANCH   1   2
ATOM      2  C   UNL     1       0.351  23.658  53.164  1.00  0.00     0.000 C 
BRANCH   2   3
ATOM      3  C   UNL     1       0.420  23.257  51.681  1.00  0.00     0.000 C 
BRANCH   3   4
ATOM      4  C   UNL     1       0.987  24.373  50.782  1.00  0.00     0.000 C 
BRANCH   4   5
ATOM      5  C   UNL     1       2.233  23.992  49.961  1.00  0.00     0.001 C 
BRANCH   5   6
ATOM      6  C   UNL     1       2.875  22.670  50.420  1.00  0.00     0.009 C 
BRANCH   6   7
ATOM      7  C   UNL     1       3.922  22.874  51.537  1.00  0.00     0.032 C 
ATOM      8  C   UNL     1       5.359  22.865  50.999  1.00  0.00     0.014 C 
BRANCH   7   9
ATOM      9  C   UNL     1       3.774  21.795  52.576  1.00  0.00     0.044 C 
ATOM     10  O   UNL     1       4.017  22.045  53.786  1.00  0.00    -0.550 OA
ATOM     11  O   UNL     1       3.367  20.518  52.208  1.00  0.00    -0.550 OA
ENDBRANCH   7   9
ENDBRANCH   6   7
ENDBRANCH   5   6
ENDBRANCH   4   5
ENDBRANCH   3   4
ENDBRANCH   2   3
ENDBRANCH   1   2
BRANCH   1  12
ATOM     12  C   UNL     1      -0.602  25.764  54.364  1.00  0.00     0.000 C 
BRANCH  12  13
ATOM     13  C   UNL     1      -1.754  24.818  54.750  1.00  0.00    -0.000 C 
BRANCH  13  14
ATOM     14  C   UNL     1      -2.113  24.895  56.244  1.00  0.00    -0.000 C 
BRANCH  14  15
ATOM     15  C   UNL     1      -1.740  23.612  57.005  1.00  0.00    -0.000 C 
BRANCH  15  16
ATOM     16  C   UNL     1      -0.348  23.697  57.655  1.00  0.00    -0.000 C 
BRANCH  16  17
ATOM     17  C   UNL     1       0.603  22.584  57.180  1.00  0.00    -0.000 C 
BRANCH  17  18
ATOM     18  C   UNL     1       1.860  23.075  56.440  1.00  0.00    -0.003 C 
ATOM     19  C   UNL     1       2.115  24.571  56.621  1.00  0.00     0.004 C 
ENDBRANCH  17  18
ENDBRANCH  16  17
ENDBRANCH  15  16
ENDBRANCH  14  15
ENDBRANCH  13  14
ENDBRANCH  12  13
ENDBRANCH   1  12
TORSDOF 14
ENDMDL
MODEL 5
REMARK VINA RESULT:    -4.697      1.135      2.504
REMARK INTER + INTRA:          -9.925
REMARK INTER:                  -8.712
REMARK INTRA:                  -1.214
REMARK UNBOUND:                -1.383
REMARK SMILES CCCCCCCCCCCCCC[C@H](C)C(=O)[O-]
REMARK SMILES IDX 9 1 10 2 11 3 12 4 13 5 14 6 15 7 16 8 17 9 18 10 19 11 8 12
REMARK SMILES IDX 7 13 6 14 5 15 4 16 3 17 2 18 1 19
REMARK H PARENT
REMARK Flexibility Score: inf
ROOT
ATOM      1  C   UNL     1       2.729  26.170  49.324  1.00  0.00     0.000 C 
ENDROOT
BRANCH   1   2
ATOM      2  C   UNL     1       1.539  25.263  48.962  1.00  0.00     0.000 C 
BRANCH   2   3
ATOM      3  C   UNL     1       1.941  24.082  48.062  1.00  0.00     0.000 C 
BRANCH   3   4
ATOM      4  C   UNL     1       1.278  24.132  46.672  1.00  0.00     0.000 C 
BRANCH   4   5
ATOM      5  C   UNL     1       2.247  24.099  45.475  1.00  0.00     0.001 C 
BRANCH   5   6
ATOM      6  C   UNL     1       2.655  22.671  45.071  1.00  0.00     0.009 C 
BRANCH   6   7
ATOM      7  C   UNL     1       3.218  22.596  43.635  1.00  0.00     0.032 C 
ATOM      8  C   UNL     1       3.392  23.984  43.004  1.00  0.00     0.014 C 
BRANCH   7   9
ATOM      9  C   UNL     1       2.305  21.768  42.773  1.00  0.00     0.044 C 
ATOM     10  O   UNL     1       1.322  21.170  43.285  1.00  0.00    -0.550 OA
ATOM     11  O   UNL     1       2.539  21.658  41.407  1.00  0.00    -0.550 OA
ENDBRANCH   7   9
ENDBRANCH   6   7
ENDBRANCH   5   6
ENDBRANCH   4   5
ENDBRANCH   3   4
ENDBRANCH   2   3
ENDBRANCH   1   2
BRANCH   1  12
ATOM     12  C   UNL     1       2.859  26.525  50.819  1.00  0.00     0.000 C 
BRANCH  12  13
ATOM     13  C   UNL     1       4.221  26.194  51.458  1.00  0.00    -0.000 C 
BRANCH  13  14
ATOM     14  C   UNL     1       5.301  25.856  50.415  1.00  0.00    -0.000 C 
BRANCH  14  15
ATOM     15  C   UNL     1       6.494  25.104  51.027  1.00  0.00    -0.000 C 
BRANCH  15  16
ATOM     16  C   UNL     1       6.071  23.806  51.735  1.00  0.00    -0.000 C 
BRANCH  16  17
ATOM     17  C   UNL     1       5.076  22.971  50.909  1.00  0.00    -0.000 C 
BRANCH  17  18
ATOM     18  C   UNL     1       4.009  22.229  51.733  1.00  0.00    -0.003 C 
ATOM     19  C   UNL     1       2.720  21.974  50.953  1.00  0.00     0.004 C 
ENDBRANCH  17  18
ENDBRANCH  16  17
ENDBRANCH  15  16
ENDBRANCH  14  15
ENDBRANCH  13  14
ENDBRANCH  12  13
ENDBRANCH   1  12
TORSDOF 14
ENDMDL
MODEL 6
REMARK VINA RESULT:    -4.659      3.880      7.869
REMARK INTER + INTRA:          -9.855
REMARK INTER:                  -8.366
REMARK INTRA:                  -1.490
REMARK UNBOUND:                -1.383
REMARK SMILES CCCCCCCCCCCCCC[C@H](C)C(=O)[O-]
REMARK SMILES IDX 9 1 10 2 11 3 12 4 13 5 14 6 15 7 16 8 17 9 18 10 19 11 8 12
REMARK SMILES IDX 7 13 6 14 5 15 4 16 3 17 2 18 1 19
REMARK H PARENT
REMARK Flexibility Score: inf
ROOT
ATOM      1  C   UNL     1       1.997  23.734  46.652  1.00  0.00     0.000 C 
ENDROOT
BRANCH   1   2
ATOM      2  C   UNL     1       1.185  24.596  47.638  1.00  0.00     0.000 C 
BRANCH   2   3
ATOM      3  C   UNL     1       1.985  24.977  48.895  1.00  0.00     0.000 C 
BRANCH   3   4
ATOM      4  C   UNL     1       1.810  23.970  50.047  1.00  0.00     0.000 C 
BRANCH   4   5
ATOM      5  C   UNL     1       2.738  22.742  49.999  1.00  0.00     0.001 C 
BRANCH   5   6
ATOM      6  C   UNL     1       4.105  22.994  50.662  1.00  0.00     0.009 C 
BRANCH   6   7
ATOM      7  C   UNL     1       4.309  22.155  51.943  1.00  0.00     0.032 C 
ATOM      8  C   UNL     1       3.201  21.110  52.139  1.00  0.00     0.014 C 
BRANCH   7   9
ATOM      9  C   UNL     1       4.356  23.061  53.142  1.00  0.00     0.044 C 
ATOM     10  O   UNL     1       4.306  24.310  52.994  1.00  0.00    -0.550 OA
ATOM     11  O   UNL     1       4.456  22.527  54.422  1.00  0.00    -0.550 OA
ENDBRANCH   7   9
ENDBRANCH   6   7
ENDBRANCH   5   6
ENDBRANCH   4   5
ENDBRANCH   3   4
ENDBRANCH   2   3
ENDBRANCH   1   2
BRANCH   1  12
ATOM     12  C   UNL     1       1.388  23.590  45.243  1.00  0.00     0.000 C 
BRANCH  12  13
ATOM     13  C   UNL     1       2.083  22.566  44.328  1.00  0.00    -0.000 C 
BRANCH  13  14
ATOM     14  C   UNL     1       3.471  23.034  43.856  1.00  0.00    -0.000 C 
BRANCH  14  15
ATOM     15  C   UNL     1       3.443  23.620  42.435  1.00  0.00    -0.000 C 
BRANCH  15  16
ATOM     16  C   UNL     1       3.626  25.147  42.424  1.00  0.00    -0.000 C 
BRANCH  16  17
ATOM     17  C   UNL     1       4.033  25.710  43.798  1.00  0.00    -0.000 C 
BRANCH  17  18
ATOM     18  C   UNL     1       3.109  26.810  44.349  1.00  0.00    -0.003 C 
ATOM     19  C   UNL     1       3.319  27.077  45.839  1.00  0.00     0.004 C 
ENDBRANCH  17  18
ENDBRANCH  16  17
ENDBRANCH  15  16
ENDBRANCH  14  15
ENDBRANCH  13  14
ENDBRANCH  12  13
ENDBRANCH   1  12
TORSDOF 14
ENDMDL
MODEL 7
REMARK VINA RESULT:    -4.633      4.597      6.815
REMARK INTER + INTRA:          -9.809
REMARK INTER:                  -7.298
REMARK INTRA:                  -2.511
REMARK UNBOUND:                -1.383
REMARK SMILES CCCCCCCCCCCCCC[C@H](C)C(=O)[O-]
REMARK SMILES IDX 9 1 10 2 11 3 12 4 13 5 14 6 15 7 16 8 17 9 18 10 19 11 8 12
REMARK SMILES IDX 7 13 6 14 5 15 4 16 3 17 2 18 1 19
REMARK H PARENT
REMARK Flexibility Score: inf
ROOT
ATOM      1  C   UNL     1       0.551  25.911  53.931  1.00  0.00     0.000 C 
ENDROOT
BRANCH   1   2
ATOM      2  C   UNL     1       1.544  24.821  53.486  1.00  0.00     0.000 C 
BRANCH   2   3
ATOM      3  C   UNL     1       0.847  23.534  53.017  1.00  0.00     0.000 C 
BRANCH   3   4
ATOM      4  C   UNL     1       1.619  22.257  53.404  1.00  0.00     0.000 C 
BRANCH   4   5
ATOM      5  C   UNL     1       3.154  22.374  53.362  1.00  0.00     0.001 C 
BRANCH   5   6
ATOM      6  C   UNL     1       3.778  21.670  52.143  1.00  0.00     0.009 C 
BRANCH   6   7
ATOM      7  C   UNL     1       4.571  22.639  51.238  1.00  0.00     0.032 C 
ATOM      8  C   UNL     1       5.656  23.403  52.010  1.00  0.00     0.014 C 
BRANCH   7   9
ATOM      9  C   UNL     1       3.629  23.623  50.599  1.00  0.00     0.044 C 
ATOM     10  O   UNL     1       3.824  24.861  50.728  1.00  0.00    -0.550 OA
ATOM     11  O   UNL     1       2.538  23.175  49.863  1.00  0.00    -0.550 OA
ENDBRANCH   7   9
ENDBRANCH   6   7
ENDBRANCH   5   6
ENDBRANCH   4   5
ENDBRANCH   3   4
ENDBRANCH   2   3
ENDBRANCH   1   2
BRANCH   1  12
ATOM     12  C   UNL     1      -0.795  25.395  54.480  1.00  0.00     0.000 C 
BRANCH  12  13
ATOM     13  C   UNL     1      -1.304  26.106  55.748  1.00  0.00    -0.000 C 
BRANCH  13  14
ATOM     14  C   UNL     1      -2.228  25.217  56.598  1.00  0.00    -0.000 C 
BRANCH  14  15
ATOM     15  C   UNL     1      -1.839  23.731  56.532  1.00  0.00    -0.000 C 
BRANCH  15  16
ATOM     16  C   UNL     1      -0.725  23.370  57.529  1.00  0.00    -0.000 C 
BRANCH  16  17
ATOM     17  C   UNL     1       0.462  22.650  56.864  1.00  0.00    -0.000 C 
BRANCH  17  18
ATOM     18  C   UNL     1       1.791  23.427  56.890  1.00  0.00    -0.003 C 
ATOM     19  C   UNL     1       1.664  24.808  57.530  1.00  0.00     0.004 C 
ENDBRANCH  17  18
ENDBRANCH  16  17
ENDBRANCH  15  16
ENDBRANCH  14  15
ENDBRANCH  13  14
ENDBRANCH  12  13
ENDBRANCH   1  12
TORSDOF 14
ENDMDL
MODEL 8
REMARK VINA RESULT:    -4.601      4.631      6.719
REMARK INTER + INTRA:          -9.750
REMARK INTER:                  -7.167
REMARK INTRA:                  -2.583
REMARK UNBOUND:                -1.383
REMARK SMILES CCCCCCCCCCCCCC[C@H](C)C(=O)[O-]
REMARK SMILES IDX 9 1 10 2 11 3 12 4 13 5 14 6 15 7 16 8 17 9 18 10 19 11 8 12
REMARK SMILES IDX 7 13 6 14 5 15 4 16 3 17 2 18 1 19
REMARK H PARENT
REMARK Flexibility Score: inf
ROOT
ATOM      1  C   UNL     1      -0.524  24.604  54.294  1.00  0.00     0.000 C 
ENDROOT
BRANCH   1   2
ATOM      2  C   UNL     1       0.740  25.137  53.593  1.00  0.00     0.000 C 
BRANCH   2   3
ATOM      3  C   UNL     1       1.990  24.294  53.894  1.00  0.00     0.000 C 
BRANCH   3   4
ATOM      4  C   UNL     1       1.691  22.785  53.978  1.00  0.00     0.000 C 
BRANCH   4   5
ATOM      5  C   UNL     1       2.301  21.925  52.855  1.00  0.00     0.001 C 
BRANCH   5   6
ATOM      6  C   UNL     1       1.700  22.231  51.470  1.00  0.00     0.009 C 
BRANCH   6   7
ATOM      7  C   UNL     1       2.743  22.797  50.481  1.00  0.00     0.032 C 
ATOM      8  C   UNL     1       4.163  22.791  51.064  1.00  0.00     0.014 C 
BRANCH   7   9
ATOM      9  C   UNL     1       2.369  24.202  50.096  1.00  0.00     0.044 C 
ATOM     10  O   UNL     1       1.283  24.427  49.499  1.00  0.00    -0.550 OA
ATOM     11  O   UNL     1       3.217  25.262  50.396  1.00  0.00    -0.550 OA
ENDBRANCH   7   9
ENDBRANCH   6   7
ENDBRANCH   5   6
ENDBRANCH   4   5
ENDBRANCH   3   4
ENDBRANCH   2   3
ENDBRANCH   1   2
BRANCH   1  12
ATOM     12  C   UNL     1      -1.409  25.672  54.967  1.00  0.00     0.000 C 
BRANCH  12  13
ATOM     13  C   UNL     1      -2.182  25.198  56.211  1.00  0.00    -0.000 C 
BRANCH  13  14
ATOM     14  C   UNL     1      -1.995  23.697  56.491  1.00  0.00    -0.000 C 
BRANCH  14  15
ATOM     15  C   UNL     1      -1.114  23.434  57.724  1.00  0.00    -0.000 C 
BRANCH  15  16
ATOM     16  C   UNL     1       0.217  22.753  57.362  1.00  0.00    -0.000 C 
BRANCH  16  17
ATOM     17  C   UNL     1       1.436  23.666  57.587  1.00  0.00    -0.000 C 
BRANCH  17  18
ATOM     18  C   UNL     1       1.100  25.093  58.056  1.00  0.00    -0.003 C 
ATOM     19  C   UNL     1       1.655  26.174  57.129  1.00  0.00     0.004 C 
ENDBRANCH  17  18
ENDBRANCH  16  17
ENDBRANCH  15  16
ENDBRANCH  14  15
ENDBRANCH  13  14
ENDBRANCH  12  13
ENDBRANCH   1  12
TORSDOF 14
ENDMDL
MODEL 9
REMARK VINA RESULT:    -4.582      4.454      6.676
REMARK INTER + INTRA:          -9.716
REMARK INTER:                  -6.978
REMARK INTRA:                  -2.738
REMARK UNBOUND:                -1.383
REMARK SMILES CCCCCCCCCCCCCC[C@H](C)C(=O)[O-]
REMARK SMILES IDX 9 1 10 2 11 3 12 4 13 5 14 6 15 7 16 8 17 9 18 10 19 11 8 12
REMARK SMILES IDX 7 13 6 14 5 15 4 16 3 17 2 18 1 19
REMARK H PARENT
REMARK Flexibility Score: inf
ROOT
ATOM      1  C   UNL     1      -2.076  23.765  56.270  1.00  0.00     0.000 C 
ENDROOT
BRANCH   1   2
ATOM      2  C   UNL     1      -2.043  24.468  54.900  1.00  0.00     0.000 C 
BRANCH   2   3
ATOM      3  C   UNL     1      -1.011  25.606  54.838  1.00  0.00     0.000 C 
BRANCH   3   4
ATOM      4  C   UNL     1       0.145  25.317  53.862  1.00  0.00     0.000 C 
BRANCH   4   5
ATOM      5  C   UNL     1       0.166  23.898  53.263  1.00  0.00     0.001 C 
BRANCH   5   6
ATOM      6  C   UNL     1       0.544  23.880  51.770  1.00  0.00     0.009 C 
BRANCH   6   7
ATOM      7  C   UNL     1       1.385  22.644  51.384  1.00  0.00     0.032 C 
ATOM      8  C   UNL     1       2.010  21.958  52.606  1.00  0.00     0.014 C 
BRANCH   7   9
ATOM      9  C   UNL     1       2.475  23.049  50.429  1.00  0.00     0.044 C 
ATOM     10  O   UNL     1       3.670  22.725  50.659  1.00  0.00    -0.550 OA
ATOM     11  O   UNL     1       2.172  23.783  49.288  1.00  0.00    -0.550 OA
ENDBRANCH   7   9
ENDBRANCH   6   7
ENDBRANCH   5   6
ENDBRANCH   4   5
ENDBRANCH   3   4
ENDBRANCH   2   3
ENDBRANCH   1   2
BRANCH   1  12
ATOM     12  C   UNL     1      -1.219  24.422  57.371  1.00  0.00     0.000 C 
BRANCH  12  13
ATOM     13  C   UNL     1      -0.008  23.595  57.843  1.00  0.00    -0.000 C 
BRANCH  13  14
ATOM     14  C   UNL     1       0.490  22.607  56.774  1.00  0.00    -0.000 C 
BRANCH  14  15
ATOM     15  C   UNL     1       1.927  22.911  56.316  1.00  0.00    -0.000 C 
BRANCH  15  16
ATOM     16  C   UNL     1       2.478  24.209  56.932  1.00  0.00    -0.000 C 
BRANCH  16  17
ATOM     17  C   UNL     1       3.206  25.095  55.906  1.00  0.00    -0.000 C 
BRANCH  17  18
ATOM     18  C   UNL     1       3.930  24.330  54.784  1.00  0.00    -0.003 C 
ATOM     19  C   UNL     1       3.872  25.047  53.436  1.00  0.00     0.004 C 
ENDBRANCH  17  18
ENDBRANCH  16  17
ENDBRANCH  15  16
ENDBRANCH  14  15
ENDBRANCH  13  14
ENDBRANCH  12  13
ENDBRANCH   1  12
TORSDOF 14
ENDMDL
