MODEL 1
REMARK VINA RESULT:    -4.606      0.000      0.000
REMARK INTER + INTRA:         -10.146
REMARK INTER:                  -8.107
REMARK INTRA:                  -2.040
REMARK UNBOUND:                -2.040
REMARK SMILES CCCCCCCCCCCCCCC(=O)[O-]
REMARK SMILES IDX 9 1 10 2 11 3 12 4 13 5 14 6 15 7 16 8 17 9 8 10 7 11 6 12
REMARK SMILES IDX 5 13 4 14 3 15 2 16 1 17
REMARK H PARENT
REMARK Flexibility Score: inf
ROOT
ATOM      1  C   UNL     1      16.601  11.302  35.929  1.00  0.00     0.000 C 
ENDROOT
BRANCH   1   2
ATOM      2  C   UNL     1      16.917  12.775  35.601  1.00  0.00     0.000 C 
BRANCH   2   3
ATOM      3  C   UNL     1      17.467  13.027  34.185  1.00  0.00     0.000 C 
BRANCH   3   4
ATOM      4  C   UNL     1      17.576  11.773  33.295  1.00  0.00     0.000 C 
BRANCH   4   5
ATOM      5  C   UNL     1      19.019  11.455  32.841  1.00  0.00     0.006 C 
BRANCH   5   6
ATOM      6  C   UNL     1      20.096  12.248  33.599  1.00  0.00     0.053 C 
BRANCH   6   7
ATOM      7  C   UNL     1      20.652  11.473  34.755  1.00  0.00     0.041 C 
ATOM      8  O   UNL     1      20.246  10.305  34.988  1.00  0.00    -0.550 OA
ATOM      9  O   UNL     1      21.636  12.033  35.560  1.00  0.00    -0.550 OA
ENDBRANCH   6   7
ENDBRANCH   5   6
ENDBRANCH   4   5
ENDBRANCH   3   4
ENDBRANCH   2   3
ENDBRANCH   1   2
BRANCH   1  10
ATOM     10  C   UNL     1      15.251  11.124  36.643  1.00  0.00     0.000 C 
BRANCH  10  11
ATOM     11  C   UNL     1      14.486  12.447  36.798  1.00  0.00    -0.000 C 
BRANCH  11  12
ATOM     12  C   UNL     1      12.966  12.284  36.620  1.00  0.00    -0.000 C 
BRANCH  12  13
ATOM     13  C   UNL     1      12.422  13.138  35.456  1.00  0.00    -0.000 C 
BRANCH  13  14
ATOM     14  C   UNL     1      13.405  13.276  34.281  1.00  0.00    -0.000 C 
BRANCH  14  15
ATOM     15  C   UNL     1      13.122  12.279  33.146  1.00  0.00    -0.000 C 
BRANCH  15  16
ATOM     16  C   UNL     1      14.215  11.205  33.019  1.00  0.00    -0.003 C 
ATOM     17  C   UNL     1      13.741   9.821  33.463  1.00  0.00     0.004 C 
ENDBRANCH  15  16
ENDBRANCH  14  15
ENDBRANCH  13  14
ENDBRANCH  12  13
ENDBRANCH  11  12
ENDBRANCH  10  11
ENDBRANCH   1  10
TORSDOF 13
ENDMDL
MODEL 2
REMARK VINA RESULT:    -4.599      2.628      3.698
REMARK INTER + INTRA:         -10.133
REMARK INTER:                  -8.366
REMARK INTRA:                  -1.767
REMARK UNBOUND:                -2.040
REMARK SMILES CCCCCCCCCCCCCCC(=O)[O-]
REMARK SMILES IDX 9 1 10 2 11 3 12 4 13 5 14 6 15 7 16 8 17 9 8 10 7 11 6 12
REMARK SMILES IDX 5 13 4 14 3 15 2 16 1 17
REMARK H PARENT
REMARK Flexibility Score: inf
ROOT
ATOM      1  C   UNL     1      15.815  10.969  35.271  1.00  0.00     0.000 C 
ENDROOT
BRANCH   1   2
ATOM      2  C   UNL     1      16.779  11.854  34.457  1.00  0.00     0.000 C 
BRANCH   2   3
ATOM      3  C   UNL     1      16.755  13.352  34.818  1.00  0.00     0.000 C 
BRANCH   3   4
ATOM      4  C   UNL     1      17.754  13.775  35.913  1.00  0.00     0.000 C 
BRANCH   4   5
ATOM      5  C   UNL     1      18.888  14.693  35.402  1.00  0.00     0.006 C 
BRANCH   5   6
ATOM      6  C   UNL     1      18.487  15.558  34.197  1.00  0.00     0.053 C 
BRANCH   6   7
ATOM      7  C   UNL     1      19.643  16.352  33.669  1.00  0.00     0.041 C 
ATOM      8  O   UNL     1      19.773  16.535  32.431  1.00  0.00    -0.550 OA
ATOM      9  O   UNL     1      20.564  16.908  34.548  1.00  0.00    -0.550 OA
ENDBRANCH   6   7
ENDBRANCH   5   6
ENDBRANCH   4   5
ENDBRANCH   3   4
ENDBRANCH   2   3
ENDBRANCH   1   2
BRANCH   1  10
ATOM     10  C   UNL     1      14.805  10.216  34.389  1.00  0.00     0.000 C 
BRANCH  10  11
ATOM     11  C   UNL     1      14.663  10.838  32.992  1.00  0.00    -0.000 C 
BRANCH  11  12
ATOM     12  C   UNL     1      13.330  11.585  32.802  1.00  0.00    -0.000 C 
BRANCH  12  13
ATOM     13  C   UNL     1      13.379  13.016  33.377  1.00  0.00    -0.000 C 
BRANCH  13  14
ATOM     14  C   UNL     1      12.451  13.229  34.585  1.00  0.00    -0.000 C 
BRANCH  14  15
ATOM     15  C   UNL     1      13.216  13.584  35.870  1.00  0.00    -0.000 C 
BRANCH  15  16
ATOM     16  C   UNL     1      12.851  12.663  37.046  1.00  0.00    -0.003 C 
ATOM     17  C   UNL     1      12.168  11.370  36.597  1.00  0.00     0.004 C 
ENDBRANCH  15  16
ENDBRANCH  14  15
ENDBRANCH  13  14
ENDBRANCH  12  13
ENDBRANCH  11  12
ENDBRANCH  10  11
ENDBRANCH   1  10
TORSDOF 13
ENDMDL
MODEL 3
REMARK VINA RESULT:    -4.582      2.084      3.753
REMARK INTER + INTRA:         -10.104
REMARK INTER:                  -8.105
REMARK INTRA:                  -1.998
REMARK UNBOUND:                -2.040
REMARK SMILES CCCCCCCCCCCCCCC(=O)[O-]
REMARK SMILES IDX 9 1 10 2 11 3 12 4 13 5 14 6 15 7 16 8 17 9 8 10 7 11 6 12
REMARK SMILES IDX 5 13 4 14 3 15 2 16 1 17
REMARK H PARENT
REMARK Flexibility Score: inf
ROOT
ATOM      1  C   UNL     1      13.594  11.039  33.384  1.00  0.00     0.000 C 
ENDROOT
BRANCH   1   2
ATOM      2  C   UNL     1      14.836  10.480  34.107  1.00  0.00     0.000 C 
BRANCH   2   3
ATOM      3  C   UNL     1      16.043  11.435  34.169  1.00  0.00     0.000 C 
BRANCH   3   4
ATOM      4  C   UNL     1      16.595  11.697  35.584  1.00  0.00     0.000 C 
BRANCH   4   5
ATOM      5  C   UNL     1      16.904  13.185  35.866  1.00  0.00     0.006 C 
BRANCH   5   6
ATOM      6  C   UNL     1      16.967  14.055  34.600  1.00  0.00     0.053 C 
BRANCH   6   7
ATOM      7  C   UNL     1      18.352  14.563  34.338  1.00  0.00     0.041 C 
ATOM      8  O   UNL     1      19.299  13.754  34.155  1.00  0.00    -0.550 OA
ATOM      9  O   UNL     1      18.593  15.929  34.277  1.00  0.00    -0.550 OA
ENDBRANCH   6   7
ENDBRANCH   5   6
ENDBRANCH   4   5
ENDBRANCH   3   4
ENDBRANCH   2   3
ENDBRANCH   1   2
BRANCH   1  10
ATOM     10  C   UNL     1      13.599  12.574  33.288  1.00  0.00     0.000 C 
BRANCH  10  11
ATOM     11  C   UNL     1      12.595  13.228  34.250  1.00  0.00    -0.000 C 
BRANCH  11  12
ATOM     12  C   UNL     1      13.276  13.926  35.441  1.00  0.00    -0.000 C 
BRANCH  12  13
ATOM     13  C   UNL     1      13.287  13.039  36.704  1.00  0.00    -0.000 C 
BRANCH  13  14
ATOM     14  C   UNL     1      11.891  12.552  37.129  1.00  0.00    -0.000 C 
BRANCH  14  15
ATOM     15  C   UNL     1      11.944  11.475  38.225  1.00  0.00    -0.000 C 
BRANCH  15  16
ATOM     16  C   UNL     1      11.354  10.133  37.761  1.00  0.00    -0.003 C 
ATOM     17  C   UNL     1      11.829   9.727  36.365  1.00  0.00     0.004 C 
ENDBRANCH  15  16
ENDBRANCH  14  15
ENDBRANCH  13  14
ENDBRANCH  12  13
ENDBRANCH  11  12
ENDBRANCH  10  11
ENDBRANCH   1  10
TORSDOF 13
ENDMDL
MODEL 4
REMARK VINA RESULT:    -4.556      3.588      6.502
REMARK INTER + INTRA:         -10.058
REMARK INTER:                  -8.381
REMARK INTRA:                  -1.676
REMARK UNBOUND:                -2.040
REMARK SMILES CCCCCCCCCCCCCCC(=O)[O-]
REMARK SMILES IDX 9 1 10 2 11 3 12 4 13 5 14 6 15 7 16 8 17 9 8 10 7 11 6 12
REMARK SMILES IDX 5 13 4 14 3 15 2 16 1 17
REMARK H PARENT
REMARK Flexibility Score: inf
ROOT
ATOM      1  C   UNL     1      14.906  11.048  32.973  1.00  0.00     0.000 C 
ENDROOT
BRANCH   1   2
ATOM      2  C   UNL     1      13.699  11.412  33.860  1.00  0.00     0.000 C 
BRANCH   2   3
ATOM      3  C   UNL     1      13.087  12.801  33.594  1.00  0.00     0.000 C 
BRANCH   3   4
ATOM      4  C   UNL     1      13.096  13.760  34.801  1.00  0.00     0.000 C 
BRANCH   4   5
ATOM      5  C   UNL     1      12.065  13.396  35.894  1.00  0.00     0.006 C 
BRANCH   5   6
ATOM      6  C   UNL     1      12.668  12.630  37.082  1.00  0.00     0.053 C 
BRANCH   6   7
ATOM      7  C   UNL     1      11.614  12.173  38.045  1.00  0.00     0.041 C 
ATOM      8  O   UNL     1      10.464  12.683  38.014  1.00  0.00    -0.550 OA
ATOM      9  O   UNL     1      11.897  11.168  38.961  1.00  0.00    -0.550 OA
ENDBRANCH   6   7
ENDBRANCH   5   6
ENDBRANCH   4   5
ENDBRANCH   3   4
ENDBRANCH   2   3
ENDBRANCH   1   2
BRANCH   1  10
ATOM     10  C   UNL     1      16.245  11.531  33.555  1.00  0.00     0.000 C 
BRANCH  10  11
ATOM     11  C   UNL     1      16.213  11.652  35.086  1.00  0.00    -0.000 C 
BRANCH  11  12
ATOM     12  C   UNL     1      16.643  13.044  35.585  1.00  0.00    -0.000 C 
BRANCH  12  13
ATOM     13  C   UNL     1      16.795  14.054  34.428  1.00  0.00    -0.000 C 
BRANCH  13  14
ATOM     14  C   UNL     1      18.159  14.766  34.405  1.00  0.00    -0.000 C 
BRANCH  14  15
ATOM     15  C   UNL     1      19.313  13.857  34.860  1.00  0.00    -0.000 C 
BRANCH  15  16
ATOM     16  C   UNL     1      20.251  13.475  33.704  1.00  0.00    -0.003 C 
ATOM     17  C   UNL     1      19.715  12.314  32.865  1.00  0.00     0.004 C 
ENDBRANCH  15  16
ENDBRANCH  14  15
ENDBRANCH  13  14
ENDBRANCH  12  13
ENDBRANCH  11  12
ENDBRANCH  10  11
ENDBRANCH   1  10
TORSDOF 13
ENDMDL
MODEL 5
REMARK VINA RESULT:    -4.556      1.484      2.985
REMARK INTER + INTRA:         -10.058
REMARK INTER:                  -8.292
REMARK INTRA:                  -1.766
REMARK UNBOUND:                -2.040
REMARK SMILES CCCCCCCCCCCCCCC(=O)[O-]
REMARK SMILES IDX 9 1 10 2 11 3 12 4 13 5 14 6 15 7 16 8 17 9 8 10 7 11 6 12
REMARK SMILES IDX 5 13 4 14 3 15 2 16 1 17
REMARK H PARENT
REMARK Flexibility Score: inf
ROOT
ATOM      1  C   UNL     1      14.985  10.620  34.766  1.00  0.00     0.000 C 
ENDROOT
BRANCH   1   2
ATOM      2  C   UNL     1      16.381  11.088  35.220  1.00  0.00     0.000 C 
BRANCH   2   3
ATOM      3  C   UNL     1      16.627  12.606  35.120  1.00  0.00     0.000 C 
BRANCH   3   4
ATOM      4  C   UNL     1      17.648  13.032  34.047  1.00  0.00     0.000 C 
BRANCH   4   5
ATOM      5  C   UNL     1      18.197  11.856  33.208  1.00  0.00     0.006 C 
BRANCH   5   6
ATOM      6  C   UNL     1      19.680  11.547  33.471  1.00  0.00     0.053 C 
BRANCH   6   7
ATOM      7  C   UNL     1      20.569  12.681  33.061  1.00  0.00     0.041 C 
ATOM      8  O   UNL     1      20.424  13.224  31.936  1.00  0.00    -0.550 OA
ATOM      9  O   UNL     1      21.543  13.152  33.933  1.00  0.00    -0.550 OA
ENDBRANCH   6   7
ENDBRANCH   5   6
ENDBRANCH   4   5
ENDBRANCH   3   4
ENDBRANCH   2   3
ENDBRANCH   1   2
BRANCH   1  10
ATOM     10  C   UNL     1      14.766  10.769  33.252  1.00  0.00     0.000 C 
BRANCH  10  11
ATOM     11  C   UNL     1      13.453  11.493  32.914  1.00  0.00    -0.000 C 
BRANCH  11  12
ATOM     12  C   UNL     1      13.491  12.993  33.259  1.00  0.00    -0.000 C 
BRANCH  12  13
ATOM     13  C   UNL     1      12.531  13.347  34.414  1.00  0.00    -0.000 C 
BRANCH  13  14
ATOM     14  C   UNL     1      13.231  13.987  35.625  1.00  0.00    -0.000 C 
BRANCH  14  15
ATOM     15  C   UNL     1      13.247  13.069  36.859  1.00  0.00    -0.000 C 
BRANCH  15  16
ATOM     16  C   UNL     1      12.063  12.088  36.878  1.00  0.00    -0.003 C 
ATOM     17  C   UNL     1      11.442  11.936  38.266  1.00  0.00     0.004 C 
ENDBRANCH  15  16
ENDBRANCH  14  15
ENDBRANCH  13  14
ENDBRANCH  12  13
ENDBRANCH  11  12
ENDBRANCH  10  11
ENDBRANCH   1  10
TORSDOF 13
ENDMDL
MODEL 6
REMARK VINA RESULT:    -4.508      2.427      2.967
REMARK INTER + INTRA:          -9.973
REMARK INTER:                  -8.342
REMARK INTRA:                  -1.631
REMARK UNBOUND:                -2.040
REMARK SMILES CCCCCCCCCCCCCCC(=O)[O-]
REMARK SMILES IDX 9 1 10 2 11 3 12 4 13 5 14 6 15 7 16 8 17 9 8 10 7 11 6 12
REMARK SMILES IDX 5 13 4 14 3 15 2 16 1 17
REMARK H PARENT
REMARK Flexibility Score: inf
ROOT
ATOM      1  C   UNL     1      15.151  11.826  36.626  1.00  0.00     0.000 C 
ENDROOT
BRANCH   1   2
ATOM      2  C   UNL     1      16.308  10.808  36.632  1.00  0.00     0.000 C 
BRANCH   2   3
ATOM      3  C   UNL     1      17.660  11.349  36.131  1.00  0.00     0.000 C 
BRANCH   3   4
ATOM      4  C   UNL     1      18.424  12.231  37.138  1.00  0.00     0.000 C 
BRANCH   4   5
ATOM      5  C   UNL     1      18.159  13.744  36.967  1.00  0.00     0.006 C 
BRANCH   5   6
ATOM      6  C   UNL     1      19.024  14.405  35.882  1.00  0.00     0.053 C 
BRANCH   6   7
ATOM      7  C   UNL     1      18.215  14.794  34.682  1.00  0.00     0.041 C 
ATOM      8  O   UNL     1      17.080  14.285  34.492  1.00  0.00    -0.550 OA
ATOM      9  O   UNL     1      18.707  15.736  33.787  1.00  0.00    -0.550 OA
ENDBRANCH   6   7
ENDBRANCH   5   6
ENDBRANCH   4   5
ENDBRANCH   3   4
ENDBRANCH   2   3
ENDBRANCH   1   2
BRANCH   1  10
ATOM     10  C   UNL     1      13.817  11.220  37.090  1.00  0.00     0.000 C 
BRANCH  10  11
ATOM     11  C   UNL     1      12.600  11.974  36.531  1.00  0.00    -0.000 C 
BRANCH  11  12
ATOM     12  C   UNL     1      12.955  13.380  36.013  1.00  0.00    -0.000 C 
BRANCH  12  13
ATOM     13  C   UNL     1      12.575  13.564  34.528  1.00  0.00    -0.000 C 
BRANCH  13  14
ATOM     14  C   UNL     1      13.646  13.054  33.549  1.00  0.00    -0.000 C 
BRANCH  14  15
ATOM     15  C   UNL     1      13.257  11.725  32.879  1.00  0.00    -0.000 C 
BRANCH  15  16
ATOM     16  C   UNL     1      14.378  10.676  32.957  1.00  0.00    -0.003 C 
ATOM     17  C   UNL     1      15.773  11.301  32.994  1.00  0.00     0.004 C 
ENDBRANCH  15  16
ENDBRANCH  14  15
ENDBRANCH  13  14
ENDBRANCH  12  13
ENDBRANCH  11  12
ENDBRANCH  10  11
ENDBRANCH   1  10
TORSDOF 13
ENDMDL
MODEL 7
REMARK VINA RESULT:    -4.434      1.703      2.992
REMARK INTER + INTRA:          -9.843
REMARK INTER:                  -8.001
REMARK INTRA:                  -1.842
REMARK UNBOUND:                -2.040
REMARK SMILES CCCCCCCCCCCCCCC(=O)[O-]
REMARK SMILES IDX 9 1 10 2 11 3 12 4 13 5 14 6 15 7 16 8 17 9 8 10 7 11 6 12
REMARK SMILES IDX 5 13 4 14 3 15 2 16 1 17
REMARK H PARENT
REMARK Flexibility Score: inf
ROOT
ATOM      1  C   UNL     1      16.826  12.485  34.436  1.00  0.00     0.000 C 
ENDROOT
BRANCH   1   2
ATOM      2  C   UNL     1      16.668  13.982  34.103  1.00  0.00     0.000 C 
BRANCH   2   3
ATOM      3  C   UNL     1      17.881  14.863  34.456  1.00  0.00     0.000 C 
BRANCH   3   4
ATOM      4  C   UNL     1      18.821  14.280  35.529  1.00  0.00     0.000 C 
BRANCH   4   5
ATOM      5  C   UNL     1      20.305  14.235  35.099  1.00  0.00     0.006 C 
BRANCH   5   6
ATOM      6  C   UNL     1      20.778  12.843  34.652  1.00  0.00     0.053 C 
BRANCH   6   7
ATOM      7  C   UNL     1      20.852  12.730  33.160  1.00  0.00     0.041 C 
ATOM      8  O   UNL     1      19.810  12.509  32.489  1.00  0.00    -0.550 OA
ATOM      9  O   UNL     1      22.068  12.890  32.509  1.00  0.00    -0.550 OA
ENDBRANCH   6   7
ENDBRANCH   5   6
ENDBRANCH   4   5
ENDBRANCH   3   4
ENDBRANCH   2   3
ENDBRANCH   1   2
BRANCH   1  10
ATOM     10  C   UNL     1      16.192  11.566  33.379  1.00  0.00     0.000 C 
BRANCH  10  11
ATOM     11  C   UNL     1      14.992  10.778  33.926  1.00  0.00    -0.000 C 
BRANCH  11  12
ATOM     12  C   UNL     1      13.672  11.132  33.218  1.00  0.00    -0.000 C 
BRANCH  12  13
ATOM     13  C   UNL     1      13.356  12.641  33.300  1.00  0.00    -0.000 C 
BRANCH  13  14
ATOM     14  C   UNL     1      12.509  13.028  34.524  1.00  0.00    -0.000 C 
BRANCH  14  15
ATOM     15  C   UNL     1      13.275  13.913  35.522  1.00  0.00    -0.000 C 
BRANCH  15  16
ATOM     16  C   UNL     1      13.907  13.100  36.664  1.00  0.00    -0.003 C 
ATOM     17  C   UNL     1      13.064  11.891  37.070  1.00  0.00     0.004 C 
ENDBRANCH  15  16
ENDBRANCH  14  15
ENDBRANCH  13  14
ENDBRANCH  12  13
ENDBRANCH  11  12
ENDBRANCH  10  11
ENDBRANCH   1  10
TORSDOF 13
ENDMDL
MODEL 8
REMARK VINA RESULT:    -4.430      3.526      6.366
REMARK INTER + INTRA:          -9.837
REMARK INTER:                  -7.937
REMARK INTRA:                  -1.900
REMARK UNBOUND:                -2.040
REMARK SMILES CCCCCCCCCCCCCCC(=O)[O-]
REMARK SMILES IDX 9 1 10 2 11 3 12 4 13 5 14 6 15 7 16 8 17 9 8 10 7 11 6 12
REMARK SMILES IDX 5 13 4 14 3 15 2 16 1 17
REMARK H PARENT
REMARK Flexibility Score: inf
ROOT
ATOM      1  C   UNL     1      12.391  13.368  34.325  1.00  0.00     0.000 C 
ENDROOT
BRANCH   1   2
ATOM      2  C   UNL     1      12.948  13.998  35.617  1.00  0.00     0.000 C 
BRANCH   2   3
ATOM      3  C   UNL     1      13.266  13.002  36.748  1.00  0.00     0.000 C 
BRANCH   3   4
ATOM      4  C   UNL     1      12.052  12.222  37.290  1.00  0.00     0.000 C 
BRANCH   4   5
ATOM      5  C   UNL     1      11.927  10.790  36.720  1.00  0.00     0.006 C 
BRANCH   5   6
ATOM      6  C   UNL     1      12.889   9.781  37.366  1.00  0.00     0.053 C 
BRANCH   6   7
ATOM      7  C   UNL     1      12.605   9.591  38.825  1.00  0.00     0.041 C 
ATOM      8  O   UNL     1      13.430   9.989  39.688  1.00  0.00    -0.550 OA
ATOM      9  O   UNL     1      11.418   8.994  39.231  1.00  0.00    -0.550 OA
ENDBRANCH   6   7
ENDBRANCH   5   6
ENDBRANCH   4   5
ENDBRANCH   3   4
ENDBRANCH   2   3
ENDBRANCH   1   2
BRANCH   1  10
ATOM     10  C   UNL     1      13.494  12.951  33.338  1.00  0.00     0.000 C 
BRANCH  10  11
ATOM     11  C   UNL     1      13.393  11.474  32.930  1.00  0.00    -0.000 C 
BRANCH  11  12
ATOM     12  C   UNL     1      14.710  10.704  33.139  1.00  0.00    -0.000 C 
BRANCH  12  13
ATOM     13  C   UNL     1      15.227  10.821  34.589  1.00  0.00    -0.000 C 
BRANCH  13  14
ATOM     14  C   UNL     1      16.623  11.458  34.697  1.00  0.00    -0.000 C 
BRANCH  14  15
ATOM     15  C   UNL     1      16.596  12.844  35.361  1.00  0.00    -0.000 C 
BRANCH  15  16
ATOM     16  C   UNL     1      16.787  13.985  34.349  1.00  0.00    -0.003 C 
ATOM     17  C   UNL     1      18.117  14.719  34.527  1.00  0.00     0.004 C 
ENDBRANCH  15  16
ENDBRANCH  14  15
ENDBRANCH  13  14
ENDBRANCH  12  13
ENDBRANCH  11  12
ENDBRANCH  10  11
ENDBRANCH   1  10
TORSDOF 13
ENDMDL
MODEL 9
REMARK VINA RESULT:    -4.426      2.126      3.279
REMARK INTER + INTRA:          -9.829
REMARK INTER:                  -8.100
REMARK INTRA:                  -1.729
REMARK UNBOUND:                -2.040
REMARK SMILES CCCCCCCCCCCCCCC(=O)[O-]
REMARK SMILES IDX 9 1 10 2 11 3 12 4 13 5 14 6 15 7 16 8 17 9 8 10 7 11 6 12
REMARK SMILES IDX 5 13 4 14 3 15 2 16 1 17
REMARK H PARENT
REMARK Flexibility Score: inf
ROOT
ATOM      1  C   UNL     1      16.539  13.647  34.681  1.00  0.00     0.000 C 
ENDROOT
BRANCH   1   2
ATOM      2  C   UNL     1      18.000  14.109  34.516  1.00  0.00     0.000 C 
BRANCH   2   3
ATOM      3  C   UNL     1      19.063  13.021  34.764  1.00  0.00     0.000 C 
BRANCH   3   4
ATOM      4  C   UNL     1      19.529  12.266  33.504  1.00  0.00     0.000 C 
BRANCH   4   5
ATOM      5  C   UNL     1      20.961  12.633  33.052  1.00  0.00     0.006 C 
BRANCH   5   6
ATOM      6  C   UNL     1      21.006  13.671  31.919  1.00  0.00     0.053 C 
BRANCH   6   7
ATOM      7  C   UNL     1      21.094  15.071  32.447  1.00  0.00     0.041 C 
ATOM      8  O   UNL     1      20.144  15.876  32.268  1.00  0.00    -0.550 OA
ATOM      9  O   UNL     1      22.218  15.479  33.154  1.00  0.00    -0.550 OA
ENDBRANCH   6   7
ENDBRANCH   5   6
ENDBRANCH   4   5
ENDBRANCH   3   4
ENDBRANCH   2   3
ENDBRANCH   1   2
BRANCH   1  10
ATOM     10  C   UNL     1      16.378  12.529  35.725  1.00  0.00     0.000 C 
BRANCH  10  11
ATOM     11  C   UNL     1      15.750  11.257  35.135  1.00  0.00    -0.000 C 
BRANCH  11  12
ATOM     12  C   UNL     1      15.747  11.252  33.595  1.00  0.00    -0.000 C 
BRANCH  12  13
ATOM     13  C   UNL     1      14.316  11.209  33.018  1.00  0.00    -0.000 C 
BRANCH  13  14
ATOM     14  C   UNL     1      13.241  11.714  33.996  1.00  0.00    -0.000 C 
BRANCH  14  15
ATOM     15  C   UNL     1      12.872  13.189  33.765  1.00  0.00    -0.000 C 
BRANCH  15  16
ATOM     16  C   UNL     1      12.558  13.929  35.076  1.00  0.00    -0.003 C 
ATOM     17  C   UNL     1      12.666  13.028  36.306  1.00  0.00     0.004 C 
ENDBRANCH  15  16
ENDBRANCH  14  15
ENDBRANCH  13  14
ENDBRANCH  12  13
ENDBRANCH  11  12
ENDBRANCH  10  11
ENDBRANCH   1  10
TORSDOF 13
ENDMDL
