MODEL 1
REMARK VINA RESULT:     0.000      0.000      0.000
REMARK INTER + INTRA:          -7.183
REMARK INTER:                   0.000
REMARK INTRA:                  -7.183
REMARK UNBOUND:                -7.183
REMARK SMILES CCCCCCCCCCCCCCCCCCCCCCCCCCCC(=O)[O-]
REMARK SMILES IDX 15 1 16 2 17 3 18 4 19 5 20 6 21 7 22 8 23 9 24 10 25 11
REMARK SMILES IDX 26 12 27 13 28 14 29 15 30 16 14 17 13 18 12 19 11 20 10 21
REMARK SMILES IDX 9 22 8 23 7 24 6 25 5 26 4 27 3 28 2 29 1 30
REMARK H PARENT
REMARK Flexibility Score: inf
ROOT
ATOM      1  C   UNL     1     179.684 181.337 185.396  1.00  0.00     0.000 C 
ENDROOT
BRANCH   1   2
ATOM      2  C   UNL     1     178.727 180.145 185.578  1.00  0.00     0.000 C 
BRANCH   2   3
ATOM      3  C   UNL     1     177.751 180.341 186.752  1.00  0.00     0.000 C 
BRANCH   3   4
ATOM      4  C   UNL     1     176.270 180.510 186.347  1.00  0.00     0.000 C 
BRANCH   4   5
ATOM      5  C   UNL     1     176.028 180.918 184.878  1.00  0.00     0.000 C 
BRANCH   5   6
ATOM      6  C   UNL     1     175.557 182.371 184.675  1.00  0.00     0.000 C 
BRANCH   6   7
ATOM      7  C   UNL     1     176.676 183.356 184.289  1.00  0.00     0.000 C 
BRANCH   7   8
ATOM      8  C   UNL     1     177.243 184.141 185.491  1.00  0.00     0.000 C 
BRANCH   8   9
ATOM      9  C   UNL     1     176.219 184.292 186.630  1.00  0.00     0.000 C 
BRANCH   9  10
ATOM     10  C   UNL     1     176.782 183.851 187.991  1.00  0.00     0.000 C 
BRANCH  10  11
ATOM     11  C   UNL     1     178.311 183.670 187.970  1.00  0.00     0.000 C 
BRANCH  11  12
ATOM     12  C   UNL     1     178.850 183.061 189.274  1.00  0.00     0.006 C 
BRANCH  12  13
ATOM     13  C   UNL     1     180.371 183.218 189.410  1.00  0.00     0.053 C 
BRANCH  13  14
ATOM     14  C   UNL     1     181.074 182.079 188.738  1.00  0.00     0.041 C 
ATOM     15  O   UNL     1     182.087 182.294 188.022  1.00  0.00    -0.550 OA
ATOM     16  O   UNL     1     180.582 180.786 188.865  1.00  0.00    -0.550 OA
ENDBRANCH  13  14
ENDBRANCH  12  13
ENDBRANCH  11  12
ENDBRANCH  10  11
ENDBRANCH   9  10
ENDBRANCH   8   9
ENDBRANCH   7   8
ENDBRANCH   6   7
ENDBRANCH   5   6
ENDBRANCH   4   5
ENDBRANCH   3   4
ENDBRANCH   2   3
ENDBRANCH   1   2
BRANCH   1  17
ATOM     17  C   UNL     1     180.182 181.487 183.949  1.00  0.00     0.000 C 
BRANCH  17  18
ATOM     18  C   UNL     1     179.205 181.008 182.859  1.00  0.00     0.000 C 
BRANCH  18  19
ATOM     19  C   UNL     1     178.946 182.043 181.743  1.00  0.00     0.000 C 
BRANCH  19  20
ATOM     20  C   UNL     1     179.984 183.182 181.735  1.00  0.00     0.000 C 
BRANCH  20  21
ATOM     21  C   UNL     1     179.361 184.559 182.051  1.00  0.00     0.000 C 
BRANCH  21  22
ATOM     22  C   UNL     1     180.020 185.287 183.238  1.00  0.00    -0.000 C 
BRANCH  22  23
ATOM     23  C   UNL     1     181.545 185.116 183.344  1.00  0.00    -0.000 C 
BRANCH  23  24
ATOM     24  C   UNL     1     181.989 184.575 184.715  1.00  0.00    -0.000 C 
BRANCH  24  25
ATOM     25  C   UNL     1     180.968 184.863 185.833  1.00  0.00    -0.000 C 
BRANCH  25  26
ATOM     26  C   UNL     1     181.496 185.737 186.986  1.00  0.00    -0.000 C 
BRANCH  26  27
ATOM     27  C   UNL     1     180.431 186.684 187.561  1.00  0.00    -0.000 C 
BRANCH  27  28
ATOM     28  C   UNL     1     179.355 187.010 186.512  1.00  0.00    -0.000 C 
BRANCH  28  29
ATOM     29  C   UNL     1     178.040 187.492 187.144  1.00  0.00    -0.003 C 
ATOM     30  C   UNL     1     178.013 187.326 188.664  1.00  0.00     0.004 C 
ENDBRANCH  28  29
ENDBRANCH  27  28
ENDBRANCH  26  27
ENDBRANCH  25  26
ENDBRANCH  24  25
ENDBRANCH  23  24
ENDBRANCH  22  23
ENDBRANCH  21  22
ENDBRANCH  20  21
ENDBRANCH  19  20
ENDBRANCH  18  19
ENDBRANCH  17  18
ENDBRANCH   1  17
TORSDOF 26
ENDMDL
MODEL 2
REMARK VINA RESULT:     0.108      6.670     10.417
REMARK INTER + INTRA:          -6.912
REMARK INTER:                   0.000
REMARK INTRA:                  -6.912
REMARK UNBOUND:                -7.183
REMARK SMILES CCCCCCCCCCCCCCCCCCCCCCCCCCCC(=O)[O-]
REMARK SMILES IDX 15 1 16 2 17 3 18 4 19 5 20 6 21 7 22 8 23 9 24 10 25 11
REMARK SMILES IDX 26 12 27 13 28 14 29 15 30 16 14 17 13 18 12 19 11 20 10 21
REMARK SMILES IDX 9 22 8 23 7 24 6 25 5 26 4 27 3 28 2 29 1 30
REMARK H PARENT
REMARK Flexibility Score: inf
ROOT
ATOM      1  C   UNL     1     186.178 182.860 191.915  1.00  0.00     0.000 C 
ENDROOT
BRANCH   1   2
ATOM      2  C   UNL     1     186.241 184.028 192.916  1.00  0.00     0.000 C 
BRANCH   2   3
ATOM      3  C   UNL     1     186.100 183.565 194.378  1.00  0.00     0.000 C 
BRANCH   3   4
ATOM      4  C   UNL     1     186.226 184.687 195.431  1.00  0.00     0.000 C 
BRANCH   4   5
ATOM      5  C   UNL     1     186.297 186.121 194.866  1.00  0.00     0.000 C 
BRANCH   5   6
ATOM      6  C   UNL     1     185.398 187.149 195.582  1.00  0.00     0.000 C 
BRANCH   6   7
ATOM      7  C   UNL     1     184.625 186.588 196.790  1.00  0.00     0.000 C 
BRANCH   7   8
ATOM      8  C   UNL     1     183.171 187.098 196.876  1.00  0.00     0.000 C 
BRANCH   8   9
ATOM      9  C   UNL     1     182.196 186.014 197.371  1.00  0.00     0.000 C 
BRANCH   9  10
ATOM     10  C   UNL     1     182.795 184.600 197.286  1.00  0.00     0.000 C 
BRANCH  10  11
ATOM     11  C   UNL     1     181.717 183.503 197.227  1.00  0.00     0.000 C 
BRANCH  11  12
ATOM     12  C   UNL     1     182.312 182.105 196.994  1.00  0.00     0.006 C 
BRANCH  12  13
ATOM     13  C   UNL     1     183.842 182.128 196.888  1.00  0.00     0.053 C 
BRANCH  13  14
ATOM     14  C   UNL     1     184.340 180.862 196.262  1.00  0.00     0.041 C 
ATOM     15  O   UNL     1     183.526 180.019 195.803  1.00  0.00    -0.550 OA
ATOM     16  O   UNL     1     185.702 180.592 196.229  1.00  0.00    -0.550 OA
ENDBRANCH  13  14
ENDBRANCH  12  13
ENDBRANCH  11  12
ENDBRANCH  10  11
ENDBRANCH   9  10
ENDBRANCH   8   9
ENDBRANCH   7   8
ENDBRANCH   6   7
ENDBRANCH   5   6
ENDBRANCH   4   5
ENDBRANCH   3   4
ENDBRANCH   2   3
ENDBRANCH   1   2
BRANCH   1  17
ATOM     17  C   UNL     1     186.314 181.485 192.591  1.00  0.00     0.000 C 
BRANCH  17  18
ATOM     18  C   UNL     1     185.067 180.584 192.515  1.00  0.00     0.000 C 
BRANCH  18  19
ATOM     19  C   UNL     1     183.982 181.088 191.539  1.00  0.00     0.000 C 
BRANCH  19  20
ATOM     20  C   UNL     1     182.623 181.321 192.229  1.00  0.00     0.000 C 
BRANCH  20  21
ATOM     21  C   UNL     1     182.680 182.435 193.295  1.00  0.00     0.000 C 
BRANCH  21  22
ATOM     22  C   UNL     1     181.331 183.139 193.539  1.00  0.00    -0.000 C 
BRANCH  22  23
ATOM     23  C   UNL     1     181.392 184.675 193.574  1.00  0.00    -0.000 C 
BRANCH  23  24
ATOM     24  C   UNL     1     182.827 185.210 193.736  1.00  0.00    -0.000 C 
BRANCH  24  25
ATOM     25  C   UNL     1     183.218 186.220 192.640  1.00  0.00    -0.000 C 
BRANCH  25  26
ATOM     26  C   UNL     1     182.647 185.916 191.243  1.00  0.00    -0.000 C 
BRANCH  26  27
ATOM     27  C   UNL     1     183.464 184.865 190.474  1.00  0.00    -0.000 C 
BRANCH  27  28
ATOM     28  C   UNL     1     182.549 183.962 189.630  1.00  0.00    -0.000 C 
BRANCH  28  29
ATOM     29  C   UNL     1     181.062 184.319 189.784  1.00  0.00    -0.003 C 
ATOM     30  C   UNL     1     180.177 183.093 190.015  1.00  0.00     0.004 C 
ENDBRANCH  28  29
ENDBRANCH  27  28
ENDBRANCH  26  27
ENDBRANCH  25  26
ENDBRANCH  24  25
ENDBRANCH  23  24
ENDBRANCH  22  23
ENDBRANCH  21  22
ENDBRANCH  20  21
ENDBRANCH  19  20
ENDBRANCH  18  19
ENDBRANCH  17  18
ENDBRANCH   1  17
TORSDOF 26
ENDMDL
MODEL 3
REMARK VINA RESULT:     0.128      9.382     12.112
REMARK INTER + INTRA:          -6.859
REMARK INTER:                   0.000
REMARK INTRA:                  -6.859
REMARK UNBOUND:                -7.183
REMARK SMILES CCCCCCCCCCCCCCCCCCCCCCCCCCCC(=O)[O-]
REMARK SMILES IDX 15 1 16 2 17 3 18 4 19 5 20 6 21 7 22 8 23 9 24 10 25 11
REMARK SMILES IDX 26 12 27 13 28 14 29 15 30 16 14 17 13 18 12 19 11 20 10 21
REMARK SMILES IDX 9 22 8 23 7 24 6 25 5 26 4 27 3 28 2 29 1 30
REMARK H PARENT
REMARK Flexibility Score: inf
ROOT
ATOM      1  C   UNL     1     180.423 183.142 197.772  1.00  0.00     0.000 C 
ENDROOT
BRANCH   1   2
ATOM      2  C   UNL     1     179.911 184.469 198.363  1.00  0.00     0.000 C 
BRANCH   2   3
ATOM      3  C   UNL     1     181.048 185.358 198.899  1.00  0.00     0.000 C 
BRANCH   3   4
ATOM      4  C   UNL     1     181.530 186.455 197.926  1.00  0.00     0.000 C 
BRANCH   4   5
ATOM      5  C   UNL     1     183.033 186.415 197.575  1.00  0.00     0.000 C 
BRANCH   5   6
ATOM      6  C   UNL     1     183.641 185.003 197.473  1.00  0.00     0.000 C 
BRANCH   6   7
ATOM      7  C   UNL     1     184.971 184.825 198.229  1.00  0.00     0.000 C 
BRANCH   7   8
ATOM      8  C   UNL     1     184.835 183.991 199.521  1.00  0.00     0.000 C 
BRANCH   8   9
ATOM      9  C   UNL     1     183.746 182.909 199.410  1.00  0.00     0.000 C 
BRANCH   9  10
ATOM     10  C   UNL     1     184.289 181.580 198.859  1.00  0.00     0.000 C 
BRANCH  10  11
ATOM     11  C   UNL     1     183.463 181.047 197.675  1.00  0.00     0.000 C 
BRANCH  11  12
ATOM     12  C   UNL     1     184.053 181.453 196.315  1.00  0.00     0.006 C 
BRANCH  12  13
ATOM     13  C   UNL     1     185.582 181.584 196.354  1.00  0.00     0.053 C 
BRANCH  13  14
ATOM     14  C   UNL     1     186.178 181.102 195.068  1.00  0.00     0.041 C 
ATOM     15  O   UNL     1     187.426 180.970 194.959  1.00  0.00    -0.550 OA
ATOM     16  O   UNL     1     185.360 180.843 193.976  1.00  0.00    -0.550 OA
ENDBRANCH  13  14
ENDBRANCH  12  13
ENDBRANCH  11  12
ENDBRANCH  10  11
ENDBRANCH   9  10
ENDBRANCH   8   9
ENDBRANCH   7   8
ENDBRANCH   6   7
ENDBRANCH   5   6
ENDBRANCH   4   5
ENDBRANCH   3   4
ENDBRANCH   2   3
ENDBRANCH   1   2
BRANCH   1  17
ATOM     17  C   UNL     1     180.046 182.962 196.292  1.00  0.00     0.000 C 
BRANCH  17  18
ATOM     18  C   UNL     1     181.125 183.386 195.278  1.00  0.00     0.000 C 
BRANCH  18  19
ATOM     19  C   UNL     1     180.909 184.792 194.676  1.00  0.00     0.000 C 
BRANCH  19  20
ATOM     20  C   UNL     1     182.188 185.369 194.038  1.00  0.00     0.000 C 
BRANCH  20  21
ATOM     21  C   UNL     1     183.163 184.272 193.561  1.00  0.00     0.000 C 
BRANCH  21  22
ATOM     22  C   UNL     1     184.589 184.411 194.128  1.00  0.00    -0.000 C 
BRANCH  22  23
ATOM     23  C   UNL     1     185.719 184.273 193.094  1.00  0.00    -0.000 C 
BRANCH  23  24
ATOM     24  C   UNL     1     187.097 184.655 193.665  1.00  0.00    -0.000 C 
BRANCH  24  25
ATOM     25  C   UNL     1     187.109 184.728 195.204  1.00  0.00    -0.000 C 
BRANCH  25  26
ATOM     26  C   UNL     1     187.595 186.068 195.788  1.00  0.00    -0.000 C 
BRANCH  26  27
ATOM     27  C   UNL     1     187.063 187.288 195.019  1.00  0.00    -0.000 C 
BRANCH  27  28
ATOM     28  C   UNL     1     185.771 187.824 195.657  1.00  0.00    -0.000 C 
BRANCH  28  29
ATOM     29  C   UNL     1     184.667 188.090 194.622  1.00  0.00    -0.003 C 
ATOM     30  C   UNL     1     185.166 187.989 193.180  1.00  0.00     0.004 C 
ENDBRANCH  28  29
ENDBRANCH  27  28
ENDBRANCH  26  27
ENDBRANCH  25  26
ENDBRANCH  24  25
ENDBRANCH  23  24
ENDBRANCH  22  23
ENDBRANCH  21  22
ENDBRANCH  20  21
ENDBRANCH  19  20
ENDBRANCH  18  19
ENDBRANCH  17  18
ENDBRANCH   1  17
TORSDOF 26
ENDMDL
MODEL 4
REMARK VINA RESULT:     0.134      4.694      7.890
REMARK INTER + INTRA:          -6.844
REMARK INTER:                   0.000
REMARK INTRA:                  -6.844
REMARK UNBOUND:                -7.183
REMARK SMILES CCCCCCCCCCCCCCCCCCCCCCCCCCCC(=O)[O-]
REMARK SMILES IDX 15 1 16 2 17 3 18 4 19 5 20 6 21 7 22 8 23 9 24 10 25 11
REMARK SMILES IDX 26 12 27 13 28 14 29 15 30 16 14 17 13 18 12 19 11 20 10 21
REMARK SMILES IDX 9 22 8 23 7 24 6 25 5 26 4 27 3 28 2 29 1 30
REMARK H PARENT
REMARK Flexibility Score: inf
ROOT
ATOM      1  C   UNL     1     179.506 188.299 190.588  1.00  0.00     0.000 C 
ENDROOT
BRANCH   1   2
ATOM      2  C   UNL     1     180.509 187.528 189.710  1.00  0.00     0.000 C 
BRANCH   2   3
ATOM      3  C   UNL     1     180.118 186.051 189.520  1.00  0.00     0.000 C 
BRANCH   3   4
ATOM      4  C   UNL     1     181.258 185.039 189.767  1.00  0.00     0.000 C 
BRANCH   4   5
ATOM      5  C   UNL     1     182.019 184.577 188.506  1.00  0.00     0.000 C 
BRANCH   5   6
ATOM      6  C   UNL     1     183.546 184.777 188.556  1.00  0.00     0.000 C 
BRANCH   6   7
ATOM      7  C   UNL     1     184.022 186.168 188.098  1.00  0.00     0.000 C 
BRANCH   7   8
ATOM      8  C   UNL     1     184.832 186.923 189.174  1.00  0.00     0.000 C 
BRANCH   8   9
ATOM      9  C   UNL     1     184.171 188.251 189.582  1.00  0.00     0.000 C 
BRANCH   9  10
ATOM     10  C   UNL     1     184.046 188.403 191.107  1.00  0.00     0.000 C 
BRANCH  10  11
ATOM     11  C   UNL     1     183.588 187.105 191.797  1.00  0.00     0.000 C 
BRANCH  11  12
ATOM     12  C   UNL     1     182.454 187.343 192.807  1.00  0.00     0.006 C 
BRANCH  12  13
ATOM     13  C   UNL     1     181.811 186.035 193.286  1.00  0.00     0.053 C 
BRANCH  13  14
ATOM     14  C   UNL     1     180.329 186.200 193.416  1.00  0.00     0.041 C 
ATOM     15  O   UNL     1     179.853 187.194 194.024  1.00  0.00    -0.550 OA
ATOM     16  O   UNL     1     179.474 185.231 192.906  1.00  0.00    -0.550 OA
ENDBRANCH  13  14
ENDBRANCH  12  13
ENDBRANCH  11  12
ENDBRANCH  10  11
ENDBRANCH   9  10
ENDBRANCH   8   9
ENDBRANCH   7   8
ENDBRANCH   6   7
ENDBRANCH   5   6
ENDBRANCH   4   5
ENDBRANCH   3   4
ENDBRANCH   2   3
ENDBRANCH   1   2
BRANCH   1  17
ATOM     17  C   UNL     1     180.035 189.672 191.035  1.00  0.00     0.000 C 
BRANCH  17  18
ATOM     18  C   UNL     1     181.105 190.298 190.120  1.00  0.00     0.000 C 
BRANCH  18  19
ATOM     19  C   UNL     1     180.599 191.489 189.278  1.00  0.00     0.000 C 
BRANCH  19  20
ATOM     20  C   UNL     1     179.176 191.934 189.672  1.00  0.00     0.000 C 
BRANCH  20  21
ATOM     21  C   UNL     1     178.156 191.753 188.528  1.00  0.00     0.000 C 
BRANCH  21  22
ATOM     22  C   UNL     1     178.799 191.532 187.145  1.00  0.00    -0.000 C 
BRANCH  22  23
ATOM     23  C   UNL     1     178.343 190.262 186.408  1.00  0.00    -0.000 C 
BRANCH  23  24
ATOM     24  C   UNL     1     177.901 189.142 187.369  1.00  0.00    -0.000 C 
BRANCH  24  25
ATOM     25  C   UNL     1     178.226 187.733 186.838  1.00  0.00    -0.000 C 
BRANCH  25  26
ATOM     26  C   UNL     1     179.209 187.696 185.653  1.00  0.00    -0.000 C 
BRANCH  26  27
ATOM     27  C   UNL     1     180.474 186.873 185.945  1.00  0.00    -0.000 C 
BRANCH  27  28
ATOM     28  C   UNL     1     181.743 187.718 185.746  1.00  0.00    -0.000 C 
BRANCH  28  29
ATOM     29  C   UNL     1     181.825 188.900 186.726  1.00  0.00    -0.003 C 
ATOM     30  C   UNL     1     182.122 190.230 186.031  1.00  0.00     0.004 C 
ENDBRANCH  28  29
ENDBRANCH  27  28
ENDBRANCH  26  27
ENDBRANCH  25  26
ENDBRANCH  24  25
ENDBRANCH  23  24
ENDBRANCH  22  23
ENDBRANCH  21  22
ENDBRANCH  20  21
ENDBRANCH  19  20
ENDBRANCH  18  19
ENDBRANCH  17  18
ENDBRANCH   1  17
TORSDOF 26
ENDMDL
MODEL 5
REMARK VINA RESULT:     0.135      7.128     11.104
REMARK INTER + INTRA:          -6.843
REMARK INTER:                   0.000
REMARK INTRA:                  -6.843
REMARK UNBOUND:                -7.183
REMARK SMILES CCCCCCCCCCCCCCCCCCCCCCCCCCCC(=O)[O-]
REMARK SMILES IDX 15 1 16 2 17 3 18 4 19 5 20 6 21 7 22 8 23 9 24 10 25 11
REMARK SMILES IDX 26 12 27 13 28 14 29 15 30 16 14 17 13 18 12 19 11 20 10 21
REMARK SMILES IDX 9 22 8 23 7 24 6 25 5 26 4 27 3 28 2 29 1 30
REMARK H PARENT
REMARK Flexibility Score: inf
ROOT
ATOM      1  C   UNL     1     182.350 192.143 193.063  1.00  0.00     0.000 C 
ENDROOT
BRANCH   1   2
ATOM      2  C   UNL     1     181.169 193.024 192.613  1.00  0.00     0.000 C 
BRANCH   2   3
ATOM      3  C   UNL     1     180.592 192.593 191.253  1.00  0.00     0.000 C 
BRANCH   3   4
ATOM      4  C   UNL     1     179.164 193.104 190.960  1.00  0.00     0.000 C 
BRANCH   4   5
ATOM      5  C   UNL     1     178.395 192.330 189.869  1.00  0.00     0.000 C 
BRANCH   5   6
ATOM      6  C   UNL     1     177.299 191.381 190.393  1.00  0.00     0.000 C 
BRANCH   6   7
ATOM      7  C   UNL     1     177.504 189.902 190.020  1.00  0.00     0.000 C 
BRANCH   7   8
ATOM      8  C   UNL     1     178.958 189.564 189.629  1.00  0.00     0.000 C 
BRANCH   8   9
ATOM      9  C   UNL     1     179.310 188.089 189.888  1.00  0.00     0.000 C 
BRANCH   9  10
ATOM     10  C   UNL     1     178.091 187.261 190.330  1.00  0.00     0.000 C 
BRANCH  10  11
ATOM     11  C   UNL     1     178.374 186.409 191.579  1.00  0.00     0.000 C 
BRANCH  11  12
ATOM     12  C   UNL     1     177.373 186.676 192.714  1.00  0.00     0.006 C 
BRANCH  12  13
ATOM     13  C   UNL     1     175.966 186.996 192.192  1.00  0.00     0.053 C 
BRANCH  13  14
ATOM     14  C   UNL     1     175.323 188.049 193.041  1.00  0.00     0.041 C 
ATOM     15  O   UNL     1     174.970 187.784 194.220  1.00  0.00    -0.550 OA
ATOM     16  O   UNL     1     175.071 189.309 192.514  1.00  0.00    -0.550 OA
ENDBRANCH  13  14
ENDBRANCH  12  13
ENDBRANCH  11  12
ENDBRANCH  10  11
ENDBRANCH   9  10
ENDBRANCH   8   9
ENDBRANCH   7   8
ENDBRANCH   6   7
ENDBRANCH   5   6
ENDBRANCH   4   5
ENDBRANCH   3   4
ENDBRANCH   2   3
ENDBRANCH   1   2
BRANCH   1  17
ATOM     17  C   UNL     1     182.373 191.906 194.582  1.00  0.00     0.000 C 
BRANCH  17  18
ATOM     18  C   UNL     1     181.244 192.590 195.376  1.00  0.00     0.000 C 
BRANCH  18  19
ATOM     19  C   UNL     1     180.593 191.692 196.450  1.00  0.00     0.000 C 
BRANCH  19  20
ATOM     20  C   UNL     1     179.057 191.642 196.331  1.00  0.00     0.000 C 
BRANCH  20  21
ATOM     21  C   UNL     1     178.524 192.461 195.136  1.00  0.00     0.000 C 
BRANCH  21  22
ATOM     22  C   UNL     1     177.842 191.610 194.048  1.00  0.00    -0.000 C 
BRANCH  22  23
ATOM     23  C   UNL     1     178.186 190.112 194.078  1.00  0.00    -0.000 C 
BRANCH  23  24
ATOM     24  C   UNL     1     179.401 189.762 193.200  1.00  0.00    -0.000 C 
BRANCH  24  25
ATOM     25  C   UNL     1     180.410 188.841 193.912  1.00  0.00    -0.000 C 
BRANCH  25  26
ATOM     26  C   UNL     1     181.391 188.107 192.978  1.00  0.00    -0.000 C 
BRANCH  26  27
ATOM     27  C   UNL     1     182.865 188.381 193.317  1.00  0.00    -0.000 C 
BRANCH  27  28
ATOM     28  C   UNL     1     183.638 188.858 192.076  1.00  0.00    -0.000 C 
BRANCH  28  29
ATOM     29  C   UNL     1     182.798 188.782 190.791  1.00  0.00    -0.003 C 
ATOM     30  C   UNL     1     182.863 190.065 189.961  1.00  0.00     0.004 C 
ENDBRANCH  28  29
ENDBRANCH  27  28
ENDBRANCH  26  27
ENDBRANCH  25  26
ENDBRANCH  24  25
ENDBRANCH  23  24
ENDBRANCH  22  23
ENDBRANCH  21  22
ENDBRANCH  20  21
ENDBRANCH  19  20
ENDBRANCH  18  19
ENDBRANCH  17  18
ENDBRANCH   1  17
TORSDOF 26
ENDMDL
MODEL 6
REMARK VINA RESULT:     0.145      6.773     10.324
REMARK INTER + INTRA:          -6.818
REMARK INTER:                   0.000
REMARK INTRA:                  -6.818
REMARK UNBOUND:                -7.183
REMARK SMILES CCCCCCCCCCCCCCCCCCCCCCCCCCCC(=O)[O-]
REMARK SMILES IDX 15 1 16 2 17 3 18 4 19 5 20 6 21 7 22 8 23 9 24 10 25 11
REMARK SMILES IDX 26 12 27 13 28 14 29 15 30 16 14 17 13 18 12 19 11 20 10 21
REMARK SMILES IDX 9 22 8 23 7 24 6 25 5 26 4 27 3 28 2 29 1 30
REMARK H PARENT
REMARK Flexibility Score: inf
ROOT
ATOM      1  C   UNL     1     182.400 188.964 190.911  1.00  0.00     0.000 C 
ENDROOT
BRANCH   1   2
ATOM      2  C   UNL     1     181.469 189.579 191.973  1.00  0.00     0.000 C 
BRANCH   2   3
ATOM      3  C   UNL     1     182.239 190.328 193.075  1.00  0.00     0.000 C 
BRANCH   3   4
ATOM      4  C   UNL     1     183.504 189.608 193.590  1.00  0.00     0.000 C 
BRANCH   4   5
ATOM      5  C   UNL     1     184.725 190.515 193.848  1.00  0.00     0.000 C 
BRANCH   5   6
ATOM      6  C   UNL     1     186.050 190.010 193.245  1.00  0.00     0.000 C 
BRANCH   6   7
ATOM      7  C   UNL     1     185.889 188.910 192.180  1.00  0.00     0.000 C 
BRANCH   7   8
ATOM      8  C   UNL     1     186.067 189.424 190.736  1.00  0.00     0.000 C 
BRANCH   8   9
ATOM      9  C   UNL     1     186.731 190.811 190.683  1.00  0.00     0.000 C 
BRANCH   9  10
ATOM     10  C   UNL     1     185.910 191.827 189.872  1.00  0.00     0.000 C 
BRANCH  10  11
ATOM     11  C   UNL     1     184.478 191.997 190.410  1.00  0.00     0.000 C 
BRANCH  11  12
ATOM     12  C   UNL     1     183.548 192.692 189.403  1.00  0.00     0.006 C 
BRANCH  12  13
ATOM     13  C   UNL     1     182.065 192.516 189.755  1.00  0.00     0.053 C 
BRANCH  13  14
ATOM     14  C   UNL     1     181.658 193.504 190.804  1.00  0.00     0.041 C 
ATOM     15  O   UNL     1     180.787 193.197 191.660  1.00  0.00    -0.550 OA
ATOM     16  O   UNL     1     182.207 194.780 190.808  1.00  0.00    -0.550 OA
ENDBRANCH  13  14
ENDBRANCH  12  13
ENDBRANCH  11  12
ENDBRANCH  10  11
ENDBRANCH   9  10
ENDBRANCH   8   9
ENDBRANCH   7   8
ENDBRANCH   6   7
ENDBRANCH   5   6
ENDBRANCH   4   5
ENDBRANCH   3   4
ENDBRANCH   2   3
ENDBRANCH   1   2
BRANCH   1  17
ATOM     17  C   UNL     1     182.260 187.436 190.806  1.00  0.00     0.000 C 
BRANCH  17  18
ATOM     18  C   UNL     1     183.515 186.689 190.319  1.00  0.00     0.000 C 
BRANCH  18  19
ATOM     19  C   UNL     1     183.307 185.886 189.016  1.00  0.00     0.000 C 
BRANCH  19  20
ATOM     20  C   UNL     1     184.600 185.751 188.188  1.00  0.00     0.000 C 
BRANCH  20  21
ATOM     21  C   UNL     1     185.862 186.145 188.984  1.00  0.00     0.000 C 
BRANCH  21  22
ATOM     22  C   UNL     1     186.882 186.968 188.175  1.00  0.00    -0.000 C 
BRANCH  22  23
ATOM     23  C   UNL     1     186.318 187.659 186.922  1.00  0.00    -0.000 C 
BRANCH  23  24
ATOM     24  C   UNL     1     186.434 189.193 186.985  1.00  0.00    -0.000 C 
BRANCH  24  25
ATOM     25  C   UNL     1     185.079 189.904 186.809  1.00  0.00    -0.000 C 
BRANCH  25  26
ATOM     26  C   UNL     1     183.952 189.393 187.726  1.00  0.00    -0.000 C 
BRANCH  26  27
ATOM     27  C   UNL     1     182.547 189.681 187.173  1.00  0.00    -0.000 C 
BRANCH  27  28
ATOM     28  C   UNL     1     181.747 188.381 186.991  1.00  0.00    -0.000 C 
BRANCH  28  29
ATOM     29  C   UNL     1     180.366 188.438 187.663  1.00  0.00    -0.003 C 
ATOM     30  C   UNL     1     180.030 189.824 188.216  1.00  0.00     0.004 C 
ENDBRANCH  28  29
ENDBRANCH  27  28
ENDBRANCH  26  27
ENDBRANCH  25  26
ENDBRANCH  24  25
ENDBRANCH  23  24
ENDBRANCH  22  23
ENDBRANCH  21  22
ENDBRANCH  20  21
ENDBRANCH  19  20
ENDBRANCH  18  19
ENDBRANCH  17  18
ENDBRANCH   1  17
TORSDOF 26
ENDMDL
MODEL 7
REMARK VINA RESULT:     0.148      7.544     11.215
REMARK INTER + INTRA:          -6.810
REMARK INTER:                   0.000
REMARK INTRA:                  -6.810
REMARK UNBOUND:                -7.183
REMARK SMILES CCCCCCCCCCCCCCCCCCCCCCCCCCCC(=O)[O-]
REMARK SMILES IDX 15 1 16 2 17 3 18 4 19 5 20 6 21 7 22 8 23 9 24 10 25 11
REMARK SMILES IDX 26 12 27 13 28 14 29 15 30 16 14 17 13 18 12 19 11 20 10 21
REMARK SMILES IDX 9 22 8 23 7 24 6 25 5 26 4 27 3 28 2 29 1 30
REMARK H PARENT
REMARK Flexibility Score: inf
ROOT
ATOM      1  C   UNL     1     179.488 186.734 192.134  1.00  0.00     0.000 C 
ENDROOT
BRANCH   1   2
ATOM      2  C   UNL     1     180.261 185.618 191.409  1.00  0.00     0.000 C 
BRANCH   2   3
ATOM      3  C   UNL     1     181.449 186.154 190.590  1.00  0.00     0.000 C 
BRANCH   3   4
ATOM      4  C   UNL     1     182.842 185.835 191.177  1.00  0.00     0.000 C 
BRANCH   4   5
ATOM      5  C   UNL     1     183.854 187.000 191.153  1.00  0.00     0.000 C 
BRANCH   5   6
ATOM      6  C   UNL     1     183.543 188.112 190.131  1.00  0.00     0.000 C 
BRANCH   6   7
ATOM      7  C   UNL     1     183.952 189.526 190.584  1.00  0.00     0.000 C 
BRANCH   7   8
ATOM      8  C   UNL     1     182.796 190.547 190.522  1.00  0.00     0.000 C 
BRANCH   8   9
ATOM      9  C   UNL     1     183.099 191.826 191.321  1.00  0.00     0.000 C 
BRANCH   9  10
ATOM     10  C   UNL     1     181.914 192.272 192.193  1.00  0.00     0.000 C 
BRANCH  10  11
ATOM     11  C   UNL     1     182.355 192.797 193.571  1.00  0.00     0.000 C 
BRANCH  11  12
ATOM     12  C   UNL     1     181.227 192.742 194.612  1.00  0.00     0.006 C 
BRANCH  12  13
ATOM     13  C   UNL     1     181.753 192.813 196.052  1.00  0.00     0.053 C 
BRANCH  13  14
ATOM     14  C   UNL     1     180.810 192.119 196.985  1.00  0.00     0.041 C 
ATOM     15  O   UNL     1     181.251 191.327 197.859  1.00  0.00    -0.550 OA
ATOM     16  O   UNL     1     179.440 192.310 196.859  1.00  0.00    -0.550 OA
ENDBRANCH  13  14
ENDBRANCH  12  13
ENDBRANCH  11  12
ENDBRANCH  10  11
ENDBRANCH   9  10
ENDBRANCH   8   9
ENDBRANCH   7   8
ENDBRANCH   6   7
ENDBRANCH   5   6
ENDBRANCH   4   5
ENDBRANCH   3   4
ENDBRANCH   2   3
ENDBRANCH   1   2
BRANCH   1  17
ATOM     17  C   UNL     1     180.002 188.141 191.785  1.00  0.00     0.000 C 
BRANCH  17  18
ATOM     18  C   UNL     1     180.386 189.023 192.988  1.00  0.00     0.000 C 
BRANCH  18  19
ATOM     19  C   UNL     1     181.790 188.734 193.561  1.00  0.00     0.000 C 
BRANCH  19  20
ATOM     20  C   UNL     1     181.933 189.168 195.033  1.00  0.00     0.000 C 
BRANCH  20  21
ATOM     21  C   UNL     1     183.391 189.489 195.422  1.00  0.00     0.000 C 
BRANCH  21  22
ATOM     22  C   UNL     1     184.319 189.746 194.219  1.00  0.00    -0.000 C 
BRANCH  22  23
ATOM     23  C   UNL     1     185.484 188.754 194.069  1.00  0.00    -0.000 C 
BRANCH  23  24
ATOM     24  C   UNL     1     185.371 187.553 195.026  1.00  0.00    -0.000 C 
BRANCH  24  25
ATOM     25  C   UNL     1     185.612 186.202 194.325  1.00  0.00    -0.000 C 
BRANCH  25  26
ATOM     26  C   UNL     1     184.470 185.179 194.474  1.00  0.00    -0.000 C 
BRANCH  26  27
ATOM     27  C   UNL     1     183.289 185.711 195.302  1.00  0.00    -0.000 C 
BRANCH  27  28
ATOM     28  C   UNL     1     181.946 185.294 194.681  1.00  0.00    -0.000 C 
BRANCH  28  29
ATOM     29  C   UNL     1     180.747 185.645 195.576  1.00  0.00    -0.003 C 
ATOM     30  C   UNL     1     181.163 186.146 196.960  1.00  0.00     0.004 C 
ENDBRANCH  28  29
ENDBRANCH  27  28
ENDBRANCH  26  27
ENDBRANCH  25  26
ENDBRANCH  24  25
ENDBRANCH  23  24
ENDBRANCH  22  23
ENDBRANCH  21  22
ENDBRANCH  20  21
ENDBRANCH  19  20
ENDBRANCH  18  19
ENDBRANCH  17  18
ENDBRANCH   1  17
TORSDOF 26
ENDMDL
MODEL 8
REMARK VINA RESULT:     0.160      5.212      7.954
REMARK INTER + INTRA:          -6.780
REMARK INTER:                   0.000
REMARK INTRA:                  -6.780
REMARK UNBOUND:                -7.183
REMARK SMILES CCCCCCCCCCCCCCCCCCCCCCCCCCCC(=O)[O-]
REMARK SMILES IDX 15 1 16 2 17 3 18 4 19 5 20 6 21 7 22 8 23 9 24 10 25 11
REMARK SMILES IDX 26 12 27 13 28 14 29 15 30 16 14 17 13 18 12 19 11 20 10 21
REMARK SMILES IDX 9 22 8 23 7 24 6 25 5 26 4 27 3 28 2 29 1 30
REMARK H PARENT
REMARK Flexibility Score: inf
ROOT
ATOM      1  C   UNL     1     181.815 184.162 190.943  1.00  0.00     0.000 C 
ENDROOT
BRANCH   1   2
ATOM      2  C   UNL     1     180.418 183.937 191.549  1.00  0.00     0.000 C 
BRANCH   2   3
ATOM      3  C   UNL     1     180.414 184.037 193.085  1.00  0.00     0.000 C 
BRANCH   3   4
ATOM      4  C   UNL     1     181.812 184.040 193.741  1.00  0.00     0.000 C 
BRANCH   4   5
ATOM      5  C   UNL     1     182.079 185.197 194.727  1.00  0.00     0.000 C 
BRANCH   5   6
ATOM      6  C   UNL     1     183.001 186.310 194.191  1.00  0.00     0.000 C 
BRANCH   6   7
ATOM      7  C   UNL     1     184.261 185.801 193.467  1.00  0.00     0.000 C 
BRANCH   7   8
ATOM      8  C   UNL     1     184.459 186.427 192.070  1.00  0.00     0.000 C 
BRANCH   8   9
ATOM      9  C   UNL     1     185.382 185.583 191.174  1.00  0.00     0.000 C 
BRANCH   9  10
ATOM     10  C   UNL     1     185.464 184.116 191.627  1.00  0.00     0.000 C 
BRANCH  10  11
ATOM     11  C   UNL     1     185.631 183.140 190.449  1.00  0.00     0.000 C 
BRANCH  11  12
ATOM     12  C   UNL     1     184.866 181.824 190.660  1.00  0.00     0.006 C 
BRANCH  12  13
ATOM     13  C   UNL     1     184.256 181.718 192.064  1.00  0.00     0.053 C 
BRANCH  13  14
ATOM     14  C   UNL     1     183.294 180.574 192.129  1.00  0.00     0.041 C 
ATOM     15  O   UNL     1     183.707 179.390 192.013  1.00  0.00    -0.550 OA
ATOM     16  O   UNL     1     181.933 180.817 192.271  1.00  0.00    -0.550 OA
ENDBRANCH  13  14
ENDBRANCH  12  13
ENDBRANCH  11  12
ENDBRANCH  10  11
ENDBRANCH   9  10
ENDBRANCH   8   9
ENDBRANCH   7   8
ENDBRANCH   6   7
ENDBRANCH   5   6
ENDBRANCH   4   5
ENDBRANCH   3   4
ENDBRANCH   2   3
ENDBRANCH   1   2
BRANCH   1  17
ATOM     17  C   UNL     1     181.892 183.772 189.458  1.00  0.00     0.000 C 
BRANCH  17  18
ATOM     18  C   UNL     1     182.812 184.651 188.589  1.00  0.00     0.000 C 
BRANCH  18  19
ATOM     19  C   UNL     1     182.620 186.169 188.801  1.00  0.00     0.000 C 
BRANCH  19  20
ATOM     20  C   UNL     1     181.684 186.801 187.752  1.00  0.00     0.000 C 
BRANCH  20  21
ATOM     21  C   UNL     1     180.557 187.643 188.388  1.00  0.00     0.000 C 
BRANCH  21  22
ATOM     22  C   UNL     1     179.737 186.889 189.452  1.00  0.00    -0.000 C 
BRANCH  22  23
ATOM     23  C   UNL     1     179.554 187.634 190.784  1.00  0.00    -0.000 C 
BRANCH  23  24
ATOM     24  C   UNL     1     180.837 187.658 191.634  1.00  0.00    -0.000 C 
BRANCH  24  25
ATOM     25  C   UNL     1     181.306 189.086 191.974  1.00  0.00    -0.000 C 
BRANCH  25  26
ATOM     26  C   UNL     1     182.640 189.503 191.328  1.00  0.00    -0.000 C 
BRANCH  26  27
ATOM     27  C   UNL     1     182.457 190.280 190.014  1.00  0.00    -0.000 C 
BRANCH  27  28
ATOM     28  C   UNL     1     183.528 189.886 188.985  1.00  0.00    -0.000 C 
BRANCH  28  29
ATOM     29  C   UNL     1     184.720 189.155 189.623  1.00  0.00    -0.003 C 
ATOM     30  C   UNL     1     185.548 188.366 188.607  1.00  0.00     0.004 C 
ENDBRANCH  28  29
ENDBRANCH  27  28
ENDBRANCH  26  27
ENDBRANCH  25  26
ENDBRANCH  24  25
ENDBRANCH  23  24
ENDBRANCH  22  23
ENDBRANCH  21  22
ENDBRANCH  20  21
ENDBRANCH  19  20
ENDBRANCH  18  19
ENDBRANCH  17  18
ENDBRANCH   1  17
TORSDOF 26
ENDMDL
MODEL 9
REMARK VINA RESULT:     0.166      4.702      8.601
REMARK INTER + INTRA:          -6.765
REMARK INTER:                   0.000
REMARK INTRA:                  -6.765
REMARK UNBOUND:                -7.183
REMARK SMILES CCCCCCCCCCCCCCCCCCCCCCCCCCCC(=O)[O-]
REMARK SMILES IDX 15 1 16 2 17 3 18 4 19 5 20 6 21 7 22 8 23 9 24 10 25 11
REMARK SMILES IDX 26 12 27 13 28 14 29 15 30 16 14 17 13 18 12 19 11 20 10 21
REMARK SMILES IDX 9 22 8 23 7 24 6 25 5 26 4 27 3 28 2 29 1 30
REMARK H PARENT
REMARK Flexibility Score: inf
ROOT
ATOM      1  C   UNL     1     177.695 183.781 192.936  1.00  0.00     0.000 C 
ENDROOT
BRANCH   1   2
ATOM      2  C   UNL     1     177.324 183.564 191.458  1.00  0.00     0.000 C 
BRANCH   2   3
ATOM      3  C   UNL     1     177.490 184.839 190.611  1.00  0.00     0.000 C 
BRANCH   3   4
ATOM      4  C   UNL     1     178.031 184.606 189.184  1.00  0.00     0.000 C 
BRANCH   4   5
ATOM      5  C   UNL     1     178.700 185.829 188.521  1.00  0.00     0.000 C 
BRANCH   5   6
ATOM      6  C   UNL     1     178.159 187.197 188.982  1.00  0.00     0.000 C 
BRANCH   6   7
ATOM      7  C   UNL     1     179.221 188.130 189.593  1.00  0.00     0.000 C 
BRANCH   7   8
ATOM      8  C   UNL     1     179.752 187.644 190.958  1.00  0.00     0.000 C 
BRANCH   8   9
ATOM      9  C   UNL     1     181.261 187.895 191.124  1.00  0.00     0.000 C 
BRANCH   9  10
ATOM     10  C   UNL     1     182.029 186.624 191.523  1.00  0.00     0.000 C 
BRANCH  10  11
ATOM     11  C   UNL     1     181.451 185.353 190.875  1.00  0.00     0.000 C 
BRANCH  11  12
ATOM     12  C   UNL     1     181.690 184.096 191.726  1.00  0.00     0.006 C 
BRANCH  12  13
ATOM     13  C   UNL     1     180.949 182.868 191.181  1.00  0.00     0.053 C 
BRANCH  13  14
ATOM     14  C   UNL     1     181.004 181.745 192.169  1.00  0.00     0.041 C 
ATOM     15  O   UNL     1     181.263 180.574 191.785  1.00  0.00    -0.550 OA
ATOM     16  O   UNL     1     180.724 181.983 193.509  1.00  0.00    -0.550 OA
ENDBRANCH  13  14
ENDBRANCH  12  13
ENDBRANCH  11  12
ENDBRANCH  10  11
ENDBRANCH   9  10
ENDBRANCH   8   9
ENDBRANCH   7   8
ENDBRANCH   6   7
ENDBRANCH   5   6
ENDBRANCH   4   5
ENDBRANCH   3   4
ENDBRANCH   2   3
ENDBRANCH   1   2
BRANCH   1  17
ATOM     17  C   UNL     1     178.511 185.065 193.165  1.00  0.00     0.000 C 
BRANCH  17  18
ATOM     18  C   UNL     1     179.304 185.118 194.485  1.00  0.00     0.000 C 
BRANCH  18  19
ATOM     19  C   UNL     1     179.160 186.448 195.256  1.00  0.00     0.000 C 
BRANCH  19  20
ATOM     20  C   UNL     1     179.881 187.620 194.561  1.00  0.00     0.000 C 
BRANCH  20  21
ATOM     21  C   UNL     1     179.181 188.975 194.796  1.00  0.00     0.000 C 
BRANCH  21  22
ATOM     22  C   UNL     1     179.619 190.084 193.821  1.00  0.00    -0.000 C 
BRANCH  22  23
ATOM     23  C   UNL     1     178.533 190.563 192.844  1.00  0.00    -0.000 C 
BRANCH  23  24
ATOM     24  C   UNL     1     177.143 189.986 193.171  1.00  0.00    -0.000 C 
BRANCH  24  25
ATOM     25  C   UNL     1     176.579 189.103 192.041  1.00  0.00    -0.000 C 
BRANCH  25  26
ATOM     26  C   UNL     1     176.097 187.710 192.484  1.00  0.00    -0.000 C 
BRANCH  26  27
ATOM     27  C   UNL     1     175.822 187.619 193.994  1.00  0.00    -0.000 C 
BRANCH  27  28
ATOM     28  C   UNL     1     175.260 186.239 194.372  1.00  0.00    -0.000 C 
BRANCH  28  29
ATOM     29  C   UNL     1     175.552 185.862 195.833  1.00  0.00    -0.003 C 
ATOM     30  C   UNL     1     175.738 184.357 196.034  1.00  0.00     0.004 C 
ENDBRANCH  28  29
ENDBRANCH  27  28
ENDBRANCH  26  27
ENDBRANCH  25  26
ENDBRANCH  24  25
ENDBRANCH  23  24
ENDBRANCH  22  23
ENDBRANCH  21  22
ENDBRANCH  20  21
ENDBRANCH  19  20
ENDBRANCH  18  19
ENDBRANCH  17  18
ENDBRANCH   1  17
TORSDOF 26
ENDMDL
