MODEL 1
REMARK VINA RESULT:    -3.908      0.000      0.000
REMARK INTER + INTRA:          -4.468
REMARK INTER:                  -4.250
REMARK INTRA:                  -0.217
REMARK UNBOUND:                -0.217
REMARK SMILES O=C([O-])c1ccccc1O
REMARK SMILES IDX 4 1 9 2 5 3 8 4 6 5 7 6 2 7 1 8 3 9 10 10
REMARK H PARENT 10 11
REMARK Flexibility Score: inf
ROOT
ATOM      1  C   UNL     1       3.628 -15.540  15.548  1.00  0.00     0.039 A 
ATOM      2  C   UNL     1       4.015 -16.863  15.228  1.00  0.00     0.124 A 
ATOM      3  C   UNL     1       3.640 -15.137  16.898  1.00  0.00     0.014 A 
ATOM      4  C   UNL     1       4.400 -17.746  16.248  1.00  0.00     0.047 A 
ATOM      5  C   UNL     1       4.026 -16.025  17.903  1.00  0.00     0.001 A 
ATOM      6  C   UNL     1       4.406 -17.328  17.580  1.00  0.00     0.004 A 
ENDROOT
BRANCH   1   7
ATOM      7  C   UNL     1       3.212 -14.568  14.504  1.00  0.00     0.075 C 
ATOM      8  O   UNL     1       2.172 -14.753  13.822  1.00  0.00    -0.545 OA
ATOM      9  O   UNL     1       3.973 -13.429  14.265  1.00  0.00    -0.545 OA
ENDBRANCH   1   7
BRANCH   2  10
ATOM     10  O   UNL     1       4.018 -17.306  13.905  1.00  0.00    -0.507 OA
ATOM     11  H   UNL     1       3.262 -17.087  13.268  1.00  0.00     0.293 HD
ENDBRANCH   2  10
TORSDOF 2
ENDMDL
MODEL 2
REMARK VINA RESULT:    -3.811      2.484      3.381
REMARK INTER + INTRA:          -4.363
REMARK INTER:                  -4.116
REMARK INTRA:                  -0.246
REMARK UNBOUND:                -0.217
REMARK SMILES O=C([O-])c1ccccc1O
REMARK SMILES IDX 4 1 9 2 5 3 8 4 6 5 7 6 2 7 1 8 3 9 10 10
REMARK H PARENT 10 11
REMARK Flexibility Score: inf
ROOT
ATOM      1  C   UNL     1       5.674 -16.095  14.737  1.00  0.00     0.039 A 
ATOM      2  C   UNL     1       4.428 -16.652  14.363  1.00  0.00     0.124 A 
ATOM      3  C   UNL     1       5.686 -14.929  15.528  1.00  0.00     0.014 A 
ATOM      4  C   UNL     1       3.235 -16.043  14.779  1.00  0.00     0.047 A 
ATOM      5  C   UNL     1       4.491 -14.332  15.936  1.00  0.00     0.001 A 
ATOM      6  C   UNL     1       3.267 -14.888  15.563  1.00  0.00     0.004 A 
ENDROOT
BRANCH   1   7
ATOM      7  C   UNL     1       6.964 -16.703  14.322  1.00  0.00     0.075 C 
ATOM      8  O   UNL     1       7.222 -17.910  14.565  1.00  0.00    -0.545 OA
ATOM      9  O   UNL     1       7.914 -15.940  13.651  1.00  0.00    -0.545 OA
ENDBRANCH   1   7
BRANCH   2  10
ATOM     10  O   UNL     1       4.368 -17.806  13.580  1.00  0.00    -0.507 OA
ATOM     11  H   UNL     1       3.974 -17.797  12.647  1.00  0.00     0.293 HD
ENDBRANCH   2  10
TORSDOF 2
ENDMDL
MODEL 3
REMARK VINA RESULT:    -3.758     12.622     13.860
REMARK INTER + INTRA:          -4.305
REMARK INTER:                  -4.050
REMARK INTRA:                  -0.255
REMARK UNBOUND:                -0.217
REMARK SMILES O=C([O-])c1ccccc1O
REMARK SMILES IDX 4 1 9 2 5 3 8 4 6 5 7 6 2 7 1 8 3 9 10 10
REMARK H PARENT 10 11
REMARK Flexibility Score: inf
ROOT
ATOM      1  C   UNL     1       1.421 -24.521   5.552  1.00  0.00     0.039 A 
ATOM      2  C   UNL     1       2.595 -23.736   5.633  1.00  0.00     0.124 A 
ATOM      3  C   UNL     1       0.860 -24.775   4.285  1.00  0.00     0.014 A 
ATOM      4  C   UNL     1       3.177 -23.224   4.464  1.00  0.00     0.047 A 
ATOM      5  C   UNL     1       1.450 -24.259   3.128  1.00  0.00     0.001 A 
ATOM      6  C   UNL     1       2.607 -23.485   3.217  1.00  0.00     0.004 A 
ENDROOT
BRANCH   1   7
ATOM      7  C   UNL     1       0.767 -25.086   6.760  1.00  0.00     0.075 C 
ATOM      8  O   UNL     1      -0.477 -25.000   6.926  1.00  0.00    -0.545 OA
ATOM      9  O   UNL     1       1.527 -25.725   7.734  1.00  0.00    -0.545 OA
ENDBRANCH   1   7
BRANCH   2  10
ATOM     10  O   UNL     1       3.185 -23.459   6.867  1.00  0.00    -0.507 OA
ATOM     11  H   UNL     1       2.996 -24.023   7.687  1.00  0.00     0.293 HD
ENDBRANCH   2  10
TORSDOF 2
ENDMDL
MODEL 4
REMARK VINA RESULT:    -3.748      2.249      3.687
REMARK INTER + INTRA:          -4.294
REMARK INTER:                  -4.043
REMARK INTRA:                  -0.251
REMARK UNBOUND:                -0.217
REMARK SMILES O=C([O-])c1ccccc1O
REMARK SMILES IDX 4 1 9 2 5 3 8 4 6 5 7 6 2 7 1 8 3 9 10 10
REMARK H PARENT 10 11
REMARK Flexibility Score: inf
ROOT
ATOM      1  C   UNL     1       5.193 -14.923  14.725  1.00  0.00     0.039 A 
ATOM      2  C   UNL     1       4.245 -13.885  14.555  1.00  0.00     0.124 A 
ATOM      3  C   UNL     1       4.738 -16.203  15.100  1.00  0.00     0.014 A 
ATOM      4  C   UNL     1       2.882 -14.141  14.763  1.00  0.00     0.047 A 
ATOM      5  C   UNL     1       3.377 -16.444  15.304  1.00  0.00     0.001 A 
ATOM      6  C   UNL     1       2.450 -15.415  15.136  1.00  0.00     0.004 A 
ENDROOT
BRANCH   1   7
ATOM      7  C   UNL     1       6.647 -14.703  14.516  1.00  0.00     0.075 C 
ATOM      8  O   UNL     1       7.236 -13.721  15.038  1.00  0.00    -0.545 OA
ATOM      9  O   UNL     1       7.384 -15.586  13.735  1.00  0.00    -0.545 OA
ENDBRANCH   1   7
BRANCH   2  10
ATOM     10  O   UNL     1       4.650 -12.602  14.184  1.00  0.00    -0.507 OA
ATOM     11  H   UNL     1       5.306 -12.448  13.428  1.00  0.00     0.293 HD
ENDBRANCH   2  10
TORSDOF 2
ENDMDL
MODEL 5
REMARK VINA RESULT:    -3.746     13.196     14.247
REMARK INTER + INTRA:          -4.292
REMARK INTER:                  -4.040
REMARK INTRA:                  -0.252
REMARK UNBOUND:                -0.217
REMARK SMILES O=C([O-])c1ccccc1O
REMARK SMILES IDX 4 1 9 2 5 3 8 4 6 5 7 6 2 7 1 8 3 9 10 10
REMARK H PARENT 10 11
REMARK Flexibility Score: inf
ROOT
ATOM      1  C   UNL     1       1.278 -24.647   5.555  1.00  0.00     0.039 A 
ATOM      2  C   UNL     1       0.541 -24.758   4.352  1.00  0.00     0.124 A 
ATOM      3  C   UNL     1       2.529 -24.000   5.528  1.00  0.00     0.014 A 
ATOM      4  C   UNL     1       1.063 -24.230   3.161  1.00  0.00     0.047 A 
ATOM      5  C   UNL     1       3.036 -23.479   4.336  1.00  0.00     0.001 A 
ATOM      6  C   UNL     1       2.305 -23.593   3.154  1.00  0.00     0.004 A 
ENDROOT
BRANCH   1   7
ATOM      7  C   UNL     1       0.769 -25.189   6.841  1.00  0.00     0.075 C 
ATOM      8  O   UNL     1       1.531 -25.798   7.636  1.00  0.00    -0.545 OA
ATOM      9  O   UNL     1      -0.568 -25.029   7.189  1.00  0.00    -0.545 OA
ENDBRANCH   1   7
BRANCH   2  10
ATOM     10  O   UNL     1      -0.702 -25.391   4.331  1.00  0.00    -0.507 OA
ATOM     11  H   UNL     1      -0.929 -26.141   4.973  1.00  0.00     0.293 HD
ENDBRANCH   2  10
TORSDOF 2
ENDMDL
MODEL 6
REMARK VINA RESULT:    -3.703      9.913     11.445
REMARK INTER + INTRA:          -4.245
REMARK INTER:                  -4.001
REMARK INTRA:                  -0.244
REMARK UNBOUND:                -0.217
REMARK SMILES O=C([O-])c1ccccc1O
REMARK SMILES IDX 4 1 9 2 5 3 8 4 6 5 7 6 2 7 1 8 3 9 10 10
REMARK H PARENT 10 11
REMARK Flexibility Score: inf
ROOT
ATOM      1  C   UNL     1      -4.209  -8.717  15.487  1.00  0.00     0.039 A 
ATOM      2  C   UNL     1      -5.020  -7.824  14.748  1.00  0.00     0.124 A 
ATOM      3  C   UNL     1      -4.794  -9.458  16.533  1.00  0.00     0.014 A 
ATOM      4  C   UNL     1      -6.380  -7.688  15.065  1.00  0.00     0.047 A 
ATOM      5  C   UNL     1      -6.149  -9.313  16.838  1.00  0.00     0.001 A 
ATOM      6  C   UNL     1      -6.942  -8.430  16.105  1.00  0.00     0.004 A 
ENDROOT
BRANCH   1   7
ATOM      7  C   UNL     1      -2.765  -8.897  15.191  1.00  0.00     0.075 C 
ATOM      8  O   UNL     1      -2.374  -9.229  14.042  1.00  0.00    -0.545 OA
ATOM      9  O   UNL     1      -1.815  -8.698  16.187  1.00  0.00    -0.545 OA
ENDBRANCH   1   7
BRANCH   2  10
ATOM     10  O   UNL     1      -4.484  -7.069  13.704  1.00  0.00    -0.507 OA
ATOM     11  H   UNL     1      -5.006  -6.322  13.263  1.00  0.00     0.293 HD
ENDBRANCH   2  10
TORSDOF 2
ENDMDL
MODEL 7
REMARK VINA RESULT:    -3.697      1.772      3.466
REMARK INTER + INTRA:          -4.239
REMARK INTER:                  -3.985
REMARK INTRA:                  -0.254
REMARK UNBOUND:                -0.217
REMARK SMILES O=C([O-])c1ccccc1O
REMARK SMILES IDX 4 1 9 2 5 3 8 4 6 5 7 6 2 7 1 8 3 9 10 10
REMARK H PARENT 10 11
REMARK Flexibility Score: inf
ROOT
ATOM      1  C   UNL     1       4.010 -16.195  16.195  1.00  0.00     0.039 A 
ATOM      2  C   UNL     1       3.601 -16.170  14.840  1.00  0.00     0.124 A 
ATOM      3  C   UNL     1       3.535 -15.194  17.066  1.00  0.00     0.014 A 
ATOM      4  C   UNL     1       2.739 -15.159  14.388  1.00  0.00     0.047 A 
ATOM      5  C   UNL     1       2.678 -14.194  16.603  1.00  0.00     0.001 A 
ATOM      6  C   UNL     1       2.280 -14.176  15.266  1.00  0.00     0.004 A 
ENDROOT
BRANCH   1   7
ATOM      7  C   UNL     1       4.920 -17.244  16.722  1.00  0.00     0.075 C 
ATOM      8  O   UNL     1       5.938 -16.941  17.397  1.00  0.00    -0.545 OA
ATOM      9  O   UNL     1       4.658 -18.587  16.476  1.00  0.00    -0.545 OA
ENDBRANCH   1   7
BRANCH   2  10
ATOM     10  O   UNL     1       4.046 -17.140  13.942  1.00  0.00    -0.507 OA
ATOM     11  H   UNL     1       3.788 -17.119  12.963  1.00  0.00     0.293 HD
ENDBRANCH   2  10
TORSDOF 2
ENDMDL
MODEL 8
REMARK VINA RESULT:    -3.685      2.171      3.991
REMARK INTER + INTRA:          -4.225
REMARK INTER:                  -4.009
REMARK INTRA:                  -0.216
REMARK UNBOUND:                -0.217
REMARK SMILES O=C([O-])c1ccccc1O
REMARK SMILES IDX 4 1 9 2 5 3 8 4 6 5 7 6 2 7 1 8 3 9 10 10
REMARK H PARENT 10 11
REMARK Flexibility Score: inf
ROOT
ATOM      1  C   UNL     1       5.216 -18.280  15.578  1.00  0.00     0.039 A 
ATOM      2  C   UNL     1       4.507 -17.540  14.602  1.00  0.00     0.124 A 
ATOM      3  C   UNL     1       5.124 -17.886  16.928  1.00  0.00     0.014 A 
ATOM      4  C   UNL     1       3.733 -16.435  14.987  1.00  0.00     0.047 A 
ATOM      5  C   UNL     1       4.350 -16.783  17.297  1.00  0.00     0.001 A 
ATOM      6  C   UNL     1       3.655 -16.059  16.329  1.00  0.00     0.004 A 
ENDROOT
BRANCH   1   7
ATOM      7  C   UNL     1       6.048 -19.458  15.222  1.00  0.00     0.075 C 
ATOM      8  O   UNL     1       5.807 -20.134  14.188  1.00  0.00    -0.545 OA
ATOM      9  O   UNL     1       7.114 -19.832  16.031  1.00  0.00    -0.545 OA
ENDBRANCH   1   7
BRANCH   2  10
ATOM     10  O   UNL     1       4.569 -17.894  13.254  1.00  0.00    -0.507 OA
ATOM     11  H   UNL     1       5.428 -17.822  12.723  1.00  0.00     0.293 HD
ENDBRANCH   2  10
TORSDOF 2
ENDMDL
MODEL 9
REMARK VINA RESULT:    -3.641      2.417      3.165
REMARK INTER + INTRA:          -4.178
REMARK INTER:                  -3.934
REMARK INTRA:                  -0.244
REMARK UNBOUND:                -0.217
REMARK SMILES O=C([O-])c1ccccc1O
REMARK SMILES IDX 4 1 9 2 5 3 8 4 6 5 7 6 2 7 1 8 3 9 10 10
REMARK H PARENT 10 11
REMARK Flexibility Score: inf
ROOT
ATOM      1  C   UNL     1       3.970 -13.508  14.801  1.00  0.00     0.039 A 
ATOM      2  C   UNL     1       2.743 -14.212  14.857  1.00  0.00     0.124 A 
ATOM      3  C   UNL     1       5.173 -14.241  14.784  1.00  0.00     0.014 A 
ATOM      4  C   UNL     1       2.742 -15.614  14.897  1.00  0.00     0.047 A 
ATOM      5  C   UNL     1       5.157 -15.637  14.824  1.00  0.00     0.001 A 
ATOM      6  C   UNL     1       3.945 -16.323  14.880  1.00  0.00     0.004 A 
ENDROOT
BRANCH   1   7
ATOM      7  C   UNL     1       4.024 -12.024  14.757  1.00  0.00     0.075 C 
ATOM      8  O   UNL     1       3.471 -11.327  15.647  1.00  0.00    -0.545 OA
ATOM      9  O   UNL     1       4.694 -11.378  13.724  1.00  0.00    -0.545 OA
ENDBRANCH   1   7
BRANCH   2  10
ATOM     10  O   UNL     1       1.528 -13.527  14.876  1.00  0.00    -0.507 OA
ATOM     11  H   UNL     1       0.700 -13.922  15.306  1.00  0.00     0.293 HD
ENDBRANCH   2  10
TORSDOF 2
ENDMDL
