MODEL 1
REMARK VINA RESULT:    -2.584      0.000      0.000
REMARK INTER + INTRA:         -11.935
REMARK INTER:                  -6.738
REMARK INTRA:                  -5.196
REMARK UNBOUND:                -5.196
REMARK SMILES CCCCCCCCCCCCCCCCCCCCCCCCCCCCCO
REMARK SMILES IDX 16 1 15 2 14 3 13 4 12 5 11 6 10 7 9 8 8 9 7 10 6 11 5 12
REMARK SMILES IDX 4 13 3 14 2 15 1 16 17 17 18 18 19 19 20 20 21 21 22 22
REMARK SMILES IDX 23 23 24 24 25 25 26 26 27 27 28 28 29 29 30 30
REMARK H PARENT 30 31
REMARK Flexibility Score: inf
ROOT
ATOM      1  C   UNL     1     122.660 115.086 108.582  1.00  0.00     0.000 C 
ENDROOT
BRANCH   1   2
ATOM      2  C   UNL     1     121.382 115.431 107.788  1.00  0.00     0.000 C 
BRANCH   2   3
ATOM      3  C   UNL     1     121.596 116.362 106.579  1.00  0.00     0.000 C 
BRANCH   3   4
ATOM      4  C   UNL     1     120.366 117.201 106.174  1.00  0.00     0.000 C 
BRANCH   4   5
ATOM      5  C   UNL     1     119.084 116.909 106.975  1.00  0.00     0.000 C 
BRANCH   5   6
ATOM      6  C   UNL     1     118.587 118.127 107.773  1.00  0.00     0.000 C 
BRANCH   6   7
ATOM      7  C   UNL     1     119.738 118.984 108.323  1.00  0.00     0.000 C 
BRANCH   7   8
ATOM      8  C   UNL     1     120.235 118.511 109.698  1.00  0.00    -0.000 C 
BRANCH   8   9
ATOM      9  C   UNL     1     121.767 118.517 109.758  1.00  0.00    -0.000 C 
BRANCH   9  10
ATOM     10  C   UNL     1     122.365 119.201 108.519  1.00  0.00    -0.000 C 
BRANCH  10  11
ATOM     11  C   UNL     1     123.905 119.214 108.526  1.00  0.00    -0.000 C 
BRANCH  11  12
ATOM     12  C   UNL     1     124.557 119.578 107.179  1.00  0.00    -0.000 C 
BRANCH  12  13
ATOM     13  C   UNL     1     124.558 121.088 106.902  1.00  0.00    -0.000 C 
BRANCH  13  14
ATOM     14  C   UNL     1     123.914 121.395 105.542  1.00  0.00    -0.000 C 
BRANCH  14  15
ATOM     15  C   UNL     1     122.991 120.266 105.058  1.00  0.00    -0.003 C 
ATOM     16  C   UNL     1     121.509 120.610 105.206  1.00  0.00     0.004 C 
ENDBRANCH  14  15
ENDBRANCH  13  14
ENDBRANCH  12  13
ENDBRANCH  11  12
ENDBRANCH  10  11
ENDBRANCH   9  10
ENDBRANCH   8   9
ENDBRANCH   7   8
ENDBRANCH   6   7
ENDBRANCH   5   6
ENDBRANCH   4   5
ENDBRANCH   3   4
ENDBRANCH   2   3
ENDBRANCH   1   2
BRANCH   1  17
ATOM     17  C   UNL     1     123.970 115.621 107.976  1.00  0.00     0.000 C 
BRANCH  17  18
ATOM     18  C   UNL     1     125.079 114.559 107.922  1.00  0.00     0.000 C 
BRANCH  18  19
ATOM     19  C   UNL     1     125.473 114.180 106.484  1.00  0.00     0.000 C 
BRANCH  19  20
ATOM     20  C   UNL     1     124.801 115.053 105.403  1.00  0.00     0.000 C 
BRANCH  20  21
ATOM     21  C   UNL     1     123.978 114.216 104.408  1.00  0.00     0.000 C 
BRANCH  21  22
ATOM     22  C   UNL     1     123.304 113.001 105.081  1.00  0.00     0.000 C 
BRANCH  22  23
ATOM     23  C   UNL     1     121.764 113.079 105.103  1.00  0.00     0.000 C 
BRANCH  23  24
ATOM     24  C   UNL     1     121.045 111.722 105.011  1.00  0.00     0.000 C 
BRANCH  24  25
ATOM     25  C   UNL     1     119.637 111.751 105.630  1.00  0.00     0.000 C 
BRANCH  25  26
ATOM     26  C   UNL     1     119.383 113.040 106.432  1.00  0.00     0.000 C 
BRANCH  26  27
ATOM     27  C   UNL     1     118.722 112.787 107.807  1.00  0.00     0.002 C 
BRANCH  27  28
ATOM     28  C   UNL     1     118.823 111.324 108.273  1.00  0.00     0.028 C 
BRANCH  28  29
ATOM     29  C   UNL     1     118.800 111.166 109.795  1.00  0.00     0.156 C 
BRANCH  29  30
ATOM     30  O   UNL     1     118.289 112.325 110.394  1.00  0.00    -0.396 OA
ATOM     31  H   UNL     1     119.055 112.758 110.854  1.00  0.00     0.210 HD
ENDBRANCH  29  30
ENDBRANCH  28  29
ENDBRANCH  27  28
ENDBRANCH  26  27
ENDBRANCH  25  26
ENDBRANCH  24  25
ENDBRANCH  23  24
ENDBRANCH  22  23
ENDBRANCH  21  22
ENDBRANCH  20  21
ENDBRANCH  19  20
ENDBRANCH  18  19
ENDBRANCH  17  18
ENDBRANCH   1  17
TORSDOF 28
ENDMDL
MODEL 2
REMARK VINA RESULT:    -2.371      6.581     10.169
REMARK INTER + INTRA:         -11.379
REMARK INTER:                  -6.350
REMARK INTRA:                  -5.029
REMARK UNBOUND:                -5.196
REMARK SMILES CCCCCCCCCCCCCCCCCCCCCCCCCCCCCO
REMARK SMILES IDX 16 1 15 2 14 3 13 4 12 5 11 6 10 7 9 8 8 9 7 10 6 11 5 12
REMARK SMILES IDX 4 13 3 14 2 15 1 16 17 17 18 18 19 19 20 20 21 21 22 22
REMARK SMILES IDX 23 23 24 24 25 25 26 26 27 27 28 28 29 29 30 30
REMARK H PARENT 30 31
REMARK Flexibility Score: inf
ROOT
ATOM      1  C   UNL     1     117.524 124.344 108.448  1.00  0.00     0.000 C 
ENDROOT
BRANCH   1   2
ATOM      2  C   UNL     1     116.760 123.060 108.834  1.00  0.00     0.000 C 
BRANCH   2   3
ATOM      3  C   UNL     1     117.108 121.816 107.994  1.00  0.00     0.000 C 
BRANCH   3   4
ATOM      4  C   UNL     1     115.990 121.335 107.045  1.00  0.00     0.000 C 
BRANCH   4   5
ATOM      5  C   UNL     1     114.861 122.352 106.797  1.00  0.00     0.000 C 
BRANCH   5   6
ATOM      6  C   UNL     1     113.461 121.716 106.856  1.00  0.00     0.000 C 
BRANCH   6   7
ATOM      7  C   UNL     1     112.999 121.433 108.294  1.00  0.00     0.000 C 
BRANCH   7   8
ATOM      8  C   UNL     1     113.084 122.666 109.206  1.00  0.00    -0.000 C 
BRANCH   8   9
ATOM      9  C   UNL     1     111.714 123.343 109.339  1.00  0.00    -0.000 C 
BRANCH   9  10
ATOM     10  C   UNL     1     111.840 124.870 109.238  1.00  0.00    -0.000 C 
BRANCH  10  11
ATOM     11  C   UNL     1     113.130 125.320 108.526  1.00  0.00    -0.000 C 
BRANCH  11  12
ATOM     12  C   UNL     1     112.910 126.124 107.231  1.00  0.00    -0.000 C 
BRANCH  12  13
ATOM     13  C   UNL     1     112.695 125.232 106.001  1.00  0.00    -0.000 C 
BRANCH  13  14
ATOM     14  C   UNL     1     111.214 125.205 105.595  1.00  0.00    -0.000 C 
BRANCH  14  15
ATOM     15  C   UNL     1     110.604 123.799 105.682  1.00  0.00    -0.003 C 
ATOM     16  C   UNL     1     109.230 123.708 105.017  1.00  0.00     0.004 C 
ENDBRANCH  14  15
ENDBRANCH  13  14
ENDBRANCH  12  13
ENDBRANCH  11  12
ENDBRANCH  10  11
ENDBRANCH   9  10
ENDBRANCH   8   9
ENDBRANCH   7   8
ENDBRANCH   6   7
ENDBRANCH   5   6
ENDBRANCH   4   5
ENDBRANCH   3   4
ENDBRANCH   2   3
ENDBRANCH   1   2
BRANCH   1  17
ATOM     17  C   UNL     1     116.658 125.466 107.849  1.00  0.00     0.000 C 
BRANCH  17  18
ATOM     18  C   UNL     1     116.760 125.545 106.318  1.00  0.00     0.000 C 
BRANCH  18  19
ATOM     19  C   UNL     1     118.124 126.071 105.837  1.00  0.00     0.000 C 
BRANCH  19  20
ATOM     20  C   UNL     1     118.974 125.015 105.099  1.00  0.00     0.000 C 
BRANCH  20  21
ATOM     21  C   UNL     1     118.197 123.709 104.854  1.00  0.00     0.000 C 
BRANCH  21  22
ATOM     22  C   UNL     1     119.099 122.462 104.959  1.00  0.00     0.000 C 
BRANCH  22  23
ATOM     23  C   UNL     1     119.364 121.771 103.606  1.00  0.00     0.000 C 
BRANCH  23  24
ATOM     24  C   UNL     1     119.237 120.238 103.625  1.00  0.00     0.000 C 
BRANCH  24  25
ATOM     25  C   UNL     1     118.557 119.713 104.902  1.00  0.00     0.000 C 
BRANCH  25  26
ATOM     26  C   UNL     1     119.555 119.023 105.848  1.00  0.00     0.000 C 
BRANCH  26  27
ATOM     27  C   UNL     1     118.942 118.642 107.215  1.00  0.00     0.002 C 
BRANCH  27  28
ATOM     28  C   UNL     1     119.728 119.203 108.414  1.00  0.00     0.028 C 
BRANCH  28  29
ATOM     29  C   UNL     1     120.265 118.120 109.353  1.00  0.00     0.156 C 
BRANCH  29  30
ATOM     30  O   UNL     1     119.766 118.312 110.648  1.00  0.00    -0.396 OA
ATOM     31  H   UNL     1     119.486 117.416 110.972  1.00  0.00     0.210 HD
ENDBRANCH  29  30
ENDBRANCH  28  29
ENDBRANCH  27  28
ENDBRANCH  26  27
ENDBRANCH  25  26
ENDBRANCH  24  25
ENDBRANCH  23  24
ENDBRANCH  22  23
ENDBRANCH  21  22
ENDBRANCH  20  21
ENDBRANCH  19  20
ENDBRANCH  18  19
ENDBRANCH  17  18
ENDBRANCH   1  17
TORSDOF 28
ENDMDL
MODEL 3
REMARK VINA RESULT:    -2.354      3.753      7.955
REMARK INTER + INTRA:         -11.336
REMARK INTER:                  -6.906
REMARK INTRA:                  -4.430
REMARK UNBOUND:                -5.196
REMARK SMILES CCCCCCCCCCCCCCCCCCCCCCCCCCCCCO
REMARK SMILES IDX 16 1 15 2 14 3 13 4 12 5 11 6 10 7 9 8 8 9 7 10 6 11 5 12
REMARK SMILES IDX 4 13 3 14 2 15 1 16 17 17 18 18 19 19 20 20 21 21 22 22
REMARK SMILES IDX 23 23 24 24 25 25 26 26 27 27 28 28 29 29 30 30
REMARK H PARENT 30 31
REMARK Flexibility Score: inf
ROOT
ATOM      1  C   UNL     1     120.258 119.954 104.631  1.00  0.00     0.000 C 
ENDROOT
BRANCH   1   2
ATOM      2  C   UNL     1     120.250 118.415 104.739  1.00  0.00     0.000 C 
BRANCH   2   3
ATOM      3  C   UNL     1     118.951 117.807 105.302  1.00  0.00     0.000 C 
BRANCH   3   4
ATOM      4  C   UNL     1     118.959 117.541 106.822  1.00  0.00     0.000 C 
BRANCH   4   5
ATOM      5  C   UNL     1     118.514 118.727 107.696  1.00  0.00     0.000 C 
BRANCH   5   6
ATOM      6  C   UNL     1     119.671 119.341 108.504  1.00  0.00     0.000 C 
BRANCH   6   7
ATOM      7  C   UNL     1     120.181 118.406 109.612  1.00  0.00     0.000 C 
BRANCH   7   8
ATOM      8  C   UNL     1     121.713 118.316 109.665  1.00  0.00    -0.000 C 
BRANCH   8   9
ATOM      9  C   UNL     1     122.356 119.440 108.842  1.00  0.00    -0.000 C 
BRANCH   9  10
ATOM     10  C   UNL     1     123.542 118.914 108.020  1.00  0.00    -0.000 C 
BRANCH  10  11
ATOM     11  C   UNL     1     123.112 118.289 106.680  1.00  0.00    -0.000 C 
BRANCH  11  12
ATOM     12  C   UNL     1     123.670 116.879 106.412  1.00  0.00    -0.000 C 
BRANCH  12  13
ATOM     13  C   UNL     1     124.033 116.123 107.698  1.00  0.00    -0.000 C 
BRANCH  13  14
ATOM     14  C   UNL     1     123.193 114.845 107.838  1.00  0.00    -0.000 C 
BRANCH  14  15
ATOM     15  C   UNL     1     121.690 115.138 107.957  1.00  0.00    -0.003 C 
ATOM     16  C   UNL     1     120.867 114.458 106.862  1.00  0.00     0.004 C 
ENDBRANCH  14  15
ENDBRANCH  13  14
ENDBRANCH  12  13
ENDBRANCH  11  12
ENDBRANCH  10  11
ENDBRANCH   9  10
ENDBRANCH   8   9
ENDBRANCH   7   8
ENDBRANCH   6   7
ENDBRANCH   5   6
ENDBRANCH   4   5
ENDBRANCH   3   4
ENDBRANCH   2   3
ENDBRANCH   1   2
BRANCH   1  17
ATOM     17  C   UNL     1     118.871 120.606 104.485  1.00  0.00     0.000 C 
BRANCH  17  18
ATOM     18  C   UNL     1     118.632 121.734 105.501  1.00  0.00     0.000 C 
BRANCH  18  19
ATOM     19  C   UNL     1     119.137 123.101 105.007  1.00  0.00     0.000 C 
BRANCH  19  20
ATOM     20  C   UNL     1     118.450 124.303 105.689  1.00  0.00     0.000 C 
BRANCH  20  21
ATOM     21  C   UNL     1     116.916 124.211 105.622  1.00  0.00     0.000 C 
BRANCH  21  22
ATOM     22  C   UNL     1     116.254 124.461 106.994  1.00  0.00     0.000 C 
BRANCH  22  23
ATOM     23  C   UNL     1     117.176 124.162 108.193  1.00  0.00     0.000 C 
BRANCH  23  24
ATOM     24  C   UNL     1     117.111 122.717 108.716  1.00  0.00     0.000 C 
BRANCH  24  25
ATOM     25  C   UNL     1     115.684 122.143 108.706  1.00  0.00     0.000 C 
BRANCH  25  26
ATOM     26  C   UNL     1     115.539 120.966 107.726  1.00  0.00     0.000 C 
BRANCH  26  27
ATOM     27  C   UNL     1     114.079 120.703 107.292  1.00  0.00     0.002 C 
BRANCH  27  28
ATOM     28  C   UNL     1     113.339 119.713 108.209  1.00  0.00     0.028 C 
BRANCH  28  29
ATOM     29  C   UNL     1     112.950 120.308 109.564  1.00  0.00     0.156 C 
BRANCH  29  30
ATOM     30  O   UNL     1     113.670 119.684 110.591  1.00  0.00    -0.396 OA
ATOM     31  H   UNL     1     114.225 118.986 110.154  1.00  0.00     0.210 HD
ENDBRANCH  29  30
ENDBRANCH  28  29
ENDBRANCH  27  28
ENDBRANCH  26  27
ENDBRANCH  25  26
ENDBRANCH  24  25
ENDBRANCH  23  24
ENDBRANCH  22  23
ENDBRANCH  21  22
ENDBRANCH  20  21
ENDBRANCH  19  20
ENDBRANCH  18  19
ENDBRANCH  17  18
ENDBRANCH   1  17
TORSDOF 28
ENDMDL
MODEL 4
REMARK VINA RESULT:    -2.328      3.236      6.913
REMARK INTER + INTRA:         -11.266
REMARK INTER:                  -5.710
REMARK INTRA:                  -5.556
REMARK UNBOUND:                -5.196
REMARK SMILES CCCCCCCCCCCCCCCCCCCCCCCCCCCCCO
REMARK SMILES IDX 16 1 15 2 14 3 13 4 12 5 11 6 10 7 9 8 8 9 7 10 6 11 5 12
REMARK SMILES IDX 4 13 3 14 2 15 1 16 17 17 18 18 19 19 20 20 21 21 22 22
REMARK SMILES IDX 23 23 24 24 25 25 26 26 27 27 28 28 29 29 30 30
REMARK H PARENT 30 31
REMARK Flexibility Score: inf
ROOT
ATOM      1  C   UNL     1     124.360 116.596 105.577  1.00  0.00     0.000 C 
ENDROOT
BRANCH   1   2
ATOM      2  C   UNL     1     123.730 117.966 105.253  1.00  0.00     0.000 C 
BRANCH   2   3
ATOM      3  C   UNL     1     124.643 119.181 105.507  1.00  0.00     0.000 C 
BRANCH   3   4
ATOM      4  C   UNL     1     124.159 120.505 104.881  1.00  0.00     0.000 C 
BRANCH   4   5
ATOM      5  C   UNL     1     124.062 121.692 105.857  1.00  0.00     0.000 C 
BRANCH   5   6
ATOM      6  C   UNL     1     124.899 122.903 105.409  1.00  0.00     0.000 C 
BRANCH   6   7
ATOM      7  C   UNL     1     124.033 124.068 104.906  1.00  0.00     0.000 C 
BRANCH   7   8
ATOM      8  C   UNL     1     123.899 124.101 103.376  1.00  0.00    -0.000 C 
BRANCH   8   9
ATOM      9  C   UNL     1     122.442 123.883 102.950  1.00  0.00    -0.000 C 
BRANCH   9  10
ATOM     10  C   UNL     1     121.489 124.027 104.147  1.00  0.00    -0.000 C 
BRANCH  10  11
ATOM     11  C   UNL     1     120.728 122.727 104.468  1.00  0.00    -0.000 C 
BRANCH  11  12
ATOM     12  C   UNL     1     121.010 121.556 103.509  1.00  0.00    -0.000 C 
BRANCH  12  13
ATOM     13  C   UNL     1     120.469 120.215 104.026  1.00  0.00    -0.000 C 
BRANCH  13  14
ATOM     14  C   UNL     1     120.610 120.120 105.553  1.00  0.00    -0.000 C 
BRANCH  14  15
ATOM     15  C   UNL     1     119.503 119.270 106.195  1.00  0.00    -0.003 C 
ATOM     16  C   UNL     1     118.450 118.811 105.186  1.00  0.00     0.004 C 
ENDBRANCH  14  15
ENDBRANCH  13  14
ENDBRANCH  12  13
ENDBRANCH  11  12
ENDBRANCH  10  11
ENDBRANCH   9  10
ENDBRANCH   8   9
ENDBRANCH   7   8
ENDBRANCH   6   7
ENDBRANCH   5   6
ENDBRANCH   4   5
ENDBRANCH   3   4
ENDBRANCH   2   3
ENDBRANCH   1   2
BRANCH   1  17
ATOM     17  C   UNL     1     125.545 116.637 106.559  1.00  0.00     0.000 C 
BRANCH  17  18
ATOM     18  C   UNL     1     125.382 115.657 107.732  1.00  0.00     0.000 C 
BRANCH  18  19
ATOM     19  C   UNL     1     124.195 114.696 107.547  1.00  0.00     0.000 C 
BRANCH  19  20
ATOM     20  C   UNL     1     123.057 114.908 108.569  1.00  0.00     0.000 C 
BRANCH  20  21
ATOM     21  C   UNL     1     121.702 115.163 107.886  1.00  0.00     0.000 C 
BRANCH  21  22
ATOM     22  C   UNL     1     121.272 116.643 107.971  1.00  0.00     0.000 C 
BRANCH  22  23
ATOM     23  C   UNL     1     121.894 117.403 109.158  1.00  0.00     0.000 C 
BRANCH  23  24
ATOM     24  C   UNL     1     121.560 118.904 109.214  1.00  0.00     0.000 C 
BRANCH  24  25
ATOM     25  C   UNL     1     122.736 119.792 108.771  1.00  0.00     0.000 C 
BRANCH  25  26
ATOM     26  C   UNL     1     124.091 119.077 108.919  1.00  0.00     0.000 C 
BRANCH  26  27
ATOM     27  C   UNL     1     125.280 120.048 109.106  1.00  0.00     0.002 C 
BRANCH  27  28
ATOM     28  C   UNL     1     124.851 121.465 109.526  1.00  0.00     0.028 C 
BRANCH  28  29
ATOM     29  C   UNL     1     125.439 121.909 110.867  1.00  0.00     0.156 C 
BRANCH  29  30
ATOM     30  O   UNL     1     125.475 120.829 111.760  1.00  0.00    -0.396 OA
ATOM     31  H   UNL     1     126.362 120.870 112.206  1.00  0.00     0.210 HD
ENDBRANCH  29  30
ENDBRANCH  28  29
ENDBRANCH  27  28
ENDBRANCH  26  27
ENDBRANCH  25  26
ENDBRANCH  24  25
ENDBRANCH  23  24
ENDBRANCH  22  23
ENDBRANCH  21  22
ENDBRANCH  20  21
ENDBRANCH  19  20
ENDBRANCH  18  19
ENDBRANCH  17  18
ENDBRANCH   1  17
TORSDOF 28
ENDMDL
MODEL 5
REMARK VINA RESULT:    -2.290      1.461      5.135
REMARK INTER + INTRA:         -11.169
REMARK INTER:                  -5.396
REMARK INTRA:                  -5.773
REMARK UNBOUND:                -5.196
REMARK SMILES CCCCCCCCCCCCCCCCCCCCCCCCCCCCCO
REMARK SMILES IDX 16 1 15 2 14 3 13 4 12 5 11 6 10 7 9 8 8 9 7 10 6 11 5 12
REMARK SMILES IDX 4 13 3 14 2 15 1 16 17 17 18 18 19 19 20 20 21 21 22 22
REMARK SMILES IDX 23 23 24 24 25 25 26 26 27 27 28 28 29 29 30 30
REMARK H PARENT 30 31
REMARK Flexibility Score: inf
ROOT
ATOM      1  C   UNL     1     123.983 119.046 108.486  1.00  0.00     0.000 C 
ENDROOT
BRANCH   1   2
ATOM      2  C   UNL     1     122.740 119.512 109.272  1.00  0.00     0.000 C 
BRANCH   2   3
ATOM      3  C   UNL     1     121.579 118.499 109.319  1.00  0.00     0.000 C 
BRANCH   3   4
ATOM      4  C   UNL     1     122.006 117.017 109.294  1.00  0.00     0.000 C 
BRANCH   4   5
ATOM      5  C   UNL     1     121.386 116.178 108.162  1.00  0.00     0.000 C 
BRANCH   5   6
ATOM      6  C   UNL     1     122.303 115.034 107.695  1.00  0.00     0.000 C 
BRANCH   6   7
ATOM      7  C   UNL     1     123.543 114.867 108.587  1.00  0.00     0.000 C 
BRANCH   7   8
ATOM      8  C   UNL     1     124.862 115.075 107.828  1.00  0.00    -0.000 C 
BRANCH   8   9
ATOM      9  C   UNL     1     124.975 114.101 106.650  1.00  0.00    -0.000 C 
BRANCH   9  10
ATOM     10  C   UNL     1     125.326 114.843 105.351  1.00  0.00    -0.000 C 
BRANCH  10  11
ATOM     11  C   UNL     1     124.467 114.397 104.154  1.00  0.00    -0.000 C 
BRANCH  11  12
ATOM     12  C   UNL     1     123.478 115.457 103.634  1.00  0.00    -0.000 C 
BRANCH  12  13
ATOM     13  C   UNL     1     122.572 114.933 102.511  1.00  0.00    -0.000 C 
BRANCH  13  14
ATOM     14  C   UNL     1     121.092 115.052 102.900  1.00  0.00    -0.000 C 
BRANCH  14  15
ATOM     15  C   UNL     1     120.873 114.974 104.418  1.00  0.00    -0.003 C 
ATOM     16  C   UNL     1     120.388 113.598 104.876  1.00  0.00     0.004 C 
ENDBRANCH  14  15
ENDBRANCH  13  14
ENDBRANCH  12  13
ENDBRANCH  11  12
ENDBRANCH  10  11
ENDBRANCH   9  10
ENDBRANCH   8   9
ENDBRANCH   7   8
ENDBRANCH   6   7
ENDBRANCH   5   6
ENDBRANCH   4   5
ENDBRANCH   3   4
ENDBRANCH   2   3
ENDBRANCH   1   2
BRANCH   1  17
ATOM     17  C   UNL     1     123.985 119.408 106.990  1.00  0.00     0.000 C 
BRANCH  17  18
ATOM     18  C   UNL     1     123.606 118.222 106.088  1.00  0.00     0.000 C 
BRANCH  18  19
ATOM     19  C   UNL     1     122.228 118.393 105.425  1.00  0.00     0.000 C 
BRANCH  19  20
ATOM     20  C   UNL     1     121.538 119.733 105.758  1.00  0.00     0.000 C 
BRANCH  20  21
ATOM     21  C   UNL     1     120.044 119.553 106.084  1.00  0.00     0.000 C 
BRANCH  21  22
ATOM     22  C   UNL     1     119.511 118.172 105.648  1.00  0.00     0.000 C 
BRANCH  22  23
ATOM     23  C   UNL     1     118.439 117.593 106.593  1.00  0.00     0.000 C 
BRANCH  23  24
ATOM     24  C   UNL     1     117.899 116.210 106.191  1.00  0.00     0.000 C 
BRANCH  24  25
ATOM     25  C   UNL     1     118.017 115.174 107.322  1.00  0.00     0.000 C 
BRANCH  25  26
ATOM     26  C   UNL     1     116.910 114.108 107.249  1.00  0.00     0.000 C 
BRANCH  26  27
ATOM     27  C   UNL     1     117.247 112.818 108.032  1.00  0.00     0.002 C 
BRANCH  27  28
ATOM     28  C   UNL     1     118.758 112.551 108.147  1.00  0.00     0.028 C 
BRANCH  28  29
ATOM     29  C   UNL     1     119.166 111.915 109.478  1.00  0.00     0.156 C 
BRANCH  29  30
ATOM     30  O   UNL     1     118.271 112.292 110.489  1.00  0.00    -0.396 OA
ATOM     31  H   UNL     1     118.640 113.123 110.888  1.00  0.00     0.210 HD
ENDBRANCH  29  30
ENDBRANCH  28  29
ENDBRANCH  27  28
ENDBRANCH  26  27
ENDBRANCH  25  26
ENDBRANCH  24  25
ENDBRANCH  23  24
ENDBRANCH  22  23
ENDBRANCH  21  22
ENDBRANCH  20  21
ENDBRANCH  19  20
ENDBRANCH  18  19
ENDBRANCH  17  18
ENDBRANCH   1  17
TORSDOF 28
ENDMDL
MODEL 6
REMARK VINA RESULT:    -2.271      9.110     13.193
REMARK INTER + INTRA:         -11.119
REMARK INTER:                  -5.702
REMARK INTRA:                  -5.417
REMARK UNBOUND:                -5.196
REMARK SMILES CCCCCCCCCCCCCCCCCCCCCCCCCCCCCO
REMARK SMILES IDX 16 1 15 2 14 3 13 4 12 5 11 6 10 7 9 8 8 9 7 10 6 11 5 12
REMARK SMILES IDX 4 13 3 14 2 15 1 16 17 17 18 18 19 19 20 20 21 21 22 22
REMARK SMILES IDX 23 23 24 24 25 25 26 26 27 27 28 28 29 29 30 30
REMARK H PARENT 30 31
REMARK Flexibility Score: inf
ROOT
ATOM      1  C   UNL     1     109.131 113.291 105.668  1.00  0.00     0.000 C 
ENDROOT
BRANCH   1   2
ATOM      2  C   UNL     1     109.135 111.924 106.384  1.00  0.00     0.000 C 
BRANCH   2   3
ATOM      3  C   UNL     1     108.406 111.898 107.742  1.00  0.00     0.000 C 
BRANCH   3   4
ATOM      4  C   UNL     1     108.835 112.998 108.734  1.00  0.00     0.000 C 
BRANCH   4   5
ATOM      5  C   UNL     1     109.922 112.583 109.742  1.00  0.00     0.000 C 
BRANCH   5   6
ATOM      6  C   UNL     1     111.164 113.490 109.689  1.00  0.00     0.000 C 
BRANCH   6   7
ATOM      7  C   UNL     1     112.106 113.136 108.528  1.00  0.00     0.000 C 
BRANCH   7   8
ATOM      8  C   UNL     1     112.991 114.314 108.092  1.00  0.00    -0.000 C 
BRANCH   8   9
ATOM      9  C   UNL     1     112.808 114.612 106.599  1.00  0.00    -0.000 C 
BRANCH   9  10
ATOM     10  C   UNL     1     112.276 116.036 106.381  1.00  0.00    -0.000 C 
BRANCH  10  11
ATOM     11  C   UNL     1     111.493 116.576 107.592  1.00  0.00    -0.000 C 
BRANCH  11  12
ATOM     12  C   UNL     1     109.979 116.295 107.565  1.00  0.00    -0.000 C 
BRANCH  12  13
ATOM     13  C   UNL     1     109.206 117.078 108.636  1.00  0.00    -0.000 C 
BRANCH  13  14
ATOM     14  C   UNL     1     107.724 117.210 108.254  1.00  0.00    -0.000 C 
BRANCH  14  15
ATOM     15  C   UNL     1     107.255 116.088 107.316  1.00  0.00    -0.003 C 
ATOM     16  C   UNL     1     105.998 115.380 107.823  1.00  0.00     0.004 C 
ENDBRANCH  14  15
ENDBRANCH  13  14
ENDBRANCH  12  13
ENDBRANCH  11  12
ENDBRANCH  10  11
ENDBRANCH   9  10
ENDBRANCH   8   9
ENDBRANCH   7   8
ENDBRANCH   6   7
ENDBRANCH   5   6
ENDBRANCH   4   5
ENDBRANCH   3   4
ENDBRANCH   2   3
ENDBRANCH   1   2
BRANCH   1  17
ATOM     17  C   UNL     1     110.131 113.422 104.504  1.00  0.00     0.000 C 
BRANCH  17  18
ATOM     18  C   UNL     1     109.768 114.556 103.532  1.00  0.00     0.000 C 
BRANCH  18  19
ATOM     19  C   UNL     1     109.347 115.849 104.252  1.00  0.00     0.000 C 
BRANCH  19  20
ATOM     20  C   UNL     1     108.229 116.630 103.528  1.00  0.00     0.000 C 
BRANCH  20  21
ATOM     21  C   UNL     1     107.914 117.969 104.218  1.00  0.00     0.000 C 
BRANCH  21  22
ATOM     22  C   UNL     1     109.180 118.652 104.778  1.00  0.00     0.000 C 
BRANCH  22  23
ATOM     23  C   UNL     1     109.825 119.658 103.804  1.00  0.00     0.000 C 
BRANCH  23  24
ATOM     24  C   UNL     1     111.091 120.352 104.333  1.00  0.00     0.000 C 
BRANCH  24  25
ATOM     25  C   UNL     1     111.619 119.718 105.633  1.00  0.00     0.000 C 
BRANCH  25  26
ATOM     26  C   UNL     1     113.108 120.026 105.865  1.00  0.00     0.000 C 
BRANCH  26  27
ATOM     27  C   UNL     1     113.617 119.583 107.256  1.00  0.00     0.002 C 
BRANCH  27  28
ATOM     28  C   UNL     1     112.762 120.119 108.418  1.00  0.00     0.028 C 
BRANCH  28  29
ATOM     29  C   UNL     1     113.580 120.495 109.656  1.00  0.00     0.156 C 
BRANCH  29  30
ATOM     30  O   UNL     1     113.993 119.339 110.332  1.00  0.00    -0.396 OA
ATOM     31  H   UNL     1     114.693 119.630 110.973  1.00  0.00     0.210 HD
ENDBRANCH  29  30
ENDBRANCH  28  29
ENDBRANCH  27  28
ENDBRANCH  26  27
ENDBRANCH  25  26
ENDBRANCH  24  25
ENDBRANCH  23  24
ENDBRANCH  22  23
ENDBRANCH  21  22
ENDBRANCH  20  21
ENDBRANCH  19  20
ENDBRANCH  18  19
ENDBRANCH  17  18
ENDBRANCH   1  17
TORSDOF 28
ENDMDL
MODEL 7
REMARK VINA RESULT:    -2.258      1.465      2.548
REMARK INTER + INTRA:         -11.085
REMARK INTER:                  -5.703
REMARK INTRA:                  -5.382
REMARK UNBOUND:                -5.196
REMARK SMILES CCCCCCCCCCCCCCCCCCCCCCCCCCCCCO
REMARK SMILES IDX 16 1 15 2 14 3 13 4 12 5 11 6 10 7 9 8 8 9 7 10 6 11 5 12
REMARK SMILES IDX 4 13 3 14 2 15 1 16 17 17 18 18 19 19 20 20 21 21 22 22
REMARK SMILES IDX 23 23 24 24 25 25 26 26 27 27 28 28 29 29 30 30
REMARK H PARENT 30 31
REMARK Flexibility Score: inf
ROOT
ATOM      1  C   UNL     1     125.432 114.542 107.773  1.00  0.00     0.000 C 
ENDROOT
BRANCH   1   2
ATOM      2  C   UNL     1     123.930 114.494 108.123  1.00  0.00     0.000 C 
BRANCH   2   3
ATOM      3  C   UNL     1     123.276 115.866 108.379  1.00  0.00     0.000 C 
BRANCH   3   4
ATOM      4  C   UNL     1     121.834 116.011 107.849  1.00  0.00     0.000 C 
BRANCH   4   5
ATOM      5  C   UNL     1     121.143 117.343 108.193  1.00  0.00     0.000 C 
BRANCH   5   6
ATOM      6  C   UNL     1     121.442 117.820 109.625  1.00  0.00     0.000 C 
BRANCH   6   7
ATOM      7  C   UNL     1     122.137 119.190 109.660  1.00  0.00     0.000 C 
BRANCH   7   8
ATOM      8  C   UNL     1     122.526 119.702 108.265  1.00  0.00    -0.000 C 
BRANCH   8   9
ATOM      9  C   UNL     1     123.864 120.449 108.310  1.00  0.00    -0.000 C 
BRANCH   9  10
ATOM     10  C   UNL     1     124.883 119.705 109.186  1.00  0.00    -0.000 C 
BRANCH  10  11
ATOM     11  C   UNL     1     125.760 118.724 108.385  1.00  0.00    -0.000 C 
BRANCH  11  12
ATOM     12  C   UNL     1     125.836 119.007 106.873  1.00  0.00    -0.000 C 
BRANCH  12  13
ATOM     13  C   UNL     1     125.555 117.764 106.016  1.00  0.00    -0.000 C 
BRANCH  13  14
ATOM     14  C   UNL     1     124.140 117.816 105.424  1.00  0.00    -0.000 C 
BRANCH  14  15
ATOM     15  C   UNL     1     123.812 119.181 104.800  1.00  0.00    -0.003 C 
ATOM     16  C   UNL     1     122.312 119.388 104.584  1.00  0.00     0.004 C 
ENDBRANCH  14  15
ENDBRANCH  13  14
ENDBRANCH  12  13
ENDBRANCH  11  12
ENDBRANCH  10  11
ENDBRANCH   9  10
ENDBRANCH   8   9
ENDBRANCH   7   8
ENDBRANCH   6   7
ENDBRANCH   5   6
ENDBRANCH   4   5
ENDBRANCH   3   4
ENDBRANCH   2   3
ENDBRANCH   1   2
BRANCH   1  17
ATOM     17  C   UNL     1     125.785 114.084 106.346  1.00  0.00     0.000 C 
BRANCH  17  18
ATOM     18  C   UNL     1     124.613 113.387 105.636  1.00  0.00     0.000 C 
BRANCH  18  19
ATOM     19  C   UNL     1     124.245 114.053 104.299  1.00  0.00     0.000 C 
BRANCH  19  20
ATOM     20  C   UNL     1     122.852 114.719 104.297  1.00  0.00     0.000 C 
BRANCH  20  21
ATOM     21  C   UNL     1     121.779 113.826 104.945  1.00  0.00     0.000 C 
BRANCH  21  22
ATOM     22  C   UNL     1     120.444 113.859 104.171  1.00  0.00     0.000 C 
BRANCH  22  23
ATOM     23  C   UNL     1     119.363 114.735 104.833  1.00  0.00     0.000 C 
BRANCH  23  24
ATOM     24  C   UNL     1     118.353 113.971 105.705  1.00  0.00     0.000 C 
BRANCH  24  25
ATOM     25  C   UNL     1     118.584 114.187 107.211  1.00  0.00     0.000 C 
BRANCH  25  26
ATOM     26  C   UNL     1     119.475 113.092 107.824  1.00  0.00     0.000 C 
BRANCH  26  27
ATOM     27  C   UNL     1     119.187 111.681 107.262  1.00  0.00     0.002 C 
BRANCH  27  28
ATOM     28  C   UNL     1     118.967 110.622 108.357  1.00  0.00     0.028 C 
BRANCH  28  29
ATOM     29  C   UNL     1     117.742 110.893 109.232  1.00  0.00     0.156 C 
BRANCH  29  30
ATOM     30  O   UNL     1     118.131 111.496 110.436  1.00  0.00    -0.396 OA
ATOM     31  H   UNL     1     117.562 111.092 111.143  1.00  0.00     0.210 HD
ENDBRANCH  29  30
ENDBRANCH  28  29
ENDBRANCH  27  28
ENDBRANCH  26  27
ENDBRANCH  25  26
ENDBRANCH  24  25
ENDBRANCH  23  24
ENDBRANCH  22  23
ENDBRANCH  21  22
ENDBRANCH  20  21
ENDBRANCH  19  20
ENDBRANCH  18  19
ENDBRANCH  17  18
ENDBRANCH   1  17
TORSDOF 28
ENDMDL
MODEL 8
REMARK VINA RESULT:    -2.253      1.743      3.972
REMARK INTER + INTRA:         -11.073
REMARK INTER:                  -5.060
REMARK INTRA:                  -6.013
REMARK UNBOUND:                -5.196
REMARK SMILES CCCCCCCCCCCCCCCCCCCCCCCCCCCCCO
REMARK SMILES IDX 16 1 15 2 14 3 13 4 12 5 11 6 10 7 9 8 8 9 7 10 6 11 5 12
REMARK SMILES IDX 4 13 3 14 2 15 1 16 17 17 18 18 19 19 20 20 21 21 22 22
REMARK SMILES IDX 23 23 24 24 25 25 26 26 27 27 28 28 29 29 30 30
REMARK H PARENT 30 31
REMARK Flexibility Score: inf
ROOT
ATOM      1  C   UNL     1     123.835 115.280 107.855  1.00  0.00     0.000 C 
ENDROOT
BRANCH   1   2
ATOM      2  C   UNL     1     122.442 115.207 108.514  1.00  0.00     0.000 C 
BRANCH   2   3
ATOM      3  C   UNL     1     121.320 115.940 107.752  1.00  0.00     0.000 C 
BRANCH   3   4
ATOM      4  C   UNL     1     120.887 117.288 108.365  1.00  0.00     0.000 C 
BRANCH   4   5
ATOM      5  C   UNL     1     121.641 117.697 109.644  1.00  0.00     0.000 C 
BRANCH   5   6
ATOM      6  C   UNL     1     122.446 118.997 109.473  1.00  0.00     0.000 C 
BRANCH   6   7
ATOM      7  C   UNL     1     122.546 119.442 108.006  1.00  0.00     0.000 C 
BRANCH   7   8
ATOM      8  C   UNL     1     123.932 119.188 107.394  1.00  0.00    -0.000 C 
BRANCH   8   9
ATOM      9  C   UNL     1     123.811 118.755 105.928  1.00  0.00    -0.000 C 
BRANCH   9  10
ATOM     10  C   UNL     1     122.385 118.977 105.402  1.00  0.00    -0.000 C 
BRANCH  10  11
ATOM     11  C   UNL     1     121.884 117.819 104.519  1.00  0.00    -0.000 C 
BRANCH  11  12
ATOM     12  C   UNL     1     120.361 117.595 104.544  1.00  0.00    -0.000 C 
BRANCH  12  13
ATOM     13  C   UNL     1     119.601 118.723 105.257  1.00  0.00    -0.000 C 
BRANCH  13  14
ATOM     14  C   UNL     1     118.268 118.211 105.825  1.00  0.00    -0.000 C 
BRANCH  14  15
ATOM     15  C   UNL     1     118.208 116.678 105.896  1.00  0.00    -0.003 C 
ATOM     16  C   UNL     1     117.254 116.174 106.980  1.00  0.00     0.004 C 
ENDBRANCH  14  15
ENDBRANCH  13  14
ENDBRANCH  12  13
ENDBRANCH  11  12
ENDBRANCH  10  11
ENDBRANCH   9  10
ENDBRANCH   8   9
ENDBRANCH   7   8
ENDBRANCH   6   7
ENDBRANCH   5   6
ENDBRANCH   4   5
ENDBRANCH   3   4
ENDBRANCH   2   3
ENDBRANCH   1   2
BRANCH   1  17
ATOM     17  C   UNL     1     123.843 115.122 106.324  1.00  0.00     0.000 C 
BRANCH  17  18
ATOM     18  C   UNL     1     124.101 113.674 105.876  1.00  0.00     0.000 C 
BRANCH  18  19
ATOM     19  C   UNL     1     122.931 113.078 105.075  1.00  0.00     0.000 C 
BRANCH  19  20
ATOM     20  C   UNL     1     121.930 114.133 104.556  1.00  0.00     0.000 C 
BRANCH  20  21
ATOM     21  C   UNL     1     120.468 113.701 104.766  1.00  0.00     0.000 C 
BRANCH  21  22
ATOM     22  C   UNL     1     120.309 112.728 105.954  1.00  0.00     0.000 C 
BRANCH  22  23
ATOM     23  C   UNL     1     119.097 113.040 106.854  1.00  0.00     0.000 C 
BRANCH  23  24
ATOM     24  C   UNL     1     119.313 112.763 108.352  1.00  0.00     0.000 C 
BRANCH  24  25
ATOM     25  C   UNL     1     118.325 111.726 108.914  1.00  0.00     0.000 C 
BRANCH  25  26
ATOM     26  C   UNL     1     119.044 110.569 109.630  1.00  0.00     0.000 C 
BRANCH  26  27
ATOM     27  C   UNL     1     119.229 109.317 108.742  1.00  0.00     0.002 C 
BRANCH  27  28
ATOM     28  C   UNL     1     118.287 109.287 107.526  1.00  0.00     0.028 C 
BRANCH  28  29
ATOM     29  C   UNL     1     119.011 109.044 106.199  1.00  0.00     0.156 C 
BRANCH  29  30
ATOM     30  O   UNL     1     120.384 109.281 106.347  1.00  0.00    -0.396 OA
ATOM     31  H   UNL     1     120.648 109.858 105.583  1.00  0.00     0.210 HD
ENDBRANCH  29  30
ENDBRANCH  28  29
ENDBRANCH  27  28
ENDBRANCH  26  27
ENDBRANCH  25  26
ENDBRANCH  24  25
ENDBRANCH  23  24
ENDBRANCH  22  23
ENDBRANCH  21  22
ENDBRANCH  20  21
ENDBRANCH  19  20
ENDBRANCH  18  19
ENDBRANCH  17  18
ENDBRANCH   1  17
TORSDOF 28
ENDMDL
MODEL 9
REMARK VINA RESULT:    -2.198      9.362     13.673
REMARK INTER + INTRA:         -10.928
REMARK INTER:                  -5.594
REMARK INTRA:                  -5.334
REMARK UNBOUND:                -5.196
REMARK SMILES CCCCCCCCCCCCCCCCCCCCCCCCCCCCCO
REMARK SMILES IDX 16 1 15 2 14 3 13 4 12 5 11 6 10 7 9 8 8 9 7 10 6 11 5 12
REMARK SMILES IDX 4 13 3 14 2 15 1 16 17 17 18 18 19 19 20 20 21 21 22 22
REMARK SMILES IDX 23 23 24 24 25 25 26 26 27 27 28 28 29 29 30 30
REMARK H PARENT 30 31
REMARK Flexibility Score: inf
ROOT
ATOM      1  C   UNL     1     107.760 116.922 106.724  1.00  0.00     0.000 C 
ENDROOT
BRANCH   1   2
ATOM      2  C   UNL     1     108.298 116.575 108.128  1.00  0.00     0.000 C 
BRANCH   2   3
ATOM      3  C   UNL     1     109.721 117.084 108.426  1.00  0.00     0.000 C 
BRANCH   3   4
ATOM      4  C   UNL     1     110.552 117.466 107.183  1.00  0.00     0.000 C 
BRANCH   4   5
ATOM      5  C   UNL     1     111.904 116.741 107.053  1.00  0.00     0.000 C 
BRANCH   5   6
ATOM      6  C   UNL     1     111.850 115.547 106.084  1.00  0.00     0.000 C 
BRANCH   6   7
ATOM      7  C   UNL     1     110.722 115.675 105.049  1.00  0.00     0.000 C 
BRANCH   7   8
ATOM      8  C   UNL     1     109.821 114.432 104.984  1.00  0.00    -0.000 C 
BRANCH   8   9
ATOM      9  C   UNL     1     110.521 113.217 105.606  1.00  0.00    -0.000 C 
BRANCH   9  10
ATOM     10  C   UNL     1     109.502 112.249 106.225  1.00  0.00    -0.000 C 
BRANCH  10  11
ATOM     11  C   UNL     1     108.215 112.953 106.695  1.00  0.00    -0.000 C 
BRANCH  11  12
ATOM     12  C   UNL     1     108.000 112.965 108.219  1.00  0.00    -0.000 C 
BRANCH  12  13
ATOM     13  C   UNL     1     109.085 112.194 108.984  1.00  0.00    -0.000 C 
BRANCH  13  14
ATOM     14  C   UNL     1     109.827 113.117 109.962  1.00  0.00    -0.000 C 
BRANCH  14  15
ATOM     15  C   UNL     1     110.987 113.871 109.295  1.00  0.00    -0.003 C 
ATOM     16  C   UNL     1     112.134 112.947 108.884  1.00  0.00     0.004 C 
ENDBRANCH  14  15
ENDBRANCH  13  14
ENDBRANCH  12  13
ENDBRANCH  11  12
ENDBRANCH  10  11
ENDBRANCH   9  10
ENDBRANCH   8   9
ENDBRANCH   7   8
ENDBRANCH   6   7
ENDBRANCH   5   6
ENDBRANCH   4   5
ENDBRANCH   3   4
ENDBRANCH   2   3
ENDBRANCH   1   2
BRANCH   1  17
ATOM     17  C   UNL     1     106.672 118.010 106.690  1.00  0.00     0.000 C 
BRANCH  17  18
ATOM     18  C   UNL     1     106.722 118.865 105.414  1.00  0.00     0.000 C 
BRANCH  18  19
ATOM     19  C   UNL     1     108.043 118.707 104.641  1.00  0.00     0.000 C 
BRANCH  19  20
ATOM     20  C   UNL     1     108.788 120.038 104.403  1.00  0.00     0.000 C 
BRANCH  20  21
ATOM     21  C   UNL     1     110.295 119.922 104.694  1.00  0.00     0.000 C 
BRANCH  21  22
ATOM     22  C   UNL     1     111.005 118.949 103.729  1.00  0.00     0.000 C 
BRANCH  22  23
ATOM     23  C   UNL     1     112.487 119.291 103.480  1.00  0.00     0.000 C 
BRANCH  23  24
ATOM     24  C   UNL     1     113.420 119.044 104.678  1.00  0.00     0.000 C 
BRANCH  24  25
ATOM     25  C   UNL     1     114.097 120.332 105.180  1.00  0.00     0.000 C 
BRANCH  25  26
ATOM     26  C   UNL     1     113.943 120.513 106.700  1.00  0.00     0.000 C 
BRANCH  26  27
ATOM     27  C   UNL     1     112.789 121.465 107.091  1.00  0.00     0.002 C 
BRANCH  27  28
ATOM     28  C   UNL     1     113.135 122.393 108.269  1.00  0.00     0.028 C 
BRANCH  28  29
ATOM     29  C   UNL     1     112.765 121.810 109.635  1.00  0.00     0.156 C 
BRANCH  29  30
ATOM     30  O   UNL     1     113.920 121.606 110.402  1.00  0.00    -0.396 OA
ATOM     31  H   UNL     1     114.660 121.465 109.754  1.00  0.00     0.210 HD
ENDBRANCH  29  30
ENDBRANCH  28  29
ENDBRANCH  27  28
ENDBRANCH  26  27
ENDBRANCH  25  26
ENDBRANCH  24  25
ENDBRANCH  23  24
ENDBRANCH  22  23
ENDBRANCH  21  22
ENDBRANCH  20  21
ENDBRANCH  19  20
ENDBRANCH  18  19
ENDBRANCH  17  18
ENDBRANCH   1  17
TORSDOF 28
ENDMDL
