MODEL 1
REMARK VINA RESULT:    -3.619      0.000      0.000
REMARK INTER + INTRA:          -3.849
REMARK INTER:                  -3.831
REMARK INTRA:                  -0.018
REMARK UNBOUND:                -0.018
REMARK SMILES O=C([O-])c1cccnc1
REMARK SMILES IDX 4 1 5 2 9 3 6 4 8 5 7 6 2 7 1 8 3 9
REMARK H PARENT
REMARK Flexibility Score: inf
ROOT
ATOM      1  C   UNL     1       2.408  33.615  15.148  1.00  0.00     0.016 A 
ATOM      2  C   UNL     1       2.682  33.345  13.796  1.00  0.00     0.013 A 
ATOM      3  C   UNL     1       3.243  33.049  16.125  1.00  0.00     0.120 A 
ATOM      4  C   UNL     1       3.763  32.532  13.450  1.00  0.00     0.021 A 
ATOM      5  N   UNL     1       4.289  32.261  15.761  1.00  0.00    -0.264 NA
ATOM      6  C   UNL     1       4.564  31.993  14.457  1.00  0.00     0.111 A 
ENDROOT
BRANCH   1   7
ATOM      7  C   UNL     1       1.268  34.473  15.535  1.00  0.00     0.073 C 
ATOM      8  O   UNL     1       1.217  35.676  15.167  1.00  0.00    -0.545 OA
ATOM      9  O   UNL     1       0.235  33.962  16.314  1.00  0.00    -0.545 OA
ENDBRANCH   1   7
TORSDOF 1
ENDMDL
MODEL 2
REMARK VINA RESULT:    -3.530      3.088      3.507
REMARK INTER + INTRA:          -3.754
REMARK INTER:                  -3.736
REMARK INTRA:                  -0.019
REMARK UNBOUND:                -0.018
REMARK SMILES O=C([O-])c1cccnc1
REMARK SMILES IDX 4 1 5 2 9 3 6 4 8 5 7 6 2 7 1 8 3 9
REMARK H PARENT
REMARK Flexibility Score: inf
ROOT
ATOM      1  C   UNL     1       1.885  32.260  14.472  1.00  0.00     0.016 A 
ATOM      2  C   UNL     1       1.729  30.933  14.037  1.00  0.00     0.013 A 
ATOM      3  C   UNL     1       1.058  32.725  15.509  1.00  0.00     0.120 A 
ATOM      4  C   UNL     1       0.772  30.108  14.631  1.00  0.00     0.021 A 
ATOM      5  N   UNL     1       0.134  31.900  16.071  1.00  0.00    -0.264 NA
ATOM      6  C   UNL     1      -0.024  30.615  15.658  1.00  0.00     0.111 A 
ENDROOT
BRANCH   1   7
ATOM      7  C   UNL     1       2.892  33.150  13.856  1.00  0.00     0.073 C 
ATOM      8  O   UNL     1       2.570  34.297  13.448  1.00  0.00    -0.545 OA
ATOM      9  O   UNL     1       4.211  32.731  13.718  1.00  0.00    -0.545 OA
ENDBRANCH   1   7
TORSDOF 1
ENDMDL
MODEL 3
REMARK VINA RESULT:    -3.525      5.057      5.711
REMARK INTER + INTRA:          -3.749
REMARK INTER:                  -3.727
REMARK INTRA:                  -0.022
REMARK UNBOUND:                -0.018
REMARK SMILES O=C([O-])c1cccnc1
REMARK SMILES IDX 4 1 5 2 9 3 6 4 8 5 7 6 2 7 1 8 3 9
REMARK H PARENT
REMARK Flexibility Score: inf
ROOT
ATOM      1  C   UNL     1      -2.936  31.993  14.950  1.00  0.00     0.016 A 
ATOM      2  C   UNL     1      -2.361  30.818  14.435  1.00  0.00     0.013 A 
ATOM      3  C   UNL     1      -2.113  32.883  15.661  1.00  0.00     0.120 A 
ATOM      4  C   UNL     1      -1.004  30.557  14.633  1.00  0.00     0.021 A 
ATOM      5  N   UNL     1      -0.794  32.604  15.839  1.00  0.00    -0.264 NA
ATOM      6  C   UNL     1      -0.228  31.471  15.346  1.00  0.00     0.111 A 
ENDROOT
BRANCH   1   7
ATOM      7  C   UNL     1      -4.371  32.288  14.751  1.00  0.00     0.073 C 
ATOM      8  O   UNL     1      -5.010  32.964  15.601  1.00  0.00    -0.545 OA
ATOM      9  O   UNL     1      -5.035  31.822  13.622  1.00  0.00    -0.545 OA
ENDBRANCH   1   7
TORSDOF 1
ENDMDL
MODEL 4
REMARK VINA RESULT:    -3.474      3.070      3.435
REMARK INTER + INTRA:          -3.695
REMARK INTER:                  -3.674
REMARK INTRA:                  -0.021
REMARK UNBOUND:                -0.018
REMARK SMILES O=C([O-])c1cccnc1
REMARK SMILES IDX 4 1 5 2 9 3 6 4 8 5 7 6 2 7 1 8 3 9
REMARK H PARENT
REMARK Flexibility Score: inf
ROOT
ATOM      1  C   UNL     1       2.417  31.716  14.488  1.00  0.00     0.016 A 
ATOM      2  C   UNL     1       1.083  31.498  14.102  1.00  0.00     0.013 A 
ATOM      3  C   UNL     1       2.989  30.848  15.434  1.00  0.00     0.120 A 
ATOM      4  C   UNL     1       0.359  30.440  14.654  1.00  0.00     0.021 A 
ATOM      5  N   UNL     1       2.261  29.825  15.955  1.00  0.00    -0.264 NA
ATOM      6  C   UNL     1       0.970  29.605  15.589  1.00  0.00     0.111 A 
ENDROOT
BRANCH   1   7
ATOM      7  C   UNL     1       3.202  32.830  13.916  1.00  0.00     0.073 C 
ATOM      8  O   UNL     1       4.437  32.702  13.702  1.00  0.00    -0.545 OA
ATOM      9  O   UNL     1       2.586  34.038  13.606  1.00  0.00    -0.545 OA
ENDBRANCH   1   7
TORSDOF 1
ENDMDL
MODEL 5
REMARK VINA RESULT:    -3.468      5.296      6.269
REMARK INTER + INTRA:          -3.688
REMARK INTER:                  -3.664
REMARK INTRA:                  -0.024
REMARK UNBOUND:                -0.018
REMARK SMILES O=C([O-])c1cccnc1
REMARK SMILES IDX 4 1 5 2 9 3 6 4 8 5 7 6 2 7 1 8 3 9
REMARK H PARENT
REMARK Flexibility Score: inf
ROOT
ATOM      1  C   UNL     1      -2.251  32.149  15.229  1.00  0.00     0.016 A 
ATOM      2  C   UNL     1      -2.441  30.964  14.498  1.00  0.00     0.013 A 
ATOM      3  C   UNL     1      -3.366  32.967  15.476  1.00  0.00     0.120 A 
ATOM      4  C   UNL     1      -3.713  30.622  14.036  1.00  0.00     0.021 A 
ATOM      5  N   UNL     1      -4.595  32.611  15.015  1.00  0.00    -0.264 NA
ATOM      6  C   UNL     1      -4.789  31.467  14.307  1.00  0.00     0.111 A 
ENDROOT
BRANCH   1   7
ATOM      7  C   UNL     1      -0.912  32.529  15.728  1.00  0.00     0.073 C 
ATOM      8  O   UNL     1       0.085  31.790  15.513  1.00  0.00    -0.545 OA
ATOM      9  O   UNL     1      -0.735  33.709  16.441  1.00  0.00    -0.545 OA
ENDBRANCH   1   7
TORSDOF 1
ENDMDL
MODEL 6
REMARK VINA RESULT:    -3.320     15.154     16.170
REMARK INTER + INTRA:          -3.532
REMARK INTER:                  -3.510
REMARK INTRA:                  -0.022
REMARK UNBOUND:                -0.018
REMARK SMILES O=C([O-])c1cccnc1
REMARK SMILES IDX 4 1 5 2 9 3 6 4 8 5 7 6 2 7 1 8 3 9
REMARK H PARENT
REMARK Flexibility Score: inf
ROOT
ATOM      1  C   UNL     1       7.381  29.280   0.573  1.00  0.00     0.016 A 
ATOM      2  C   UNL     1       6.249  29.352   1.403  1.00  0.00     0.013 A 
ATOM      3  C   UNL     1       7.593  30.309  -0.359  1.00  0.00     0.120 A 
ATOM      4  C   UNL     1       5.367  30.428   1.293  1.00  0.00     0.021 A 
ATOM      5  N   UNL     1       6.718  31.347  -0.445  1.00  0.00    -0.264 NA
ATOM      6  C   UNL     1       5.620  31.427   0.353  1.00  0.00     0.111 A 
ENDROOT
BRANCH   1   7
ATOM      7  C   UNL     1       8.328  28.148   0.674  1.00  0.00     0.073 C 
ATOM      8  O   UNL     1       9.022  27.803  -0.319  1.00  0.00    -0.545 OA
ATOM      9  O   UNL     1       8.464  27.449   1.868  1.00  0.00    -0.545 OA
ENDBRANCH   1   7
TORSDOF 1
ENDMDL
MODEL 7
REMARK VINA RESULT:    -3.247      6.595      7.142
REMARK INTER + INTRA:          -3.455
REMARK INTER:                  -3.438
REMARK INTRA:                  -0.017
REMARK UNBOUND:                -0.018
REMARK SMILES O=C([O-])c1cccnc1
REMARK SMILES IDX 4 1 5 2 9 3 6 4 8 5 7 6 2 7 1 8 3 9
REMARK H PARENT
REMARK Flexibility Score: inf
ROOT
ATOM      1  C   UNL     1       0.589  27.300  15.670  1.00  0.00     0.016 A 
ATOM      2  C   UNL     1       0.231  28.064  14.546  1.00  0.00     0.013 A 
ATOM      3  C   UNL     1       0.497  27.894  16.939  1.00  0.00     0.120 A 
ATOM      4  C   UNL     1      -0.204  29.381  14.705  1.00  0.00     0.021 A 
ATOM      5  N   UNL     1       0.070  29.179  17.066  1.00  0.00    -0.264 NA
ATOM      6  C   UNL     1      -0.279  29.927  15.986  1.00  0.00     0.111 A 
ENDROOT
BRANCH   1   7
ATOM      7  C   UNL     1       1.053  25.903  15.523  1.00  0.00     0.073 C 
ATOM      8  O   UNL     1       2.238  25.588  15.811  1.00  0.00    -0.545 OA
ATOM      9  O   UNL     1       0.185  24.918  15.064  1.00  0.00    -0.545 OA
ENDBRANCH   1   7
TORSDOF 1
ENDMDL
MODEL 8
REMARK VINA RESULT:    -3.234      5.596      6.482
REMARK INTER + INTRA:          -3.441
REMARK INTER:                  -3.417
REMARK INTRA:                  -0.024
REMARK UNBOUND:                -0.018
REMARK SMILES O=C([O-])c1cccnc1
REMARK SMILES IDX 4 1 5 2 9 3 6 4 8 5 7 6 2 7 1 8 3 9
REMARK H PARENT
REMARK Flexibility Score: inf
ROOT
ATOM      1  C   UNL     1      -3.739  32.704  15.417  1.00  0.00     0.016 A 
ATOM      2  C   UNL     1      -4.514  31.725  14.772  1.00  0.00     0.013 A 
ATOM      3  C   UNL     1      -2.340  32.573  15.391  1.00  0.00     0.120 A 
ATOM      4  C   UNL     1      -3.894  30.655  14.124  1.00  0.00     0.021 A 
ATOM      5  N   UNL     1      -1.762  31.521  14.752  1.00  0.00    -0.264 NA
ATOM      6  C   UNL     1      -2.502  30.569  14.124  1.00  0.00     0.111 A 
ENDROOT
BRANCH   1   7
ATOM      7  C   UNL     1      -4.376  33.844  16.109  1.00  0.00     0.073 C 
ATOM      8  O   UNL     1      -5.627  33.897  16.240  1.00  0.00    -0.545 OA
ATOM      9  O   UNL     1      -3.600  34.877  16.625  1.00  0.00    -0.545 OA
ENDBRANCH   1   7
TORSDOF 1
ENDMDL
MODEL 9
REMARK VINA RESULT:    -3.205      2.945      3.347
REMARK INTER + INTRA:          -3.410
REMARK INTER:                  -3.392
REMARK INTRA:                  -0.019
REMARK UNBOUND:                -0.018
REMARK SMILES O=C([O-])c1cccnc1
REMARK SMILES IDX 4 1 5 2 9 3 6 4 8 5 7 6 2 7 1 8 3 9
REMARK H PARENT
REMARK Flexibility Score: inf
ROOT
ATOM      1  C   UNL     1       0.715  31.522  14.641  1.00  0.00     0.016 A 
ATOM      2  C   UNL     1       1.803  31.011  13.913  1.00  0.00     0.013 A 
ATOM      3  C   UNL     1       0.922  32.657  15.443  1.00  0.00     0.120 A 
ATOM      4  C   UNL     1       3.053  31.628  13.995  1.00  0.00     0.021 A 
ATOM      5  N   UNL     1       2.150  33.239  15.505  1.00  0.00    -0.264 NA
ATOM      6  C   UNL     1       3.209  32.753  14.805  1.00  0.00     0.111 A 
ENDROOT
BRANCH   1   7
ATOM      7  C   UNL     1      -0.616  30.883  14.568  1.00  0.00     0.073 C 
ATOM      8  O   UNL     1      -0.754  29.657  14.820  1.00  0.00    -0.545 OA
ATOM      9  O   UNL     1      -1.737  31.630  14.218  1.00  0.00    -0.545 OA
ENDBRANCH   1   7
TORSDOF 1
ENDMDL
