MODEL 1
REMARK VINA RESULT:    -3.667      0.000      0.000
REMARK INTER + INTRA:         -10.252
REMARK INTER:                  -7.955
REMARK INTRA:                  -2.297
REMARK UNBOUND:                -2.297
REMARK SMILES CCCCCCCCCCCCCCCCCCCCCC(=O)[O-]
REMARK SMILES IDX 12 1 11 2 10 3 9 4 8 5 7 6 6 7 5 8 4 9 3 10 2 11 1 12 13 13
REMARK SMILES IDX 14 14 15 15 16 16 17 17 18 18 19 19 20 20 21 21 22 22 23 23
REMARK SMILES IDX 24 24
REMARK H PARENT
REMARK Flexibility Score: inf
ROOT
ATOM      1  C   UNL     1       7.908  21.228  19.856  1.00  0.00     0.000 C 
ENDROOT
BRANCH   1   2
ATOM      2  C   UNL     1       6.793  21.740  18.927  1.00  0.00     0.000 C 
BRANCH   2   3
ATOM      3  C   UNL     1       6.757  20.990  17.584  1.00  0.00     0.000 C 
BRANCH   3   4
ATOM      4  C   UNL     1       5.708  19.859  17.538  1.00  0.00    -0.000 C 
BRANCH   4   5
ATOM      5  C   UNL     1       5.384  19.416  16.098  1.00  0.00    -0.000 C 
BRANCH   5   6
ATOM      6  C   UNL     1       3.933  18.909  15.944  1.00  0.00    -0.000 C 
BRANCH   6   7
ATOM      7  C   UNL     1       3.765  17.396  16.189  1.00  0.00    -0.000 C 
BRANCH   7   8
ATOM      8  C   UNL     1       2.336  16.854  16.009  1.00  0.00    -0.000 C 
BRANCH   8   9
ATOM      9  C   UNL     1       2.282  15.317  15.942  1.00  0.00    -0.000 C 
BRANCH   9  10
ATOM     10  C   UNL     1       2.685  14.653  17.270  1.00  0.00    -0.000 C 
BRANCH  10  11
ATOM     11  C   UNL     1       1.847  13.425  17.669  1.00  0.00    -0.003 C 
ATOM     12  C   UNL     1       1.300  12.664  16.463  1.00  0.00     0.004 C 
ENDBRANCH  10  11
ENDBRANCH   9  10
ENDBRANCH   8   9
ENDBRANCH   7   8
ENDBRANCH   6   7
ENDBRANCH   5   6
ENDBRANCH   4   5
ENDBRANCH   3   4
ENDBRANCH   2   3
ENDBRANCH   1   2
BRANCH   1  13
ATOM     13  C   UNL     1       9.264  21.922  19.598  1.00  0.00     0.000 C 
BRANCH  13  14
ATOM     14  C   UNL     1      10.455  21.233  20.293  1.00  0.00     0.000 C 
BRANCH  14  15
ATOM     15  C   UNL     1      11.837  21.693  19.797  1.00  0.00     0.000 C 
BRANCH  15  16
ATOM     16  C   UNL     1      11.743  22.647  18.592  1.00  0.00     0.000 C 
BRANCH  16  17
ATOM     17  C   UNL     1      12.828  22.376  17.537  1.00  0.00     0.000 C 
BRANCH  17  18
ATOM     18  C   UNL     1      12.261  21.722  16.264  1.00  0.00     0.000 C 
BRANCH  18  19
ATOM     19  C   UNL     1      10.729  21.806  16.191  1.00  0.00     0.000 C 
BRANCH  19  20
ATOM     20  C   UNL     1      10.070  20.433  15.992  1.00  0.00     0.006 C 
BRANCH  20  21
ATOM     21  C   UNL     1      10.476  19.466  17.109  1.00  0.00     0.053 C 
BRANCH  21  22
ATOM     22  C   UNL     1       9.354  18.532  17.432  1.00  0.00     0.041 C 
ATOM     23  O   UNL     1       9.121  18.209  18.626  1.00  0.00    -0.550 OA
ATOM     24  O   UNL     1       8.534  18.057  16.417  1.00  0.00    -0.550 OA
ENDBRANCH  21  22
ENDBRANCH  20  21
ENDBRANCH  19  20
ENDBRANCH  18  19
ENDBRANCH  17  18
ENDBRANCH  16  17
ENDBRANCH  15  16
ENDBRANCH  14  15
ENDBRANCH  13  14
ENDBRANCH   1  13
TORSDOF 20
ENDMDL
MODEL 2
REMARK VINA RESULT:    -3.636      4.158      7.287
REMARK INTER + INTRA:         -10.185
REMARK INTER:                  -6.899
REMARK INTRA:                  -3.286
REMARK UNBOUND:                -2.297
REMARK SMILES CCCCCCCCCCCCCCCCCCCCCC(=O)[O-]
REMARK SMILES IDX 12 1 11 2 10 3 9 4 8 5 7 6 6 7 5 8 4 9 3 10 2 11 1 12 13 13
REMARK SMILES IDX 14 14 15 15 16 16 17 17 18 18 19 19 20 20 21 21 22 22 23 23
REMARK SMILES IDX 24 24
REMARK H PARENT
REMARK Flexibility Score: inf
ROOT
ATOM      1  C   UNL     1      11.670  21.246  19.837  1.00  0.00     0.000 C 
ENDROOT
BRANCH   1   2
ATOM      2  C   UNL     1      12.089  22.716  19.659  1.00  0.00     0.000 C 
BRANCH   2   3
ATOM      3  C   UNL     1      13.001  22.923  18.437  1.00  0.00     0.000 C 
BRANCH   3   4
ATOM      4  C   UNL     1      12.265  22.778  17.087  1.00  0.00    -0.000 C 
BRANCH   4   5
ATOM      5  C   UNL     1      12.809  21.610  16.244  1.00  0.00    -0.000 C 
BRANCH   5   6
ATOM      6  C   UNL     1      11.791  20.457  16.099  1.00  0.00    -0.000 C 
BRANCH   6   7
ATOM      7  C   UNL     1      10.317  20.906  16.160  1.00  0.00    -0.000 C 
BRANCH   7   8
ATOM      8  C   UNL     1       9.303  19.798  16.492  1.00  0.00    -0.000 C 
BRANCH   8   9
ATOM      9  C   UNL     1       7.870  20.329  16.666  1.00  0.00    -0.000 C 
BRANCH   9  10
ATOM     10  C   UNL     1       7.203  19.820  17.956  1.00  0.00    -0.000 C 
BRANCH  10  11
ATOM     11  C   UNL     1       5.684  20.048  18.042  1.00  0.00    -0.003 C 
ATOM     12  C   UNL     1       5.298  21.521  17.925  1.00  0.00     0.004 C 
ENDBRANCH  10  11
ENDBRANCH   9  10
ENDBRANCH   8   9
ENDBRANCH   7   8
ENDBRANCH   6   7
ENDBRANCH   5   6
ENDBRANCH   4   5
ENDBRANCH   3   4
ENDBRANCH   2   3
ENDBRANCH   1   2
BRANCH   1  13
ATOM     13  C   UNL     1      10.139  21.067  19.914  1.00  0.00     0.000 C 
BRANCH  13  14
ATOM     14  C   UNL     1       9.346  22.331  19.524  1.00  0.00     0.000 C 
BRANCH  14  15
ATOM     15  C   UNL     1       8.222  22.707  20.505  1.00  0.00     0.000 C 
BRANCH  15  16
ATOM     16  C   UNL     1       8.347  21.975  21.853  1.00  0.00     0.000 C 
BRANCH  16  17
ATOM     17  C   UNL     1       6.981  21.647  22.478  1.00  0.00     0.000 C 
BRANCH  17  18
ATOM     18  C   UNL     1       6.062  20.879  21.511  1.00  0.00     0.000 C 
BRANCH  18  19
ATOM     19  C   UNL     1       4.589  21.298  21.641  1.00  0.00     0.000 C 
BRANCH  19  20
ATOM     20  C   UNL     1       3.622  20.114  21.493  1.00  0.00     0.006 C 
BRANCH  20  21
ATOM     21  C   UNL     1       2.704  20.005  22.714  1.00  0.00     0.053 C 
BRANCH  21  22
ATOM     22  C   UNL     1       3.507  19.896  23.971  1.00  0.00     0.041 C 
ATOM     23  O   UNL     1       4.257  18.903  24.161  1.00  0.00    -0.550 OA
ATOM     24  O   UNL     1       3.466  20.917  24.910  1.00  0.00    -0.550 OA
ENDBRANCH  21  22
ENDBRANCH  20  21
ENDBRANCH  19  20
ENDBRANCH  18  19
ENDBRANCH  17  18
ENDBRANCH  16  17
ENDBRANCH  15  16
ENDBRANCH  14  15
ENDBRANCH  13  14
ENDBRANCH   1  13
TORSDOF 20
ENDMDL
MODEL 3
REMARK VINA RESULT:    -3.572      4.188      8.221
REMARK INTER + INTRA:         -10.046
REMARK INTER:                  -7.228
REMARK INTRA:                  -2.817
REMARK UNBOUND:                -2.297
REMARK SMILES CCCCCCCCCCCCCCCCCCCCCC(=O)[O-]
REMARK SMILES IDX 12 1 11 2 10 3 9 4 8 5 7 6 6 7 5 8 4 9 3 10 2 11 1 12 13 13
REMARK SMILES IDX 14 14 15 15 16 16 17 17 18 18 19 19 20 20 21 21 22 22 23 23
REMARK SMILES IDX 24 24
REMARK H PARENT
REMARK Flexibility Score: inf
ROOT
ATOM      1  C   UNL     1       6.824  21.605  17.337  1.00  0.00     0.000 C 
ENDROOT
BRANCH   1   2
ATOM      2  C   UNL     1       6.660  20.092  17.568  1.00  0.00     0.000 C 
BRANCH   2   3
ATOM      3  C   UNL     1       6.947  19.270  16.300  1.00  0.00     0.000 C 
BRANCH   3   4
ATOM      4  C   UNL     1       8.349  18.624  16.288  1.00  0.00    -0.000 C 
BRANCH   4   5
ATOM      5  C   UNL     1       9.010  18.628  17.679  1.00  0.00    -0.000 C 
BRANCH   5   6
ATOM      6  C   UNL     1      10.362  19.373  17.693  1.00  0.00    -0.000 C 
BRANCH   6   7
ATOM      7  C   UNL     1      10.495  20.459  16.606  1.00  0.00    -0.000 C 
BRANCH   7   8
ATOM      8  C   UNL     1      11.936  20.843  16.230  1.00  0.00    -0.000 C 
BRANCH   8   9
ATOM      9  C   UNL     1      12.188  22.360  16.289  1.00  0.00    -0.000 C 
BRANCH   9  10
ATOM     10  C   UNL     1      12.956  22.783  17.553  1.00  0.00    -0.000 C 
BRANCH  10  11
ATOM     11  C   UNL     1      12.083  23.045  18.793  1.00  0.00    -0.003 C 
ATOM     12  C   UNL     1      12.312  22.024  19.905  1.00  0.00     0.004 C 
ENDBRANCH  10  11
ENDBRANCH   9  10
ENDBRANCH   8   9
ENDBRANCH   7   8
ENDBRANCH   6   7
ENDBRANCH   5   6
ENDBRANCH   4   5
ENDBRANCH   3   4
ENDBRANCH   2   3
ENDBRANCH   1   2
BRANCH   1  13
ATOM     13  C   UNL     1       7.041  22.389  18.649  1.00  0.00     0.000 C 
BRANCH  13  14
ATOM     14  C   UNL     1       8.475  22.282  19.206  1.00  0.00     0.000 C 
BRANCH  14  15
ATOM     15  C   UNL     1       8.643  21.264  20.346  1.00  0.00     0.000 C 
BRANCH  15  16
ATOM     16  C   UNL     1       9.174  21.908  21.639  1.00  0.00     0.000 C 
BRANCH  16  17
ATOM     17  C   UNL     1       8.092  22.041  22.722  1.00  0.00     0.000 C 
BRANCH  17  18
ATOM     18  C   UNL     1       6.817  21.249  22.382  1.00  0.00     0.000 C 
BRANCH  18  19
ATOM     19  C   UNL     1       5.599  21.714  23.194  1.00  0.00     0.000 C 
BRANCH  19  20
ATOM     20  C   UNL     1       5.346  20.844  24.433  1.00  0.00     0.006 C 
BRANCH  20  21
ATOM     21  C   UNL     1       5.249  19.364  24.050  1.00  0.00     0.053 C 
BRANCH  21  22
ATOM     22  C   UNL     1       3.824  18.908  24.062  1.00  0.00     0.041 C 
ATOM     23  O   UNL     1       3.548  17.685  23.953  1.00  0.00    -0.550 OA
ATOM     24  O   UNL     1       2.803  19.832  24.243  1.00  0.00    -0.550 OA
ENDBRANCH  21  22
ENDBRANCH  20  21
ENDBRANCH  19  20
ENDBRANCH  18  19
ENDBRANCH  17  18
ENDBRANCH  16  17
ENDBRANCH  15  16
ENDBRANCH  14  15
ENDBRANCH  13  14
ENDBRANCH   1  13
TORSDOF 20
ENDMDL
MODEL 4
REMARK VINA RESULT:    -3.568     18.286     21.424
REMARK INTER + INTRA:         -10.037
REMARK INTER:                  -7.554
REMARK INTRA:                  -2.483
REMARK UNBOUND:                -2.297
REMARK SMILES CCCCCCCCCCCCCCCCCCCCCC(=O)[O-]
REMARK SMILES IDX 12 1 11 2 10 3 9 4 8 5 7 6 6 7 5 8 4 9 3 10 2 11 1 12 13 13
REMARK SMILES IDX 14 14 15 15 16 16 17 17 18 18 19 19 20 20 21 21 22 22 23 23
REMARK SMILES IDX 24 24
REMARK H PARENT
REMARK Flexibility Score: inf
ROOT
ATOM      1  C   UNL     1      11.508   4.429  32.282  1.00  0.00     0.000 C 
ENDROOT
BRANCH   1   2
ATOM      2  C   UNL     1      12.164   3.051  32.469  1.00  0.00     0.000 C 
BRANCH   2   3
ATOM      3  C   UNL     1      12.961   2.953  33.782  1.00  0.00     0.000 C 
BRANCH   3   4
ATOM      4  C   UNL     1      12.080   3.045  35.046  1.00  0.00    -0.000 C 
BRANCH   4   5
ATOM      5  C   UNL     1      12.491   4.210  35.966  1.00  0.00    -0.000 C 
BRANCH   5   6
ATOM      6  C   UNL     1      11.375   5.265  36.125  1.00  0.00    -0.000 C 
BRANCH   6   7
ATOM      7  C   UNL     1       9.958   4.734  35.828  1.00  0.00    -0.000 C 
BRANCH   7   8
ATOM      8  C   UNL     1       8.887   5.811  35.583  1.00  0.00    -0.000 C 
BRANCH   8   9
ATOM      9  C   UNL     1       8.974   6.432  34.178  1.00  0.00    -0.000 C 
BRANCH   9  10
ATOM     10  C   UNL     1       8.123   5.675  33.143  1.00  0.00    -0.000 C 
BRANCH  10  11
ATOM     11  C   UNL     1       6.643   5.490  33.522  1.00  0.00    -0.003 C 
ATOM     12  C   UNL     1       6.240   4.021  33.636  1.00  0.00     0.004 C 
ENDBRANCH  10  11
ENDBRANCH   9  10
ENDBRANCH   8   9
ENDBRANCH   7   8
ENDBRANCH   6   7
ENDBRANCH   5   6
ENDBRANCH   4   5
ENDBRANCH   3   4
ENDBRANCH   2   3
ENDBRANCH   1   2
BRANCH   1  13
ATOM     13  C   UNL     1      10.830   4.585  30.903  1.00  0.00     0.000 C 
BRANCH  13  14
ATOM     14  C   UNL     1      10.737   3.268  30.106  1.00  0.00     0.000 C 
BRANCH  14  15
ATOM     15  C   UNL     1       9.421   3.084  29.330  1.00  0.00     0.000 C 
BRANCH  15  16
ATOM     16  C   UNL     1       8.410   4.211  29.608  1.00  0.00     0.000 C 
BRANCH  16  17
ATOM     17  C   UNL     1       7.016   3.679  29.976  1.00  0.00     0.000 C 
BRANCH  17  18
ATOM     18  C   UNL     1       5.937   4.776  29.933  1.00  0.00     0.000 C 
BRANCH  18  19
ATOM     19  C   UNL     1       4.919   4.559  28.803  1.00  0.00     0.000 C 
BRANCH  19  20
ATOM     20  C   UNL     1       4.944   5.685  27.760  1.00  0.00     0.006 C 
BRANCH  20  21
ATOM     21  C   UNL     1       3.529   6.191  27.469  1.00  0.00     0.053 C 
BRANCH  21  22
ATOM     22  C   UNL     1       3.446   7.671  27.667  1.00  0.00     0.041 C 
ATOM     23  O   UNL     1       2.525   8.167  28.367  1.00  0.00    -0.550 OA
ATOM     24  O   UNL     1       4.416   8.499  27.118  1.00  0.00    -0.550 OA
ENDBRANCH  21  22
ENDBRANCH  20  21
ENDBRANCH  19  20
ENDBRANCH  18  19
ENDBRANCH  17  18
ENDBRANCH  16  17
ENDBRANCH  15  16
ENDBRANCH  14  15
ENDBRANCH  13  14
ENDBRANCH   1  13
TORSDOF 20
ENDMDL
MODEL 5
REMARK VINA RESULT:    -3.542     12.730     16.688
REMARK INTER + INTRA:          -9.981
REMARK INTER:                  -6.915
REMARK INTRA:                  -3.065
REMARK UNBOUND:                -2.297
REMARK SMILES CCCCCCCCCCCCCCCCCCCCCC(=O)[O-]
REMARK SMILES IDX 12 1 11 2 10 3 9 4 8 5 7 6 6 7 5 8 4 9 3 10 2 11 1 12 13 13
REMARK SMILES IDX 14 14 15 15 16 16 17 17 18 18 19 19 20 20 21 21 22 22 23 23
REMARK SMILES IDX 24 24
REMARK H PARENT
REMARK Flexibility Score: inf
ROOT
ATOM      1  C   UNL     1       2.225   8.056  29.066  1.00  0.00     0.000 C 
ENDROOT
BRANCH   1   2
ATOM      2  C   UNL     1       0.718   8.076  28.755  1.00  0.00     0.000 C 
BRANCH   2   3
ATOM      3  C   UNL     1      -0.091   8.840  29.818  1.00  0.00     0.000 C 
BRANCH   3   4
ATOM      4  C   UNL     1       0.773   9.758  30.708  1.00  0.00    -0.000 C 
BRANCH   4   5
ATOM      5  C   UNL     1      -0.069  10.795  31.475  1.00  0.00    -0.000 C 
BRANCH   5   6
ATOM      6  C   UNL     1       0.628  12.169  31.577  1.00  0.00    -0.000 C 
BRANCH   6   7
ATOM      7  C   UNL     1       0.026  13.105  32.644  1.00  0.00    -0.000 C 
BRANCH   7   8
ATOM      8  C   UNL     1       0.366  12.749  34.102  1.00  0.00    -0.000 C 
BRANCH   8   9
ATOM      9  C   UNL     1       1.836  12.337  34.290  1.00  0.00    -0.000 C 
BRANCH   9  10
ATOM     10  C   UNL     1       1.983  10.924  34.881  1.00  0.00    -0.000 C 
BRANCH  10  11
ATOM     11  C   UNL     1       2.717   9.912  33.983  1.00  0.00    -0.003 C 
ATOM     12  C   UNL     1       2.019   8.555  33.926  1.00  0.00     0.004 C 
ENDBRANCH  10  11
ENDBRANCH   9  10
ENDBRANCH   8   9
ENDBRANCH   7   8
ENDBRANCH   6   7
ENDBRANCH   5   6
ENDBRANCH   4   5
ENDBRANCH   3   4
ENDBRANCH   2   3
ENDBRANCH   1   2
BRANCH   1  13
ATOM     13  C   UNL     1       3.097   8.208  27.800  1.00  0.00     0.000 C 
BRANCH  13  14
ATOM     14  C   UNL     1       3.356   9.675  27.399  1.00  0.00     0.000 C 
BRANCH  14  15
ATOM     15  C   UNL     1       2.674  10.107  26.089  1.00  0.00     0.000 C 
BRANCH  15  16
ATOM     16  C   UNL     1       1.412  10.954  26.332  1.00  0.00     0.000 C 
BRANCH  16  17
ATOM     17  C   UNL     1       1.365  11.554  27.746  1.00  0.00     0.000 C 
BRANCH  17  18
ATOM     18  C   UNL     1       0.362  12.715  27.860  1.00  0.00     0.000 C 
BRANCH  18  19
ATOM     19  C   UNL     1       0.977  13.965  28.507  1.00  0.00     0.000 C 
BRANCH  19  20
ATOM     20  C   UNL     1       1.256  15.082  27.491  1.00  0.00     0.006 C 
BRANCH  20  21
ATOM     21  C   UNL     1       2.548  14.804  26.717  1.00  0.00     0.053 C 
BRANCH  21  22
ATOM     22  C   UNL     1       2.294  14.816  25.243  1.00  0.00     0.041 C 
ATOM     23  O   UNL     1       3.230  15.062  24.439  1.00  0.00    -0.550 OA
ATOM     24  O   UNL     1       1.031  14.505  24.756  1.00  0.00    -0.550 OA
ENDBRANCH  21  22
ENDBRANCH  20  21
ENDBRANCH  19  20
ENDBRANCH  18  19
ENDBRANCH  17  18
ENDBRANCH  16  17
ENDBRANCH  15  16
ENDBRANCH  14  15
ENDBRANCH  13  14
ENDBRANCH   1  13
TORSDOF 20
ENDMDL
MODEL 6
REMARK VINA RESULT:    -3.499     14.255     17.820
REMARK INTER + INTRA:          -9.888
REMARK INTER:                  -7.436
REMARK INTRA:                  -2.452
REMARK UNBOUND:                -2.297
REMARK SMILES CCCCCCCCCCCCCCCCCCCCCC(=O)[O-]
REMARK SMILES IDX 12 1 11 2 10 3 9 4 8 5 7 6 6 7 5 8 4 9 3 10 2 11 1 12 13 13
REMARK SMILES IDX 14 14 15 15 16 16 17 17 18 18 19 19 20 20 21 21 22 22 23 23
REMARK SMILES IDX 24 24
REMARK H PARENT
REMARK Flexibility Score: inf
ROOT
ATOM      1  C   UNL     1       2.575  10.387  33.849  1.00  0.00     0.000 C 
ENDROOT
BRANCH   1   2
ATOM      2  C   UNL     1       2.749   9.480  35.080  1.00  0.00     0.000 C 
BRANCH   2   3
ATOM      3  C   UNL     1       1.891   8.205  34.996  1.00  0.00     0.000 C 
BRANCH   3   4
ATOM      4  C   UNL     1       2.721   6.914  34.835  1.00  0.00    -0.000 C 
BRANCH   4   5
ATOM      5  C   UNL     1       3.572   6.918  33.551  1.00  0.00    -0.000 C 
BRANCH   5   6
ATOM      6  C   UNL     1       2.834   6.291  32.348  1.00  0.00    -0.000 C 
BRANCH   6   7
ATOM      7  C   UNL     1       2.382   7.312  31.284  1.00  0.00    -0.000 C 
BRANCH   7   8
ATOM      8  C   UNL     1       0.988   7.924  31.507  1.00  0.00    -0.000 C 
BRANCH   8   9
ATOM      9  C   UNL     1       0.543   8.837  30.351  1.00  0.00    -0.000 C 
BRANCH   9  10
ATOM     10  C   UNL     1       1.719   9.590  29.706  1.00  0.00    -0.000 C 
BRANCH  10  11
ATOM     11  C   UNL     1       1.818   9.461  28.175  1.00  0.00    -0.003 C 
ATOM     12  C   UNL     1       3.196   9.000  27.707  1.00  0.00     0.004 C 
ENDBRANCH  10  11
ENDBRANCH   9  10
ENDBRANCH   8   9
ENDBRANCH   7   8
ENDBRANCH   6   7
ENDBRANCH   5   6
ENDBRANCH   4   5
ENDBRANCH   3   4
ENDBRANCH   2   3
ENDBRANCH   1   2
BRANCH   1  13
ATOM     13  C   UNL     1       2.522  11.887  34.215  1.00  0.00     0.000 C 
BRANCH  13  14
ATOM     14  C   UNL     1       1.165  12.336  34.793  1.00  0.00     0.000 C 
BRANCH  14  15
ATOM     15  C   UNL     1      -0.015  12.221  33.813  1.00  0.00     0.000 C 
BRANCH  15  16
ATOM     16  C   UNL     1       0.119  13.176  32.613  1.00  0.00     0.000 C 
BRANCH  16  17
ATOM     17  C   UNL     1       0.088  12.441  31.264  1.00  0.00     0.000 C 
BRANCH  17  18
ATOM     18  C   UNL     1      -0.014  13.406  30.070  1.00  0.00     0.000 C 
BRANCH  18  19
ATOM     19  C   UNL     1       1.019  13.100  28.974  1.00  0.00     0.000 C 
BRANCH  19  20
ATOM     20  C   UNL     1       1.350  14.329  28.115  1.00  0.00     0.006 C 
BRANCH  20  21
ATOM     21  C   UNL     1       1.161  14.020  26.627  1.00  0.00     0.053 C 
BRANCH  21  22
ATOM     22  C   UNL     1       2.464  13.646  25.995  1.00  0.00     0.041 C 
ATOM     23  O   UNL     1       2.826  12.441  25.954  1.00  0.00    -0.550 OA
ATOM     24  O   UNL     1       3.256  14.623  25.408  1.00  0.00    -0.550 OA
ENDBRANCH  21  22
ENDBRANCH  20  21
ENDBRANCH  19  20
ENDBRANCH  18  19
ENDBRANCH  17  18
ENDBRANCH  16  17
ENDBRANCH  15  16
ENDBRANCH  14  15
ENDBRANCH  13  14
ENDBRANCH   1  13
TORSDOF 20
ENDMDL
MODEL 7
REMARK VINA RESULT:    -3.494     19.306     22.137
REMARK INTER + INTRA:          -9.876
REMARK INTER:                  -7.606
REMARK INTRA:                  -2.270
REMARK UNBOUND:                -2.297
REMARK SMILES CCCCCCCCCCCCCCCCCCCCCC(=O)[O-]
REMARK SMILES IDX 12 1 11 2 10 3 9 4 8 5 7 6 6 7 5 8 4 9 3 10 2 11 1 12 13 13
REMARK SMILES IDX 14 14 15 15 16 16 17 17 18 18 19 19 20 20 21 21 22 22 23 23
REMARK SMILES IDX 24 24
REMARK H PARENT
REMARK Flexibility Score: inf
ROOT
ATOM      1  C   UNL     1       6.906   4.192  33.102  1.00  0.00     0.000 C 
ENDROOT
BRANCH   1   2
ATOM      2  C   UNL     1       6.867   4.316  34.635  1.00  0.00     0.000 C 
BRANCH   2   3
ATOM      3  C   UNL     1       6.613   5.760  35.101  1.00  0.00     0.000 C 
BRANCH   3   4
ATOM      4  C   UNL     1       7.879   6.468  35.632  1.00  0.00    -0.000 C 
BRANCH   4   5
ATOM      5  C   UNL     1       8.783   6.985  34.496  1.00  0.00    -0.000 C 
BRANCH   5   6
ATOM      6  C   UNL     1      10.188   6.345  34.517  1.00  0.00    -0.000 C 
BRANCH   6   7
ATOM      7  C   UNL     1      10.338   5.187  35.524  1.00  0.00    -0.000 C 
BRANCH   7   8
ATOM      8  C   UNL     1      11.690   4.454  35.489  1.00  0.00    -0.000 C 
BRANCH   8   9
ATOM      9  C   UNL     1      11.686   3.234  34.551  1.00  0.00    -0.000 C 
BRANCH   9  10
ATOM     10  C   UNL     1      12.228   3.564  33.150  1.00  0.00    -0.000 C 
BRANCH  10  11
ATOM     11  C   UNL     1      11.164   3.658  32.041  1.00  0.00    -0.003 C 
ATOM     12  C   UNL     1      11.173   5.006  31.325  1.00  0.00     0.004 C 
ENDBRANCH  10  11
ENDBRANCH   9  10
ENDBRANCH   8   9
ENDBRANCH   7   8
ENDBRANCH   6   7
ENDBRANCH   5   6
ENDBRANCH   4   5
ENDBRANCH   3   4
ENDBRANCH   2   3
ENDBRANCH   1   2
BRANCH   1  13
ATOM     13  C   UNL     1       6.291   5.416  32.389  1.00  0.00     0.000 C 
BRANCH  13  14
ATOM     14  C   UNL     1       5.232   5.049  31.329  1.00  0.00     0.000 C 
BRANCH  14  15
ATOM     15  C   UNL     1       3.832   5.626  31.599  1.00  0.00     0.000 C 
BRANCH  15  16
ATOM     16  C   UNL     1       3.567   5.855  33.098  1.00  0.00     0.000 C 
BRANCH  16  17
ATOM     17  C   UNL     1       3.142   7.298  33.411  1.00  0.00     0.000 C 
BRANCH  17  18
ATOM     18  C   UNL     1       3.413   7.687  34.875  1.00  0.00     0.000 C 
BRANCH  18  19
ATOM     19  C   UNL     1       2.925   9.106  35.208  1.00  0.00     0.000 C 
BRANCH  19  20
ATOM     20  C   UNL     1       2.553   9.913  33.955  1.00  0.00     0.006 C 
BRANCH  20  21
ATOM     21  C   UNL     1       2.809  11.407  34.173  1.00  0.00     0.053 C 
BRANCH  21  22
ATOM     22  C   UNL     1       1.557  12.194  33.949  1.00  0.00     0.041 C 
ATOM     23  O   UNL     1       1.044  12.852  34.891  1.00  0.00    -0.550 OA
ATOM     24  O   UNL     1       0.986  12.242  32.684  1.00  0.00    -0.550 OA
ENDBRANCH  21  22
ENDBRANCH  20  21
ENDBRANCH  19  20
ENDBRANCH  18  19
ENDBRANCH  17  18
ENDBRANCH  16  17
ENDBRANCH  15  16
ENDBRANCH  14  15
ENDBRANCH  13  14
ENDBRANCH   1  13
TORSDOF 20
ENDMDL
MODEL 8
REMARK VINA RESULT:    -3.476      2.444      7.375
REMARK INTER + INTRA:          -9.837
REMARK INTER:                  -6.800
REMARK INTRA:                  -3.036
REMARK UNBOUND:                -2.297
REMARK SMILES CCCCCCCCCCCCCCCCCCCCCC(=O)[O-]
REMARK SMILES IDX 12 1 11 2 10 3 9 4 8 5 7 6 6 7 5 8 4 9 3 10 2 11 1 12 13 13
REMARK SMILES IDX 14 14 15 15 16 16 17 17 18 18 19 19 20 20 21 21 22 22 23 23
REMARK SMILES IDX 24 24
REMARK H PARENT
REMARK Flexibility Score: inf
ROOT
ATOM      1  C   UNL     1       9.697  21.316  21.042  1.00  0.00     0.000 C 
ENDROOT
BRANCH   1   2
ATOM      2  C   UNL     1      11.048  20.985  20.383  1.00  0.00     0.000 C 
BRANCH   2   3
ATOM      3  C   UNL     1      12.182  21.898  20.880  1.00  0.00     0.000 C 
BRANCH   3   4
ATOM      4  C   UNL     1      12.861  22.706  19.753  1.00  0.00    -0.000 C 
BRANCH   4   5
ATOM      5  C   UNL     1      12.040  22.701  18.449  1.00  0.00    -0.000 C 
BRANCH   5   6
ATOM      6  C   UNL     1      12.928  22.733  17.187  1.00  0.00    -0.000 C 
BRANCH   6   7
ATOM      7  C   UNL     1      12.584  21.650  16.145  1.00  0.00    -0.000 C 
BRANCH   7   8
ATOM      8  C   UNL     1      11.663  20.524  16.644  1.00  0.00    -0.000 C 
BRANCH   8   9
ATOM      9  C   UNL     1      10.292  20.517  15.946  1.00  0.00    -0.000 C 
BRANCH   9  10
ATOM     10  C   UNL     1       9.191  21.172  16.798  1.00  0.00    -0.000 C 
BRANCH  10  11
ATOM     11  C   UNL     1       8.103  20.212  17.313  1.00  0.00    -0.003 C 
ATOM     12  C   UNL     1       8.662  19.106  18.205  1.00  0.00     0.004 C 
ENDBRANCH  10  11
ENDBRANCH   9  10
ENDBRANCH   8   9
ENDBRANCH   7   8
ENDBRANCH   6   7
ENDBRANCH   5   6
ENDBRANCH   4   5
ENDBRANCH   3   4
ENDBRANCH   2   3
ENDBRANCH   1   2
BRANCH   1  13
ATOM     13  C   UNL     1       9.026  22.567  20.432  1.00  0.00     0.000 C 
BRANCH  13  14
ATOM     14  C   UNL     1       7.486  22.503  20.425  1.00  0.00     0.000 C 
BRANCH  14  15
ATOM     15  C   UNL     1       6.898  21.211  21.019  1.00  0.00     0.000 C 
BRANCH  15  16
ATOM     16  C   UNL     1       5.477  20.919  20.505  1.00  0.00     0.000 C 
BRANCH  16  17
ATOM     17  C   UNL     1       5.281  21.330  19.037  1.00  0.00     0.000 C 
BRANCH  17  18
ATOM     18  C   UNL     1       4.172  20.521  18.342  1.00  0.00     0.000 C 
BRANCH  18  19
ATOM     19  C   UNL     1       4.386  20.410  16.825  1.00  0.00     0.000 C 
BRANCH  19  20
ATOM     20  C   UNL     1       4.706  18.977  16.375  1.00  0.00     0.006 C 
BRANCH  20  21
ATOM     21  C   UNL     1       3.426  18.223  16.004  1.00  0.00     0.053 C 
BRANCH  21  22
ATOM     22  C   UNL     1       3.225  17.049  16.908  1.00  0.00     0.041 C 
ATOM     23  O   UNL     1       3.332  15.877  16.461  1.00  0.00    -0.550 OA
ATOM     24  O   UNL     1       2.967  17.249  18.258  1.00  0.00    -0.550 OA
ENDBRANCH  21  22
ENDBRANCH  20  21
ENDBRANCH  19  20
ENDBRANCH  18  19
ENDBRANCH  17  18
ENDBRANCH  16  17
ENDBRANCH  15  16
ENDBRANCH  14  15
ENDBRANCH  13  14
ENDBRANCH   1  13
TORSDOF 20
ENDMDL
MODEL 9
REMARK VINA RESULT:    -3.463      4.060      7.829
REMARK INTER + INTRA:          -9.810
REMARK INTER:                  -6.535
REMARK INTRA:                  -3.275
REMARK UNBOUND:                -2.297
REMARK SMILES CCCCCCCCCCCCCCCCCCCCCC(=O)[O-]
REMARK SMILES IDX 12 1 11 2 10 3 9 4 8 5 7 6 6 7 5 8 4 9 3 10 2 11 1 12 13 13
REMARK SMILES IDX 14 14 15 15 16 16 17 17 18 18 19 19 20 20 21 21 22 22 23 23
REMARK SMILES IDX 24 24
REMARK H PARENT
REMARK Flexibility Score: inf
ROOT
ATOM      1  C   UNL     1       9.534  21.325  21.024  1.00  0.00     0.000 C 
ENDROOT
BRANCH   1   2
ATOM      2  C   UNL     1      11.072  21.312  21.044  1.00  0.00     0.000 C 
BRANCH   2   3
ATOM      3  C   UNL     1      11.679  21.355  19.631  1.00  0.00     0.000 C 
BRANCH   3   4
ATOM      4  C   UNL     1      12.561  22.595  19.376  1.00  0.00    -0.000 C 
BRANCH   4   5
ATOM      5  C   UNL     1      12.648  22.958  17.881  1.00  0.00    -0.000 C 
BRANCH   5   6
ATOM      6  C   UNL     1      12.649  21.713  16.967  1.00  0.00    -0.000 C 
BRANCH   6   7
ATOM      7  C   UNL     1      11.498  21.682  15.941  1.00  0.00    -0.000 C 
BRANCH   7   8
ATOM      8  C   UNL     1      10.208  22.399  16.376  1.00  0.00    -0.000 C 
BRANCH   8   9
ATOM      9  C   UNL     1       9.042  21.429  16.636  1.00  0.00    -0.000 C 
BRANCH   9  10
ATOM     10  C   UNL     1       9.468  19.953  16.538  1.00  0.00    -0.000 C 
BRANCH  10  11
ATOM     11  C   UNL     1       9.247  19.122  17.815  1.00  0.00    -0.003 C 
ATOM     12  C   UNL     1      10.459  18.268  18.182  1.00  0.00     0.004 C 
ENDBRANCH  10  11
ENDBRANCH   9  10
ENDBRANCH   8   9
ENDBRANCH   7   8
ENDBRANCH   6   7
ENDBRANCH   5   6
ENDBRANCH   4   5
ENDBRANCH   3   4
ENDBRANCH   2   3
ENDBRANCH   1   2
BRANCH   1  13
ATOM     13  C   UNL     1       8.958  22.457  20.145  1.00  0.00     0.000 C 
BRANCH  13  14
ATOM     14  C   UNL     1       7.449  22.315  19.860  1.00  0.00     0.000 C 
BRANCH  14  15
ATOM     15  C   UNL     1       6.846  20.962  20.277  1.00  0.00     0.000 C 
BRANCH  15  16
ATOM     16  C   UNL     1       6.150  20.242  19.108  1.00  0.00     0.000 C 
BRANCH  16  17
ATOM     17  C   UNL     1       4.625  20.158  19.288  1.00  0.00     0.000 C 
BRANCH  17  18
ATOM     18  C   UNL     1       4.074  21.291  20.172  1.00  0.00     0.000 C 
BRANCH  18  19
ATOM     19  C   UNL     1       2.991  20.804  21.147  1.00  0.00     0.000 C 
BRANCH  19  20
ATOM     20  C   UNL     1       3.571  20.340  22.491  1.00  0.00     0.006 C 
BRANCH  20  21
ATOM     21  C   UNL     1       4.319  21.481  23.186  1.00  0.00     0.053 C 
BRANCH  21  22
ATOM     22  C   UNL     1       5.532  20.964  23.892  1.00  0.00     0.041 C 
ATOM     23  O   UNL     1       5.928  19.786  23.694  1.00  0.00    -0.550 OA
ATOM     24  O   UNL     1       6.255  21.802  24.731  1.00  0.00    -0.550 OA
ENDBRANCH  21  22
ENDBRANCH  20  21
ENDBRANCH  19  20
ENDBRANCH  18  19
ENDBRANCH  17  18
ENDBRANCH  16  17
ENDBRANCH  15  16
ENDBRANCH  14  15
ENDBRANCH  13  14
ENDBRANCH   1  13
TORSDOF 20
ENDMDL
