MODEL 1
REMARK VINA RESULT:    -3.815      0.000      0.000
REMARK INTER + INTRA:          -4.166
REMARK INTER:                  -4.038
REMARK INTRA:                  -0.128
REMARK UNBOUND:                -0.128
REMARK SMILES C=C(C)[C@@H]1CC=C(C)CC1
REMARK SMILES IDX 8 1 7 2 6 3 5 4 4 5 10 6 9 7 2 8 1 9 3 10
REMARK H PARENT
REMARK Flexibility Score: inf
ROOT
ATOM      1  C   UNL     1      -7.212  31.505   1.329  1.00  0.00     0.039 C 
ATOM      2  C   UNL     1      -6.762  32.940   1.277  1.00  0.00    -0.077 C 
ATOM      3  C   UNL     1      -5.500  33.244   1.652  1.00  0.00    -0.027 C 
ATOM      4  C   UNL     1      -4.939  34.643   1.585  1.00  0.00     0.035 C 
ATOM      5  C   UNL     1      -6.043  35.714   1.599  1.00  0.00     0.018 C 
ATOM      6  C   UNL     1      -7.129  35.356   0.573  1.00  0.00     0.013 C 
ATOM      7  C   UNL     1      -7.776  34.013   0.934  1.00  0.00     0.031 C 
ENDROOT
BRANCH   5   8
ATOM      8  C   UNL     1      -5.476  37.107   1.357  1.00  0.00    -0.077 C 
ATOM      9  C   UNL     1      -4.262  37.457   1.817  1.00  0.00     0.008 C 
ATOM     10  C   UNL     1      -6.274  38.125   0.585  1.00  0.00     0.039 C 
ENDBRANCH   5   8
TORSDOF 1
ENDMDL
MODEL 2
REMARK VINA RESULT:    -3.713     19.149     19.771
REMARK INTER + INTRA:          -4.058
REMARK INTER:                  -3.931
REMARK INTRA:                  -0.127
REMARK UNBOUND:                -0.128
REMARK SMILES C=C(C)[C@@H]1CC=C(C)CC1
REMARK SMILES IDX 8 1 7 2 6 3 5 4 4 5 10 6 9 7 2 8 1 9 3 10
REMARK H PARENT
REMARK Flexibility Score: inf
ROOT
ATOM      1  C   UNL     1     -19.957  21.065  -3.103  1.00  0.00     0.039 C 
ATOM      2  C   UNL     1     -20.617  22.361  -3.486  1.00  0.00    -0.077 C 
ATOM      3  C   UNL     1     -21.555  22.885  -2.668  1.00  0.00    -0.027 C 
ATOM      4  C   UNL     1     -22.234  24.205  -2.938  1.00  0.00     0.035 C 
ATOM      5  C   UNL     1     -22.184  24.591  -4.427  1.00  0.00     0.018 C 
ATOM      6  C   UNL     1     -20.752  24.430  -4.959  1.00  0.00     0.013 C 
ATOM      7  C   UNL     1     -20.305  22.968  -4.840  1.00  0.00     0.031 C 
ENDROOT
BRANCH   5   8
ATOM      8  C   UNL     1     -22.718  25.999  -4.659  1.00  0.00    -0.077 C 
ATOM      9  C   UNL     1     -22.080  26.864  -5.467  1.00  0.00     0.008 C 
ATOM     10  C   UNL     1     -23.985  26.448  -3.981  1.00  0.00     0.039 C 
ENDBRANCH   5   8
TORSDOF 1
ENDMDL
MODEL 3
REMARK VINA RESULT:    -3.541      2.436      4.268
REMARK INTER + INTRA:          -3.876
REMARK INTER:                  -3.748
REMARK INTRA:                  -0.128
REMARK UNBOUND:                -0.128
REMARK SMILES C=C(C)[C@@H]1CC=C(C)CC1
REMARK SMILES IDX 8 1 7 2 6 3 5 4 4 5 10 6 9 7 2 8 1 9 3 10
REMARK H PARENT
REMARK Flexibility Score: inf
ROOT
ATOM      1  C   UNL     1      -3.907  36.688   2.425  1.00  0.00     0.039 C 
ATOM      2  C   UNL     1      -4.973  36.919   1.389  1.00  0.00    -0.077 C 
ATOM      3  C   UNL     1      -4.737  37.798   0.391  1.00  0.00    -0.027 C 
ATOM      4  C   UNL     1      -5.721  38.058  -0.723  1.00  0.00     0.035 C 
ATOM      5  C   UNL     1      -7.161  37.685  -0.327  1.00  0.00     0.018 C 
ATOM      6  C   UNL     1      -7.182  36.283   0.300  1.00  0.00     0.013 C 
ATOM      7  C   UNL     1      -6.325  36.259   1.572  1.00  0.00     0.031 C 
ENDROOT
BRANCH   5   8
ATOM      8  C   UNL     1      -8.113  37.788  -1.512  1.00  0.00    -0.077 C 
ATOM      9  C   UNL     1      -9.436  37.604  -1.363  1.00  0.00     0.008 C 
ATOM     10  C   UNL     1      -7.579  38.104  -2.884  1.00  0.00     0.039 C 
ENDBRANCH   5   8
TORSDOF 1
ENDMDL
MODEL 4
REMARK VINA RESULT:    -3.385     19.231     19.671
REMARK INTER + INTRA:          -3.712
REMARK INTER:                  -3.581
REMARK INTRA:                  -0.130
REMARK UNBOUND:                -0.128
REMARK SMILES C=C(C)[C@@H]1CC=C(C)CC1
REMARK SMILES IDX 8 1 7 2 6 3 5 4 4 5 10 6 9 7 2 8 1 9 3 10
REMARK H PARENT
REMARK Flexibility Score: inf
ROOT
ATOM      1  C   UNL     1     -20.370  21.098  -2.404  1.00  0.00     0.039 C 
ATOM      2  C   UNL     1     -20.645  22.274  -3.302  1.00  0.00    -0.077 C 
ATOM      3  C   UNL     1     -21.535  23.208  -2.902  1.00  0.00    -0.027 C 
ATOM      4  C   UNL     1     -21.838  24.449  -3.706  1.00  0.00     0.035 C 
ATOM      5  C   UNL     1     -21.495  24.275  -5.196  1.00  0.00     0.018 C 
ATOM      6  C   UNL     1     -20.084  23.687  -5.340  1.00  0.00     0.013 C 
ATOM      7  C   UNL     1     -20.016  22.304  -4.681  1.00  0.00     0.031 C 
ENDROOT
BRANCH   5   8
ATOM      8  C   UNL     1     -21.642  25.584  -5.962  1.00  0.00    -0.077 C 
ATOM      9  C   UNL     1     -22.195  26.669  -5.391  1.00  0.00     0.008 C 
ATOM     10  C   UNL     1     -21.161  25.685  -7.385  1.00  0.00     0.039 C 
ENDBRANCH   5   8
TORSDOF 1
ENDMDL
MODEL 5
REMARK VINA RESULT:    -3.211     19.387     20.075
REMARK INTER + INTRA:          -3.527
REMARK INTER:                  -3.398
REMARK INTRA:                  -0.129
REMARK UNBOUND:                -0.128
REMARK SMILES C=C(C)[C@@H]1CC=C(C)CC1
REMARK SMILES IDX 8 1 7 2 6 3 5 4 4 5 10 6 9 7 2 8 1 9 3 10
REMARK H PARENT
REMARK Flexibility Score: inf
ROOT
ATOM      1  C   UNL     1     -24.085  26.863  -3.902  1.00  0.00     0.039 C 
ATOM      2  C   UNL     1     -23.099  25.733  -4.027  1.00  0.00    -0.077 C 
ATOM      3  C   UNL     1     -22.907  24.912  -2.971  1.00  0.00    -0.027 C 
ATOM      4  C   UNL     1     -21.982  23.721  -3.015  1.00  0.00     0.035 C 
ATOM      5  C   UNL     1     -20.910  23.857  -4.111  1.00  0.00     0.018 C 
ATOM      6  C   UNL     1     -21.569  24.269  -5.435  1.00  0.00     0.013 C 
ATOM      7  C   UNL     1     -22.258  25.631  -5.283  1.00  0.00     0.031 C 
ENDROOT
BRANCH   5   8
ATOM      8  C   UNL     1     -20.095  22.579  -4.259  1.00  0.00    -0.077 C 
ATOM      9  C   UNL     1     -19.250  22.404  -5.290  1.00  0.00     0.008 C 
ATOM     10  C   UNL     1     -20.223  21.478  -3.239  1.00  0.00     0.039 C 
ENDBRANCH   5   8
TORSDOF 1
ENDMDL
MODEL 6
REMARK VINA RESULT:    -3.180      3.405      4.469
REMARK INTER + INTRA:          -3.495
REMARK INTER:                  -3.366
REMARK INTRA:                  -0.129
REMARK UNBOUND:                -0.128
REMARK SMILES C=C(C)[C@@H]1CC=C(C)CC1
REMARK SMILES IDX 8 1 7 2 6 3 5 4 4 5 10 6 9 7 2 8 1 9 3 10
REMARK H PARENT
REMARK Flexibility Score: inf
ROOT
ATOM      1  C   UNL     1      -7.712  38.073  -3.679  1.00  0.00     0.039 C 
ATOM      2  C   UNL     1      -7.095  38.013  -2.309  1.00  0.00    -0.077 C 
ATOM      3  C   UNL     1      -5.749  38.033  -2.196  1.00  0.00    -0.027 C 
ATOM      4  C   UNL     1      -5.037  38.032  -0.865  1.00  0.00     0.035 C 
ATOM      5  C   UNL     1      -5.913  37.459   0.263  1.00  0.00     0.018 C 
ATOM      6  C   UNL     1      -7.304  38.110   0.224  1.00  0.00     0.013 C 
ATOM      7  C   UNL     1      -7.996  37.800  -1.109  1.00  0.00     0.031 C 
ENDROOT
BRANCH   5   8
ATOM      8  C   UNL     1      -5.251  37.622   1.625  1.00  0.00    -0.077 C 
ATOM      9  C   UNL     1      -3.916  37.726   1.745  1.00  0.00     0.008 C 
ATOM     10  C   UNL     1      -6.093  37.674   2.873  1.00  0.00     0.039 C 
ENDBRANCH   5   8
TORSDOF 1
ENDMDL
MODEL 7
REMARK VINA RESULT:    -3.042      1.602      4.303
REMARK INTER + INTRA:          -3.348
REMARK INTER:                  -3.221
REMARK INTRA:                  -0.128
REMARK UNBOUND:                -0.128
REMARK SMILES C=C(C)[C@@H]1CC=C(C)CC1
REMARK SMILES IDX 8 1 7 2 6 3 5 4 4 5 10 6 9 7 2 8 1 9 3 10
REMARK H PARENT
REMARK Flexibility Score: inf
ROOT
ATOM      1  C   UNL     1      -4.818  38.125  -1.308  1.00  0.00     0.039 C 
ATOM      2  C   UNL     1      -5.026  36.847  -0.543  1.00  0.00    -0.077 C 
ATOM      3  C   UNL     1      -4.101  35.867  -0.641  1.00  0.00    -0.027 C 
ATOM      4  C   UNL     1      -4.193  34.572   0.129  1.00  0.00     0.035 C 
ATOM      5  C   UNL     1      -5.636  34.252   0.560  1.00  0.00     0.018 C 
ATOM      6  C   UNL     1      -6.271  35.490   1.212  1.00  0.00     0.013 C 
ATOM      7  C   UNL     1      -6.328  36.647   0.207  1.00  0.00     0.031 C 
ENDROOT
BRANCH   5   8
ATOM      8  C   UNL     1      -5.690  33.039   1.480  1.00  0.00    -0.077 C 
ATOM      9  C   UNL     1      -4.654  32.717   2.274  1.00  0.00     0.008 C 
ATOM     10  C   UNL     1      -6.921  32.173   1.516  1.00  0.00     0.039 C 
ENDBRANCH   5   8
TORSDOF 1
ENDMDL
MODEL 8
REMARK VINA RESULT:    -2.743      1.866      3.635
REMARK INTER + INTRA:          -3.032
REMARK INTER:                  -2.905
REMARK INTRA:                  -0.127
REMARK UNBOUND:                -0.128
REMARK SMILES C=C(C)[C@@H]1CC=C(C)CC1
REMARK SMILES IDX 8 1 7 2 6 3 5 4 4 5 10 6 9 7 2 8 1 9 3 10
REMARK H PARENT
REMARK Flexibility Score: inf
ROOT
ATOM      1  C   UNL     1      -9.429  37.250  -1.260  1.00  0.00     0.039 C 
ATOM      2  C   UNL     1      -8.159  36.999  -0.494  1.00  0.00    -0.077 C 
ATOM      3  C   UNL     1      -8.002  35.819   0.145  1.00  0.00    -0.027 C 
ATOM      4  C   UNL     1      -6.744  35.452   0.893  1.00  0.00     0.035 C 
ATOM      5  C   UNL     1      -5.939  36.692   1.321  1.00  0.00     0.018 C 
ATOM      6  C   UNL     1      -5.780  37.646   0.128  1.00  0.00     0.013 C 
ATOM      7  C   UNL     1      -7.154  38.125  -0.355  1.00  0.00     0.031 C 
ENDROOT
BRANCH   5   8
ATOM      8  C   UNL     1      -4.592  36.306   1.920  1.00  0.00    -0.077 C 
ATOM      9  C   UNL     1      -3.882  37.175   2.661  1.00  0.00     0.008 C 
ATOM     10  C   UNL     1      -4.030  34.928   1.690  1.00  0.00     0.039 C 
ENDBRANCH   5   8
TORSDOF 1
ENDMDL
