MODEL 1
REMARK VINA RESULT:    -4.469      0.000      0.000
REMARK INTER + INTRA:          -4.754
REMARK INTER:                  -4.730
REMARK INTRA:                  -0.023
REMARK UNBOUND:                -0.023
REMARK SMILES O=C([O-])c1cccnc1
REMARK SMILES IDX 4 1 5 2 9 3 6 4 8 5 7 6 2 7 1 8 3 9
REMARK H PARENT
REMARK Flexibility Score: inf
ROOT
ATOM      1  C   UNL     1     -22.764 -28.311  39.411  1.00  0.00     0.016 A 
ATOM      2  C   UNL     1     -22.261 -28.291  38.099  1.00  0.00     0.013 A 
ATOM      3  C   UNL     1     -22.217 -27.418  40.348  1.00  0.00     0.120 A 
ATOM      4  C   UNL     1     -21.243 -27.402  37.751  1.00  0.00     0.021 A 
ATOM      5  N   UNL     1     -21.225 -26.561  39.984  1.00  0.00    -0.264 NA
ATOM      6  C   UNL     1     -20.732 -26.535  38.718  1.00  0.00     0.111 A 
ENDROOT
BRANCH   1   7
ATOM      7  C   UNL     1     -23.841 -29.245  39.799  1.00  0.00     0.073 C 
ATOM      8  O   UNL     1     -24.551 -29.805  38.921  1.00  0.00    -0.545 OA
ATOM      9  O   UNL     1     -24.086 -29.520  41.140  1.00  0.00    -0.545 OA
ENDBRANCH   1   7
TORSDOF 1
ENDMDL
MODEL 2
REMARK VINA RESULT:    -4.241      0.911      1.600
REMARK INTER + INTRA:          -4.512
REMARK INTER:                  -4.489
REMARK INTRA:                  -0.023
REMARK UNBOUND:                -0.023
REMARK SMILES O=C([O-])c1cccnc1
REMARK SMILES IDX 4 1 5 2 9 3 6 4 8 5 7 6 2 7 1 8 3 9
REMARK H PARENT
REMARK Flexibility Score: inf
ROOT
ATOM      1  C   UNL     1     -22.752 -28.299  39.422  1.00  0.00     0.016 A 
ATOM      2  C   UNL     1     -22.205 -27.413  40.365  1.00  0.00     0.013 A 
ATOM      3  C   UNL     1     -22.247 -28.273  38.110  1.00  0.00     0.120 A 
ATOM      4  C   UNL     1     -21.186 -26.534  39.993  1.00  0.00     0.021 A 
ATOM      5  N   UNL     1     -21.255 -27.407  37.774  1.00  0.00    -0.264 NA
ATOM      6  C   UNL     1     -20.719 -26.546  38.678  1.00  0.00     0.111 A 
ENDROOT
BRANCH   1   7
ATOM      7  C   UNL     1     -23.831 -29.238  39.796  1.00  0.00     0.073 C 
ATOM      8  O   UNL     1     -24.518 -29.812  38.909  1.00  0.00    -0.545 OA
ATOM      9  O   UNL     1     -24.104 -29.499  41.134  1.00  0.00    -0.545 OA
ENDBRANCH   1   7
TORSDOF 1
ENDMDL
MODEL 3
REMARK VINA RESULT:    -4.205      3.430      4.178
REMARK INTER + INTRA:          -4.475
REMARK INTER:                  -4.457
REMARK INTRA:                  -0.018
REMARK UNBOUND:                -0.023
REMARK SMILES O=C([O-])c1cccnc1
REMARK SMILES IDX 4 1 5 2 9 3 6 4 8 5 7 6 2 7 1 8 3 9
REMARK H PARENT
REMARK Flexibility Score: inf
ROOT
ATOM      1  C   UNL     1     -24.552 -27.532  41.066  1.00  0.00     0.016 A 
ATOM      2  C   UNL     1     -23.349 -28.123  40.646  1.00  0.00     0.013 A 
ATOM      3  C   UNL     1     -25.762 -28.145  40.696  1.00  0.00     0.120 A 
ATOM      4  C   UNL     1     -23.370 -29.290  39.881  1.00  0.00     0.021 A 
ATOM      5  N   UNL     1     -25.755 -29.282  39.950  1.00  0.00    -0.264 NA
ATOM      6  C   UNL     1     -24.596 -29.861  39.539  1.00  0.00     0.111 A 
ENDROOT
BRANCH   1   7
ATOM      7  C   UNL     1     -24.551 -26.296  41.877  1.00  0.00     0.073 C 
ATOM      8  O   UNL     1     -25.065 -26.283  43.028  1.00  0.00    -0.545 OA
ATOM      9  O   UNL     1     -23.982 -25.129  41.380  1.00  0.00    -0.545 OA
ENDBRANCH   1   7
TORSDOF 1
ENDMDL
MODEL 4
REMARK VINA RESULT:    -4.160      3.458      4.168
REMARK INTER + INTRA:          -4.426
REMARK INTER:                  -4.409
REMARK INTRA:                  -0.017
REMARK UNBOUND:                -0.023
REMARK SMILES O=C([O-])c1cccnc1
REMARK SMILES IDX 4 1 5 2 9 3 6 4 8 5 7 6 2 7 1 8 3 9
REMARK H PARENT
REMARK Flexibility Score: inf
ROOT
ATOM      1  C   UNL     1     -20.855 -26.336  39.344  1.00  0.00     0.016 A 
ATOM      2  C   UNL     1     -20.974 -26.986  38.104  1.00  0.00     0.013 A 
ATOM      3  C   UNL     1     -21.655 -26.783  40.410  1.00  0.00     0.120 A 
ATOM      4  C   UNL     1     -21.869 -28.045  37.949  1.00  0.00     0.021 A 
ATOM      5  N   UNL     1     -22.520 -27.817  40.233  1.00  0.00    -0.264 NA
ATOM      6  C   UNL     1     -22.642 -28.451  39.038  1.00  0.00     0.111 A 
ENDROOT
BRANCH   1   7
ATOM      7  C   UNL     1     -19.913 -25.212  39.527  1.00  0.00     0.073 C 
ATOM      8  O   UNL     1     -18.669 -25.411  39.520  1.00  0.00    -0.545 OA
ATOM      9  O   UNL     1     -20.388 -23.919  39.712  1.00  0.00    -0.545 OA
ENDBRANCH   1   7
TORSDOF 1
ENDMDL
MODEL 5
REMARK VINA RESULT:    -4.076      3.052      3.999
REMARK INTER + INTRA:          -4.337
REMARK INTER:                  -4.314
REMARK INTRA:                  -0.023
REMARK UNBOUND:                -0.023
REMARK SMILES O=C([O-])c1cccnc1
REMARK SMILES IDX 4 1 5 2 9 3 6 4 8 5 7 6 2 7 1 8 3 9
REMARK H PARENT
REMARK Flexibility Score: inf
ROOT
ATOM      1  C   UNL     1     -24.922 -27.684  41.113  1.00  0.00     0.016 A 
ATOM      2  C   UNL     1     -26.316 -27.508  41.117  1.00  0.00     0.013 A 
ATOM      3  C   UNL     1     -24.107 -26.561  41.338  1.00  0.00     0.120 A 
ATOM      4  C   UNL     1     -26.863 -26.244  41.339  1.00  0.00     0.021 A 
ATOM      5  N   UNL     1     -24.666 -25.339  41.552  1.00  0.00    -0.264 NA
ATOM      6  C   UNL     1     -26.012 -25.159  41.557  1.00  0.00     0.111 A 
ENDROOT
BRANCH   1   7
ATOM      7  C   UNL     1     -24.323 -29.015  40.880  1.00  0.00     0.073 C 
ATOM      8  O   UNL     1     -25.013 -29.952  40.396  1.00  0.00    -0.545 OA
ATOM      9  O   UNL     1     -22.989 -29.251  41.192  1.00  0.00    -0.545 OA
ENDBRANCH   1   7
TORSDOF 1
ENDMDL
MODEL 6
REMARK VINA RESULT:    -4.075      3.280      3.783
REMARK INTER + INTRA:          -4.337
REMARK INTER:                  -4.321
REMARK INTRA:                  -0.016
REMARK UNBOUND:                -0.023
REMARK SMILES O=C([O-])c1cccnc1
REMARK SMILES IDX 4 1 5 2 9 3 6 4 8 5 7 6 2 7 1 8 3 9
REMARK H PARENT
REMARK Flexibility Score: inf
ROOT
ATOM      1  C   UNL     1     -25.125 -29.178  39.910  1.00  0.00     0.016 A 
ATOM      2  C   UNL     1     -26.015 -28.104  40.079  1.00  0.00     0.013 A 
ATOM      3  C   UNL     1     -24.075 -29.326  40.833  1.00  0.00     0.120 A 
ATOM      4  C   UNL     1     -25.847 -27.214  41.141  1.00  0.00     0.021 A 
ATOM      5  N   UNL     1     -23.934 -28.445  41.859  1.00  0.00    -0.264 NA
ATOM      6  C   UNL     1     -24.789 -27.403  42.031  1.00  0.00     0.111 A 
ENDROOT
BRANCH   1   7
ATOM      7  C   UNL     1     -25.286 -30.131  38.792  1.00  0.00     0.073 C 
ATOM      8  O   UNL     1     -25.758 -31.281  38.993  1.00  0.00    -0.545 OA
ATOM      9  O   UNL     1     -24.916 -29.770  37.501  1.00  0.00    -0.545 OA
ENDBRANCH   1   7
TORSDOF 1
ENDMDL
MODEL 7
REMARK VINA RESULT:    -4.069      3.229      4.144
REMARK INTER + INTRA:          -4.330
REMARK INTER:                  -4.312
REMARK INTRA:                  -0.018
REMARK UNBOUND:                -0.023
REMARK SMILES O=C([O-])c1cccnc1
REMARK SMILES IDX 4 1 5 2 9 3 6 4 8 5 7 6 2 7 1 8 3 9
REMARK H PARENT
REMARK Flexibility Score: inf
ROOT
ATOM      1  C   UNL     1     -24.549 -27.534  41.042  1.00  0.00     0.016 A 
ATOM      2  C   UNL     1     -25.752 -28.136  40.634  1.00  0.00     0.013 A 
ATOM      3  C   UNL     1     -23.338 -28.133  40.654  1.00  0.00     0.120 A 
ATOM      4  C   UNL     1     -25.727 -29.300  39.864  1.00  0.00     0.021 A 
ATOM      5  N   UNL     1     -23.342 -29.267  39.905  1.00  0.00    -0.264 NA
ATOM      6  C   UNL     1     -24.499 -29.857  39.505  1.00  0.00     0.111 A 
ENDROOT
BRANCH   1   7
ATOM      7  C   UNL     1     -24.554 -26.301  41.858  1.00  0.00     0.073 C 
ATOM      8  O   UNL     1     -25.141 -26.272  42.972  1.00  0.00    -0.545 OA
ATOM      9  O   UNL     1     -23.910 -25.155  41.404  1.00  0.00    -0.545 OA
ENDBRANCH   1   7
TORSDOF 1
ENDMDL
MODEL 8
REMARK VINA RESULT:    -4.065      3.187      4.215
REMARK INTER + INTRA:          -4.326
REMARK INTER:                  -4.310
REMARK INTRA:                  -0.016
REMARK UNBOUND:                -0.023
REMARK SMILES O=C([O-])c1cccnc1
REMARK SMILES IDX 4 1 5 2 9 3 6 4 8 5 7 6 2 7 1 8 3 9
REMARK H PARENT
REMARK Flexibility Score: inf
ROOT
ATOM      1  C   UNL     1     -24.394 -27.651  40.972  1.00  0.00     0.016 A 
ATOM      2  C   UNL     1     -24.105 -26.364  41.457  1.00  0.00     0.013 A 
ATOM      3  C   UNL     1     -25.737 -27.986  40.726  1.00  0.00     0.120 A 
ATOM      4  C   UNL     1     -25.138 -25.453  41.686  1.00  0.00     0.021 A 
ATOM      5  N   UNL     1     -26.724 -27.080  40.958  1.00  0.00    -0.264 NA
ATOM      6  C   UNL     1     -26.455 -25.834  41.427  1.00  0.00     0.111 A 
ENDROOT
BRANCH   1   7
ATOM      7  C   UNL     1     -23.315 -28.630  40.723  1.00  0.00     0.073 C 
ATOM      8  O   UNL     1     -23.034 -29.507  41.584  1.00  0.00    -0.545 OA
ATOM      9  O   UNL     1     -22.593 -28.596  39.535  1.00  0.00    -0.545 OA
ENDBRANCH   1   7
TORSDOF 1
ENDMDL
MODEL 9
REMARK VINA RESULT:    -3.991      2.631      3.629
REMARK INTER + INTRA:          -4.248
REMARK INTER:                  -4.225
REMARK INTRA:                  -0.023
REMARK UNBOUND:                -0.023
REMARK SMILES O=C([O-])c1cccnc1
REMARK SMILES IDX 4 1 5 2 9 3 6 4 8 5 7 6 2 7 1 8 3 9
REMARK H PARENT
REMARK Flexibility Score: inf
ROOT
ATOM      1  C   UNL     1     -22.925 -28.381  39.322  1.00  0.00     0.016 A 
ATOM      2  C   UNL     1     -23.829 -28.934  38.400  1.00  0.00     0.013 A 
ATOM      3  C   UNL     1     -23.143 -28.613  40.691  1.00  0.00     0.120 A 
ATOM      4  C   UNL     1     -24.912 -29.692  38.848  1.00  0.00     0.021 A 
ATOM      5  N   UNL     1     -24.206 -29.354  41.101  1.00  0.00    -0.264 NA
ATOM      6  C   UNL     1     -25.086 -29.894  40.217  1.00  0.00     0.111 A 
ENDROOT
BRANCH   1   7
ATOM      7  C   UNL     1     -21.772 -27.575  38.868  1.00  0.00     0.073 C 
ATOM      8  O   UNL     1     -21.384 -27.630  37.670  1.00  0.00    -0.545 OA
ATOM      9  O   UNL     1     -21.099 -26.746  39.757  1.00  0.00    -0.545 OA
ENDBRANCH   1   7
TORSDOF 1
ENDMDL
