MODEL 1
REMARK VINA RESULT:     2.720      0.000      0.000
REMARK INTER + INTRA:           7.033
REMARK INTER:                   7.173
REMARK INTRA:                  -0.140
REMARK UNBOUND:                -0.140
REMARK SMILES CCCCCCCCCCCCCCCCCCCCCCCCCCCCCC(=O)[O-]
REMARK SMILES IDX 16 1 17 2 18 3 19 4 20 5 21 6 22 7 23 8 24 9 25 10 26 11
REMARK SMILES IDX 27 12 28 13 29 14 30 15 31 16 32 17 15 18 14 19 13 20 12 21
REMARK SMILES IDX 11 22 10 23 9 24 8 25 7 26 6 27 5 28 4 29 3 30 2 31 1 32
REMARK H PARENT
REMARK Flexibility Score: inf
ROOT
ATOM      1  C   UNL     1      47.537  20.450 -24.966  1.00  0.00     0.000 C 
ENDROOT
BRANCH   1   2
ATOM      2  C   UNL     1      47.463  19.461 -23.792  1.00  0.00     0.000 C 
BRANCH   2   3
ATOM      3  C   UNL     1      46.544  18.262 -24.088  1.00  0.00     0.000 C 
BRANCH   3   4
ATOM      4  C   UNL     1      46.143  17.490 -22.817  1.00  0.00     0.000 C 
BRANCH   4   5
ATOM      5  C   UNL     1      47.133  16.385 -22.393  1.00  0.00     0.000 C 
BRANCH   5   6
ATOM      6  C   UNL     1      46.600  14.941 -22.513  1.00  0.00     0.000 C 
BRANCH   6   7
ATOM      7  C   UNL     1      45.805  14.642 -23.796  1.00  0.00     0.000 C 
BRANCH   7   8
ATOM      8  C   UNL     1      45.358  13.174 -23.889  1.00  0.00     0.000 C 
BRANCH   8   9
ATOM      9  C   UNL     1      46.176  12.364 -24.908  1.00  0.00     0.000 C 
BRANCH   9  10
ATOM     10  C   UNL     1      45.381  12.004 -26.172  1.00  0.00     0.000 C 
BRANCH  10  11
ATOM     11  C   UNL     1      46.308  11.876 -27.388  1.00  0.00     0.000 C 
BRANCH  11  12
ATOM     12  C   UNL     1      45.519  12.032 -28.698  1.00  0.00     0.000 C 
BRANCH  12  13
ATOM     13  C   UNL     1      46.423  12.301 -29.912  1.00  0.00     0.006 C 
BRANCH  13  14
ATOM     14  C   UNL     1      45.749  11.945 -31.243  1.00  0.00     0.053 C 
BRANCH  14  15
ATOM     15  C   UNL     1      46.130  12.925 -32.313  1.00  0.00     0.041 C 
ATOM     16  O   UNL     1      45.762  14.128 -32.229  1.00  0.00    -0.550 OA
ATOM     17  O   UNL     1      46.891  12.511 -33.398  1.00  0.00    -0.550 OA
ENDBRANCH  14  15
ENDBRANCH  13  14
ENDBRANCH  12  13
ENDBRANCH  11  12
ENDBRANCH  10  11
ENDBRANCH   9  10
ENDBRANCH   8   9
ENDBRANCH   7   8
ENDBRANCH   6   7
ENDBRANCH   5   6
ENDBRANCH   4   5
ENDBRANCH   3   4
ENDBRANCH   2   3
ENDBRANCH   1   2
BRANCH   1  18
ATOM     18  C   UNL     1      46.219  20.520 -25.758  1.00  0.00     0.000 C 
BRANCH  18  19
ATOM     19  C   UNL     1      45.905  21.938 -26.263  1.00  0.00     0.000 C 
BRANCH  19  20
ATOM     20  C   UNL     1      46.086  23.025 -25.182  1.00  0.00     0.000 C 
BRANCH  20  21
ATOM     21  C   UNL     1      45.102  24.197 -25.362  1.00  0.00     0.000 C 
BRANCH  21  22
ATOM     22  C   UNL     1      44.957  25.053 -24.092  1.00  0.00     0.000 C 
BRANCH  22  23
ATOM     23  C   UNL     1      43.638  25.849 -24.060  1.00  0.00     0.000 C 
BRANCH  23  24
ATOM     24  C   UNL     1      43.476  26.758 -25.291  1.00  0.00    -0.000 C 
BRANCH  24  25
ATOM     25  C   UNL     1      44.032  26.115 -26.574  1.00  0.00    -0.000 C 
BRANCH  25  26
ATOM     26  C   UNL     1      43.014  26.145 -27.730  1.00  0.00    -0.000 C 
BRANCH  26  27
ATOM     27  C   UNL     1      41.810  27.053 -27.424  1.00  0.00    -0.000 C 
BRANCH  27  28
ATOM     28  C   UNL     1      40.546  26.263 -27.030  1.00  0.00    -0.000 C 
BRANCH  28  29
ATOM     29  C   UNL     1      40.332  24.953 -27.810  1.00  0.00    -0.000 C 
BRANCH  29  30
ATOM     30  C   UNL     1      38.849  24.624 -28.040  1.00  0.00    -0.000 C 
BRANCH  30  31
ATOM     31  C   UNL     1      38.546  23.171 -27.659  1.00  0.00    -0.003 C 
ATOM     32  C   UNL     1      38.054  23.068 -26.217  1.00  0.00     0.004 C 
ENDBRANCH  30  31
ENDBRANCH  29  30
ENDBRANCH  28  29
ENDBRANCH  27  28
ENDBRANCH  26  27
ENDBRANCH  25  26
ENDBRANCH  24  25
ENDBRANCH  23  24
ENDBRANCH  22  23
ENDBRANCH  21  22
ENDBRANCH  20  21
ENDBRANCH  19  20
ENDBRANCH  18  19
ENDBRANCH   1  18
TORSDOF 28
ENDMDL
MODEL 2
REMARK VINA RESULT:     2.758      1.518      3.206
REMARK INTER + INTRA:           7.132
REMARK INTER:                   8.715
REMARK INTRA:                  -1.583
REMARK UNBOUND:                -0.140
REMARK SMILES CCCCCCCCCCCCCCCCCCCCCCCCCCCCCC(=O)[O-]
REMARK SMILES IDX 16 1 17 2 18 3 19 4 20 5 21 6 22 7 23 8 24 9 25 10 26 11
REMARK SMILES IDX 27 12 28 13 29 14 30 15 31 16 32 17 15 18 14 19 13 20 12 21
REMARK SMILES IDX 11 22 10 23 9 24 8 25 7 26 6 27 5 28 4 29 3 30 2 31 1 32
REMARK H PARENT
REMARK Flexibility Score: inf
ROOT
ATOM      1  C   UNL     1      47.050  18.356 -22.587  1.00  0.00     0.000 C 
ENDROOT
BRANCH   1   2
ATOM      2  C   UNL     1      47.321  17.562 -21.299  1.00  0.00     0.000 C 
BRANCH   2   3
ATOM      3  C   UNL     1      48.069  16.243 -21.566  1.00  0.00     0.000 C 
BRANCH   3   4
ATOM      4  C   UNL     1      47.562  15.515 -22.824  1.00  0.00     0.000 C 
BRANCH   4   5
ATOM      5  C   UNL     1      46.443  14.485 -22.569  1.00  0.00     0.000 C 
BRANCH   5   6
ATOM      6  C   UNL     1      45.695  13.996 -23.827  1.00  0.00     0.000 C 
BRANCH   6   7
ATOM      7  C   UNL     1      44.666  12.877 -23.584  1.00  0.00     0.000 C 
BRANCH   7   8
ATOM      8  C   UNL     1      44.401  12.030 -24.839  1.00  0.00     0.000 C 
BRANCH   8   9
ATOM      9  C   UNL     1      45.600  11.997 -25.800  1.00  0.00     0.000 C 
BRANCH   9  10
ATOM     10  C   UNL     1      45.189  11.877 -27.276  1.00  0.00     0.000 C 
BRANCH  10  11
ATOM     11  C   UNL     1      46.415  11.923 -28.196  1.00  0.00     0.000 C 
BRANCH  11  12
ATOM     12  C   UNL     1      46.206  12.930 -29.338  1.00  0.00     0.000 C 
BRANCH  12  13
ATOM     13  C   UNL     1      46.216  12.271 -30.726  1.00  0.00     0.006 C 
BRANCH  13  14
ATOM     14  C   UNL     1      44.990  12.645 -31.569  1.00  0.00     0.053 C 
BRANCH  14  15
ATOM     15  C   UNL     1      45.341  12.705 -33.026  1.00  0.00     0.041 C 
ATOM     16  O   UNL     1      46.547  12.789 -33.383  1.00  0.00    -0.550 OA
ATOM     17  O   UNL     1      44.338  12.665 -33.986  1.00  0.00    -0.550 OA
ENDBRANCH  14  15
ENDBRANCH  13  14
ENDBRANCH  12  13
ENDBRANCH  11  12
ENDBRANCH  10  11
ENDBRANCH   9  10
ENDBRANCH   8   9
ENDBRANCH   7   8
ENDBRANCH   6   7
ENDBRANCH   5   6
ENDBRANCH   4   5
ENDBRANCH   3   4
ENDBRANCH   2   3
ENDBRANCH   1   2
BRANCH   1  18
ATOM     18  C   UNL     1      45.548  18.594 -22.824  1.00  0.00     0.000 C 
BRANCH  18  19
ATOM     19  C   UNL     1      45.238  19.048 -24.260  1.00  0.00     0.000 C 
BRANCH  19  20
ATOM     20  C   UNL     1      46.485  19.091 -25.169  1.00  0.00     0.000 C 
BRANCH  20  21
ATOM     21  C   UNL     1      47.123  20.493 -25.219  1.00  0.00     0.000 C 
BRANCH  21  22
ATOM     22  C   UNL     1      46.254  21.516 -25.971  1.00  0.00     0.000 C 
BRANCH  22  23
ATOM     23  C   UNL     1      46.457  22.955 -25.461  1.00  0.00     0.000 C 
BRANCH  23  24
ATOM     24  C   UNL     1      45.160  23.782 -25.519  1.00  0.00    -0.000 C 
BRANCH  24  25
ATOM     25  C   UNL     1      45.189  24.986 -24.561  1.00  0.00    -0.000 C 
BRANCH  25  26
ATOM     26  C   UNL     1      44.062  24.923 -23.511  1.00  0.00    -0.000 C 
BRANCH  26  27
ATOM     27  C   UNL     1      43.493  26.315 -23.183  1.00  0.00    -0.000 C 
BRANCH  27  28
ATOM     28  C   UNL     1      43.526  27.277 -24.388  1.00  0.00    -0.000 C 
BRANCH  28  29
ATOM     29  C   UNL     1      42.537  26.935 -25.517  1.00  0.00    -0.000 C 
BRANCH  29  30
ATOM     30  C   UNL     1      43.222  26.724 -26.875  1.00  0.00    -0.000 C 
BRANCH  30  31
ATOM     31  C   UNL     1      42.185  26.489 -27.980  1.00  0.00    -0.003 C 
ATOM     32  C   UNL     1      40.763  26.554 -27.428  1.00  0.00     0.004 C 
ENDBRANCH  30  31
ENDBRANCH  29  30
ENDBRANCH  28  29
ENDBRANCH  27  28
ENDBRANCH  26  27
ENDBRANCH  25  26
ENDBRANCH  24  25
ENDBRANCH  23  24
ENDBRANCH  22  23
ENDBRANCH  21  22
ENDBRANCH  20  21
ENDBRANCH  19  20
ENDBRANCH  18  19
ENDBRANCH   1  18
TORSDOF 28
ENDMDL
MODEL 3
REMARK VINA RESULT:     2.916      4.243     12.448
REMARK INTER + INTRA:           7.550
REMARK INTER:                   8.685
REMARK INTRA:                  -1.135
REMARK UNBOUND:                -0.140
REMARK SMILES CCCCCCCCCCCCCCCCCCCCCCCCCCCCCC(=O)[O-]
REMARK SMILES IDX 16 1 17 2 18 3 19 4 20 5 21 6 22 7 23 8 24 9 25 10 26 11
REMARK SMILES IDX 27 12 28 13 29 14 30 15 31 16 32 17 15 18 14 19 13 20 12 21
REMARK SMILES IDX 11 22 10 23 9 24 8 25 7 26 6 27 5 28 4 29 3 30 2 31 1 32
REMARK H PARENT
REMARK Flexibility Score: inf
ROOT
ATOM      1  C   UNL     1      46.215  15.206 -23.202  1.00  0.00     0.000 C 
ENDROOT
BRANCH   1   2
ATOM      2  C   UNL     1      45.895  16.694 -22.989  1.00  0.00     0.000 C 
BRANCH   2   3
ATOM      3  C   UNL     1      47.158  17.538 -22.736  1.00  0.00     0.000 C 
BRANCH   3   4
ATOM      4  C   UNL     1      47.026  18.980 -23.260  1.00  0.00     0.000 C 
BRANCH   4   5
ATOM      5  C   UNL     1      46.666  19.095 -24.755  1.00  0.00     0.000 C 
BRANCH   5   6
ATOM      6  C   UNL     1      45.830  20.334 -25.140  1.00  0.00     0.000 C 
BRANCH   6   7
ATOM      7  C   UNL     1      46.641  21.531 -25.669  1.00  0.00     0.000 C 
BRANCH   7   8
ATOM      8  C   UNL     1      46.318  22.840 -24.931  1.00  0.00     0.000 C 
BRANCH   8   9
ATOM      9  C   UNL     1      45.542  23.841 -25.803  1.00  0.00     0.000 C 
BRANCH   9  10
ATOM     10  C   UNL     1      44.431  24.574 -25.036  1.00  0.00     0.000 C 
BRANCH  10  11
ATOM     11  C   UNL     1      44.984  25.250 -23.775  1.00  0.00     0.000 C 
BRANCH  11  12
ATOM     12  C   UNL     1      44.068  26.397 -23.321  1.00  0.00     0.000 C 
BRANCH  12  13
ATOM     13  C   UNL     1      42.778  26.496 -24.151  1.00  0.00     0.006 C 
BRANCH  13  14
ATOM     14  C   UNL     1      42.863  27.558 -25.256  1.00  0.00     0.053 C 
BRANCH  14  15
ATOM     15  C   UNL     1      42.621  26.947 -26.603  1.00  0.00     0.041 C 
ATOM     16  O   UNL     1      41.516  26.396 -26.859  1.00  0.00    -0.550 OA
ATOM     17  O   UNL     1      43.612  26.989 -27.576  1.00  0.00    -0.550 OA
ENDBRANCH  14  15
ENDBRANCH  13  14
ENDBRANCH  12  13
ENDBRANCH  11  12
ENDBRANCH  10  11
ENDBRANCH   9  10
ENDBRANCH   8   9
ENDBRANCH   7   8
ENDBRANCH   6   7
ENDBRANCH   5   6
ENDBRANCH   4   5
ENDBRANCH   3   4
ENDBRANCH   2   3
ENDBRANCH   1   2
BRANCH   1  18
ATOM     18  C   UNL     1      44.946  14.338 -23.270  1.00  0.00     0.000 C 
BRANCH  18  19
ATOM     19  C   UNL     1      44.476  14.085 -24.712  1.00  0.00     0.000 C 
BRANCH  19  20
ATOM     20  C   UNL     1      44.257  12.589 -25.030  1.00  0.00     0.000 C 
BRANCH  20  21
ATOM     21  C   UNL     1      45.543  11.906 -25.534  1.00  0.00     0.000 C 
BRANCH  21  22
ATOM     22  C   UNL     1      46.212  12.673 -26.688  1.00  0.00     0.000 C 
BRANCH  22  23
ATOM     23  C   UNL     1      46.211  11.879 -28.008  1.00  0.00     0.000 C 
BRANCH  23  24
ATOM     24  C   UNL     1      46.144  12.798 -29.240  1.00  0.00    -0.000 C 
BRANCH  24  25
ATOM     25  C   UNL     1      45.976  12.010 -30.551  1.00  0.00    -0.000 C 
BRANCH  25  26
ATOM     26  C   UNL     1      46.070  12.917 -31.794  1.00  0.00    -0.000 C 
BRANCH  26  27
ATOM     27  C   UNL     1      45.499  12.242 -33.053  1.00  0.00    -0.000 C 
BRANCH  27  28
ATOM     28  C   UNL     1      44.222  12.930 -33.578  1.00  0.00    -0.000 C 
BRANCH  28  29
ATOM     29  C   UNL     1      43.346  12.058 -34.495  1.00  0.00    -0.000 C 
BRANCH  29  30
ATOM     30  C   UNL     1      43.685  12.219 -35.984  1.00  0.00    -0.000 C 
BRANCH  30  31
ATOM     31  C   UNL     1      42.498  12.811 -36.754  1.00  0.00    -0.003 C 
ATOM     32  C   UNL     1      41.309  13.061 -35.830  1.00  0.00     0.004 C 
ENDBRANCH  30  31
ENDBRANCH  29  30
ENDBRANCH  28  29
ENDBRANCH  27  28
ENDBRANCH  26  27
ENDBRANCH  25  26
ENDBRANCH  24  25
ENDBRANCH  23  24
ENDBRANCH  22  23
ENDBRANCH  21  22
ENDBRANCH  20  21
ENDBRANCH  19  20
ENDBRANCH  18  19
ENDBRANCH   1  18
TORSDOF 28
ENDMDL
MODEL 4
REMARK VINA RESULT:     2.922      3.461     12.036
REMARK INTER + INTRA:           7.566
REMARK INTER:                   9.143
REMARK INTRA:                  -1.578
REMARK UNBOUND:                -0.140
REMARK SMILES CCCCCCCCCCCCCCCCCCCCCCCCCCCCCC(=O)[O-]
REMARK SMILES IDX 16 1 17 2 18 3 19 4 20 5 21 6 22 7 23 8 24 9 25 10 26 11
REMARK SMILES IDX 27 12 28 13 29 14 30 15 31 16 32 17 15 18 14 19 13 20 12 21
REMARK SMILES IDX 11 22 10 23 9 24 8 25 7 26 6 27 5 28 4 29 3 30 2 31 1 32
REMARK H PARENT
REMARK Flexibility Score: inf
ROOT
ATOM      1  C   UNL     1      46.646  21.036 -26.149  1.00  0.00     0.000 C 
ENDROOT
BRANCH   1   2
ATOM      2  C   UNL     1      45.566  22.116 -25.976  1.00  0.00     0.000 C 
BRANCH   2   3
ATOM      3  C   UNL     1      46.144  23.454 -25.480  1.00  0.00     0.000 C 
BRANCH   3   4
ATOM      4  C   UNL     1      45.128  24.277 -24.668  1.00  0.00     0.000 C 
BRANCH   4   5
ATOM      5  C   UNL     1      45.682  24.881 -23.361  1.00  0.00     0.000 C 
BRANCH   5   6
ATOM      6  C   UNL     1      44.731  25.850 -22.626  1.00  0.00     0.000 C 
BRANCH   6   7
ATOM      7  C   UNL     1      43.330  25.990 -23.251  1.00  0.00     0.000 C 
BRANCH   7   8
ATOM      8  C   UNL     1      43.205  27.226 -24.157  1.00  0.00     0.000 C 
BRANCH   8   9
ATOM      9  C   UNL     1      42.419  26.942 -25.447  1.00  0.00     0.000 C 
BRANCH   9  10
ATOM     10  C   UNL     1      43.312  26.867 -26.695  1.00  0.00     0.000 C 
BRANCH  10  11
ATOM     11  C   UNL     1      42.537  26.309 -27.896  1.00  0.00     0.000 C 
BRANCH  11  12
ATOM     12  C   UNL     1      41.026  26.300 -27.617  1.00  0.00     0.000 C 
BRANCH  12  13
ATOM     13  C   UNL     1      40.379  24.929 -27.873  1.00  0.00     0.006 C 
BRANCH  13  14
ATOM     14  C   UNL     1      38.863  24.936 -27.639  1.00  0.00     0.053 C 
BRANCH  14  15
ATOM     15  C   UNL     1      38.364  23.558 -27.325  1.00  0.00     0.041 C 
ATOM     16  O   UNL     1      38.008  22.786 -28.255  1.00  0.00    -0.550 OA
ATOM     17  O   UNL     1      38.297  23.125 -26.006  1.00  0.00    -0.550 OA
ENDBRANCH  14  15
ENDBRANCH  13  14
ENDBRANCH  12  13
ENDBRANCH  11  12
ENDBRANCH  10  11
ENDBRANCH   9  10
ENDBRANCH   8   9
ENDBRANCH   7   8
ENDBRANCH   6   7
ENDBRANCH   5   6
ENDBRANCH   4   5
ENDBRANCH   3   4
ENDBRANCH   2   3
ENDBRANCH   1   2
BRANCH   1  18
ATOM     18  C   UNL     1      46.144  19.635 -25.756  1.00  0.00     0.000 C 
BRANCH  18  19
ATOM     19  C   UNL     1      46.960  19.011 -24.612  1.00  0.00     0.000 C 
BRANCH  19  20
ATOM     20  C   UNL     1      46.082  18.376 -23.512  1.00  0.00     0.000 C 
BRANCH  20  21
ATOM     21  C   UNL     1      46.923  17.731 -22.394  1.00  0.00     0.000 C 
BRANCH  21  22
ATOM     22  C   UNL     1      47.003  16.200 -22.517  1.00  0.00     0.000 C 
BRANCH  22  23
ATOM     23  C   UNL     1      45.861  15.612 -23.366  1.00  0.00     0.000 C 
BRANCH  23  24
ATOM     24  C   UNL     1      45.848  14.073 -23.342  1.00  0.00    -0.000 C 
BRANCH  24  25
ATOM     25  C   UNL     1      45.085  13.473 -24.535  1.00  0.00    -0.000 C 
BRANCH  25  26
ATOM     26  C   UNL     1      45.803  12.246 -25.129  1.00  0.00    -0.000 C 
BRANCH  26  27
ATOM     27  C   UNL     1      45.453  12.027 -26.612  1.00  0.00    -0.000 C 
BRANCH  27  28
ATOM     28  C   UNL     1      46.679  12.134 -27.541  1.00  0.00    -0.000 C 
BRANCH  28  29
ATOM     29  C   UNL     1      46.387  11.876 -29.031  1.00  0.00    -0.000 C 
BRANCH  29  30
ATOM     30  C   UNL     1      45.710  13.066 -29.727  1.00  0.00    -0.000 C 
BRANCH  30  31
ATOM     31  C   UNL     1      45.169  12.659 -31.102  1.00  0.00    -0.003 C 
ATOM     32  C   UNL     1      46.305  12.360 -32.077  1.00  0.00     0.004 C 
ENDBRANCH  30  31
ENDBRANCH  29  30
ENDBRANCH  28  29
ENDBRANCH  27  28
ENDBRANCH  26  27
ENDBRANCH  25  26
ENDBRANCH  24  25
ENDBRANCH  23  24
ENDBRANCH  22  23
ENDBRANCH  21  22
ENDBRANCH  20  21
ENDBRANCH  19  20
ENDBRANCH  18  19
ENDBRANCH   1  18
TORSDOF 28
ENDMDL
MODEL 5
REMARK VINA RESULT:     2.988      6.113     11.211
REMARK INTER + INTRA:           7.738
REMARK INTER:                   7.734
REMARK INTRA:                   0.005
REMARK UNBOUND:                -0.140
REMARK SMILES CCCCCCCCCCCCCCCCCCCCCCCCCCCCCC(=O)[O-]
REMARK SMILES IDX 16 1 17 2 18 3 19 4 20 5 21 6 22 7 23 8 24 9 25 10 26 11
REMARK SMILES IDX 27 12 28 13 29 14 30 15 31 16 32 17 15 18 14 19 13 20 12 21
REMARK SMILES IDX 11 22 10 23 9 24 8 25 7 26 6 27 5 28 4 29 3 30 2 31 1 32
REMARK H PARENT
REMARK Flexibility Score: inf
ROOT
ATOM      1  C   UNL     1      42.325  16.763 -28.099  1.00  0.00     0.000 C 
ENDROOT
BRANCH   1   2
ATOM      2  C   UNL     1      41.181  17.652 -28.611  1.00  0.00     0.000 C 
BRANCH   2   3
ATOM      3  C   UNL     1      39.795  17.131 -28.189  1.00  0.00     0.000 C 
BRANCH   3   4
ATOM      4  C   UNL     1      39.370  15.871 -28.967  1.00  0.00     0.000 C 
BRANCH   4   5
ATOM      5  C   UNL     1      38.215  16.087 -29.967  1.00  0.00     0.000 C 
BRANCH   5   6
ATOM      6  C   UNL     1      37.115  15.005 -29.948  1.00  0.00     0.000 C 
BRANCH   6   7
ATOM      7  C   UNL     1      37.504  13.666 -30.600  1.00  0.00     0.000 C 
BRANCH   7   8
ATOM      8  C   UNL     1      36.881  13.481 -31.994  1.00  0.00     0.000 C 
BRANCH   8   9
ATOM      9  C   UNL     1      37.559  14.344 -33.070  1.00  0.00     0.000 C 
BRANCH   9  10
ATOM     10  C   UNL     1      37.213  13.908 -34.501  1.00  0.00     0.000 C 
BRANCH  10  11
ATOM     11  C   UNL     1      37.931  14.785 -35.535  1.00  0.00     0.000 C 
BRANCH  11  12
ATOM     12  C   UNL     1      39.135  14.046 -36.139  1.00  0.00     0.000 C 
BRANCH  12  13
ATOM     13  C   UNL     1      40.430  14.874 -36.091  1.00  0.00     0.006 C 
BRANCH  13  14
ATOM     14  C   UNL     1      41.687  14.023 -36.318  1.00  0.00     0.053 C 
BRANCH  14  15
ATOM     15  C   UNL     1      41.455  12.605 -35.892  1.00  0.00     0.041 C 
ATOM     16  O   UNL     1      42.318  12.004 -35.197  1.00  0.00    -0.550 OA
ATOM     17  O   UNL     1      40.287  11.949 -36.259  1.00  0.00    -0.550 OA
ENDBRANCH  14  15
ENDBRANCH  13  14
ENDBRANCH  12  13
ENDBRANCH  11  12
ENDBRANCH  10  11
ENDBRANCH   9  10
ENDBRANCH   8   9
ENDBRANCH   7   8
ENDBRANCH   6   7
ENDBRANCH   5   6
ENDBRANCH   4   5
ENDBRANCH   3   4
ENDBRANCH   2   3
ENDBRANCH   1   2
BRANCH   1  18
ATOM     18  C   UNL     1      43.601  17.566 -27.794  1.00  0.00     0.000 C 
BRANCH  18  19
ATOM     19  C   UNL     1      43.304  19.012 -27.361  1.00  0.00     0.000 C 
BRANCH  19  20
ATOM     20  C   UNL     1      43.992  19.405 -26.035  1.00  0.00     0.000 C 
BRANCH  20  21
ATOM     21  C   UNL     1      45.521  19.230 -26.097  1.00  0.00     0.000 C 
BRANCH  21  22
ATOM     22  C   UNL     1      46.197  19.412 -24.727  1.00  0.00     0.000 C 
BRANCH  22  23
ATOM     23  C   UNL     1      45.955  18.220 -23.783  1.00  0.00     0.000 C 
BRANCH  23  24
ATOM     24  C   UNL     1      47.116  18.015 -22.793  1.00  0.00    -0.000 C 
BRANCH  24  25
ATOM     25  C   UNL     1      47.179  16.577 -22.250  1.00  0.00    -0.000 C 
BRANCH  25  26
ATOM     26  C   UNL     1      48.510  16.282 -21.532  1.00  0.00    -0.000 C 
BRANCH  26  27
ATOM     27  C   UNL     1      48.447  14.991 -20.696  1.00  0.00    -0.000 C 
BRANCH  27  28
ATOM     28  C   UNL     1      49.701  14.779 -19.824  1.00  0.00    -0.000 C 
BRANCH  28  29
ATOM     29  C   UNL     1      51.033  14.758 -20.598  1.00  0.00    -0.000 C 
BRANCH  29  30
ATOM     30  C   UNL     1      52.188  14.146 -19.793  1.00  0.00    -0.000 C 
BRANCH  30  31
ATOM     31  C   UNL     1      53.417  13.924 -20.682  1.00  0.00    -0.003 C 
ATOM     32  C   UNL     1      54.378  12.916 -20.056  1.00  0.00     0.004 C 
ENDBRANCH  30  31
ENDBRANCH  29  30
ENDBRANCH  28  29
ENDBRANCH  27  28
ENDBRANCH  26  27
ENDBRANCH  25  26
ENDBRANCH  24  25
ENDBRANCH  23  24
ENDBRANCH  22  23
ENDBRANCH  21  22
ENDBRANCH  20  21
ENDBRANCH  19  20
ENDBRANCH  18  19
ENDBRANCH   1  18
TORSDOF 28
ENDMDL
MODEL 6
REMARK VINA RESULT:     3.317      4.099     12.213
REMARK INTER + INTRA:           8.607
REMARK INTER:                   8.477
REMARK INTRA:                   0.130
REMARK UNBOUND:                -0.140
REMARK SMILES CCCCCCCCCCCCCCCCCCCCCCCCCCCCCC(=O)[O-]
REMARK SMILES IDX 16 1 17 2 18 3 19 4 20 5 21 6 22 7 23 8 24 9 25 10 26 11
REMARK SMILES IDX 27 12 28 13 29 14 30 15 31 16 32 17 15 18 14 19 13 20 12 21
REMARK SMILES IDX 11 22 10 23 9 24 8 25 7 26 6 27 5 28 4 29 3 30 2 31 1 32
REMARK H PARENT
REMARK Flexibility Score: inf
ROOT
ATOM      1  C   UNL     1      46.047  17.831 -22.187  1.00  0.00     0.000 C 
ENDROOT
BRANCH   1   2
ATOM      2  C   UNL     1      45.378  17.859 -23.571  1.00  0.00     0.000 C 
BRANCH   2   3
ATOM      3  C   UNL     1      45.899  19.007 -24.454  1.00  0.00     0.000 C 
BRANCH   3   4
ATOM      4  C   UNL     1      47.434  19.132 -24.425  1.00  0.00     0.000 C 
BRANCH   4   5
ATOM      5  C   UNL     1      47.982  20.491 -24.907  1.00  0.00     0.000 C 
BRANCH   5   6
ATOM      6  C   UNL     1      47.176  21.165 -26.037  1.00  0.00     0.000 C 
BRANCH   6   7
ATOM      7  C   UNL     1      45.859  21.829 -25.595  1.00  0.00     0.000 C 
BRANCH   7   8
ATOM      8  C   UNL     1      45.793  23.320 -25.965  1.00  0.00     0.000 C 
BRANCH   8   9
ATOM      9  C   UNL     1      46.054  24.244 -24.765  1.00  0.00     0.000 C 
BRANCH   9  10
ATOM     10  C   UNL     1      44.773  24.633 -24.011  1.00  0.00     0.000 C 
BRANCH  10  11
ATOM     11  C   UNL     1      44.563  26.153 -24.028  1.00  0.00     0.000 C 
BRANCH  11  12
ATOM     12  C   UNL     1      43.097  26.507 -23.735  1.00  0.00     0.000 C 
BRANCH  12  13
ATOM     13  C   UNL     1      42.307  26.876 -25.002  1.00  0.00     0.006 C 
BRANCH  13  14
ATOM     14  C   UNL     1      43.189  26.933 -26.256  1.00  0.00     0.053 C 
BRANCH  14  15
ATOM     15  C   UNL     1      42.356  26.845 -27.499  1.00  0.00     0.041 C 
ATOM     16  O   UNL     1      42.908  26.830 -28.632  1.00  0.00    -0.550 OA
ATOM     17  O   UNL     1      40.971  26.776 -27.406  1.00  0.00    -0.550 OA
ENDBRANCH  14  15
ENDBRANCH  13  14
ENDBRANCH  12  13
ENDBRANCH  11  12
ENDBRANCH  10  11
ENDBRANCH   9  10
ENDBRANCH   8   9
ENDBRANCH   7   8
ENDBRANCH   6   7
ENDBRANCH   5   6
ENDBRANCH   4   5
ENDBRANCH   3   4
ENDBRANCH   2   3
ENDBRANCH   1   2
BRANCH   1  18
ATOM     18  C   UNL     1      47.365  17.037 -22.189  1.00  0.00     0.000 C 
BRANCH  18  19
ATOM     19  C   UNL     1      47.142  15.516 -22.229  1.00  0.00     0.000 C 
BRANCH  19  20
ATOM     20  C   UNL     1      45.939  15.098 -23.103  1.00  0.00     0.000 C 
BRANCH  20  21
ATOM     21  C   UNL     1      45.932  13.587 -23.401  1.00  0.00     0.000 C 
BRANCH  21  22
ATOM     22  C   UNL     1      45.599  13.271 -24.870  1.00  0.00     0.000 C 
BRANCH  22  23
ATOM     23  C   UNL     1      46.086  11.875 -25.302  1.00  0.00     0.000 C 
BRANCH  23  24
ATOM     24  C   UNL     1      46.770  11.897 -26.680  1.00  0.00    -0.000 C 
BRANCH  24  25
ATOM     25  C   UNL     1      45.759  11.880 -27.839  1.00  0.00    -0.000 C 
BRANCH  25  26
ATOM     26  C   UNL     1      46.445  11.990 -29.214  1.00  0.00    -0.000 C 
BRANCH  26  27
ATOM     27  C   UNL     1      45.993  13.238 -29.994  1.00  0.00    -0.000 C 
BRANCH  27  28
ATOM     28  C   UNL     1      44.833  12.951 -30.968  1.00  0.00    -0.000 C 
BRANCH  28  29
ATOM     29  C   UNL     1      45.170  13.157 -32.456  1.00  0.00    -0.000 C 
BRANCH  29  30
ATOM     30  C   UNL     1      44.293  12.315 -33.395  1.00  0.00    -0.000 C 
BRANCH  30  31
ATOM     31  C   UNL     1      44.840  12.343 -34.826  1.00  0.00    -0.003 C 
ATOM     32  C   UNL     1      43.741  12.051 -35.845  1.00  0.00     0.004 C 
ENDBRANCH  30  31
ENDBRANCH  29  30
ENDBRANCH  28  29
ENDBRANCH  27  28
ENDBRANCH  26  27
ENDBRANCH  25  26
ENDBRANCH  24  25
ENDBRANCH  23  24
ENDBRANCH  22  23
ENDBRANCH  21  22
ENDBRANCH  20  21
ENDBRANCH  19  20
ENDBRANCH  18  19
ENDBRANCH   1  18
TORSDOF 28
ENDMDL
MODEL 7
REMARK VINA RESULT:     3.700      3.442     12.190
REMARK INTER + INTRA:           9.618
REMARK INTER:                  10.479
REMARK INTRA:                  -0.861
REMARK UNBOUND:                -0.140
REMARK SMILES CCCCCCCCCCCCCCCCCCCCCCCCCCCCCC(=O)[O-]
REMARK SMILES IDX 16 1 17 2 18 3 19 4 20 5 21 6 22 7 23 8 24 9 25 10 26 11
REMARK SMILES IDX 27 12 28 13 29 14 30 15 31 16 32 17 15 18 14 19 13 20 12 21
REMARK SMILES IDX 11 22 10 23 9 24 8 25 7 26 6 27 5 28 4 29 3 30 2 31 1 32
REMARK H PARENT
REMARK Flexibility Score: inf
ROOT
ATOM      1  C   UNL     1      47.336  18.864 -24.334  1.00  0.00     0.000 C 
ENDROOT
BRANCH   1   2
ATOM      2  C   UNL     1      47.460  20.367 -24.633  1.00  0.00     0.000 C 
BRANCH   2   3
ATOM      3  C   UNL     1      46.635  20.794 -25.860  1.00  0.00     0.000 C 
BRANCH   3   4
ATOM      4  C   UNL     1      46.552  22.323 -26.019  1.00  0.00     0.000 C 
BRANCH   4   5
ATOM      5  C   UNL     1      45.301  22.972 -25.390  1.00  0.00     0.000 C 
BRANCH   5   6
ATOM      6  C   UNL     1      45.471  24.441 -24.949  1.00  0.00     0.000 C 
BRANCH   6   7
ATOM      7  C   UNL     1      45.100  24.731 -23.483  1.00  0.00     0.000 C 
BRANCH   7   8
ATOM      8  C   UNL     1      44.465  26.118 -23.295  1.00  0.00     0.000 C 
BRANCH   8   9
ATOM      9  C   UNL     1      43.220  26.329 -24.171  1.00  0.00     0.000 C 
BRANCH   9  10
ATOM     10  C   UNL     1      43.552  26.489 -25.663  1.00  0.00     0.000 C 
BRANCH  10  11
ATOM     11  C   UNL     1      42.303  26.872 -26.468  1.00  0.00     0.000 C 
BRANCH  11  12
ATOM     12  C   UNL     1      41.956  25.782 -27.494  1.00  0.00     0.000 C 
BRANCH  12  13
ATOM     13  C   UNL     1      40.471  25.785 -27.891  1.00  0.00     0.006 C 
BRANCH  13  14
ATOM     14  C   UNL     1      39.575  25.115 -26.842  1.00  0.00     0.053 C 
BRANCH  14  15
ATOM     15  C   UNL     1      38.881  23.917 -27.419  1.00  0.00     0.041 C 
ATOM     16  O   UNL     1      39.012  23.638 -28.641  1.00  0.00    -0.550 OA
ATOM     17  O   UNL     1      38.095  23.109 -26.607  1.00  0.00    -0.550 OA
ENDBRANCH  14  15
ENDBRANCH  13  14
ENDBRANCH  12  13
ENDBRANCH  11  12
ENDBRANCH  10  11
ENDBRANCH   9  10
ENDBRANCH   8   9
ENDBRANCH   7   8
ENDBRANCH   6   7
ENDBRANCH   5   6
ENDBRANCH   4   5
ENDBRANCH   3   4
ENDBRANCH   2   3
ENDBRANCH   1   2
BRANCH   1  18
ATOM     18  C   UNL     1      46.631  18.588 -22.994  1.00  0.00     0.000 C 
BRANCH  18  19
ATOM     19  C   UNL     1      45.814  17.286 -23.009  1.00  0.00     0.000 C 
BRANCH  19  20
ATOM     20  C   UNL     1      46.611  16.060 -22.512  1.00  0.00     0.000 C 
BRANCH  20  21
ATOM     21  C   UNL     1      46.428  14.834 -23.427  1.00  0.00     0.000 C 
BRANCH  21  22
ATOM     22  C   UNL     1      45.492  13.773 -22.821  1.00  0.00     0.000 C 
BRANCH  22  23
ATOM     23  C   UNL     1      45.459  12.472 -23.644  1.00  0.00     0.000 C 
BRANCH  23  24
ATOM     24  C   UNL     1      44.465  12.548 -24.816  1.00  0.00    -0.000 C 
BRANCH  24  25
ATOM     25  C   UNL     1      45.017  11.898 -26.097  1.00  0.00    -0.000 C 
BRANCH  25  26
ATOM     26  C   UNL     1      46.433  12.397 -26.442  1.00  0.00    -0.000 C 
BRANCH  26  27
ATOM     27  C   UNL     1      46.919  11.876 -27.806  1.00  0.00    -0.000 C 
BRANCH  27  28
ATOM     28  C   UNL     1      45.811  11.877 -28.879  1.00  0.00    -0.000 C 
BRANCH  28  29
ATOM     29  C   UNL     1      45.933  12.991 -29.935  1.00  0.00    -0.000 C 
BRANCH  29  30
ATOM     30  C   UNL     1      45.354  12.593 -31.300  1.00  0.00    -0.000 C 
BRANCH  30  31
ATOM     31  C   UNL     1      46.103  13.295 -32.438  1.00  0.00    -0.003 C 
ATOM     32  C   UNL     1      45.732  12.701 -33.795  1.00  0.00     0.004 C 
ENDBRANCH  30  31
ENDBRANCH  29  30
ENDBRANCH  28  29
ENDBRANCH  27  28
ENDBRANCH  26  27
ENDBRANCH  25  26
ENDBRANCH  24  25
ENDBRANCH  23  24
ENDBRANCH  22  23
ENDBRANCH  21  22
ENDBRANCH  20  21
ENDBRANCH  19  20
ENDBRANCH  18  19
ENDBRANCH   1  18
TORSDOF 28
ENDMDL
MODEL 8
REMARK VINA RESULT:     5.110      5.419     10.217
REMARK INTER + INTRA:          13.333
REMARK INTER:                  14.804
REMARK INTRA:                  -1.470
REMARK UNBOUND:                -0.140
REMARK SMILES CCCCCCCCCCCCCCCCCCCCCCCCCCCCCC(=O)[O-]
REMARK SMILES IDX 16 1 17 2 18 3 19 4 20 5 21 6 22 7 23 8 24 9 25 10 26 11
REMARK SMILES IDX 27 12 28 13 29 14 30 15 31 16 32 17 15 18 14 19 13 20 12 21
REMARK SMILES IDX 11 22 10 23 9 24 8 25 7 26 6 27 5 28 4 29 3 30 2 31 1 32
REMARK H PARENT
REMARK Flexibility Score: inf
ROOT
ATOM      1  C   UNL     1      41.205  17.648 -28.783  1.00  0.00     0.000 C 
ENDROOT
BRANCH   1   2
ATOM      2  C   UNL     1      39.992  16.757 -28.471  1.00  0.00     0.000 C 
BRANCH   2   3
ATOM      3  C   UNL     1      39.237  16.324 -29.741  1.00  0.00     0.000 C 
BRANCH   3   4
ATOM      4  C   UNL     1      37.865  15.695 -29.433  1.00  0.00     0.000 C 
BRANCH   4   5
ATOM      5  C   UNL     1      37.085  15.206 -30.671  1.00  0.00     0.000 C 
BRANCH   5   6
ATOM      6  C   UNL     1      37.303  13.724 -31.045  1.00  0.00     0.000 C 
BRANCH   6   7
ATOM      7  C   UNL     1      36.962  13.361 -32.502  1.00  0.00     0.000 C 
BRANCH   7   8
ATOM      8  C   UNL     1      37.104  14.554 -33.460  1.00  0.00     0.000 C 
BRANCH   8   9
ATOM      9  C   UNL     1      37.289  14.124 -34.925  1.00  0.00     0.000 C 
BRANCH   9  10
ATOM     10  C   UNL     1      38.678  13.535 -35.211  1.00  0.00     0.000 C 
BRANCH  10  11
ATOM     11  C   UNL     1      39.482  14.448 -36.146  1.00  0.00     0.000 C 
BRANCH  11  12
ATOM     12  C   UNL     1      40.987  14.157 -36.037  1.00  0.00     0.000 C 
BRANCH  12  13
ATOM     13  C   UNL     1      41.363  12.753 -36.540  1.00  0.00     0.006 C 
BRANCH  13  14
ATOM     14  C   UNL     1      41.981  11.876 -35.443  1.00  0.00     0.053 C 
BRANCH  14  15
ATOM     15  C   UNL     1      43.441  12.174 -35.280  1.00  0.00     0.041 C 
ATOM     16  O   UNL     1      43.917  12.400 -34.135  1.00  0.00    -0.550 OA
ATOM     17  O   UNL     1      44.275  12.200 -36.391  1.00  0.00    -0.550 OA
ENDBRANCH  14  15
ENDBRANCH  13  14
ENDBRANCH  12  13
ENDBRANCH  11  12
ENDBRANCH  10  11
ENDBRANCH   9  10
ENDBRANCH   8   9
ENDBRANCH   7   8
ENDBRANCH   6   7
ENDBRANCH   5   6
ENDBRANCH   4   5
ENDBRANCH   3   4
ENDBRANCH   2   3
ENDBRANCH   1   2
BRANCH   1  18
ATOM     18  C   UNL     1      42.396  17.365 -27.850  1.00  0.00     0.000 C 
BRANCH  18  19
ATOM     19  C   UNL     1      43.159  18.641 -27.457  1.00  0.00     0.000 C 
BRANCH  19  20
ATOM     20  C   UNL     1      44.594  18.365 -26.958  1.00  0.00     0.000 C 
BRANCH  20  21
ATOM     21  C   UNL     1      44.837  18.925 -25.543  1.00  0.00     0.000 C 
BRANCH  21  22
ATOM     22  C   UNL     1      46.330  19.129 -25.233  1.00  0.00     0.000 C 
BRANCH  22  23
ATOM     23  C   UNL     1      46.615  19.225 -23.722  1.00  0.00     0.000 C 
BRANCH  23  24
ATOM     24  C   UNL     1      46.040  18.029 -22.943  1.00  0.00    -0.000 C 
BRANCH  24  25
ATOM     25  C   UNL     1      47.126  17.242 -22.190  1.00  0.00    -0.000 C 
BRANCH  25  26
ATOM     26  C   UNL     1      47.319  15.823 -22.760  1.00  0.00    -0.000 C 
BRANCH  26  27
ATOM     27  C   UNL     1      46.044  14.969 -22.642  1.00  0.00    -0.000 C 
BRANCH  27  28
ATOM     28  C   UNL     1      45.761  14.134 -23.907  1.00  0.00    -0.000 C 
BRANCH  28  29
ATOM     29  C   UNL     1      45.175  12.734 -23.642  1.00  0.00    -0.000 C 
BRANCH  29  30
ATOM     30  C   UNL     1      45.007  11.900 -24.920  1.00  0.00    -0.000 C 
BRANCH  30  31
ATOM     31  C   UNL     1      46.101  12.235 -25.940  1.00  0.00    -0.003 C 
ATOM     32  C   UNL     1      45.664  11.875 -27.359  1.00  0.00     0.004 C 
ENDBRANCH  30  31
ENDBRANCH  29  30
ENDBRANCH  28  29
ENDBRANCH  27  28
ENDBRANCH  26  27
ENDBRANCH  25  26
ENDBRANCH  24  25
ENDBRANCH  23  24
ENDBRANCH  22  23
ENDBRANCH  21  22
ENDBRANCH  20  21
ENDBRANCH  19  20
ENDBRANCH  18  19
ENDBRANCH   1  18
TORSDOF 28
ENDMDL
