MODEL 1
REMARK VINA RESULT:    -2.904      0.000      0.000
REMARK INTER + INTRA:          -3.158
REMARK INTER:                  -3.158
REMARK INTRA:                   0.000
REMARK UNBOUND:                 0.000
REMARK SMILES [NH3+]CC(=O)[O-]
REMARK SMILES IDX 2 1 1 2 3 6 4 7 5 8
REMARK H PARENT 1 3 1 4 1 5
REMARK Flexibility Score: inf
ROOT
ATOM      1  C   UNL     1    -102.026 -81.989  30.742  1.00  0.00     0.312 C 
ENDROOT
BRANCH   1   2
ATOM      2  N   UNL     1    -102.172 -81.423  32.082  1.00  0.00    -0.353 N 
ATOM      3  H   UNL     1    -101.344 -81.673  32.670  1.00  0.00     0.344 HD
ATOM      4  H   UNL     1    -102.234 -80.382  32.008  1.00  0.00     0.344 HD
ATOM      5  H   UNL     1    -103.046 -81.783  32.530  1.00  0.00     0.344 HD
ENDBRANCH   1   2
BRANCH   1   6
ATOM      6  C   UNL     1    -100.605 -81.891  30.280  1.00  0.00     0.096 C 
ATOM      7  O   UNL     1     -99.717 -82.611  30.806  1.00  0.00    -0.544 OA
ATOM      8  O   UNL     1    -100.273 -81.042  29.233  1.00  0.00    -0.544 OA
ENDBRANCH   1   6
TORSDOF 2
ENDMDL
MODEL 2
REMARK VINA RESULT:    -2.653     25.195     25.413
REMARK INTER + INTRA:          -2.886
REMARK INTER:                  -2.886
REMARK INTRA:                   0.000
REMARK UNBOUND:                 0.000
REMARK SMILES [NH3+]CC(=O)[O-]
REMARK SMILES IDX 2 1 1 2 3 6 4 7 5 8
REMARK H PARENT 1 3 1 4 1 5
REMARK Flexibility Score: inf
ROOT
ATOM      1  C   UNL     1    -118.139 -98.240  41.193  1.00  0.00     0.312 C 
ENDROOT
BRANCH   1   2
ATOM      2  N   UNL     1    -118.240 -96.834  40.806  1.00  0.00    -0.353 N 
ATOM      3  H   UNL     1    -119.143 -96.431  41.150  1.00  0.00     0.344 HD
ATOM      4  H   UNL     1    -117.448 -96.304  41.234  1.00  0.00     0.344 HD
ATOM      5  H   UNL     1    -118.185 -96.744  39.765  1.00  0.00     0.344 HD
ENDBRANCH   1   2
BRANCH   1   6
ATOM      6  C   UNL     1    -116.992 -98.901  40.492  1.00  0.00     0.096 C 
ATOM      7  O   UNL     1    -116.963 -98.952  39.235  1.00  0.00    -0.544 OA
ATOM      8  O   UNL     1    -115.931 -99.413  41.228  1.00  0.00    -0.544 OA
ENDBRANCH   1   6
TORSDOF 2
ENDMDL
MODEL 3
REMARK VINA RESULT:    -2.608      1.703      2.044
REMARK INTER + INTRA:          -2.837
REMARK INTER:                  -2.837
REMARK INTRA:                   0.000
REMARK UNBOUND:                 0.000
REMARK SMILES [NH3+]CC(=O)[O-]
REMARK SMILES IDX 2 1 1 2 3 6 4 7 5 8
REMARK H PARENT 1 3 1 4 1 5
REMARK Flexibility Score: inf
ROOT
ATOM      1  C   UNL     1     -98.875 -81.242  31.248  1.00  0.00     0.312 C 
ENDROOT
BRANCH   1   2
ATOM      2  N   UNL     1     -99.269 -81.324  32.654  1.00  0.00    -0.353 N 
ATOM      3  H   UNL     1     -99.748 -82.236  32.840  1.00  0.00     0.344 HD
ATOM      4  H   UNL     1     -98.414 -81.263  33.253  1.00  0.00     0.344 HD
ATOM      5  H   UNL     1     -99.909 -80.532  32.893  1.00  0.00     0.344 HD
ENDBRANCH   1   2
BRANCH   1   6
ATOM      6  C   UNL     1    -100.005 -81.657  30.357  1.00  0.00     0.096 C 
ATOM      7  O   UNL     1    -100.628 -82.727  30.582  1.00  0.00    -0.544 OA
ATOM      8  O   UNL     1    -100.402 -80.834  29.311  1.00  0.00    -0.544 OA
ENDBRANCH   1   6
TORSDOF 2
ENDMDL
MODEL 4
REMARK VINA RESULT:    -2.517     27.611     27.887
REMARK INTER + INTRA:          -2.738
REMARK INTER:                  -2.738
REMARK INTRA:                   0.000
REMARK UNBOUND:                 0.000
REMARK SMILES [NH3+]CC(=O)[O-]
REMARK SMILES IDX 2 1 1 2 3 6 4 7 5 8
REMARK H PARENT 1 3 1 4 1 5
REMARK Flexibility Score: inf
ROOT
ATOM      1  C   UNL     1    -118.043 -96.856  47.933  1.00  0.00     0.312 C 
ENDROOT
BRANCH   1   2
ATOM      2  N   UNL     1    -117.236 -96.309  49.022  1.00  0.00    -0.353 N 
ATOM      3  H   UNL     1    -117.386 -96.866  49.895  1.00  0.00     0.344 HD
ATOM      4  H   UNL     1    -116.225 -96.360  48.758  1.00  0.00     0.344 HD
ATOM      5  H   UNL     1    -117.492 -95.309  49.191  1.00  0.00     0.344 HD
ENDBRANCH   1   2
BRANCH   1   6
ATOM      6  C   UNL     1    -118.355 -95.796  46.922  1.00  0.00     0.096 C 
ATOM      7  O   UNL     1    -118.095 -94.590  47.169  1.00  0.00    -0.544 OA
ATOM      8  O   UNL     1    -118.886 -96.149  45.688  1.00  0.00    -0.544 OA
ENDBRANCH   1   6
TORSDOF 2
ENDMDL
MODEL 5
REMARK VINA RESULT:    -2.507     22.846     23.168
REMARK INTER + INTRA:          -2.726
REMARK INTER:                  -2.726
REMARK INTRA:                   0.000
REMARK UNBOUND:                 0.000
REMARK SMILES [NH3+]CC(=O)[O-]
REMARK SMILES IDX 2 1 1 2 3 6 4 7 5 8
REMARK H PARENT 1 3 1 4 1 5
REMARK Flexibility Score: inf
ROOT
ATOM      1  C   UNL     1    -116.539 -98.451  34.924  1.00  0.00     0.312 C 
ENDROOT
BRANCH   1   2
ATOM      2  N   UNL     1    -115.806 -97.322  34.352  1.00  0.00    -0.353 N 
ATOM      3  H   UNL     1    -115.407 -96.730  35.117  1.00  0.00     0.344 HD
ATOM      4  H   UNL     1    -115.023 -97.686  33.762  1.00  0.00     0.344 HD
ATOM      5  H   UNL     1    -116.443 -96.747  33.754  1.00  0.00     0.344 HD
ENDBRANCH   1   2
BRANCH   1   6
ATOM      6  C   UNL     1    -115.839 -98.975  36.139  1.00  0.00     0.096 C 
ATOM      7  O   UNL     1    -114.633 -99.327  36.072  1.00  0.00    -0.544 OA
ATOM      8  O   UNL     1    -116.506 -99.026  37.356  1.00  0.00    -0.544 OA
ENDBRANCH   1   6
TORSDOF 2
ENDMDL
MODEL 6
REMARK VINA RESULT:    -2.487     22.705     23.007
REMARK INTER + INTRA:          -2.705
REMARK INTER:                  -2.705
REMARK INTRA:                   0.000
REMARK UNBOUND:                 0.000
REMARK SMILES [NH3+]CC(=O)[O-]
REMARK SMILES IDX 2 1 1 2 3 6 4 7 5 8
REMARK H PARENT 1 3 1 4 1 5
REMARK Flexibility Score: inf
ROOT
ATOM      1  C   UNL     1    -116.466 -98.298  34.686  1.00  0.00     0.312 C 
ENDROOT
BRANCH   1   2
ATOM      2  N   UNL     1    -115.730 -97.130  34.203  1.00  0.00    -0.353 N 
ATOM      3  H   UNL     1    -116.380 -96.318  34.090  1.00  0.00     0.344 HD
ATOM      4  H   UNL     1    -114.992 -96.879  34.900  1.00  0.00     0.344 HD
ATOM      5  H   UNL     1    -115.272 -97.349  33.289  1.00  0.00     0.344 HD
ENDBRANCH   1   2
BRANCH   1   6
ATOM      6  C   UNL     1    -115.903 -98.776  35.989  1.00  0.00     0.096 C 
ATOM      7  O   UNL     1    -116.612 -98.759  37.029  1.00  0.00    -0.544 OA
ATOM      8  O   UNL     1    -114.613 -99.288  36.042  1.00  0.00    -0.544 OA
ENDBRANCH   1   6
TORSDOF 2
ENDMDL
MODEL 7
REMARK VINA RESULT:    -2.480      1.931      2.536
REMARK INTER + INTRA:          -2.697
REMARK INTER:                  -2.697
REMARK INTRA:                   0.000
REMARK UNBOUND:                 0.000
REMARK SMILES [NH3+]CC(=O)[O-]
REMARK SMILES IDX 2 1 1 2 3 6 4 7 5 8
REMARK H PARENT 1 3 1 4 1 5
REMARK Flexibility Score: inf
ROOT
ATOM      1  C   UNL     1    -100.176 -81.207  30.644  1.00  0.00     0.312 C 
ENDROOT
BRANCH   1   2
ATOM      2  N   UNL     1     -99.920 -81.254  32.082  1.00  0.00    -0.353 N 
ATOM      3  H   UNL     1     -99.813 -82.248  32.395  1.00  0.00     0.344 HD
ATOM      4  H   UNL     1     -99.035 -80.737  32.289  1.00  0.00     0.344 HD
ATOM      5  H   UNL     1    -100.707 -80.802  32.602  1.00  0.00     0.344 HD
ENDBRANCH   1   2
BRANCH   1   6
ATOM      6  C   UNL     1    -101.648 -81.204  30.369  1.00  0.00     0.096 C 
ATOM      7  O   UNL     1    -102.151 -80.325  29.622  1.00  0.00    -0.544 OA
ATOM      8  O   UNL     1    -102.455 -82.204  30.897  1.00  0.00    -0.544 OA
ENDBRANCH   1   6
TORSDOF 2
ENDMDL
MODEL 8
REMARK VINA RESULT:    -2.431     25.192     25.327
REMARK INTER + INTRA:          -2.644
REMARK INTER:                  -2.644
REMARK INTRA:                   0.000
REMARK UNBOUND:                 0.000
REMARK SMILES [NH3+]CC(=O)[O-]
REMARK SMILES IDX 2 1 1 2 3 6 4 7 5 8
REMARK H PARENT 1 3 1 4 1 5
REMARK Flexibility Score: inf
ROOT
ATOM      1  C   UNL     1    -116.832 -99.220  41.281  1.00  0.00     0.312 C 
ENDROOT
BRANCH   1   2
ATOM      2  N   UNL     1    -116.450 -98.158  42.212  1.00  0.00    -0.353 N 
ATOM      3  H   UNL     1    -116.736 -98.415  43.186  1.00  0.00     0.344 HD
ATOM      4  H   UNL     1    -115.412 -98.036  42.185  1.00  0.00     0.344 HD
ATOM      5  H   UNL     1    -116.905 -97.258  41.935  1.00  0.00     0.344 HD
ENDBRANCH   1   2
BRANCH   1   6
ATOM      6  C   UNL     1    -117.275 -98.641  39.973  1.00  0.00     0.096 C 
ATOM      7  O   UNL     1    -116.955 -99.202  38.893  1.00  0.00    -0.544 OA
ATOM      8  O   UNL     1    -118.083 -97.512  39.951  1.00  0.00    -0.544 OA
ENDBRANCH   1   6
TORSDOF 2
ENDMDL
MODEL 9
REMARK VINA RESULT:    -2.391     27.589     27.927
REMARK INTER + INTRA:          -2.601
REMARK INTER:                  -2.601
REMARK INTRA:                   0.000
REMARK UNBOUND:                 0.000
REMARK SMILES [NH3+]CC(=O)[O-]
REMARK SMILES IDX 2 1 1 2 3 6 4 7 5 8
REMARK H PARENT 1 3 1 4 1 5
REMARK Flexibility Score: inf
ROOT
ATOM      1  C   UNL     1    -118.678 -94.974  48.345  1.00  0.00     0.312 C 
ENDROOT
BRANCH   1   2
ATOM      2  N   UNL     1    -118.141 -93.689  47.900  1.00  0.00    -0.353 N 
ATOM      3  H   UNL     1    -118.511 -93.456  46.949  1.00  0.00     0.344 HD
ATOM      4  H   UNL     1    -118.438 -92.944  48.571  1.00  0.00     0.344 HD
ATOM      5  H   UNL     1    -117.097 -93.726  47.875  1.00  0.00     0.344 HD
ENDBRANCH   1   2
BRANCH   1   6
ATOM      6  C   UNL     1    -118.394 -96.044  47.335  1.00  0.00     0.096 C 
ATOM      7  O   UNL     1    -118.564 -95.817  46.109  1.00  0.00    -0.544 OA
ATOM      8  O   UNL     1    -117.894 -97.272  47.747  1.00  0.00    -0.544 OA
ENDBRANCH   1   6
TORSDOF 2
ENDMDL
