MODEL 1
REMARK VINA RESULT:    -4.941      0.000      0.000
REMARK INTER + INTRA:          -5.578
REMARK INTER:                  -5.374
REMARK INTRA:                  -0.204
REMARK UNBOUND:                -0.204
REMARK SMILES C=C(C)[C@@H]1CC[C@H](C)C[C@H]1O
REMARK SMILES IDX 8 1 7 2 6 3 5 4 4 5 10 6 9 7 11 8 2 10 1 11 3 12
REMARK H PARENT 11 9
REMARK Flexibility Score: inf
ROOT
ATOM      1  C   UNL     1      -3.065  18.448  48.866  1.00  0.00     0.008 C 
ATOM      2  C   UNL     1      -1.610  18.180  49.283  1.00  0.00    -0.012 C 
ATOM      3  C   UNL     1      -1.269  16.675  49.266  1.00  0.00     0.004 C 
ATOM      4  C   UNL     1      -1.120  16.120  47.843  1.00  0.00     0.011 C 
ATOM      5  C   UNL     1      -0.078  16.923  47.040  1.00  0.00     0.043 C 
ATOM      6  C   UNL     1      -0.445  18.428  47.008  1.00  0.00     0.121 C 
ATOM      7  C   UNL     1      -0.603  18.988  48.437  1.00  0.00     0.035 C 
ENDROOT
BRANCH   6   8
ATOM      8  O   UNL     1       0.524  19.165  46.302  1.00  0.00    -0.392 OA
ATOM      9  H   UNL     1       0.365  19.021  45.332  1.00  0.00     0.210 HD
ENDBRANCH   6   8
BRANCH   5  10
ATOM     10  C   UNL     1       0.076  16.356  45.634  1.00  0.00    -0.075 C 
ATOM     11  C   UNL     1      -0.990  16.273  44.820  1.00  0.00     0.008 C 
ATOM     12  C   UNL     1       1.412  15.875  45.123  1.00  0.00     0.039 C 
ENDBRANCH   5  10
TORSDOF 2
ENDMDL
MODEL 2
REMARK VINA RESULT:    -4.720      1.860      4.380
REMARK INTER + INTRA:          -5.338
REMARK INTER:                  -5.206
REMARK INTRA:                  -0.131
REMARK UNBOUND:                -0.204
REMARK SMILES C=C(C)[C@@H]1CC[C@H](C)C[C@H]1O
REMARK SMILES IDX 8 1 7 2 6 3 5 4 4 5 10 6 9 7 11 8 2 10 1 11 3 12
REMARK H PARENT 11 9
REMARK Flexibility Score: inf
ROOT
ATOM      1  C   UNL     1      -1.754  16.228  45.299  1.00  0.00     0.008 C 
ATOM      2  C   UNL     1      -0.630  16.137  46.343  1.00  0.00    -0.012 C 
ATOM      3  C   UNL     1       0.287  17.379  46.319  1.00  0.00     0.004 C 
ATOM      4  C   UNL     1      -0.383  18.618  46.929  1.00  0.00     0.011 C 
ATOM      5  C   UNL     1      -0.877  18.334  48.360  1.00  0.00     0.043 C 
ATOM      6  C   UNL     1      -1.841  17.121  48.383  1.00  0.00     0.121 C 
ATOM      7  C   UNL     1      -1.175  15.875  47.764  1.00  0.00     0.035 C 
ENDROOT
BRANCH   6   8
ATOM      8  O   UNL     1      -2.266  16.843  49.695  1.00  0.00    -0.392 OA
ATOM      9  H   UNL     1      -2.577  15.900  49.717  1.00  0.00     0.210 HD
ENDBRANCH   6   8
BRANCH   5  10
ATOM     10  C   UNL     1      -1.525  19.574  48.965  1.00  0.00    -0.075 C 
ATOM     11  C   UNL     1      -0.830  20.353  49.810  1.00  0.00     0.008 C 
ATOM     12  C   UNL     1      -2.948  19.954  48.640  1.00  0.00     0.039 C 
ENDBRANCH   5  10
TORSDOF 2
ENDMDL
MODEL 3
REMARK VINA RESULT:    -4.697      2.267      4.588
REMARK INTER + INTRA:          -5.313
REMARK INTER:                  -5.116
REMARK INTRA:                  -0.197
REMARK UNBOUND:                -0.204
REMARK SMILES C=C(C)[C@@H]1CC[C@H](C)C[C@H]1O
REMARK SMILES IDX 8 1 7 2 6 3 5 4 4 5 10 6 9 7 11 8 2 10 1 11 3 12
REMARK H PARENT 11 9
REMARK Flexibility Score: inf
ROOT
ATOM      1  C   UNL     1      -0.846  16.356  47.590  1.00  0.00     0.008 C 
ATOM      2  C   UNL     1      -1.858  16.560  48.729  1.00  0.00    -0.012 C 
ATOM      3  C   UNL     1      -1.198  17.156  49.991  1.00  0.00     0.004 C 
ATOM      4  C   UNL     1      -0.854  18.643  49.830  1.00  0.00     0.011 C 
ATOM      5  C   UNL     1      -2.097  19.460  49.428  1.00  0.00     0.043 C 
ATOM      6  C   UNL     1      -2.732  18.900  48.130  1.00  0.00     0.121 C 
ATOM      7  C   UNL     1      -3.072  17.403  48.285  1.00  0.00     0.035 C 
ENDROOT
BRANCH   6   8
ATOM      8  O   UNL     1      -3.884  19.627  47.781  1.00  0.00    -0.392 OA
ATOM      9  H   UNL     1      -4.004  20.344  48.458  1.00  0.00     0.210 HD
ENDBRANCH   6   8
BRANCH   5  10
ATOM     10  C   UNL     1      -1.750  20.938  49.287  1.00  0.00    -0.075 C 
ATOM     11  C   UNL     1      -0.862  21.336  48.361  1.00  0.00     0.008 C 
ATOM     12  C   UNL     1      -2.384  21.981  50.173  1.00  0.00     0.039 C 
ENDBRANCH   5  10
TORSDOF 2
ENDMDL
MODEL 4
REMARK VINA RESULT:    -4.532      1.834      3.240
REMARK INTER + INTRA:          -5.133
REMARK INTER:                  -4.944
REMARK INTRA:                  -0.190
REMARK UNBOUND:                -0.204
REMARK SMILES C=C(C)[C@@H]1CC[C@H](C)C[C@H]1O
REMARK SMILES IDX 8 1 7 2 6 3 5 4 4 5 10 6 9 7 11 8 2 10 1 11 3 12
REMARK H PARENT 11 9
REMARK Flexibility Score: inf
ROOT
ATOM      1  C   UNL     1      -1.224  16.571  49.678  1.00  0.00     0.008 C 
ATOM      2  C   UNL     1      -2.329  17.245  48.848  1.00  0.00    -0.012 C 
ATOM      3  C   UNL     1      -2.527  18.725  49.238  1.00  0.00     0.004 C 
ATOM      4  C   UNL     1      -1.391  19.625  48.732  1.00  0.00     0.011 C 
ATOM      5  C   UNL     1      -1.207  19.483  47.209  1.00  0.00     0.043 C 
ATOM      6  C   UNL     1      -0.954  18.006  46.817  1.00  0.00     0.121 C 
ATOM      7  C   UNL     1      -2.089  17.097  47.330  1.00  0.00     0.035 C 
ENDROOT
BRANCH   6   8
ATOM      8  O   UNL     1      -0.818  17.874  45.423  1.00  0.00    -0.392 OA
ATOM      9  H   UNL     1      -1.142  18.716  45.007  1.00  0.00     0.210 HD
ENDBRANCH   6   8
BRANCH   5  10
ATOM     10  C   UNL     1      -0.090  20.393  46.712  1.00  0.00    -0.075 C 
ATOM     11  C   UNL     1      -0.378  21.454  45.941  1.00  0.00     0.008 C 
ATOM     12  C   UNL     1       1.353  20.129  47.065  1.00  0.00     0.039 C 
ENDBRANCH   5  10
TORSDOF 2
ENDMDL
MODEL 5
REMARK VINA RESULT:    -4.527      1.773      2.630
REMARK INTER + INTRA:          -5.128
REMARK INTER:                  -4.987
REMARK INTRA:                  -0.141
REMARK UNBOUND:                -0.204
REMARK SMILES C=C(C)[C@@H]1CC[C@H](C)C[C@H]1O
REMARK SMILES IDX 8 1 7 2 6 3 5 4 4 5 10 6 9 7 11 8 2 10 1 11 3 12
REMARK H PARENT 11 9
REMARK Flexibility Score: inf
ROOT
ATOM      1  C   UNL     1      -0.871  20.160  49.941  1.00  0.00     0.008 C 
ATOM      2  C   UNL     1      -2.050  19.494  49.215  1.00  0.00    -0.012 C 
ATOM      3  C   UNL     1      -2.113  19.890  47.725  1.00  0.00     0.004 C 
ATOM      4  C   UNL     1      -1.021  19.210  46.887  1.00  0.00     0.011 C 
ATOM      5  C   UNL     1      -1.072  17.679  47.046  1.00  0.00     0.043 C 
ATOM      6  C   UNL     1      -0.954  17.272  48.537  1.00  0.00     0.121 C 
ATOM      7  C   UNL     1      -2.046  17.959  49.383  1.00  0.00     0.035 C 
ENDROOT
BRANCH   6   8
ATOM      8  O   UNL     1      -1.033  15.875  48.683  1.00  0.00    -0.392 OA
ATOM      9  H   UNL     1      -0.264  15.587  49.241  1.00  0.00     0.210 HD
ENDBRANCH   6   8
BRANCH   5  10
ATOM     10  C   UNL     1       0.005  17.010  46.199  1.00  0.00    -0.075 C 
ATOM     11  C   UNL     1       1.293  17.072  46.576  1.00  0.00     0.008 C 
ATOM     12  C   UNL     1      -0.340  16.273  44.929  1.00  0.00     0.039 C 
ENDBRANCH   5  10
TORSDOF 2
ENDMDL
MODEL 6
REMARK VINA RESULT:    -4.485      1.272      3.869
REMARK INTER + INTRA:          -5.082
REMARK INTER:                  -4.904
REMARK INTRA:                  -0.178
REMARK UNBOUND:                -0.204
REMARK SMILES C=C(C)[C@@H]1CC[C@H](C)C[C@H]1O
REMARK SMILES IDX 8 1 7 2 6 3 5 4 4 5 10 6 9 7 11 8 2 10 1 11 3 12
REMARK H PARENT 11 9
REMARK Flexibility Score: inf
ROOT
ATOM      1  C   UNL     1       1.096  15.969  46.607  1.00  0.00     0.008 C 
ATOM      2  C   UNL     1      -0.418  16.060  46.357  1.00  0.00    -0.012 C 
ATOM      3  C   UNL     1      -1.233  15.890  47.656  1.00  0.00     0.004 C 
ATOM      4  C   UNL     1      -1.158  17.125  48.565  1.00  0.00     0.011 C 
ATOM      5  C   UNL     1      -1.594  18.396  47.811  1.00  0.00     0.043 C 
ATOM      6  C   UNL     1      -0.743  18.602  46.533  1.00  0.00     0.121 C 
ATOM      7  C   UNL     1      -0.809  17.360  45.621  1.00  0.00     0.035 C 
ENDROOT
BRANCH   6   8
ATOM      8  O   UNL     1      -1.163  19.745  45.829  1.00  0.00    -0.392 OA
ATOM      9  H   UNL     1      -2.062  19.995  46.170  1.00  0.00     0.210 HD
ENDBRANCH   6   8
BRANCH   5  10
ATOM     10  C   UNL     1      -1.533  19.615  48.725  1.00  0.00    -0.075 C 
ATOM     11  C   UNL     1      -2.668  20.175  49.176  1.00  0.00     0.008 C 
ATOM     12  C   UNL     1      -0.216  20.221  49.140  1.00  0.00     0.039 C 
ENDBRANCH   5  10
TORSDOF 2
ENDMDL
MODEL 7
REMARK VINA RESULT:    -4.375      9.275     10.693
REMARK INTER + INTRA:          -4.963
REMARK INTER:                  -4.771
REMARK INTRA:                  -0.192
REMARK UNBOUND:                -0.204
REMARK SMILES C=C(C)[C@@H]1CC[C@H](C)C[C@H]1O
REMARK SMILES IDX 8 1 7 2 6 3 5 4 4 5 10 6 9 7 11 8 2 10 1 11 3 12
REMARK H PARENT 11 9
REMARK Flexibility Score: inf
ROOT
ATOM      1  C   UNL     1       7.374  21.502  40.599  1.00  0.00     0.008 C 
ATOM      2  C   UNL     1       6.110  20.633  40.510  1.00  0.00    -0.012 C 
ATOM      3  C   UNL     1       5.138  20.899  41.678  1.00  0.00     0.004 C 
ATOM      4  C   UNL     1       4.405  22.240  41.541  1.00  0.00     0.011 C 
ATOM      5  C   UNL     1       3.671  22.337  40.190  1.00  0.00     0.043 C 
ATOM      6  C   UNL     1       4.653  22.124  39.011  1.00  0.00     0.121 C 
ATOM      7  C   UNL     1       5.397  20.780  39.148  1.00  0.00     0.035 C 
ENDROOT
BRANCH   6   8
ATOM      8  O   UNL     1       3.976  22.180  37.779  1.00  0.00    -0.392 OA
ATOM      9  H   UNL     1       4.599  22.570  37.110  1.00  0.00     0.210 HD
ENDBRANCH   6   8
BRANCH   5  10
ATOM     10  C   UNL     1       2.932  23.664  40.069  1.00  0.00    -0.075 C 
ATOM     11  C   UNL     1       1.595  23.681  39.936  1.00  0.00     0.008 C 
ATOM     12  C   UNL     1       3.671  24.980  40.092  1.00  0.00     0.039 C 
ENDBRANCH   5  10
TORSDOF 2
ENDMDL
MODEL 8
REMARK VINA RESULT:    -4.219      2.133      3.483
REMARK INTER + INTRA:          -4.793
REMARK INTER:                  -4.595
REMARK INTRA:                  -0.198
REMARK UNBOUND:                -0.204
REMARK SMILES C=C(C)[C@@H]1CC[C@H](C)C[C@H]1O
REMARK SMILES IDX 8 1 7 2 6 3 5 4 4 5 10 6 9 7 11 8 2 10 1 11 3 12
REMARK H PARENT 11 9
REMARK Flexibility Score: inf
ROOT
ATOM      1  C   UNL     1      -1.261  22.407  47.727  1.00  0.00     0.008 C 
ATOM      2  C   UNL     1      -0.012  21.517  47.818  1.00  0.00    -0.012 C 
ATOM      3  C   UNL     1       0.092  20.798  49.180  1.00  0.00     0.004 C 
ATOM      4  C   UNL     1      -0.917  19.651  49.320  1.00  0.00     0.011 C 
ATOM      5  C   UNL     1      -0.778  18.644  48.162  1.00  0.00     0.043 C 
ATOM      6  C   UNL     1      -0.936  19.351  46.792  1.00  0.00     0.121 C 
ATOM      7  C   UNL     1       0.073  20.510  46.650  1.00  0.00     0.035 C 
ENDROOT
BRANCH   6   8
ATOM      8  O   UNL     1      -0.776  18.436  45.735  1.00  0.00    -0.392 OA
ATOM      9  H   UNL     1      -1.667  18.302  45.316  1.00  0.00     0.210 HD
ENDBRANCH   6   8
BRANCH   5  10
ATOM     10  C   UNL     1      -1.772  17.499  48.317  1.00  0.00    -0.075 C 
ATOM     11  C   UNL     1      -3.078  17.761  48.494  1.00  0.00     0.008 C 
ATOM     12  C   UNL     1      -1.324  16.059  48.280  1.00  0.00     0.039 C 
ENDBRANCH   5  10
TORSDOF 2
ENDMDL
MODEL 9
REMARK VINA RESULT:    -4.211      2.181      3.470
REMARK INTER + INTRA:          -4.784
REMARK INTER:                  -4.598
REMARK INTRA:                  -0.186
REMARK UNBOUND:                -0.204
REMARK SMILES C=C(C)[C@@H]1CC[C@H](C)C[C@H]1O
REMARK SMILES IDX 8 1 7 2 6 3 5 4 4 5 10 6 9 7 11 8 2 10 1 11 3 12
REMARK H PARENT 11 9
REMARK Flexibility Score: inf
ROOT
ATOM      1  C   UNL     1      -0.122  21.242  50.235  1.00  0.00     0.008 C 
ATOM      2  C   UNL     1      -0.256  21.364  48.709  1.00  0.00    -0.012 C 
ATOM      3  C   UNL     1       0.702  20.410  47.964  1.00  0.00     0.004 C 
ATOM      4  C   UNL     1       0.249  18.945  48.036  1.00  0.00     0.011 C 
ATOM      5  C   UNL     1      -1.193  18.783  47.518  1.00  0.00     0.043 C 
ATOM      6  C   UNL     1      -2.168  19.699  48.299  1.00  0.00     0.121 C 
ATOM      7  C   UNL     1      -1.713  21.171  48.236  1.00  0.00     0.035 C 
ENDROOT
BRANCH   6   8
ATOM      8  O   UNL     1      -3.479  19.574  47.804  1.00  0.00    -0.392 OA
ATOM      9  H   UNL     1      -3.602  18.633  47.510  1.00  0.00     0.210 HD
ENDBRANCH   6   8
BRANCH   5  10
ATOM     10  C   UNL     1      -1.628  17.324  47.576  1.00  0.00    -0.075 C 
ATOM     11  C   UNL     1      -1.784  16.622  46.442  1.00  0.00     0.008 C 
ATOM     12  C   UNL     1      -1.896  16.637  48.892  1.00  0.00     0.039 C 
ENDBRANCH   5  10
TORSDOF 2
ENDMDL
