MODEL 1
REMARK VINA RESULT:    -4.503      0.000      0.000
REMARK INTER + INTRA:          -6.197
REMARK INTER:                  -6.082
REMARK INTRA:                  -0.115
REMARK UNBOUND:                -0.115
REMARK SMILES [NH3+]CCCC[C@@H]([NH3+])C(=O)[O-]
REMARK SMILES IDX 4 1 3 2 2 3 1 4 5 8 6 9 7 10 8 14 9 15 10 16
REMARK H PARENT 1 5 1 6 1 7 7 11 7 12 7 13
REMARK Flexibility Score: inf
ROOT
ATOM      1  C   UNL     1       3.139  -6.603   8.270  1.00  0.00     0.012 C 
ENDROOT
BRANCH   1   2
ATOM      2  C   UNL     1       2.527  -5.273   8.737  1.00  0.00     0.061 C 
BRANCH   2   3
ATOM      3  C   UNL     1       2.267  -5.289  10.249  1.00  0.00     0.258 C 
BRANCH   3   4
ATOM      4  N   UNL     1       0.974  -5.900  10.552  1.00  0.00    -0.358 N 
ATOM      5  H   UNL     1       1.030  -6.434  11.450  1.00  0.00     0.344 HD
ATOM      6  H   UNL     1       0.237  -5.161  10.626  1.00  0.00     0.344 HD
ATOM      7  H   UNL     1       0.717  -6.558   9.782  1.00  0.00     0.344 HD
ENDBRANCH   3   4
ENDBRANCH   2   3
ENDBRANCH   1   2
BRANCH   1   8
ATOM      8  C   UNL     1       2.140  -7.481   7.493  1.00  0.00     0.072 C 
BRANCH   8   9
ATOM      9  C   UNL     1       2.739  -8.177   6.247  1.00  0.00     0.227 C 
BRANCH   9  10
ATOM     10  N   UNL     1       4.200  -8.257   6.360  1.00  0.00    -0.350 N 
ATOM     11  H   UNL     1       4.644  -7.575   5.702  1.00  0.00     0.345 HD
ATOM     12  H   UNL     1       4.509  -8.039   7.336  1.00  0.00     0.345 HD
ATOM     13  H   UNL     1       4.526  -9.217   6.103  1.00  0.00     0.345 HD
ENDBRANCH   9  10
BRANCH   9  14
ATOM     14  C   UNL     1       2.160  -9.555   6.056  1.00  0.00     0.099 C 
ATOM     15  O   UNL     1       1.719  -9.912   4.932  1.00  0.00    -0.544 OA
ATOM     16  O   UNL     1       2.121 -10.445   7.123  1.00  0.00    -0.544 OA
ENDBRANCH   9  14
ENDBRANCH   8   9
ENDBRANCH   1   8
TORSDOF 7
ENDMDL
MODEL 2
REMARK VINA RESULT:    -4.490      3.013      5.438
REMARK INTER + INTRA:          -6.179
REMARK INTER:                  -6.087
REMARK INTRA:                  -0.092
REMARK UNBOUND:                -0.115
REMARK SMILES [NH3+]CCCC[C@@H]([NH3+])C(=O)[O-]
REMARK SMILES IDX 4 1 3 2 2 3 1 4 5 8 6 9 7 10 8 14 9 15 10 16
REMARK H PARENT 1 5 1 6 1 7 7 11 7 12 7 13
REMARK Flexibility Score: inf
ROOT
ATOM      1  C   UNL     1       2.672  -8.930   5.290  1.00  0.00     0.012 C 
ENDROOT
BRANCH   1   2
ATOM      2  C   UNL     1       1.718  -9.852   4.517  1.00  0.00     0.061 C 
BRANCH   2   3
ATOM      3  C   UNL     1       2.497 -10.795   3.590  1.00  0.00     0.258 C 
BRANCH   3   4
ATOM      4  N   UNL     1       1.588 -11.556   2.734  1.00  0.00    -0.358 N 
ATOM      5  H   UNL     1       0.971 -10.904   2.197  1.00  0.00     0.344 HD
ATOM      6  H   UNL     1       2.135 -12.152   2.070  1.00  0.00     0.344 HD
ATOM      7  H   UNL     1       0.992 -12.174   3.330  1.00  0.00     0.344 HD
ENDBRANCH   3   4
ENDBRANCH   2   3
ENDBRANCH   1   2
BRANCH   1   8
ATOM      8  C   UNL     1       2.161  -8.591   6.704  1.00  0.00     0.072 C 
BRANCH   8   9
ATOM      9  C   UNL     1       3.170  -7.805   7.575  1.00  0.00     0.227 C 
BRANCH   9  10
ATOM     10  N   UNL     1       4.367  -7.472   6.794  1.00  0.00    -0.350 N 
ATOM     11  H   UNL     1       5.170  -7.287   7.438  1.00  0.00     0.345 HD
ATOM     12  H   UNL     1       4.621  -8.257   6.150  1.00  0.00     0.345 HD
ATOM     13  H   UNL     1       4.196  -6.607   6.231  1.00  0.00     0.345 HD
ENDBRANCH   9  10
BRANCH   9  14
ATOM     14  C   UNL     1       2.552  -6.551   8.134  1.00  0.00     0.099 C 
ATOM     15  O   UNL     1       3.051  -5.988   9.145  1.00  0.00    -0.544 OA
ATOM     16  O   UNL     1       1.431  -5.999   7.526  1.00  0.00    -0.544 OA
ENDBRANCH   9  14
ENDBRANCH   8   9
ENDBRANCH   1   8
TORSDOF 7
ENDMDL
MODEL 3
REMARK VINA RESULT:    -4.455      2.111      2.515
REMARK INTER + INTRA:          -6.132
REMARK INTER:                  -6.024
REMARK INTRA:                  -0.108
REMARK UNBOUND:                -0.115
REMARK SMILES [NH3+]CCCC[C@@H]([NH3+])C(=O)[O-]
REMARK SMILES IDX 4 1 3 2 2 3 1 4 5 8 6 9 7 10 8 14 9 15 10 16
REMARK H PARENT 1 5 1 6 1 7 7 11 7 12 7 13
REMARK Flexibility Score: inf
ROOT
ATOM      1  C   UNL     1       1.931  -5.632   9.825  1.00  0.00     0.012 C 
ENDROOT
BRANCH   1   2
ATOM      2  C   UNL     1       2.306  -4.176  10.136  1.00  0.00     0.061 C 
BRANCH   2   3
ATOM      3  C   UNL     1       2.400  -3.345   8.849  1.00  0.00     0.258 C 
BRANCH   3   4
ATOM      4  N   UNL     1       2.388  -1.914   9.147  1.00  0.00    -0.358 N 
ATOM      5  H   UNL     1       2.865  -1.734  10.060  1.00  0.00     0.344 HD
ATOM      6  H   UNL     1       2.871  -1.385   8.385  1.00  0.00     0.344 HD
ATOM      7  H   UNL     1       1.397  -1.586   9.211  1.00  0.00     0.344 HD
ENDBRANCH   3   4
ENDBRANCH   2   3
ENDBRANCH   1   2
BRANCH   1   8
ATOM      8  C   UNL     1       1.989  -5.957   8.320  1.00  0.00     0.072 C 
BRANCH   8   9
ATOM      9  C   UNL     1       3.258  -6.727   7.882  1.00  0.00     0.227 C 
BRANCH   9  10
ATOM     10  N   UNL     1       4.078  -7.066   9.051  1.00  0.00    -0.350 N 
ATOM     11  H   UNL     1       4.062  -8.100   9.206  1.00  0.00     0.345 HD
ATOM     12  H   UNL     1       5.068  -6.757   8.912  1.00  0.00     0.345 HD
ATOM     13  H   UNL     1       3.690  -6.603   9.905  1.00  0.00     0.345 HD
ENDBRANCH   9  10
BRANCH   9  14
ATOM     14  C   UNL     1       2.905  -7.976   7.118  1.00  0.00     0.099 C 
ATOM     15  O   UNL     1       2.254  -7.906   6.043  1.00  0.00    -0.544 OA
ATOM     16  O   UNL     1       3.310  -9.218   7.594  1.00  0.00    -0.544 OA
ENDBRANCH   9  14
ENDBRANCH   8   9
ENDBRANCH   1   8
TORSDOF 7
ENDMDL
MODEL 4
REMARK VINA RESULT:    -4.423      3.079      3.722
REMARK INTER + INTRA:          -6.089
REMARK INTER:                  -5.948
REMARK INTRA:                  -0.141
REMARK UNBOUND:                -0.115
REMARK SMILES [NH3+]CCCC[C@@H]([NH3+])C(=O)[O-]
REMARK SMILES IDX 4 1 3 2 2 3 1 4 5 8 6 9 7 10 8 14 9 15 10 16
REMARK H PARENT 1 5 1 6 1 7 7 11 7 12 7 13
REMARK Flexibility Score: inf
ROOT
ATOM      1  C   UNL     1       2.494  -4.010  10.380  1.00  0.00     0.012 C 
ENDROOT
BRANCH   1   2
ATOM      2  C   UNL     1       2.326  -3.155   9.115  1.00  0.00     0.061 C 
BRANCH   2   3
ATOM      3  C   UNL     1       2.015  -1.696   9.475  1.00  0.00     0.258 C 
BRANCH   3   4
ATOM      4  N   UNL     1       2.752  -0.775   8.611  1.00  0.00    -0.358 N 
ATOM      5  H   UNL     1       3.383  -1.311   7.971  1.00  0.00     0.344 HD
ATOM      6  H   UNL     1       2.085  -0.198   8.048  1.00  0.00     0.344 HD
ATOM      7  H   UNL     1       3.332  -0.139   9.204  1.00  0.00     0.344 HD
ENDBRANCH   3   4
ENDBRANCH   2   3
ENDBRANCH   1   2
BRANCH   1   8
ATOM      8  C   UNL     1       2.399  -5.522  10.097  1.00  0.00     0.072 C 
BRANCH   8   9
ATOM      9  C   UNL     1       2.985  -5.953   8.732  1.00  0.00     0.227 C 
BRANCH   9  10
ATOM     10  N   UNL     1       4.052  -6.943   8.924  1.00  0.00    -0.350 N 
ATOM     11  H   UNL     1       4.188  -7.123   9.946  1.00  0.00     0.345 HD
ATOM     12  H   UNL     1       3.811  -7.844   8.449  1.00  0.00     0.345 HD
ATOM     13  H   UNL     1       4.951  -6.579   8.535  1.00  0.00     0.345 HD
ENDBRANCH   9  10
BRANCH   9  14
ATOM     14  C   UNL     1       1.918  -6.513   7.828  1.00  0.00     0.099 C 
ATOM     15  O   UNL     1       2.203  -7.388   6.968  1.00  0.00    -0.544 OA
ATOM     16  O   UNL     1       0.605  -6.072   7.949  1.00  0.00    -0.544 OA
ENDBRANCH   9  14
ENDBRANCH   8   9
ENDBRANCH   1   8
TORSDOF 7
ENDMDL
MODEL 5
REMARK VINA RESULT:    -4.345      4.540      6.203
REMARK INTER + INTRA:          -5.983
REMARK INTER:                  -5.890
REMARK INTRA:                  -0.093
REMARK UNBOUND:                -0.115
REMARK SMILES [NH3+]CCCC[C@@H]([NH3+])C(=O)[O-]
REMARK SMILES IDX 4 1 3 2 2 3 1 4 5 8 6 9 7 10 8 14 9 15 10 16
REMARK H PARENT 1 5 1 6 1 7 7 11 7 12 7 13
REMARK Flexibility Score: inf
ROOT
ATOM      1  C   UNL     1       2.486  -5.781   9.566  1.00  0.00     0.012 C 
ENDROOT
BRANCH   1   2
ATOM      2  C   UNL     1       3.553  -6.636   8.867  1.00  0.00     0.061 C 
BRANCH   2   3
ATOM      3  C   UNL     1       3.002  -7.253   7.574  1.00  0.00     0.258 C 
BRANCH   3   4
ATOM      4  N   UNL     1       4.072  -7.863   6.787  1.00  0.00    -0.358 N 
ATOM      5  H   UNL     1       4.570  -8.585   7.356  1.00  0.00     0.344 HD
ATOM      6  H   UNL     1       3.677  -8.303   5.924  1.00  0.00     0.344 HD
ATOM      7  H   UNL     1       4.755  -7.123   6.506  1.00  0.00     0.344 HD
ENDBRANCH   3   4
ENDBRANCH   2   3
ENDBRANCH   1   2
BRANCH   1   8
ATOM      8  C   UNL     1       2.260  -4.423   8.875  1.00  0.00     0.072 C 
BRANCH   8   9
ATOM      9  C   UNL     1       2.065  -3.236   9.849  1.00  0.00     0.227 C 
BRANCH   9  10
ATOM     10  N   UNL     1       3.009  -3.334  10.968  1.00  0.00    -0.350 N 
ATOM     11  H   UNL     1       2.631  -3.986  11.694  1.00  0.00     0.345 HD
ATOM     12  H   UNL     1       3.937  -3.690  10.640  1.00  0.00     0.345 HD
ATOM     13  H   UNL     1       3.137  -2.395  11.409  1.00  0.00     0.345 HD
ENDBRANCH   9  10
BRANCH   9  14
ATOM     14  C   UNL     1       2.232  -1.915   9.145  1.00  0.00     0.099 C 
ATOM     15  O   UNL     1       2.505  -1.875   7.916  1.00  0.00    -0.544 OA
ATOM     16  O   UNL     1       2.074  -0.728   9.850  1.00  0.00    -0.544 OA
ENDBRANCH   9  14
ENDBRANCH   8   9
ENDBRANCH   1   8
TORSDOF 7
ENDMDL
MODEL 6
REMARK VINA RESULT:    -4.290      3.487      4.744
REMARK INTER + INTRA:          -5.909
REMARK INTER:                  -5.755
REMARK INTRA:                  -0.154
REMARK UNBOUND:                -0.115
REMARK SMILES [NH3+]CCCC[C@@H]([NH3+])C(=O)[O-]
REMARK SMILES IDX 4 1 3 2 2 3 1 4 5 8 6 9 7 10 8 14 9 15 10 16
REMARK H PARENT 1 5 1 6 1 7 7 11 7 12 7 13
REMARK Flexibility Score: inf
ROOT
ATOM      1  C   UNL     1       1.790  -3.077   9.750  1.00  0.00     0.012 C 
ENDROOT
BRANCH   1   2
ATOM      2  C   UNL     1       2.473  -2.223   8.671  1.00  0.00     0.061 C 
BRANCH   2   3
ATOM      3  C   UNL     1       2.203  -0.730   8.901  1.00  0.00     0.258 C 
BRANCH   3   4
ATOM      4  N   UNL     1       1.680  -0.100   7.690  1.00  0.00    -0.358 N 
ATOM      5  H   UNL     1       0.662   0.109   7.805  1.00  0.00     0.344 HD
ATOM      6  H   UNL     1       2.203   0.784   7.491  1.00  0.00     0.344 HD
ATOM      7  H   UNL     1       1.802  -0.754   6.883  1.00  0.00     0.344 HD
ENDBRANCH   3   4
ENDBRANCH   2   3
ENDBRANCH   1   2
BRANCH   1   8
ATOM      8  C   UNL     1       2.670  -4.248  10.231  1.00  0.00     0.072 C 
BRANCH   8   9
ATOM      9  C   UNL     1       2.107  -5.648   9.893  1.00  0.00     0.227 C 
BRANCH   9  10
ATOM     10  N   UNL     1       0.701  -5.747  10.303  1.00  0.00    -0.350 N 
ATOM     11  H   UNL     1       0.542  -6.650  10.806  1.00  0.00     0.345 HD
ATOM     12  H   UNL     1       0.443  -4.954  10.935  1.00  0.00     0.345 HD
ATOM     13  H   UNL     1       0.082  -5.730   9.460  1.00  0.00     0.345 HD
ENDBRANCH   9  10
BRANCH   9  14
ATOM     14  C   UNL     1       2.239  -5.952   8.423  1.00  0.00     0.099 C 
ATOM     15  O   UNL     1       1.253  -5.819   7.652  1.00  0.00    -0.544 OA
ATOM     16  O   UNL     1       3.460  -6.371   7.908  1.00  0.00    -0.544 OA
ENDBRANCH   9  14
ENDBRANCH   8   9
ENDBRANCH   1   8
TORSDOF 7
ENDMDL
MODEL 7
REMARK VINA RESULT:    -4.277      3.551      5.356
REMARK INTER + INTRA:          -5.892
REMARK INTER:                  -5.784
REMARK INTRA:                  -0.108
REMARK UNBOUND:                -0.115
REMARK SMILES [NH3+]CCCC[C@@H]([NH3+])C(=O)[O-]
REMARK SMILES IDX 4 1 3 2 2 3 1 4 5 8 6 9 7 10 8 14 9 15 10 16
REMARK H PARENT 1 5 1 6 1 7 7 11 7 12 7 13
REMARK Flexibility Score: inf
ROOT
ATOM      1  C   UNL     1       3.488  -7.079   7.500  1.00  0.00     0.012 C 
ENDROOT
BRANCH   1   2
ATOM      2  C   UNL     1       2.427  -8.092   7.044  1.00  0.00     0.061 C 
BRANCH   2   3
ATOM      3  C   UNL     1       2.773  -8.667   5.664  1.00  0.00     0.258 C 
BRANCH   3   4
ATOM      4  N   UNL     1       1.855  -9.745   5.300  1.00  0.00    -0.358 N 
ATOM      5  H   UNL     1       1.011  -9.352   4.822  1.00  0.00     0.344 HD
ATOM      6  H   UNL     1       2.334 -10.427   4.668  1.00  0.00     0.344 HD
ATOM      7  H   UNL     1       1.551 -10.244   6.167  1.00  0.00     0.344 HD
ENDBRANCH   3   4
ENDBRANCH   2   3
ENDBRANCH   1   2
BRANCH   1   8
ATOM      8  C   UNL     1       3.162  -6.446   8.867  1.00  0.00     0.072 C 
BRANCH   8   9
ATOM      9  C   UNL     1       1.923  -5.519   8.860  1.00  0.00     0.227 C 
BRANCH   9  10
ATOM     10  N   UNL     1       0.897  -6.033   9.775  1.00  0.00    -0.350 N 
ATOM     11  H   UNL     1       0.198  -5.282   9.981  1.00  0.00     0.345 HD
ATOM     12  H   UNL     1       0.402  -6.853   9.355  1.00  0.00     0.345 HD
ATOM     13  H   UNL     1       1.338  -6.323  10.678  1.00  0.00     0.345 HD
ENDBRANCH   9  10
BRANCH   9  14
ATOM     14  C   UNL     1       2.292  -4.108   9.237  1.00  0.00     0.099 C 
ATOM     15  O   UNL     1       2.338  -3.204   8.362  1.00  0.00    -0.544 OA
ATOM     16  O   UNL     1       2.572  -3.794  10.562  1.00  0.00    -0.544 OA
ENDBRANCH   9  14
ENDBRANCH   8   9
ENDBRANCH   1   8
TORSDOF 7
ENDMDL
MODEL 8
REMARK VINA RESULT:    -4.215     10.847     12.439
REMARK INTER + INTRA:          -5.809
REMARK INTER:                  -5.370
REMARK INTRA:                  -0.439
REMARK UNBOUND:                -0.115
REMARK SMILES [NH3+]CCCC[C@@H]([NH3+])C(=O)[O-]
REMARK SMILES IDX 4 1 3 2 2 3 1 4 5 8 6 9 7 10 8 14 9 15 10 16
REMARK H PARENT 1 5 1 6 1 7 7 11 7 12 7 13
REMARK Flexibility Score: inf
ROOT
ATOM      1  C   UNL     1      -0.528   3.467  10.080  1.00  0.00     0.012 C 
ENDROOT
BRANCH   1   2
ATOM      2  C   UNL     1      -0.055   2.081  10.546  1.00  0.00     0.061 C 
BRANCH   2   3
ATOM      3  C   UNL     1      -0.238   1.037   9.436  1.00  0.00     0.258 C 
BRANCH   3   4
ATOM      4  N   UNL     1       0.709   1.262   8.344  1.00  0.00    -0.358 N 
ATOM      5  H   UNL     1       1.396   2.004   8.613  1.00  0.00     0.344 HD
ATOM      6  H   UNL     1       1.215   0.375   8.120  1.00  0.00     0.344 HD
ATOM      7  H   UNL     1       0.185   1.577   7.496  1.00  0.00     0.344 HD
ENDBRANCH   3   4
ENDBRANCH   2   3
ENDBRANCH   1   2
BRANCH   1   8
ATOM      8  C   UNL     1       0.401   4.604  10.546  1.00  0.00     0.072 C 
BRANCH   8   9
ATOM      9  C   UNL     1       1.271   5.216   9.423  1.00  0.00     0.227 C 
BRANCH   9  10
ATOM     10  N   UNL     1       1.342   6.675   9.570  1.00  0.00    -0.350 N 
ATOM     11  H   UNL     1       1.829   7.091   8.742  1.00  0.00     0.345 HD
ATOM     12  H   UNL     1       0.383   7.087   9.643  1.00  0.00     0.345 HD
ATOM     13  H   UNL     1       1.889   6.921  10.427  1.00  0.00     0.345 HD
ENDBRANCH   9  10
BRANCH   9  14
ATOM     14  C   UNL     1       2.659   4.629   9.422  1.00  0.00     0.099 C 
ATOM     15  O   UNL     1       2.848   3.435   9.067  1.00  0.00    -0.544 OA
ATOM     16  O   UNL     1       3.743   5.410   9.803  1.00  0.00    -0.544 OA
ENDBRANCH   9  14
ENDBRANCH   8   9
ENDBRANCH   1   8
TORSDOF 7
ENDMDL
MODEL 9
REMARK VINA RESULT:    -4.101      1.088      1.406
REMARK INTER + INTRA:          -5.654
REMARK INTER:                  -5.567
REMARK INTRA:                  -0.087
REMARK UNBOUND:                -0.115
REMARK SMILES [NH3+]CCCC[C@@H]([NH3+])C(=O)[O-]
REMARK SMILES IDX 4 1 3 2 2 3 1 4 5 8 6 9 7 10 8 14 9 15 10 16
REMARK H PARENT 1 5 1 6 1 7 7 11 7 12 7 13
REMARK Flexibility Score: inf
ROOT
ATOM      1  C   UNL     1       2.177  -7.484   7.407  1.00  0.00     0.012 C 
ENDROOT
BRANCH   1   2
ATOM      2  C   UNL     1       3.009  -6.528   8.275  1.00  0.00     0.061 C 
BRANCH   2   3
ATOM      3  C   UNL     1       2.119  -5.451   8.913  1.00  0.00     0.258 C 
BRANCH   3   4
ATOM      4  N   UNL     1       1.053  -6.057   9.708  1.00  0.00    -0.358 N 
ATOM      5  H   UNL     1       1.460  -6.707  10.420  1.00  0.00     0.344 HD
ATOM      6  H   UNL     1       0.496  -5.312  10.188  1.00  0.00     0.344 HD
ATOM      7  H   UNL     1       0.420  -6.599   9.077  1.00  0.00     0.344 HD
ENDBRANCH   3   4
ENDBRANCH   2   3
ENDBRANCH   1   2
BRANCH   1   8
ATOM      8  C   UNL     1       3.040  -8.530   6.676  1.00  0.00     0.072 C 
BRANCH   8   9
ATOM      9  C   UNL     1       2.528  -8.904   5.264  1.00  0.00     0.227 C 
BRANCH   9  10
ATOM     10  N   UNL     1       3.651  -9.007   4.325  1.00  0.00    -0.350 N 
ATOM     11  H   UNL     1       3.330  -9.462   3.439  1.00  0.00     0.345 HD
ATOM     12  H   UNL     1       4.036  -8.060   4.102  1.00  0.00     0.345 HD
ATOM     13  H   UNL     1       4.408  -9.598   4.739  1.00  0.00     0.345 HD
ENDBRANCH   9  10
BRANCH   9  14
ATOM     14  C   UNL     1       1.752 -10.195   5.286  1.00  0.00     0.099 C 
ATOM     15  O   UNL     1       1.474 -10.792   4.212  1.00  0.00    -0.544 OA
ATOM     16  O   UNL     1       1.348 -10.742   6.498  1.00  0.00    -0.544 OA
ENDBRANCH   9  14
ENDBRANCH   8   9
ENDBRANCH   1   8
TORSDOF 7
ENDMDL
