MODEL 1
REMARK VINA RESULT:     5.840      0.000      0.000
REMARK INTER + INTRA:           7.973
REMARK INTER:                   7.205
REMARK INTRA:                   0.767
REMARK UNBOUND:                 0.767
REMARK SMILES CC1=CC=CC(C)(C)CC1=O
REMARK SMILES IDX 1 1 2 2 3 3 10 4 11 5 9 6 4 8 5 9 6 10 7 11 8 12
REMARK H PARENT
REMARK Flexibility Score: 80.00
ROOT
ATOM      1  C   UNL     1     -26.141  35.598  -9.338  1.00  0.00     0.048 C 
ATOM      2  C   UNL     1     -26.603  35.248 -10.734  1.00  0.00    -0.008 C 
ATOM      3  C   UNL     1     -25.738  34.586 -11.531  1.00  0.00     0.007 C 
ENDROOT
BRANCH   2   4
ATOM      4  C   UNL     1     -28.001  35.597 -11.090  1.00  0.00     0.159 C 
ATOM      5  O   UNL     1     -28.782  35.986 -10.178  1.00  0.00    -0.295 OA
BRANCH   4   6
ATOM      6  C   UNL     1     -28.541  35.525 -12.484  1.00  0.00     0.091 CG0
ATOM      7  G   UNL     1     -28.439  34.114 -13.105  1.00  0.00     0.000 G0
ENDBRANCH   4   6
ENDBRANCH   2   4
BRANCH   3   8
ATOM      8  C   UNL     1     -25.910  34.093 -12.918  1.00  0.00    -0.003 C 
ATOM      9  C   UNL     1     -27.040  33.873 -13.602  1.00  0.00    -0.020 C 
BRANCH   9  10
ATOM     10  C   UNL     1     -28.448  34.114 -13.110  1.00  0.00    -0.010 CG0
ATOM     11  C   UNL     1     -29.403  34.054 -14.324  1.00  0.00     0.016 C 
ATOM     12  C   UNL     1     -28.861  32.995 -12.125  1.00  0.00     0.016 C 
ATOM     13  G   UNL     1     -28.549  35.524 -12.487  1.00  0.00     0.000 G0
ENDBRANCH   9  10
ENDBRANCH   3   8
TORSDOF 0
ENDMDL
MODEL 2
REMARK VINA RESULT:     6.268      2.087      4.342
REMARK INTER + INTRA:           8.501
REMARK INTER:                   7.736
REMARK INTRA:                   0.765
REMARK UNBOUND:                 0.767
REMARK SMILES CC1=CC=CC(C)(C)CC1=O
REMARK SMILES IDX 1 1 2 2 3 3 10 4 11 5 9 6 4 8 5 9 6 10 7 11 8 12
REMARK H PARENT
REMARK Flexibility Score: 80.00
ROOT
ATOM      1  C   UNL     1     -28.877  34.145 -12.854  1.00  0.00     0.048 C 
ATOM      2  C   UNL     1     -28.123  34.922 -11.799  1.00  0.00    -0.008 C 
ATOM      3  C   UNL     1     -28.803  35.863 -11.111  1.00  0.00     0.007 C 
ENDROOT
BRANCH   2   4
ATOM      4  C   UNL     1     -26.711  34.535 -11.554  1.00  0.00     0.159 C 
ATOM      5  O   UNL     1     -26.264  33.490 -12.102  1.00  0.00    -0.295 OA
BRANCH   4   6
ATOM      6  C   UNL     1     -25.774  35.327 -10.696  1.00  0.00     0.091 CG0
ATOM      7  G   UNL     1     -26.287  35.521  -9.252  1.00  0.00     0.000 G0
ENDBRANCH   4   6
ENDBRANCH   2   4
BRANCH   3   8
ATOM      8  C   UNL     1     -28.351  36.754 -10.017  1.00  0.00    -0.003 C 
ATOM      9  C   UNL     1     -27.293  36.625  -9.206  1.00  0.00    -0.020 C 
BRANCH   9  10
ATOM     10  C   UNL     1     -26.267  35.517  -9.239  1.00  0.00    -0.010 CG0
ATOM     11  C   UNL     1     -25.063  35.946  -8.369  1.00  0.00     0.016 C 
ATOM     12  C   UNL     1     -26.862  34.229  -8.626  1.00  0.00     0.016 C 
ATOM     13  G   UNL     1     -25.767  35.314 -10.686  1.00  0.00     0.000 G0
ENDBRANCH   9  10
ENDBRANCH   3   8
TORSDOF 0
ENDMDL
MODEL 3
REMARK VINA RESULT:     6.759      1.369      3.467
REMARK INTER + INTRA:           9.107
REMARK INTER:                   8.351
REMARK INTRA:                   0.756
REMARK UNBOUND:                 0.767
REMARK SMILES CC1=CC=CC(C)(C)CC1=O
REMARK SMILES IDX 1 1 2 2 3 3 10 4 11 5 9 6 4 8 5 9 6 10 7 11 8 12
REMARK H PARENT
REMARK Flexibility Score: 80.00
ROOT
ATOM      1  C   UNL     1     -29.210  33.724 -14.501  1.00  0.00     0.048 C 
ATOM      2  C   UNL     1     -28.235  33.995 -13.379  1.00  0.00    -0.008 C 
ATOM      3  C   UNL     1     -26.938  34.176 -13.708  1.00  0.00     0.007 C 
ENDROOT
BRANCH   2   4
ATOM      4  C   UNL     1     -28.795  34.116 -12.010  1.00  0.00     0.159 C 
ATOM      5  O   UNL     1     -30.047  34.195 -11.871  1.00  0.00    -0.295 OA
BRANCH   4   6
ATOM      6  C   UNL     1     -27.955  34.136 -10.771  1.00  0.00     0.091 CG0
ATOM      7  G   UNL     1     -26.930  35.293 -10.749  1.00  0.00     0.000 G0
ENDBRANCH   4   6
ENDBRANCH   2   4
BRANCH   3   8
ATOM      8  C   UNL     1     -25.771  34.479 -12.846  1.00  0.00    -0.003 C 
ATOM      9  C   UNL     1     -25.747  34.956 -11.594  1.00  0.00    -0.020 C 
BRANCH   9  10
ATOM     10  C   UNL     1     -26.946  35.281 -10.735  1.00  0.00    -0.010 CG0
ATOM     11  C   UNL     1     -26.466  35.440  -9.274  1.00  0.00     0.016 C 
ATOM     12  C   UNL     1     -27.566  36.625 -11.181  1.00  0.00     0.016 C 
ATOM     13  G   UNL     1     -27.955  34.112 -10.785  1.00  0.00     0.000 G0
ENDBRANCH   9  10
ENDBRANCH   3   8
TORSDOF 0
ENDMDL
MODEL 4
REMARK VINA RESULT:     7.035      1.412      3.417
REMARK INTER + INTRA:           9.448
REMARK INTER:                   8.419
REMARK INTRA:                   1.029
REMARK UNBOUND:                 0.767
REMARK SMILES CC1=CC=CC(C)(C)CC1=O
REMARK SMILES IDX 1 1 2 2 3 3 10 4 11 5 9 6 4 8 5 9 6 10 7 11 8 12
REMARK H PARENT
REMARK Flexibility Score: 80.00
ROOT
ATOM      1  C   UNL     1     -29.256  33.766 -13.410  1.00  0.00     0.048 C 
ATOM      2  C   UNL     1     -28.161  34.322 -12.531  1.00  0.00    -0.008 C 
ATOM      3  C   UNL     1     -26.886  34.007 -12.846  1.00  0.00     0.007 C 
ENDROOT
BRANCH   2   4
ATOM      4  C   UNL     1     -28.571  35.234 -11.434  1.00  0.00     0.159 C 
ATOM      5  O   UNL     1     -29.785  35.265 -11.092  1.00  0.00    -0.295 OA
BRANCH   4   6
ATOM      6  C   UNL     1     -27.616  36.118 -10.693  1.00  0.00     0.091 CG0
ATOM      7  G   UNL     1     -26.493  35.335  -9.977  1.00  0.00     0.000 G0
ENDBRANCH   4   6
ENDBRANCH   2   4
BRANCH   3   8
ATOM      8  C   UNL     1     -25.617  34.417 -12.199  1.00  0.00    -0.003 C 
ATOM      9  C   UNL     1     -25.426  34.994 -11.006  1.00  0.00    -0.020 C 
BRANCH   9  10
ATOM     10  C   UNL     1     -26.494  35.347  -9.998  1.00  0.00    -0.010 CG0
ATOM     11  C   UNL     1     -27.075  34.034  -9.428  1.00  0.00     0.016 C 
ATOM     12  C   UNL     1     -25.873  36.142  -8.827  1.00  0.00     0.016 C 
ATOM     13  G   UNL     1     -27.637  36.115 -10.699  1.00  0.00     0.000 G0
ENDBRANCH   9  10
ENDBRANCH   3   8
TORSDOF 0
ENDMDL
MODEL 5
REMARK VINA RESULT:     7.322      1.986      3.596
REMARK INTER + INTRA:           9.801
REMARK INTER:                   9.018
REMARK INTRA:                   0.783
REMARK UNBOUND:                 0.767
REMARK SMILES CC1=CC=CC(C)(C)CC1=O
REMARK SMILES IDX 1 1 2 2 3 3 10 4 11 5 9 6 4 8 5 9 6 10 7 11 8 12
REMARK H PARENT
REMARK Flexibility Score: 80.00
ROOT
ATOM      1  C   UNL     1     -25.706  33.095 -14.143  1.00  0.00     0.048 C 
ATOM      2  C   UNL     1     -26.536  33.977 -13.239  1.00  0.00    -0.008 C 
ATOM      3  C   UNL     1     -27.849  33.686 -13.116  1.00  0.00     0.007 C 
ENDROOT
BRANCH   2   4
ATOM      4  C   UNL     1     -25.824  35.048 -12.500  1.00  0.00     0.159 C 
ATOM      5  O   UNL     1     -24.562  35.050 -12.498  1.00  0.00    -0.295 OA
BRANCH   4   6
ATOM      6  C   UNL     1     -26.522  36.147 -11.759  1.00  0.00     0.091 CG0
ATOM      7  G   UNL     1     -27.454  35.630 -10.641  1.00  0.00     0.000 G0
ENDBRANCH   4   6
ENDBRANCH   2   4
BRANCH   3   8
ATOM      8  C   UNL     1     -28.895  34.342 -12.297  1.00  0.00    -0.003 C 
ATOM      9  C   UNL     1     -28.756  35.160 -11.246  1.00  0.00    -0.020 C 
BRANCH   9  10
ATOM     10  C   UNL     1     -27.454  35.641 -10.650  1.00  0.00    -0.010 CG0
ATOM     11  C   UNL     1     -27.765  36.811  -9.689  1.00  0.00     0.016 C 
ATOM     12  C   UNL     1     -26.801  34.508  -9.825  1.00  0.00     0.016 C 
ATOM     13  G   UNL     1     -26.532  36.170 -11.771  1.00  0.00     0.000 G0
ENDBRANCH   9  10
ENDBRANCH   3   8
TORSDOF 0
ENDMDL
MODEL 6
REMARK VINA RESULT:     8.185      1.735      2.882
REMARK INTER + INTRA:          10.866
REMARK INTER:                  10.111
REMARK INTRA:                   0.755
REMARK UNBOUND:                 0.767
REMARK SMILES CC1=CC=CC(C)(C)CC1=O
REMARK SMILES IDX 1 1 2 2 3 3 10 4 11 5 9 6 4 8 5 9 6 10 7 11 8 12
REMARK H PARENT
REMARK Flexibility Score: 80.00
ROOT
ATOM      1  C   UNL     1     -27.864  36.691  -9.172  1.00  0.00     0.048 C 
ATOM      2  C   UNL     1     -27.612  35.714 -10.297  1.00  0.00    -0.008 C 
ATOM      3  C   UNL     1     -28.597  35.537 -11.204  1.00  0.00     0.007 C 
ENDROOT
BRANCH   2   4
ATOM      4  C   UNL     1     -26.271  35.082 -10.356  1.00  0.00     0.159 C 
ATOM      5  O   UNL     1     -25.366  35.502  -9.582  1.00  0.00    -0.295 OA
BRANCH   4   6
ATOM      6  C   UNL     1     -25.928  33.955 -11.280  1.00  0.00     0.091 CG0
ATOM      7  G   UNL     1     -26.160  34.296 -12.769  1.00  0.00     0.000 G0
ENDBRANCH   4   6
ENDBRANCH   2   4
BRANCH   3   8
ATOM      8  C   UNL     1     -28.634  34.681 -12.412  1.00  0.00    -0.003 C 
ATOM      9  C   UNL     1     -27.617  34.147 -13.101  1.00  0.00    -0.020 C 
BRANCH   9  10
ATOM     10  C   UNL     1     -26.148  34.278 -12.777  1.00  0.00    -0.010 CG0
ATOM     11  C   UNL     1     -25.372  33.234 -13.612  1.00  0.00     0.016 C 
ATOM     12  C   UNL     1     -25.641  35.682 -13.180  1.00  0.00     0.016 C 
ATOM     13  G   UNL     1     -25.915  33.967 -11.281  1.00  0.00     0.000 G0
ENDBRANCH   9  10
ENDBRANCH   3   8
TORSDOF 0
ENDMDL
MODEL 7
REMARK VINA RESULT:     8.271      1.981      3.175
REMARK INTER + INTRA:          10.973
REMARK INTER:                   9.958
REMARK INTRA:                   1.015
REMARK UNBOUND:                 0.767
REMARK SMILES CC1=CC=CC(C)(C)CC1=O
REMARK SMILES IDX 1 1 2 2 3 3 10 4 11 5 9 6 4 8 5 9 6 10 7 11 8 12
REMARK H PARENT
REMARK Flexibility Score: 80.00
ROOT
ATOM      1  C   UNL     1     -26.507  35.884  -7.102  1.00  0.00     0.048 C 
ATOM      2  C   UNL     1     -26.714  35.888  -8.599  1.00  0.00    -0.008 C 
ATOM      3  C   UNL     1     -27.610  36.763  -9.104  1.00  0.00     0.007 C 
ENDROOT
BRANCH   2   4
ATOM      4  C   UNL     1     -25.858  34.980  -9.402  1.00  0.00     0.159 C 
ATOM      5  O   UNL     1     -25.202  34.080  -8.808  1.00  0.00    -0.295 OA
BRANCH   4   6
ATOM      6  C   UNL     1     -25.737  35.060 -10.892  1.00  0.00     0.091 CG0
ATOM      7  G   UNL     1     -27.091  34.907 -11.622  1.00  0.00     0.000 G0
ENDBRANCH   4   6
ENDBRANCH   2   4
BRANCH   3   8
ATOM      8  C   UNL     1     -28.004  37.015 -10.510  1.00  0.00    -0.003 C 
ATOM      9  C   UNL     1     -27.777  36.268 -11.598  1.00  0.00    -0.020 C 
BRANCH   9  10
ATOM     10  C   UNL     1     -27.066  34.936 -11.639  1.00  0.00    -0.010 CG0
ATOM     11  C   UNL     1     -27.954  33.891 -10.924  1.00  0.00     0.016 C 
ATOM     12  C   UNL     1     -26.883  34.480 -13.105  1.00  0.00     0.016 C 
ATOM     13  G   UNL     1     -25.728  35.035 -10.873  1.00  0.00     0.000 G0
ENDBRANCH   9  10
ENDBRANCH   3   8
TORSDOF 0
ENDMDL
MODEL 8
REMARK VINA RESULT:     8.707     14.579     15.858
REMARK INTER + INTRA:          11.511
REMARK INTER:                  10.499
REMARK INTRA:                   1.011
REMARK UNBOUND:                 0.767
REMARK SMILES CC1=CC=CC(C)(C)CC1=O
REMARK SMILES IDX 1 1 2 2 3 3 10 4 11 5 9 6 4 8 5 9 6 10 7 11 8 12
REMARK H PARENT
REMARK Flexibility Score: 80.00
ROOT
ATOM      1  C   UNL     1     -14.238  26.667 -13.205  1.00  0.00     0.048 C 
ATOM      2  C   UNL     1     -14.009  28.115 -13.571  1.00  0.00    -0.008 C 
ATOM      3  C   UNL     1     -14.939  28.720 -14.341  1.00  0.00     0.007 C 
ENDROOT
BRANCH   2   4
ATOM      4  C   UNL     1     -12.815  28.779 -12.991  1.00  0.00     0.159 C 
ATOM      5  O   UNL     1     -11.900  28.061 -12.500  1.00  0.00    -0.295 OA
BRANCH   4   6
ATOM      6  C   UNL     1     -12.624  30.264 -12.967  1.00  0.00     0.091 CG0
ATOM      7  G   UNL     1     -12.612  30.898 -14.376  1.00  0.00     0.000 G0
ENDBRANCH   4   6
ENDBRANCH   2   4
BRANCH   3   8
ATOM      8  C   UNL     1     -15.004  30.116 -14.834  1.00  0.00    -0.003 C 
ATOM      9  C   UNL     1     -14.048  31.054 -14.842  1.00  0.00    -0.020 C 
BRANCH   9  10
ATOM     10  C   UNL     1     -12.627  30.891 -14.357  1.00  0.00    -0.010 CG0
ATOM     11  C   UNL     1     -11.886  29.951 -15.336  1.00  0.00     0.016 C 
ATOM     12  C   UNL     1     -11.904  32.257 -14.371  1.00  0.00     0.016 C 
ATOM     13  G   UNL     1     -12.625  30.229 -12.961  1.00  0.00     0.000 G0
ENDBRANCH   9  10
ENDBRANCH   3   8
TORSDOF 0
ENDMDL
