MODEL 1
REMARK VINA RESULT:    -2.349      0.000      0.000
REMARK INTER + INTRA:          -2.555
REMARK INTER:                  -2.555
REMARK INTRA:                   0.000
REMARK UNBOUND:                 0.000
REMARK SMILES [NH3+]CC(=O)[O-]
REMARK SMILES IDX 2 1 1 2 3 6 4 7 5 8
REMARK H PARENT 1 3 1 4 1 5
REMARK Flexibility Score: inf
ROOT
ATOM      1  C   UNL     1     116.680 114.284  92.322  1.00  0.00     0.312 C 
ENDROOT
BRANCH   1   2
ATOM      2  N   UNL     1     116.548 114.763  90.948  1.00  0.00    -0.353 N 
ATOM      3  H   UNL     1     117.494 114.897  90.522  1.00  0.00     0.344 HD
ATOM      4  H   UNL     1     116.022 115.667  90.932  1.00  0.00     0.344 HD
ATOM      5  H   UNL     1     116.021 114.055  90.388  1.00  0.00     0.344 HD
ENDBRANCH   1   2
BRANCH   1   6
ATOM      6  C   UNL     1     117.714 113.204  92.408  1.00  0.00     0.096 C 
ATOM      7  O   UNL     1     118.938 113.495  92.392  1.00  0.00    -0.544 OA
ATOM      8  O   UNL     1     117.323 111.879  92.558  1.00  0.00    -0.544 OA
ENDBRANCH   1   6
TORSDOF 2
ENDMDL
MODEL 2
REMARK VINA RESULT:    -2.345     18.496     19.037
REMARK INTER + INTRA:          -2.551
REMARK INTER:                  -2.551
REMARK INTRA:                   0.000
REMARK UNBOUND:                 0.000
REMARK SMILES [NH3+]CC(=O)[O-]
REMARK SMILES IDX 2 1 1 2 3 6 4 7 5 8
REMARK H PARENT 1 3 1 4 1 5
REMARK Flexibility Score: inf
ROOT
ATOM      1  C   UNL     1     101.514 103.924  92.323  1.00  0.00     0.312 C 
ENDROOT
BRANCH   1   2
ATOM      2  N   UNL     1     101.654 103.433  90.954  1.00  0.00    -0.353 N 
ATOM      3  H   UNL     1     102.564 103.755  90.549  1.00  0.00     0.344 HD
ATOM      4  H   UNL     1     100.863 103.780  90.365  1.00  0.00     0.344 HD
ATOM      5  H   UNL     1     101.638 102.387  90.963  1.00  0.00     0.344 HD
ENDBRANCH   1   2
BRANCH   1   6
ATOM      6  C   UNL     1     100.509 105.033  92.387  1.00  0.00     0.096 C 
ATOM      7  O   UNL     1      99.277 104.774  92.360  1.00  0.00    -0.544 OA
ATOM      8  O   UNL     1     100.934 106.349  92.528  1.00  0.00    -0.544 OA
ENDBRANCH   1   6
TORSDOF 2
ENDMDL
MODEL 3
REMARK VINA RESULT:    -2.330      1.959      2.338
REMARK INTER + INTRA:          -2.535
REMARK INTER:                  -2.535
REMARK INTRA:                   0.000
REMARK UNBOUND:                 0.000
REMARK SMILES [NH3+]CC(=O)[O-]
REMARK SMILES IDX 2 1 1 2 3 6 4 7 5 8
REMARK H PARENT 1 3 1 4 1 5
REMARK Flexibility Score: inf
ROOT
ATOM      1  C   UNL     1     117.134 111.962  92.291  1.00  0.00     0.312 C 
ENDROOT
BRANCH   1   2
ATOM      2  N   UNL     1     115.715 111.977  92.638  1.00  0.00    -0.353 N 
ATOM      3  H   UNL     1     115.600 112.036  93.676  1.00  0.00     0.344 HD
ATOM      4  H   UNL     1     115.249 111.113  92.279  1.00  0.00     0.344 HD
ATOM      5  H   UNL     1     115.264 112.813  92.199  1.00  0.00     0.344 HD
ENDBRANCH   1   2
BRANCH   1   6
ATOM      6  C   UNL     1     117.724 113.332  92.418  1.00  0.00     0.096 C 
ATOM      7  O   UNL     1     116.978 114.329  92.606  1.00  0.00    -0.544 OA
ATOM      8  O   UNL     1     119.103 113.502  92.381  1.00  0.00    -0.544 OA
ENDBRANCH   1   6
TORSDOF 2
ENDMDL
MODEL 4
REMARK VINA RESULT:    -2.295     17.933     18.466
REMARK INTER + INTRA:          -2.496
REMARK INTER:                  -2.496
REMARK INTRA:                   0.000
REMARK UNBOUND:                 0.000
REMARK SMILES [NH3+]CC(=O)[O-]
REMARK SMILES IDX 2 1 1 2 3 6 4 7 5 8
REMARK H PARENT 1 3 1 4 1 5
REMARK Flexibility Score: inf
ROOT
ATOM      1  C   UNL     1     101.365 106.077  91.888  1.00  0.00     0.312 C 
ENDROOT
BRANCH   1   2
ATOM      2  N   UNL     1     102.598 106.324  92.633  1.00  0.00    -0.353 N 
ATOM      3  H   UNL     1     102.401 106.933  93.460  1.00  0.00     0.344 HD
ATOM      4  H   UNL     1     103.305 106.784  92.015  1.00  0.00     0.344 HD
ATOM      5  H   UNL     1     102.984 105.411  92.968  1.00  0.00     0.344 HD
ENDBRANCH   1   2
BRANCH   1   6
ATOM      6  C   UNL     1     100.700 104.824  92.366  1.00  0.00     0.096 C 
ATOM      7  O   UNL     1      99.444 104.749  92.408  1.00  0.00    -0.544 OA
ATOM      8  O   UNL     1     101.467 103.720  92.718  1.00  0.00    -0.544 OA
ENDBRANCH   1   6
TORSDOF 2
ENDMDL
MODEL 5
REMARK VINA RESULT:    -2.117     12.834     13.166
REMARK INTER + INTRA:          -2.303
REMARK INTER:                  -2.303
REMARK INTRA:                   0.000
REMARK UNBOUND:                 0.000
REMARK SMILES [NH3+]CC(=O)[O-]
REMARK SMILES IDX 2 1 1 2 3 6 4 7 5 8
REMARK H PARENT 1 3 1 4 1 5
REMARK Flexibility Score: inf
ROOT
ATOM      1  C   UNL     1     106.887 115.885  99.754  1.00  0.00     0.312 C 
ENDROOT
BRANCH   1   2
ATOM      2  N   UNL     1     105.666 116.451 100.324  1.00  0.00    -0.353 N 
ATOM      3  H   UNL     1     105.905 117.096 101.113  1.00  0.00     0.344 HD
ATOM      4  H   UNL     1     105.043 115.686 100.669  1.00  0.00     0.344 HD
ATOM      5  H   UNL     1     105.162 116.991  99.584  1.00  0.00     0.344 HD
ENDBRANCH   1   2
BRANCH   1   6
ATOM      6  C   UNL     1     108.028 116.844  99.889  1.00  0.00     0.096 C 
ATOM      7  O   UNL     1     107.844 117.980 100.398  1.00  0.00    -0.544 OA
ATOM      8  O   UNL     1     109.307 116.462  99.502  1.00  0.00    -0.544 OA
ENDBRANCH   1   6
TORSDOF 2
ENDMDL
MODEL 6
REMARK VINA RESULT:    -2.105     15.641     16.050
REMARK INTER + INTRA:          -2.290
REMARK INTER:                  -2.290
REMARK INTRA:                   0.000
REMARK UNBOUND:                 0.000
REMARK SMILES [NH3+]CC(=O)[O-]
REMARK SMILES IDX 2 1 1 2 3 6 4 7 5 8
REMARK H PARENT 1 3 1 4 1 5
REMARK Flexibility Score: inf
ROOT
ATOM      1  C   UNL     1     111.389 102.316  99.832  1.00  0.00     0.312 C 
ENDROOT
BRANCH   1   2
ATOM      2  N   UNL     1     112.637 101.670 100.233  1.00  0.00    -0.353 N 
ATOM      3  H   UNL     1     113.402 101.923  99.566  1.00  0.00     0.344 HD
ATOM      4  H   UNL     1     112.513 100.632 100.254  1.00  0.00     0.344 HD
ATOM      5  H   UNL     1     112.900 101.999 101.190  1.00  0.00     0.344 HD
ENDBRANCH   1   2
BRANCH   1   6
ATOM      6  C   UNL     1     110.241 101.360  99.935  1.00  0.00     0.096 C 
ATOM      7  O   UNL     1     110.410 100.219 100.439  1.00  0.00    -0.544 OA
ATOM      8  O   UNL     1     108.973 101.749  99.521  1.00  0.00    -0.544 OA
ENDBRANCH   1   6
TORSDOF 2
ENDMDL
MODEL 7
REMARK VINA RESULT:    -2.025     12.578     13.005
REMARK INTER + INTRA:          -2.202
REMARK INTER:                  -2.202
REMARK INTRA:                   0.000
REMARK UNBOUND:                 0.000
REMARK SMILES [NH3+]CC(=O)[O-]
REMARK SMILES IDX 2 1 1 2 3 6 4 7 5 8
REMARK H PARENT 1 3 1 4 1 5
REMARK Flexibility Score: inf
ROOT
ATOM      1  C   UNL     1     108.683 117.085  99.231  1.00  0.00     0.312 C 
ENDROOT
BRANCH   1   2
ATOM      2  N   UNL     1     109.647 116.038  99.563  1.00  0.00    -0.353 N 
ATOM      3  H   UNL     1     110.391 116.422 100.191  1.00  0.00     0.344 HD
ATOM      4  H   UNL     1     110.081 115.660  98.690  1.00  0.00     0.344 HD
ATOM      5  H   UNL     1     109.152 115.262 100.059  1.00  0.00     0.344 HD
ENDBRANCH   1   2
BRANCH   1   6
ATOM      6  C   UNL     1     107.452 116.957 100.074  1.00  0.00     0.096 C 
ATOM      7  O   UNL     1     106.697 115.958  99.946  1.00  0.00    -0.544 OA
ATOM      8  O   UNL     1     107.166 117.917 101.037  1.00  0.00    -0.544 OA
ENDBRANCH   1   6
TORSDOF 2
ENDMDL
MODEL 8
REMARK VINA RESULT:    -2.021     13.132     13.631
REMARK INTER + INTRA:          -2.198
REMARK INTER:                  -2.198
REMARK INTRA:                   0.000
REMARK UNBOUND:                 0.000
REMARK SMILES [NH3+]CC(=O)[O-]
REMARK SMILES IDX 2 1 1 2 3 6 4 7 5 8
REMARK H PARENT 1 3 1 4 1 5
REMARK Flexibility Score: inf
ROOT
ATOM      1  C   UNL     1     104.435 108.080  92.723  1.00  0.00     0.312 C 
ENDROOT
BRANCH   1   2
ATOM      2  N   UNL     1     104.970 107.556  93.978  1.00  0.00    -0.353 N 
ATOM      3  H   UNL     1     105.801 108.117  94.276  1.00  0.00     0.344 HD
ATOM      4  H   UNL     1     105.244 106.553  93.861  1.00  0.00     0.344 HD
ATOM      5  H   UNL     1     104.233 107.622  94.718  1.00  0.00     0.344 HD
ENDBRANCH   1   2
BRANCH   1   6
ATOM      6  C   UNL     1     104.791 109.525  92.559  1.00  0.00     0.096 C 
ATOM      7  O   UNL     1     104.190 110.405  93.230  1.00  0.00    -0.544 OA
ATOM      8  O   UNL     1     105.822 109.896  91.704  1.00  0.00    -0.544 OA
ENDBRANCH   1   6
TORSDOF 2
ENDMDL
MODEL 9
REMARK VINA RESULT:    -2.020     15.668     16.102
REMARK INTER + INTRA:          -2.197
REMARK INTER:                  -2.197
REMARK INTRA:                   0.000
REMARK UNBOUND:                 0.000
REMARK SMILES [NH3+]CC(=O)[O-]
REMARK SMILES IDX 2 1 1 2 3 6 4 7 5 8
REMARK H PARENT 1 3 1 4 1 5
REMARK Flexibility Score: inf
ROOT
ATOM      1  C   UNL     1     109.563 101.227  99.131  1.00  0.00     0.312 C 
ENDROOT
BRANCH   1   2
ATOM      2  N   UNL     1     108.544 102.180  99.564  1.00  0.00    -0.353 N 
ATOM      3  H   UNL     1     108.626 102.350 100.593  1.00  0.00     0.344 HD
ATOM      4  H   UNL     1     107.591 101.813  99.340  1.00  0.00     0.344 HD
ATOM      5  H   UNL     1     108.686 103.085  99.059  1.00  0.00     0.344 HD
ENDBRANCH   1   2
BRANCH   1   6
ATOM      6  C   UNL     1     110.759 101.285 100.030  1.00  0.00     0.096 C 
ATOM      7  O   UNL     1     111.551 102.262  99.967  1.00  0.00    -0.544 OA
ATOM      8  O   UNL     1     110.969 100.287 100.973  1.00  0.00    -0.544 OA
ENDBRANCH   1   6
TORSDOF 2
ENDMDL
