MODEL 1
REMARK VINA RESULT:    -8.977      0.000      0.000
REMARK INTER + INTRA:         -11.127
REMARK INTER:                 -10.814
REMARK INTRA:                  -0.313
REMARK UNBOUND:                -0.313
REMARK SMILES O=c1c(O)c(-c2ccc(O)c(O)c2)oc2cc(O)cc(O)c12
REMARK SMILES IDX 5 1 3 2 2 3 1 4 22 5 20 6 19 7 17 8 16 9 15 10 14 11 6 12
REMARK SMILES IDX 7 13 8 14 9 15 13 16 11 17 10 18 12 20 4 22 21 24 18 26
REMARK H PARENT 10 19 12 21 4 23 21 25 18 27
REMARK Flexibility Score: inf
ROOT
ATOM      1  C   UNL     1     139.164 -18.691  79.657  1.00  0.00     0.180 A 
ATOM      2  C   UNL     1     140.321 -19.182  79.027  1.00  0.00     0.208 A 
ATOM      3  C   UNL     1     141.530 -18.487  79.186  1.00  0.00     0.238 A 
ATOM      4  O   UNL     1     142.545 -18.891  78.559  1.00  0.00    -0.285 OA
ATOM      5  C   UNL     1     141.582 -17.342  80.018  1.00  0.00     0.111 A 
ATOM      6  C   UNL     1     142.763 -16.587  80.287  1.00  0.00     0.134 A 
ATOM      7  C   UNL     1     142.672 -15.409  81.041  1.00  0.00     0.093 A 
ATOM      8  C   UNL     1     141.455 -14.995  81.588  1.00  0.00     0.123 A 
ATOM      9  C   UNL     1     140.307 -15.756  81.377  1.00  0.00     0.094 A 
ATOM     10  C   UNL     1     140.358 -16.914  80.597  1.00  0.00     0.146 A 
ATOM     11  O   UNL     1     139.236 -17.596  80.404  1.00  0.00    -0.452 OA
ENDROOT
BRANCH   1  12
ATOM     12  C   UNL     1     137.850 -19.360  79.524  1.00  0.00     0.025 A 
ATOM     13  C   UNL     1     137.407 -20.300  80.470  1.00  0.00     0.016 A 
ATOM     14  C   UNL     1     136.173 -20.936  80.310  1.00  0.00     0.051 A 
ATOM     15  C   UNL     1     135.371 -20.653  79.196  1.00  0.00     0.157 A 
ATOM     16  C   UNL     1     137.052 -19.095  78.398  1.00  0.00     0.062 A 
ATOM     17  C   UNL     1     135.815 -19.729  78.234  1.00  0.00     0.158 A 
BRANCH  15  18
ATOM     18  O   UNL     1     134.140 -21.288  79.039  1.00  0.00    -0.504 OA
ATOM     19  H   UNL     1     133.711 -21.810  79.795  1.00  0.00     0.293 HD
ENDBRANCH  15  18
BRANCH  17  20
ATOM     20  O   UNL     1     135.045 -19.432  77.111  1.00  0.00    -0.504 OA
ATOM     21  H   UNL     1     134.332 -18.712  77.123  1.00  0.00     0.293 HD
ENDBRANCH  17  20
ENDBRANCH   1  12
BRANCH   2  22
ATOM     22  O   UNL     1     140.266 -20.358  78.272  1.00  0.00    -0.502 OA
ATOM     23  H   UNL     1     139.417 -20.674  77.818  1.00  0.00     0.293 HD
ENDBRANCH   2  22
BRANCH   6  24
ATOM     24  O   UNL     1     144.043 -16.957  79.866  1.00  0.00    -0.507 OA
ATOM     25  H   UNL     1     144.897 -16.499  80.144  1.00  0.00     0.293 HD
ENDBRANCH   6  24
BRANCH   8  26
ATOM     26  O   UNL     1     141.378 -13.832  82.351  1.00  0.00    -0.508 OA
ATOM     27  H   UNL     1     140.778 -13.772  83.165  1.00  0.00     0.293 HD
ENDBRANCH   8  26
TORSDOF 6
ENDMDL
MODEL 2
REMARK VINA RESULT:    -8.792      2.979      6.028
REMARK INTER + INTRA:         -10.904
REMARK INTER:                 -10.604
REMARK INTRA:                  -0.300
REMARK UNBOUND:                -0.313
REMARK SMILES O=c1c(O)c(-c2ccc(O)c(O)c2)oc2cc(O)cc(O)c12
REMARK SMILES IDX 5 1 3 2 2 3 1 4 22 5 20 6 19 7 17 8 16 9 15 10 14 11 6 12
REMARK SMILES IDX 7 13 8 14 9 15 13 16 11 17 10 18 12 20 4 22 21 24 18 26
REMARK H PARENT 10 19 12 21 4 23 21 25 18 27
REMARK Flexibility Score: inf
ROOT
ATOM      1  C   UNL     1     141.015 -20.387  78.965  1.00  0.00     0.180 A 
ATOM      2  C   UNL     1     139.747 -20.745  78.475  1.00  0.00     0.208 A 
ATOM      3  C   UNL     1     138.604 -20.183  79.066  1.00  0.00     0.238 A 
ATOM      4  O   UNL     1     137.471 -20.565  78.671  1.00  0.00    -0.285 OA
ATOM      5  C   UNL     1     138.743 -19.227  80.101  1.00  0.00     0.111 A 
ATOM      6  C   UNL     1     137.656 -18.559  80.741  1.00  0.00     0.134 A 
ATOM      7  C   UNL     1     137.909 -17.711  81.827  1.00  0.00     0.093 A 
ATOM      8  C   UNL     1     139.215 -17.457  82.255  1.00  0.00     0.123 A 
ATOM      9  C   UNL     1     140.286 -18.062  81.601  1.00  0.00     0.094 A 
ATOM     10  C   UNL     1     140.063 -18.943  80.540  1.00  0.00     0.146 A 
ATOM     11  O   UNL     1     141.112 -19.513  79.960  1.00  0.00    -0.452 OA
ENDROOT
BRANCH   1  12
ATOM     12  C   UNL     1     142.264 -20.949  78.405  1.00  0.00     0.025 A 
ATOM     13  C   UNL     1     142.705 -22.239  78.746  1.00  0.00     0.016 A 
ATOM     14  C   UNL     1     143.901 -22.738  78.223  1.00  0.00     0.051 A 
ATOM     15  C   UNL     1     144.679 -21.952  77.363  1.00  0.00     0.157 A 
ATOM     16  C   UNL     1     143.059 -20.156  77.559  1.00  0.00     0.062 A 
ATOM     17  C   UNL     1     144.256 -20.653  77.033  1.00  0.00     0.158 A 
BRANCH  15  18
ATOM     18  O   UNL     1     145.871 -22.453  76.841  1.00  0.00    -0.504 OA
ATOM     19  H   UNL     1     146.745 -22.382  77.349  1.00  0.00     0.293 HD
ENDBRANCH  15  18
BRANCH  17  20
ATOM     20  O   UNL     1     145.012 -19.843  76.186  1.00  0.00    -0.504 OA
ATOM     21  H   UNL     1     144.654 -19.508  75.300  1.00  0.00     0.293 HD
ENDBRANCH  17  20
ENDBRANCH   1  12
BRANCH   2  22
ATOM     22  O   UNL     1     139.633 -21.633  77.401  1.00  0.00    -0.502 OA
ATOM     23  H   UNL     1     138.951 -22.382  77.384  1.00  0.00     0.293 HD
ENDBRANCH   2  22
BRANCH   6  24
ATOM     24  O   UNL     1     136.322 -18.670  80.339  1.00  0.00    -0.507 OA
ATOM     25  H   UNL     1     135.526 -18.388  80.891  1.00  0.00     0.293 HD
ENDBRANCH   6  24
BRANCH   8  26
ATOM     26  O   UNL     1     139.459 -16.600  83.325  1.00  0.00    -0.508 OA
ATOM     27  H   UNL     1     140.399 -16.420  83.656  1.00  0.00     0.293 HD
ENDBRANCH   8  26
TORSDOF 6
ENDMDL
MODEL 3
REMARK VINA RESULT:    -8.252      2.513      4.996
REMARK INTER + INTRA:         -10.254
REMARK INTER:                 -10.027
REMARK INTRA:                  -0.226
REMARK UNBOUND:                -0.313
REMARK SMILES O=c1c(O)c(-c2ccc(O)c(O)c2)oc2cc(O)cc(O)c12
REMARK SMILES IDX 5 1 3 2 2 3 1 4 22 5 20 6 19 7 17 8 16 9 15 10 14 11 6 12
REMARK SMILES IDX 7 13 8 14 9 15 13 16 11 17 10 18 12 20 4 22 21 24 18 26
REMARK H PARENT 10 19 12 21 4 23 21 25 18 27
REMARK Flexibility Score: inf
ROOT
ATOM      1  C   UNL     1     140.985 -18.870  79.408  1.00  0.00     0.180 A 
ATOM      2  C   UNL     1     139.584 -18.797  79.327  1.00  0.00     0.208 A 
ATOM      3  C   UNL     1     138.929 -17.671  79.851  1.00  0.00     0.238 A 
ATOM      4  O   UNL     1     137.671 -17.647  79.841  1.00  0.00    -0.285 OA
ATOM      5  C   UNL     1     139.686 -16.607  80.399  1.00  0.00     0.111 A 
ATOM      6  C   UNL     1     139.130 -15.398  80.917  1.00  0.00     0.134 A 
ATOM      7  C   UNL     1     139.970 -14.460  81.531  1.00  0.00     0.093 A 
ATOM      8  C   UNL     1     141.351 -14.657  81.589  1.00  0.00     0.123 A 
ATOM      9  C   UNL     1     141.909 -15.808  81.037  1.00  0.00     0.094 A 
ATOM     10  C   UNL     1     141.094 -16.781  80.452  1.00  0.00     0.146 A 
ATOM     11  O   UNL     1     141.665 -17.872  79.957  1.00  0.00    -0.452 OA
ENDROOT
BRANCH   1  12
ATOM     12  C   UNL     1     141.745 -20.031  78.892  1.00  0.00     0.025 A 
ATOM     13  C   UNL     1     141.667 -21.291  79.509  1.00  0.00     0.016 A 
ATOM     14  C   UNL     1     142.412 -22.367  79.018  1.00  0.00     0.051 A 
ATOM     15  C   UNL     1     143.256 -22.196  77.913  1.00  0.00     0.157 A 
ATOM     16  C   UNL     1     142.608 -19.860  77.797  1.00  0.00     0.062 A 
ATOM     17  C   UNL     1     143.356 -20.934  77.302  1.00  0.00     0.158 A 
BRANCH  15  18
ATOM     18  O   UNL     1     143.997 -23.270  77.424  1.00  0.00    -0.504 OA
ATOM     19  H   UNL     1     143.554 -24.051  76.954  1.00  0.00     0.293 HD
ENDBRANCH  15  18
BRANCH  17  20
ATOM     20  O   UNL     1     144.193 -20.729  76.205  1.00  0.00    -0.504 OA
ATOM     21  H   UNL     1     145.202 -20.773  76.282  1.00  0.00     0.293 HD
ENDBRANCH  17  20
ENDBRANCH   1  12
BRANCH   2  22
ATOM     22  O   UNL     1     138.860 -19.824  78.713  1.00  0.00    -0.502 OA
ATOM     23  H   UNL     1     138.381 -19.699  77.829  1.00  0.00     0.293 HD
ENDBRANCH   2  22
BRANCH   6  24
ATOM     24  O   UNL     1     137.777 -15.058  80.832  1.00  0.00    -0.507 OA
ATOM     25  H   UNL     1     137.182 -15.247  80.041  1.00  0.00     0.293 HD
ENDBRANCH   6  24
BRANCH   8  26
ATOM     26  O   UNL     1     142.181 -13.711  82.187  1.00  0.00    -0.508 OA
ATOM     27  H   UNL     1     142.424 -13.766  83.169  1.00  0.00     0.293 HD
ENDBRANCH   8  26
TORSDOF 6
ENDMDL
MODEL 4
REMARK VINA RESULT:    -8.228      1.502      7.142
REMARK INTER + INTRA:         -10.225
REMARK INTER:                  -9.922
REMARK INTRA:                  -0.303
REMARK UNBOUND:                -0.313
REMARK SMILES O=c1c(O)c(-c2ccc(O)c(O)c2)oc2cc(O)cc(O)c12
REMARK SMILES IDX 5 1 3 2 2 3 1 4 22 5 20 6 19 7 17 8 16 9 15 10 14 11 6 12
REMARK SMILES IDX 7 13 8 14 9 15 13 16 11 17 10 18 12 20 4 22 21 24 18 26
REMARK H PARENT 10 19 12 21 4 23 21 25 18 27
REMARK Flexibility Score: inf
ROOT
ATOM      1  C   UNL     1     138.508 -18.783  79.677  1.00  0.00     0.180 A 
ATOM      2  C   UNL     1     138.073 -19.749  80.602  1.00  0.00     0.208 A 
ATOM      3  C   UNL     1     136.872 -20.433  80.358  1.00  0.00     0.238 A 
ATOM      4  O   UNL     1     136.452 -21.242  81.226  1.00  0.00    -0.285 OA
ATOM      5  C   UNL     1     136.149 -20.187  79.166  1.00  0.00     0.111 A 
ATOM      6  C   UNL     1     134.944 -20.856  78.794  1.00  0.00     0.134 A 
ATOM      7  C   UNL     1     134.258 -20.452  77.640  1.00  0.00     0.093 A 
ATOM      8  C   UNL     1     134.767 -19.450  76.812  1.00  0.00     0.123 A 
ATOM      9  C   UNL     1     135.971 -18.829  77.138  1.00  0.00     0.094 A 
ATOM     10  C   UNL     1     136.659 -19.182  78.302  1.00  0.00     0.146 A 
ATOM     11  O   UNL     1     137.791 -18.550  78.584  1.00  0.00    -0.452 OA
ENDROOT
BRANCH   1  12
ATOM     12  C   UNL     1     139.754 -18.010  79.872  1.00  0.00     0.025 A 
ATOM     13  C   UNL     1     140.964 -18.406  79.278  1.00  0.00     0.016 A 
ATOM     14  C   UNL     1     142.133 -17.673  79.497  1.00  0.00     0.051 A 
ATOM     15  C   UNL     1     142.114 -16.542  80.324  1.00  0.00     0.157 A 
ATOM     16  C   UNL     1     139.744 -16.887  80.717  1.00  0.00     0.062 A 
ATOM     17  C   UNL     1     140.913 -16.150  80.939  1.00  0.00     0.158 A 
BRANCH  15  18
ATOM     18  O   UNL     1     143.282 -15.812  80.539  1.00  0.00    -0.504 OA
ATOM     19  H   UNL     1     143.559 -15.516  81.468  1.00  0.00     0.293 HD
ENDBRANCH  15  18
BRANCH  17  20
ATOM     20  O   UNL     1     140.862 -15.033  81.773  1.00  0.00    -0.504 OA
ATOM     21  H   UNL     1     140.483 -15.079  82.711  1.00  0.00     0.293 HD
ENDBRANCH  17  20
ENDBRANCH   1  12
BRANCH   2  22
ATOM     22  O   UNL     1     138.840 -20.033  81.735  1.00  0.00    -0.502 OA
ATOM     23  H   UNL     1     138.477 -20.560  82.521  1.00  0.00     0.293 HD
ENDBRANCH   2  22
BRANCH   6  24
ATOM     24  O   UNL     1     134.393 -21.930  79.499  1.00  0.00    -0.507 OA
ATOM     25  H   UNL     1     134.029 -21.878  80.438  1.00  0.00     0.293 HD
ENDBRANCH   6  24
BRANCH   8  26
ATOM     26  O   UNL     1     134.088 -19.067  75.658  1.00  0.00    -0.508 OA
ATOM     27  H   UNL     1     133.122 -18.761  75.689  1.00  0.00     0.293 HD
ENDBRANCH   8  26
TORSDOF 6
ENDMDL
MODEL 5
REMARK VINA RESULT:    -8.070      2.598      6.629
REMARK INTER + INTRA:         -10.034
REMARK INTER:                 -10.149
REMARK INTRA:                   0.115
REMARK UNBOUND:                -0.313
REMARK SMILES O=c1c(O)c(-c2ccc(O)c(O)c2)oc2cc(O)cc(O)c12
REMARK SMILES IDX 5 1 3 2 2 3 1 4 22 5 20 6 19 7 17 8 16 9 15 10 14 11 6 12
REMARK SMILES IDX 7 13 8 14 9 15 13 16 11 17 10 18 12 20 4 22 21 24 18 26
REMARK H PARENT 10 19 12 21 4 23 21 25 18 27
REMARK Flexibility Score: inf
ROOT
ATOM      1  C   UNL     1     140.941 -20.069  78.907  1.00  0.00     0.180 A 
ATOM      2  C   UNL     1     140.989 -18.767  79.437  1.00  0.00     0.208 A 
ATOM      3  C   UNL     1     139.808 -18.189  79.931  1.00  0.00     0.238 A 
ATOM      4  O   UNL     1     139.844 -16.997  80.335  1.00  0.00    -0.285 OA
ATOM      5  C   UNL     1     138.607 -18.938  79.942  1.00  0.00     0.111 A 
ATOM      6  C   UNL     1     137.363 -18.469  80.460  1.00  0.00     0.134 A 
ATOM      7  C   UNL     1     136.214 -19.260  80.321  1.00  0.00     0.093 A 
ATOM      8  C   UNL     1     136.279 -20.528  79.739  1.00  0.00     0.123 A 
ATOM      9  C   UNL     1     137.500 -21.017  79.280  1.00  0.00     0.094 A 
ATOM     10  C   UNL     1     138.655 -20.237  79.370  1.00  0.00     0.146 A 
ATOM     11  O   UNL     1     139.792 -20.734  78.900  1.00  0.00    -0.452 OA
ENDROOT
BRANCH   1  12
ATOM     12  C   UNL     1     142.139 -20.739  78.354  1.00  0.00     0.025 A 
ATOM     13  C   UNL     1     142.459 -22.065  78.692  1.00  0.00     0.016 A 
ATOM     14  C   UNL     1     143.609 -22.668  78.176  1.00  0.00     0.051 A 
ATOM     15  C   UNL     1     144.463 -21.952  77.326  1.00  0.00     0.157 A 
ATOM     16  C   UNL     1     143.009 -20.018  77.519  1.00  0.00     0.062 A 
ATOM     17  C   UNL     1     144.161 -20.619  76.999  1.00  0.00     0.158 A 
BRANCH  15  18
ATOM     18  O   UNL     1     145.608 -22.556  76.812  1.00  0.00    -0.504 OA
ATOM     19  H   UNL     1     146.534 -22.310  77.144  1.00  0.00     0.293 HD
ENDBRANCH  15  18
BRANCH  17  20
ATOM     20  O   UNL     1     144.994 -19.876  76.163  1.00  0.00    -0.504 OA
ATOM     21  H   UNL     1     145.261 -18.923  76.377  1.00  0.00     0.293 HD
ENDBRANCH  17  20
ENDBRANCH   1  12
BRANCH   2  22
ATOM     22  O   UNL     1     142.201 -18.072  79.487  1.00  0.00    -0.502 OA
ATOM     23  H   UNL     1     142.247 -17.062  79.542  1.00  0.00     0.293 HD
ENDBRANCH   2  22
BRANCH   6  24
ATOM     24  O   UNL     1     137.203 -17.257  81.139  1.00  0.00    -0.507 OA
ATOM     25  H   UNL     1     137.445 -17.100  82.105  1.00  0.00     0.293 HD
ENDBRANCH   6  24
BRANCH   8  26
ATOM     26  O   UNL     1     135.135 -21.315  79.620  1.00  0.00    -0.508 OA
ATOM     27  H   UNL     1     135.045 -22.196  80.112  1.00  0.00     0.293 HD
ENDBRANCH   8  26
TORSDOF 6
ENDMDL
MODEL 6
REMARK VINA RESULT:    -7.561      2.739      5.227
REMARK INTER + INTRA:          -9.421
REMARK INTER:                  -9.268
REMARK INTRA:                  -0.152
REMARK UNBOUND:                -0.313
REMARK SMILES O=c1c(O)c(-c2ccc(O)c(O)c2)oc2cc(O)cc(O)c12
REMARK SMILES IDX 5 1 3 2 2 3 1 4 22 5 20 6 19 7 17 8 16 9 15 10 14 11 6 12
REMARK SMILES IDX 7 13 8 14 9 15 13 16 11 17 10 18 12 20 4 22 21 24 18 26
REMARK H PARENT 10 19 12 21 4 23 21 25 18 27
REMARK Flexibility Score: inf
ROOT
ATOM      1  C   UNL     1     135.445 -19.581  77.786  1.00  0.00     0.180 A 
ATOM      2  C   UNL     1     135.418 -20.659  78.688  1.00  0.00     0.208 A 
ATOM      3  C   UNL     1     136.591 -20.994  79.385  1.00  0.00     0.238 A 
ATOM      4  O   UNL     1     136.578 -22.005  80.134  1.00  0.00    -0.285 OA
ATOM      5  C   UNL     1     137.759 -20.212  79.216  1.00  0.00     0.111 A 
ATOM      6  C   UNL     1     138.989 -20.432  79.905  1.00  0.00     0.134 A 
ATOM      7  C   UNL     1     140.112 -19.659  79.577  1.00  0.00     0.093 A 
ATOM      8  C   UNL     1     140.031 -18.634  78.632  1.00  0.00     0.123 A 
ATOM      9  C   UNL     1     138.820 -18.377  77.994  1.00  0.00     0.094 A 
ATOM     10  C   UNL     1     137.693 -19.155  78.271  1.00  0.00     0.146 A 
ATOM     11  O   UNL     1     136.565 -18.888  77.624  1.00  0.00    -0.452 OA
ENDROOT
BRANCH   1  12
ATOM     12  C   UNL     1     134.255 -19.179  77.004  1.00  0.00     0.025 A 
ATOM     13  C   UNL     1     133.087 -18.713  77.633  1.00  0.00     0.016 A 
ATOM     14  C   UNL     1     131.968 -18.362  76.874  1.00  0.00     0.051 A 
ATOM     15  C   UNL     1     131.993 -18.483  75.479  1.00  0.00     0.157 A 
ATOM     16  C   UNL     1     134.268 -19.319  75.606  1.00  0.00     0.062 A 
ATOM     17  C   UNL     1     133.149 -18.968  74.843  1.00  0.00     0.158 A 
BRANCH  15  18
ATOM     18  O   UNL     1     130.875 -18.131  74.724  1.00  0.00    -0.504 OA
ATOM     19  H   UNL     1     130.218 -18.827  74.391  1.00  0.00     0.293 HD
ENDBRANCH  15  18
BRANCH  17  20
ATOM     20  O   UNL     1     133.203 -19.108  73.456  1.00  0.00    -0.504 OA
ATOM     21  H   UNL     1     133.325 -20.009  73.011  1.00  0.00     0.293 HD
ENDBRANCH  17  20
ENDBRANCH   1  12
BRANCH   2  22
ATOM     22  O   UNL     1     134.234 -21.371  78.899  1.00  0.00    -0.502 OA
ATOM     23  H   UNL     1     133.369 -20.920  79.172  1.00  0.00     0.293 HD
ENDBRANCH   2  22
BRANCH   6  24
ATOM     24  O   UNL     1     139.158 -21.368  80.929  1.00  0.00    -0.507 OA
ATOM     25  H   UNL     1     138.624 -22.217  81.030  1.00  0.00     0.293 HD
ENDBRANCH   6  24
BRANCH   8  26
ATOM     26  O   UNL     1     141.147 -17.861  78.324  1.00  0.00    -0.508 OA
ATOM     27  H   UNL     1     141.729 -17.458  79.050  1.00  0.00     0.293 HD
ENDBRANCH   8  26
TORSDOF 6
ENDMDL
MODEL 7
REMARK VINA RESULT:    -7.525      7.596      9.835
REMARK INTER + INTRA:          -9.378
REMARK INTER:                  -9.560
REMARK INTRA:                   0.182
REMARK UNBOUND:                -0.313
REMARK SMILES O=c1c(O)c(-c2ccc(O)c(O)c2)oc2cc(O)cc(O)c12
REMARK SMILES IDX 5 1 3 2 2 3 1 4 22 5 20 6 19 7 17 8 16 9 15 10 14 11 6 12
REMARK SMILES IDX 7 13 8 14 9 15 13 16 11 17 10 18 12 20 4 22 21 24 18 26
REMARK H PARENT 10 19 12 21 4 23 21 25 18 27
REMARK Flexibility Score: inf
ROOT
ATOM      1  C   UNL     1     146.303 -22.732  77.330  1.00  0.00     0.180 A 
ATOM      2  C   UNL     1     147.013 -23.389  78.350  1.00  0.00     0.208 A 
ATOM      3  C   UNL     1     148.300 -23.879  78.077  1.00  0.00     0.238 A 
ATOM      4  O   UNL     1     148.899 -24.531  78.972  1.00  0.00    -0.285 OA
ATOM      5  C   UNL     1     148.885 -23.657  76.807  1.00  0.00     0.111 A 
ATOM      6  C   UNL     1     150.200 -24.068  76.436  1.00  0.00     0.134 A 
ATOM      7  C   UNL     1     150.633 -23.888  75.115  1.00  0.00     0.093 A 
ATOM      8  C   UNL     1     149.823 -23.253  74.171  1.00  0.00     0.123 A 
ATOM      9  C   UNL     1     148.559 -22.798  74.539  1.00  0.00     0.094 A 
ATOM     10  C   UNL     1     148.084 -22.998  75.838  1.00  0.00     0.146 A 
ATOM     11  O   UNL     1     146.865 -22.568  76.139  1.00  0.00    -0.452 OA
ENDROOT
BRANCH   1  12
ATOM     12  C   UNL     1     144.936 -22.202  77.537  1.00  0.00     0.025 A 
ATOM     13  C   UNL     1     144.009 -22.867  78.357  1.00  0.00     0.016 A 
ATOM     14  C   UNL     1     142.717 -22.360  78.518  1.00  0.00     0.051 A 
ATOM     15  C   UNL     1     142.328 -21.191  77.850  1.00  0.00     0.157 A 
ATOM     16  C   UNL     1     144.535 -21.042  76.853  1.00  0.00     0.062 A 
ATOM     17  C   UNL     1     143.242 -20.531  77.011  1.00  0.00     0.158 A 
BRANCH  15  18
ATOM     18  O   UNL     1     141.038 -20.687  78.013  1.00  0.00    -0.504 OA
ATOM     19  H   UNL     1     140.221 -21.280  77.927  1.00  0.00     0.293 HD
ENDBRANCH  15  18
BRANCH  17  20
ATOM     20  O   UNL     1     142.884 -19.370  76.327  1.00  0.00    -0.504 OA
ATOM     21  H   UNL     1     142.870 -18.463  76.776  1.00  0.00     0.293 HD
ENDBRANCH  17  20
ENDBRANCH   1  12
BRANCH   2  22
ATOM     22  O   UNL     1     146.448 -23.532  79.621  1.00  0.00    -0.502 OA
ATOM     23  H   UNL     1     145.502 -23.866  79.762  1.00  0.00     0.293 HD
ENDBRANCH   2  22
BRANCH   6  24
ATOM     24  O   UNL     1     151.125 -24.631  77.320  1.00  0.00    -0.507 OA
ATOM     25  H   UNL     1     150.888 -25.179  78.132  1.00  0.00     0.293 HD
ENDBRANCH   6  24
BRANCH   8  26
ATOM     26  O   UNL     1     150.268 -23.062  72.865  1.00  0.00    -0.508 OA
ATOM     27  H   UNL     1     149.645 -23.166  72.073  1.00  0.00     0.293 HD
ENDBRANCH   8  26
TORSDOF 6
ENDMDL
MODEL 8
REMARK VINA RESULT:    -7.299      1.395      2.992
REMARK INTER + INTRA:          -9.105
REMARK INTER:                  -8.783
REMARK INTRA:                  -0.322
REMARK UNBOUND:                -0.313
REMARK SMILES O=c1c(O)c(-c2ccc(O)c(O)c2)oc2cc(O)cc(O)c12
REMARK SMILES IDX 5 1 3 2 2 3 1 4 22 5 20 6 19 7 17 8 16 9 15 10 14 11 6 12
REMARK SMILES IDX 7 13 8 14 9 15 13 16 11 17 10 18 12 20 4 22 21 24 18 26
REMARK H PARENT 10 19 12 21 4 23 21 25 18 27
REMARK Flexibility Score: inf
ROOT
ATOM      1  C   UNL     1     138.797 -17.654  80.377  1.00  0.00     0.180 A 
ATOM      2  C   UNL     1     138.316 -16.502  81.023  1.00  0.00     0.208 A 
ATOM      3  C   UNL     1     139.226 -15.503  81.403  1.00  0.00     0.238 A 
ATOM      4  O   UNL     1     138.797 -14.509  82.047  1.00  0.00    -0.285 OA
ATOM      5  C   UNL     1     140.598 -15.640  81.083  1.00  0.00     0.111 A 
ATOM      6  C   UNL     1     141.602 -14.670  81.379  1.00  0.00     0.134 A 
ATOM      7  C   UNL     1     142.946 -14.962  81.110  1.00  0.00     0.093 A 
ATOM      8  C   UNL     1     143.314 -16.162  80.497  1.00  0.00     0.123 A 
ATOM      9  C   UNL     1     142.335 -17.092  80.154  1.00  0.00     0.094 A 
ATOM     10  C   UNL     1     140.991 -16.846  80.445  1.00  0.00     0.146 A 
ATOM     11  O   UNL     1     140.095 -17.770  80.121  1.00  0.00    -0.452 OA
ENDROOT
BRANCH   1  12
ATOM     12  C   UNL     1     137.902 -18.756  79.961  1.00  0.00     0.025 A 
ATOM     13  C   UNL     1     137.501 -19.756  80.864  1.00  0.00     0.016 A 
ATOM     14  C   UNL     1     136.675 -20.800  80.440  1.00  0.00     0.051 A 
ATOM     15  C   UNL     1     136.248 -20.869  79.107  1.00  0.00     0.157 A 
ATOM     16  C   UNL     1     137.489 -18.841  78.620  1.00  0.00     0.062 A 
ATOM     17  C   UNL     1     136.661 -19.885  78.193  1.00  0.00     0.158 A 
BRANCH  15  18
ATOM     18  O   UNL     1     135.423 -21.911  78.688  1.00  0.00    -0.504 OA
ATOM     19  H   UNL     1     135.684 -22.520  77.921  1.00  0.00     0.293 HD
ENDBRANCH  15  18
BRANCH  17  20
ATOM     20  O   UNL     1     136.260 -19.929  76.858  1.00  0.00    -0.504 OA
ATOM     21  H   UNL     1     135.299 -20.103  76.590  1.00  0.00     0.293 HD
ENDBRANCH  17  20
ENDBRANCH   1  12
BRANCH   2  22
ATOM     22  O   UNL     1     136.947 -16.350  81.262  1.00  0.00    -0.502 OA
ATOM     23  H   UNL     1     136.527 -15.452  81.471  1.00  0.00     0.293 HD
ENDBRANCH   2  22
BRANCH   6  24
ATOM     24  O   UNL     1     141.337 -13.404  81.909  1.00  0.00    -0.507 OA
ATOM     25  H   UNL     1     140.436 -13.092  82.238  1.00  0.00     0.293 HD
ENDBRANCH   6  24
BRANCH   8  26
ATOM     26  O   UNL     1     144.651 -16.437  80.217  1.00  0.00    -0.508 OA
ATOM     27  H   UNL     1     145.307 -16.675  80.951  1.00  0.00     0.293 HD
ENDBRANCH   8  26
TORSDOF 6
ENDMDL
MODEL 9
REMARK VINA RESULT:    -7.241      3.396      7.227
REMARK INTER + INTRA:          -9.035
REMARK INTER:                  -8.734
REMARK INTRA:                  -0.301
REMARK UNBOUND:                -0.313
REMARK SMILES O=c1c(O)c(-c2ccc(O)c(O)c2)oc2cc(O)cc(O)c12
REMARK SMILES IDX 5 1 3 2 2 3 1 4 22 5 20 6 19 7 17 8 16 9 15 10 14 11 6 12
REMARK SMILES IDX 7 13 8 14 9 15 13 16 11 17 10 18 12 20 4 22 21 24 18 26
REMARK H PARENT 10 19 12 21 4 23 21 25 18 27
REMARK Flexibility Score: inf
ROOT
ATOM      1  C   UNL     1     139.484 -20.666  78.537  1.00  0.00     0.180 A 
ATOM      2  C   UNL     1     139.092 -21.145  79.800  1.00  0.00     0.208 A 
ATOM      3  C   UNL     1     137.725 -21.185  80.119  1.00  0.00     0.238 A 
ATOM      4  O   UNL     1     137.387 -21.545  81.277  1.00  0.00    -0.285 OA
ATOM      5  C   UNL     1     136.764 -20.800  79.153  1.00  0.00     0.111 A 
ATOM      6  C   UNL     1     135.352 -20.843  79.352  1.00  0.00     0.134 A 
ATOM      7  C   UNL     1     134.499 -20.335  78.362  1.00  0.00     0.093 A 
ATOM      8  C   UNL     1     135.006 -19.846  77.156  1.00  0.00     0.123 A 
ATOM      9  C   UNL     1     136.380 -19.851  76.931  1.00  0.00     0.094 A 
ATOM     10  C   UNL     1     137.258 -20.314  77.914  1.00  0.00     0.146 A 
ATOM     11  O   UNL     1     138.561 -20.280  77.665  1.00  0.00    -0.452 OA
ENDROOT
BRANCH   1  12
ATOM     12  C   UNL     1     140.906 -20.580  78.134  1.00  0.00     0.025 A 
ATOM     13  C   UNL     1     141.603 -19.360  78.164  1.00  0.00     0.016 A 
ATOM     14  C   UNL     1     142.938 -19.299  77.755  1.00  0.00     0.051 A 
ATOM     15  C   UNL     1     143.591 -20.452  77.298  1.00  0.00     0.157 A 
ATOM     16  C   UNL     1     141.558 -21.728  77.655  1.00  0.00     0.062 A 
ATOM     17  C   UNL     1     142.895 -21.671  77.245  1.00  0.00     0.158 A 
BRANCH  15  18
ATOM     18  O   UNL     1     144.923 -20.388  76.893  1.00  0.00    -0.504 OA
ATOM     19  H   UNL     1     145.684 -20.397  77.562  1.00  0.00     0.293 HD
ENDBRANCH  15  18
BRANCH  17  20
ATOM     20  O   UNL     1     143.514 -22.834  76.788  1.00  0.00    -0.504 OA
ATOM     21  H   UNL     1     143.936 -22.894  75.869  1.00  0.00     0.293 HD
ENDBRANCH  17  20
ENDBRANCH   1  12
BRANCH   2  22
ATOM     22  O   UNL     1     140.053 -21.594  80.711  1.00  0.00    -0.502 OA
ATOM     23  H   UNL     1     140.870 -21.047  80.953  1.00  0.00     0.293 HD
ENDBRANCH   2  22
BRANCH   6  24
ATOM     24  O   UNL     1     134.735 -21.392  80.480  1.00  0.00    -0.507 OA
ATOM     25  H   UNL     1     134.734 -22.372  80.719  1.00  0.00     0.293 HD
ENDBRANCH   6  24
BRANCH   8  26
ATOM     26  O   UNL     1     134.150 -19.359  76.171  1.00  0.00    -0.508 OA
ATOM     27  H   UNL     1     133.450 -18.656  76.378  1.00  0.00     0.293 HD
ENDBRANCH   8  26
TORSDOF 6
ENDMDL
