MODEL 1
REMARK VINA RESULT:    -5.428      0.000      0.000
REMARK INTER + INTRA:          -6.689
REMARK INTER:                  -6.380
REMARK INTRA:                  -0.309
REMARK UNBOUND:                -0.309
REMARK SMILES O=c1cc(-c2ccc(O)c(O)c2)oc2cc(O)cc(O)c12
REMARK SMILES IDX 4 1 3 2 2 3 1 4 21 5 19 6 18 7 16 8 15 9 14 10 13 11 5 12
REMARK SMILES IDX 6 13 7 14 8 15 12 16 10 17 9 18 11 20 20 22 17 24
REMARK H PARENT 9 19 11 21 20 23 17 25
REMARK Flexibility Score: inf
ROOT
ATOM      1  C   UNL     1      27.904   5.701 -13.278  1.00  0.00     0.138 A 
ATOM      2  C   UNL     1      28.884   6.621 -13.676  1.00  0.00     0.100 A 
ATOM      3  C   UNL     1      29.753   6.297 -14.718  1.00  0.00     0.197 A 
ATOM      4  O   UNL     1      30.657   7.120 -15.014  1.00  0.00    -0.289 OA
ATOM      5  C   UNL     1      29.616   5.058 -15.389  1.00  0.00     0.107 A 
ATOM      6  C   UNL     1      30.423   4.634 -16.488  1.00  0.00     0.134 A 
ATOM      7  C   UNL     1      30.257   3.343 -17.007  1.00  0.00     0.093 A 
ATOM      8  C   UNL     1      29.279   2.485 -16.508  1.00  0.00     0.123 A 
ATOM      9  C   UNL     1      28.450   2.908 -15.468  1.00  0.00     0.094 A 
ATOM     10  C   UNL     1      28.613   4.176 -14.905  1.00  0.00     0.146 A 
ATOM     11  O   UNL     1      27.816   4.533 -13.903  1.00  0.00    -0.456 OA
ENDROOT
BRANCH   1  12
ATOM     12  C   UNL     1      26.952   5.995 -12.178  1.00  0.00     0.021 A 
ATOM     13  C   UNL     1      27.280   6.876 -11.128  1.00  0.00     0.016 A 
ATOM     14  C   UNL     1      26.367   7.125 -10.100  1.00  0.00     0.051 A 
ATOM     15  C   UNL     1      25.117   6.500 -10.097  1.00  0.00     0.157 A 
ATOM     16  C   UNL     1      25.698   5.359 -12.160  1.00  0.00     0.062 A 
ATOM     17  C   UNL     1      24.779   5.610 -11.129  1.00  0.00     0.158 A 
BRANCH  15  18
ATOM     18  O   UNL     1      24.227   6.770  -9.058  1.00  0.00    -0.504 OA
ATOM     19  H   UNL     1      24.324   6.348  -8.142  1.00  0.00     0.293 HD
ENDBRANCH  15  18
BRANCH  17  20
ATOM     20  O   UNL     1      23.536   4.979 -11.129  1.00  0.00    -0.504 OA
ATOM     21  H   UNL     1      22.859   5.141 -11.865  1.00  0.00     0.293 HD
ENDBRANCH  17  20
ENDBRANCH   1  12
BRANCH   6  22
ATOM     22  O   UNL     1      31.377   5.439 -17.117  1.00  0.00    -0.507 OA
ATOM     23  H   UNL     1      32.317   5.591 -16.785  1.00  0.00     0.293 HD
ENDBRANCH   6  22
BRANCH   8  24
ATOM     24  O   UNL     1      29.133   1.214 -17.060  1.00  0.00    -0.508 OA
ATOM     25  H   UNL     1      29.935   0.659 -17.334  1.00  0.00     0.293 HD
ENDBRANCH   8  24
TORSDOF 5
ENDMDL
MODEL 2
REMARK VINA RESULT:    -5.361      3.027      3.590
REMARK INTER + INTRA:          -6.610
REMARK INTER:                  -6.314
REMARK INTRA:                  -0.296
REMARK UNBOUND:                -0.309
REMARK SMILES O=c1cc(-c2ccc(O)c(O)c2)oc2cc(O)cc(O)c12
REMARK SMILES IDX 4 1 3 2 2 3 1 4 21 5 19 6 18 7 16 8 15 9 14 10 13 11 5 12
REMARK SMILES IDX 6 13 7 14 8 15 12 16 10 17 9 18 11 20 20 22 17 24
REMARK H PARENT 9 19 11 21 20 23 17 25
REMARK Flexibility Score: inf
ROOT
ATOM      1  C   UNL     1      27.458   3.812 -14.430  1.00  0.00     0.138 A 
ATOM      2  C   UNL     1      27.292   5.183 -14.666  1.00  0.00     0.100 A 
ATOM      3  C   UNL     1      28.262   5.883 -15.385  1.00  0.00     0.197 A 
ATOM      4  O   UNL     1      28.112   7.123 -15.531  1.00  0.00    -0.289 OA
ATOM      5  C   UNL     1      29.387   5.197 -15.900  1.00  0.00     0.107 A 
ATOM      6  C   UNL     1      30.424   5.799 -16.676  1.00  0.00     0.134 A 
ATOM      7  C   UNL     1      31.539   5.037 -17.047  1.00  0.00     0.093 A 
ATOM      8  C   UNL     1      31.629   3.684 -16.722  1.00  0.00     0.123 A 
ATOM      9  C   UNL     1      30.598   3.072 -16.008  1.00  0.00     0.094 A 
ATOM     10  C   UNL     1      29.489   3.813 -15.592  1.00  0.00     0.146 A 
ATOM     11  O   UNL     1      28.538   3.197 -14.898  1.00  0.00    -0.456 OA
ENDROOT
BRANCH   1  12
ATOM     12  C   UNL     1      26.455   3.018 -13.675  1.00  0.00     0.021 A 
ATOM     13  C   UNL     1      25.071   3.207 -13.856  1.00  0.00     0.016 A 
ATOM     14  C   UNL     1      24.152   2.452 -13.123  1.00  0.00     0.051 A 
ATOM     15  C   UNL     1      24.593   1.504 -12.197  1.00  0.00     0.157 A 
ATOM     16  C   UNL     1      26.892   2.072 -12.731  1.00  0.00     0.062 A 
ATOM     17  C   UNL     1      25.969   1.312 -11.996  1.00  0.00     0.158 A 
BRANCH  15  18
ATOM     18  O   UNL     1      23.650   0.765 -11.482  1.00  0.00    -0.504 OA
ATOM     19  H   UNL     1      23.907   0.182 -10.694  1.00  0.00     0.293 HD
ENDBRANCH  15  18
BRANCH  17  20
ATOM     20  O   UNL     1      26.415   0.371 -11.069  1.00  0.00    -0.504 OA
ATOM     21  H   UNL     1      26.851   0.650 -10.197  1.00  0.00     0.293 HD
ENDBRANCH  17  20
ENDBRANCH   1  12
BRANCH   6  22
ATOM     22  O   UNL     1      30.399   7.123 -17.124  1.00  0.00    -0.507 OA
ATOM     23  H   UNL     1      29.616   7.751 -17.031  1.00  0.00     0.293 HD
ENDBRANCH   6  22
BRANCH   8  24
ATOM     24  O   UNL     1      32.747   2.954 -17.121  1.00  0.00    -0.508 OA
ATOM     25  H   UNL     1      32.731   2.373 -17.951  1.00  0.00     0.293 HD
ENDBRANCH   8  24
TORSDOF 5
ENDMDL
MODEL 3
REMARK VINA RESULT:    -4.790      1.153      2.661
REMARK INTER + INTRA:          -5.938
REMARK INTER:                  -5.655
REMARK INTRA:                  -0.284
REMARK UNBOUND:                -0.309
REMARK SMILES O=c1cc(-c2ccc(O)c(O)c2)oc2cc(O)cc(O)c12
REMARK SMILES IDX 4 1 3 2 2 3 1 4 21 5 19 6 18 7 16 8 15 9 14 10 13 11 5 12
REMARK SMILES IDX 6 13 7 14 8 15 12 16 10 17 9 18 11 20 20 22 17 24
REMARK H PARENT 9 19 11 21 20 23 17 25
REMARK Flexibility Score: inf
ROOT
ATOM      1  C   UNL     1      27.863   5.161 -13.515  1.00  0.00     0.138 A 
ATOM      2  C   UNL     1      27.740   3.848 -13.988  1.00  0.00     0.100 A 
ATOM      3  C   UNL     1      28.569   3.403 -15.018  1.00  0.00     0.197 A 
ATOM      4  O   UNL     1      28.395   2.237 -15.458  1.00  0.00    -0.289 OA
ATOM      5  C   UNL     1      29.552   4.269 -15.553  1.00  0.00     0.107 A 
ATOM      6  C   UNL     1      30.477   3.915 -16.582  1.00  0.00     0.134 A 
ATOM      7  C   UNL     1      31.340   4.890 -17.099  1.00  0.00     0.093 A 
ATOM      8  C   UNL     1      31.353   6.186 -16.588  1.00  0.00     0.123 A 
ATOM      9  C   UNL     1      30.490   6.530 -15.547  1.00  0.00     0.094 A 
ATOM     10  C   UNL     1      29.592   5.591 -15.033  1.00  0.00     0.146 A 
ATOM     11  O   UNL     1      28.773   5.964 -14.055  1.00  0.00    -0.456 OA
ENDROOT
BRANCH   1  12
ATOM     12  C   UNL     1      27.009   5.685 -12.419  1.00  0.00     0.021 A 
ATOM     13  C   UNL     1      27.486   6.640 -11.500  1.00  0.00     0.016 A 
ATOM     14  C   UNL     1      26.662   7.106 -10.472  1.00  0.00     0.051 A 
ATOM     15  C   UNL     1      25.356   6.627 -10.339  1.00  0.00     0.157 A 
ATOM     16  C   UNL     1      25.699   5.197 -12.271  1.00  0.00     0.062 A 
ATOM     17  C   UNL     1      24.870   5.667 -11.240  1.00  0.00     0.158 A 
BRANCH  15  18
ATOM     18  O   UNL     1      24.558   7.114  -9.304  1.00  0.00    -0.504 OA
ATOM     19  H   UNL     1      24.927   7.290  -8.377  1.00  0.00     0.293 HD
ENDBRANCH  15  18
BRANCH  17  20
ATOM     20  O   UNL     1      23.570   5.181 -11.110  1.00  0.00    -0.504 OA
ATOM     21  H   UNL     1      23.040   5.306 -10.255  1.00  0.00     0.293 HD
ENDBRANCH  17  20
ENDBRANCH   1  12
BRANCH   6  22
ATOM     22  O   UNL     1      30.605   2.628 -17.112  1.00  0.00    -0.507 OA
ATOM     23  H   UNL     1      30.967   1.829 -16.614  1.00  0.00     0.293 HD
ENDBRANCH   6  22
BRANCH   8  24
ATOM     24  O   UNL     1      32.237   7.125 -17.116  1.00  0.00    -0.508 OA
ATOM     25  H   UNL     1      33.009   7.492 -16.573  1.00  0.00     0.293 HD
ENDBRANCH   8  24
TORSDOF 5
ENDMDL
MODEL 4
REMARK VINA RESULT:    -4.662      1.589      7.121
REMARK INTER + INTRA:          -5.789
REMARK INTER:                  -5.497
REMARK INTRA:                  -0.292
REMARK UNBOUND:                -0.309
REMARK SMILES O=c1cc(-c2ccc(O)c(O)c2)oc2cc(O)cc(O)c12
REMARK SMILES IDX 4 1 3 2 2 3 1 4 21 5 19 6 18 7 16 8 15 9 14 10 13 11 5 12
REMARK SMILES IDX 6 13 7 14 8 15 12 16 10 17 9 18 11 20 20 22 17 24
REMARK H PARENT 9 19 11 21 20 23 17 25
REMARK Flexibility Score: inf
ROOT
ATOM      1  C   UNL     1      27.595   4.969 -14.134  1.00  0.00     0.138 A 
ATOM      2  C   UNL     1      26.941   3.753 -14.373  1.00  0.00     0.100 A 
ATOM      3  C   UNL     1      25.804   3.423 -13.634  1.00  0.00     0.197 A 
ATOM      4  O   UNL     1      25.273   2.300 -13.832  1.00  0.00    -0.289 OA
ATOM      5  C   UNL     1      25.300   4.333 -12.675  1.00  0.00     0.107 A 
ATOM      6  C   UNL     1      24.129   4.120 -11.886  1.00  0.00     0.134 A 
ATOM      7  C   UNL     1      23.784   5.051 -10.897  1.00  0.00     0.093 A 
ATOM      8  C   UNL     1      24.531   6.213 -10.709  1.00  0.00     0.123 A 
ATOM      9  C   UNL     1      25.648   6.457 -11.509  1.00  0.00     0.094 A 
ATOM     10  C   UNL     1      26.039   5.531 -12.480  1.00  0.00     0.146 A 
ATOM     11  O   UNL     1      27.120   5.792 -13.207  1.00  0.00    -0.456 OA
ENDROOT
BRANCH   1  12
ATOM     12  C   UNL     1      28.806   5.371 -14.894  1.00  0.00     0.021 A 
ATOM     13  C   UNL     1      29.257   6.705 -14.918  1.00  0.00     0.016 A 
ATOM     14  C   UNL     1      30.394   7.056 -15.650  1.00  0.00     0.051 A 
ATOM     15  C   UNL     1      31.095   6.089 -16.374  1.00  0.00     0.157 A 
ATOM     16  C   UNL     1      29.509   4.405 -15.636  1.00  0.00     0.062 A 
ATOM     17  C   UNL     1      30.652   4.757 -16.370  1.00  0.00     0.158 A 
BRANCH  15  18
ATOM     18  O   UNL     1      32.228   6.471 -17.094  1.00  0.00    -0.504 OA
ATOM     19  H   UNL     1      33.113   6.664 -16.642  1.00  0.00     0.293 HD
ENDBRANCH  15  18
BRANCH  17  20
ATOM     20  O   UNL     1      31.345   3.788 -17.094  1.00  0.00    -0.504 OA
ATOM     21  H   UNL     1      31.132   2.801 -17.000  1.00  0.00     0.293 HD
ENDBRANCH  17  20
ENDBRANCH   1  12
BRANCH   6  22
ATOM     22  O   UNL     1      23.265   3.033 -12.043  1.00  0.00    -0.507 OA
ATOM     23  H   UNL     1      22.483   3.002 -12.680  1.00  0.00     0.293 HD
ENDBRANCH   6  22
BRANCH   8  24
ATOM     24  O   UNL     1      24.149   7.124  -9.727  1.00  0.00    -0.508 OA
ATOM     25  H   UNL     1      23.184   7.416  -9.621  1.00  0.00     0.293 HD
ENDBRANCH   8  24
TORSDOF 5
ENDMDL
MODEL 5
REMARK VINA RESULT:    -4.326      2.969      6.636
REMARK INTER + INTRA:          -5.394
REMARK INTER:                  -5.111
REMARK INTRA:                  -0.282
REMARK UNBOUND:                -0.309
REMARK SMILES O=c1cc(-c2ccc(O)c(O)c2)oc2cc(O)cc(O)c12
REMARK SMILES IDX 4 1 3 2 2 3 1 4 21 5 19 6 18 7 16 8 15 9 14 10 13 11 5 12
REMARK SMILES IDX 6 13 7 14 8 15 12 16 10 17 9 18 11 20 20 22 17 24
REMARK H PARENT 9 19 11 21 20 23 17 25
REMARK Flexibility Score: inf
ROOT
ATOM      1  C   UNL     1      28.300   4.558 -14.818  1.00  0.00     0.138 A 
ATOM      2  C   UNL     1      27.014   4.932 -15.231  1.00  0.00     0.100 A 
ATOM      3  C   UNL     1      25.899   4.326 -14.651  1.00  0.00     0.197 A 
ATOM      4  O   UNL     1      24.760   4.643 -15.082  1.00  0.00    -0.289 OA
ATOM      5  C   UNL     1      26.073   3.366 -13.626  1.00  0.00     0.107 A 
ATOM      6  C   UNL     1      25.010   2.707 -12.938  1.00  0.00     0.134 A 
ATOM      7  C   UNL     1      25.307   1.701 -12.009  1.00  0.00     0.093 A 
ATOM      8  C   UNL     1      26.626   1.371 -11.701  1.00  0.00     0.123 A 
ATOM      9  C   UNL     1      27.675   2.044 -12.330  1.00  0.00     0.094 A 
ATOM     10  C   UNL     1      27.411   3.028 -13.287  1.00  0.00     0.146 A 
ATOM     11  O   UNL     1      28.437   3.632 -13.876  1.00  0.00    -0.456 OA
ENDROOT
BRANCH   1  12
ATOM     12  C   UNL     1      29.521   5.172 -15.399  1.00  0.00     0.021 A 
ATOM     13  C   UNL     1      29.718   6.567 -15.404  1.00  0.00     0.016 A 
ATOM     14  C   UNL     1      30.873   7.117 -15.967  1.00  0.00     0.051 A 
ATOM     15  C   UNL     1      31.844   6.291 -16.538  1.00  0.00     0.157 A 
ATOM     16  C   UNL     1      30.496   4.348 -15.988  1.00  0.00     0.062 A 
ATOM     17  C   UNL     1      31.657   4.900 -16.552  1.00  0.00     0.158 A 
BRANCH  15  18
ATOM     18  O   UNL     1      32.986   6.870 -17.091  1.00  0.00    -0.504 OA
ATOM     19  H   UNL     1      33.907   6.736 -16.689  1.00  0.00     0.293 HD
ENDBRANCH  15  18
BRANCH  17  20
ATOM     20  O   UNL     1      32.620   4.070 -17.125  1.00  0.00    -0.504 OA
ATOM     21  H   UNL     1      32.541   3.060 -17.087  1.00  0.00     0.293 HD
ENDBRANCH  17  20
ENDBRANCH   1  12
BRANCH   6  22
ATOM     22  O   UNL     1      23.656   3.013 -13.110  1.00  0.00    -0.507 OA
ATOM     23  H   UNL     1      23.044   3.359 -12.387  1.00  0.00     0.293 HD
ENDBRANCH   6  22
BRANCH   8  24
ATOM     24  O   UNL     1      26.884   0.376 -10.761  1.00  0.00    -0.508 OA
ATOM     25  H   UNL     1      27.004   0.593  -9.778  1.00  0.00     0.293 HD
ENDBRANCH   8  24
TORSDOF 5
ENDMDL
MODEL 6
REMARK VINA RESULT:    -4.242      3.063      4.456
REMARK INTER + INTRA:          -5.295
REMARK INTER:                  -5.000
REMARK INTRA:                  -0.296
REMARK UNBOUND:                -0.309
REMARK SMILES O=c1cc(-c2ccc(O)c(O)c2)oc2cc(O)cc(O)c12
REMARK SMILES IDX 4 1 3 2 2 3 1 4 21 5 19 6 18 7 16 8 15 9 14 10 13 11 5 12
REMARK SMILES IDX 6 13 7 14 8 15 12 16 10 17 9 18 11 20 20 22 17 24
REMARK H PARENT 9 19 11 21 20 23 17 25
REMARK Flexibility Score: inf
ROOT
ATOM      1  C   UNL     1      27.162   4.032 -13.576  1.00  0.00     0.138 A 
ATOM      2  C   UNL     1      27.162   4.455 -14.912  1.00  0.00     0.100 A 
ATOM      3  C   UNL     1      28.140   5.347 -15.353  1.00  0.00     0.197 A 
ATOM      4  O   UNL     1      28.080   5.752 -16.543  1.00  0.00    -0.289 OA
ATOM      5  C   UNL     1      29.144   5.790 -14.460  1.00  0.00     0.107 A 
ATOM      6  C   UNL     1      30.211   6.673 -14.806  1.00  0.00     0.134 A 
ATOM      7  C   UNL     1      31.089   7.119 -13.810  1.00  0.00     0.093 A 
ATOM      8  C   UNL     1      30.974   6.671 -12.495  1.00  0.00     0.123 A 
ATOM      9  C   UNL     1      29.966   5.768 -12.155  1.00  0.00     0.094 A 
ATOM     10  C   UNL     1      29.053   5.331 -13.118  1.00  0.00     0.146 A 
ATOM     11  O   UNL     1      28.097   4.486 -12.749  1.00  0.00    -0.456 OA
ENDROOT
BRANCH   1  12
ATOM     12  C   UNL     1      26.148   3.082 -13.054  1.00  0.00     0.021 A 
ATOM     13  C   UNL     1      24.783   3.198 -13.382  1.00  0.00     0.016 A 
ATOM     14  C   UNL     1      23.850   2.295 -12.867  1.00  0.00     0.051 A 
ATOM     15  C   UNL     1      24.257   1.267 -12.013  1.00  0.00     0.157 A 
ATOM     16  C   UNL     1      26.548   2.053 -12.182  1.00  0.00     0.062 A 
ATOM     17  C   UNL     1      25.612   1.144 -11.666  1.00  0.00     0.158 A 
BRANCH  15  18
ATOM     18  O   UNL     1      23.302   0.380 -11.516  1.00  0.00    -0.504 OA
ATOM     19  H   UNL     1      22.840  -0.300 -12.108  1.00  0.00     0.293 HD
ENDBRANCH  15  18
BRANCH  17  20
ATOM     20  O   UNL     1      26.024   0.123 -10.811  1.00  0.00    -0.504 OA
ATOM     21  H   UNL     1      25.374  -0.574 -10.464  1.00  0.00     0.293 HD
ENDBRANCH  17  20
ENDBRANCH   1  12
BRANCH   6  22
ATOM     22  O   UNL     1      30.467   7.122 -16.106  1.00  0.00    -0.507 OA
ATOM     23  H   UNL     1      30.813   6.548 -16.859  1.00  0.00     0.293 HD
ENDBRANCH   6  22
BRANCH   8  24
ATOM     24  O   UNL     1      31.875   7.124 -11.533  1.00  0.00    -0.508 OA
ATOM     25  H   UNL     1      31.895   8.094 -11.240  1.00  0.00     0.293 HD
ENDBRANCH   8  24
TORSDOF 5
ENDMDL
MODEL 7
REMARK VINA RESULT:    -3.078      1.927      6.503
REMARK INTER + INTRA:          -3.927
REMARK INTER:                  -3.608
REMARK INTRA:                  -0.318
REMARK UNBOUND:                -0.309
REMARK SMILES O=c1cc(-c2ccc(O)c(O)c2)oc2cc(O)cc(O)c12
REMARK SMILES IDX 4 1 3 2 2 3 1 4 21 5 19 6 18 7 16 8 15 9 14 10 13 11 5 12
REMARK SMILES IDX 6 13 7 14 8 15 12 16 10 17 9 18 11 20 20 22 17 24
REMARK H PARENT 9 19 11 21 20 23 17 25
REMARK Flexibility Score: inf
ROOT
ATOM      1  C   UNL     1      27.875   5.454 -14.028  1.00  0.00     0.138 A 
ATOM      2  C   UNL     1      27.317   6.455 -13.221  1.00  0.00     0.100 A 
ATOM      3  C   UNL     1      26.158   6.188 -12.491  1.00  0.00     0.197 A 
ATOM      4  O   UNL     1      25.651   7.124 -11.821  1.00  0.00    -0.289 OA
ATOM      5  C   UNL     1      25.576   4.900 -12.541  1.00  0.00     0.107 A 
ATOM      6  C   UNL     1      24.414   4.501 -11.813  1.00  0.00     0.134 A 
ATOM      7  C   UNL     1      23.873   3.226 -12.021  1.00  0.00     0.093 A 
ATOM      8  C   UNL     1      24.483   2.316 -12.883  1.00  0.00     0.123 A 
ATOM      9  C   UNL     1      25.648   2.676 -13.561  1.00  0.00     0.094 A 
ATOM     10  C   UNL     1      26.193   3.953 -13.403  1.00  0.00     0.146 A 
ATOM     11  O   UNL     1      27.292   4.262 -14.082  1.00  0.00    -0.456 OA
ENDROOT
BRANCH   1  12
ATOM     12  C   UNL     1      29.108   5.683 -14.823  1.00  0.00     0.021 A 
ATOM     13  C   UNL     1      29.752   6.935 -14.849  1.00  0.00     0.016 A 
ATOM     14  C   UNL     1      30.905   7.123 -15.616  1.00  0.00     0.051 A 
ATOM     15  C   UNL     1      31.432   6.072 -16.370  1.00  0.00     0.157 A 
ATOM     16  C   UNL     1      29.636   4.633 -15.596  1.00  0.00     0.062 A 
ATOM     17  C   UNL     1      30.796   4.821 -16.364  1.00  0.00     0.158 A 
BRANCH  15  18
ATOM     18  O   UNL     1      32.585   6.291 -17.124  1.00  0.00    -0.504 OA
ATOM     19  H   UNL     1      33.275   6.986 -16.863  1.00  0.00     0.293 HD
ENDBRANCH  15  18
BRANCH  17  20
ATOM     20  O   UNL     1      31.314   3.770 -17.119  1.00  0.00    -0.504 OA
ATOM     21  H   UNL     1      32.290   3.502 -17.057  1.00  0.00     0.293 HD
ENDBRANCH  17  20
ENDBRANCH   1  12
BRANCH   6  22
ATOM     22  O   UNL     1      23.770   5.303 -10.866  1.00  0.00    -0.507 OA
ATOM     23  H   UNL     1      22.778   5.306 -10.688  1.00  0.00     0.293 HD
ENDBRANCH   6  22
BRANCH   8  24
ATOM     24  O   UNL     1      23.925   1.050 -13.052  1.00  0.00    -0.508 OA
ATOM     25  H   UNL     1      23.688   0.465 -12.260  1.00  0.00     0.293 HD
ENDBRANCH   8  24
TORSDOF 5
ENDMDL
