MODEL 1
REMARK VINA RESULT:    -2.955      0.000      0.000
REMARK INTER + INTRA:          -8.147
REMARK INTER:                  -5.373
REMARK INTRA:                  -2.774
REMARK UNBOUND:                -2.774
REMARK SMILES CCCCCCCCCCCCCC[C@@H](C)C(=O)[O-]
REMARK SMILES IDX 9 1 10 2 11 3 12 4 13 5 14 6 15 7 16 8 17 9 18 10 19 11 8 12
REMARK SMILES IDX 7 13 6 14 5 15 4 16 3 17 2 18 1 19
REMARK H PARENT
REMARK Flexibility Score: inf
ROOT
ATOM      1  C   UNL     1     -30.058  -0.759 -38.597  1.00  0.00     0.000 C 
ENDROOT
BRANCH   1   2
ATOM      2  C   UNL     1     -29.825  -0.547 -37.090  1.00  0.00     0.000 C 
BRANCH   2   3
ATOM      3  C   UNL     1     -28.945   0.663 -36.729  1.00  0.00     0.000 C 
BRANCH   3   4
ATOM      4  C   UNL     1     -29.744   1.826 -36.122  1.00  0.00     0.000 C 
BRANCH   4   5
ATOM      5  C   UNL     1     -28.912   3.115 -36.104  1.00  0.00     0.001 C 
BRANCH   5   6
ATOM      6  C   UNL     1     -27.418   2.805 -36.300  1.00  0.00     0.009 C 
BRANCH   6   7
ATOM      7  C   UNL     1     -26.521   4.056 -36.442  1.00  0.00     0.032 C 
ATOM      8  C   UNL     1     -27.224   5.212 -37.168  1.00  0.00     0.014 C 
BRANCH   7   9
ATOM      9  C   UNL     1     -25.952   4.488 -35.115  1.00  0.00     0.044 C 
ATOM     10  O   UNL     1     -24.791   4.145 -34.765  1.00  0.00    -0.550 OA
ATOM     11  O   UNL     1     -26.697   5.316 -34.285  1.00  0.00    -0.550 OA
ENDBRANCH   7   9
ENDBRANCH   6   7
ENDBRANCH   5   6
ENDBRANCH   4   5
ENDBRANCH   3   4
ENDBRANCH   2   3
ENDBRANCH   1   2
BRANCH   1  12
ATOM     12  C   UNL     1     -31.524  -0.548 -39.013  1.00  0.00     0.000 C 
BRANCH  12  13
ATOM     13  C   UNL     1     -32.417  -0.125 -37.835  1.00  0.00    -0.000 C 
BRANCH  13  14
ATOM     14  C   UNL     1     -33.191   1.171 -38.116  1.00  0.00    -0.000 C 
BRANCH  14  15
ATOM     15  C   UNL     1     -32.547   1.955 -39.271  1.00  0.00    -0.000 C 
BRANCH  15  16
ATOM     16  C   UNL     1     -32.220   3.409 -38.893  1.00  0.00    -0.000 C 
BRANCH  16  17
ATOM     17  C   UNL     1     -30.746   3.770 -39.149  1.00  0.00    -0.000 C 
BRANCH  17  18
ATOM     18  C   UNL     1     -30.026   2.724 -40.011  1.00  0.00    -0.003 C 
ATOM     19  C   UNL     1     -28.507   2.754 -39.838  1.00  0.00     0.004 C 
ENDBRANCH  17  18
ENDBRANCH  16  17
ENDBRANCH  15  16
ENDBRANCH  14  15
ENDBRANCH  13  14
ENDBRANCH  12  13
ENDBRANCH   1  12
TORSDOF 14
ENDMDL
MODEL 2
REMARK VINA RESULT:    -2.886      1.585      3.019
REMARK INTER + INTRA:          -8.021
REMARK INTER:                  -6.088
REMARK INTRA:                  -1.933
REMARK UNBOUND:                -2.774
REMARK SMILES CCCCCCCCCCCCCC[C@@H](C)C(=O)[O-]
REMARK SMILES IDX 9 1 10 2 11 3 12 4 13 5 14 6 15 7 16 8 17 9 18 10 19 11 8 12
REMARK SMILES IDX 7 13 6 14 5 15 4 16 3 17 2 18 1 19
REMARK H PARENT
REMARK Flexibility Score: inf
ROOT
ATOM      1  C   UNL     1     -29.940   2.592 -39.879  1.00  0.00     0.000 C 
ENDROOT
BRANCH   1   2
ATOM      2  C   UNL     1     -28.913   3.716 -39.646  1.00  0.00     0.000 C 
BRANCH   2   3
ATOM      3  C   UNL     1     -28.034   3.548 -38.394  1.00  0.00     0.000 C 
BRANCH   3   4
ATOM      4  C   UNL     1     -28.114   4.749 -37.440  1.00  0.00     0.000 C 
BRANCH   4   5
ATOM      5  C   UNL     1     -26.713   5.225 -37.036  1.00  0.00     0.001 C 
BRANCH   5   6
ATOM      6  C   UNL     1     -26.598   5.357 -35.508  1.00  0.00     0.009 C 
BRANCH   6   7
ATOM      7  C   UNL     1     -25.874   4.179 -34.818  1.00  0.00     0.032 C 
ATOM      8  C   UNL     1     -25.037   3.341 -35.796  1.00  0.00     0.014 C 
BRANCH   7   9
ATOM      9  C   UNL     1     -25.062   4.639 -33.634  1.00  0.00     0.044 C 
ATOM     10  O   UNL     1     -25.623   5.017 -32.571  1.00  0.00    -0.550 OA
ATOM     11  O   UNL     1     -23.675   4.601 -33.696  1.00  0.00    -0.550 OA
ENDBRANCH   7   9
ENDBRANCH   6   7
ENDBRANCH   5   6
ENDBRANCH   4   5
ENDBRANCH   3   4
ENDBRANCH   2   3
ENDBRANCH   1   2
BRANCH   1  12
ATOM     12  C   UNL     1     -29.853   1.472 -38.828  1.00  0.00     0.000 C 
BRANCH  12  13
ATOM     13  C   UNL     1     -30.843   0.328 -39.102  1.00  0.00    -0.000 C 
BRANCH  13  14
ATOM     14  C   UNL     1     -32.054   0.355 -38.157  1.00  0.00    -0.000 C 
BRANCH  14  15
ATOM     15  C   UNL     1     -33.142   1.301 -38.688  1.00  0.00    -0.000 C 
BRANCH  15  16
ATOM     16  C   UNL     1     -33.413   2.486 -37.746  1.00  0.00    -0.000 C 
BRANCH  16  17
ATOM     17  C   UNL     1     -32.966   3.831 -38.343  1.00  0.00    -0.000 C 
BRANCH  17  18
ATOM     18  C   UNL     1     -31.926   4.547 -37.468  1.00  0.00    -0.003 C 
ATOM     19  C   UNL     1     -31.483   3.710 -36.268  1.00  0.00     0.004 C 
ENDBRANCH  17  18
ENDBRANCH  16  17
ENDBRANCH  15  16
ENDBRANCH  14  15
ENDBRANCH  13  14
ENDBRANCH  12  13
ENDBRANCH   1  12
TORSDOF 14
ENDMDL
MODEL 3
REMARK VINA RESULT:    -2.874     10.294     12.633
REMARK INTER + INTRA:          -7.999
REMARK INTER:                  -5.684
REMARK INTRA:                  -2.315
REMARK UNBOUND:                -2.774
REMARK SMILES CCCCCCCCCCCCCC[C@@H](C)C(=O)[O-]
REMARK SMILES IDX 9 1 10 2 11 3 12 4 13 5 14 6 15 7 16 8 17 9 18 10 19 11 8 12
REMARK SMILES IDX 7 13 6 14 5 15 4 16 3 17 2 18 1 19
REMARK H PARENT
REMARK Flexibility Score: inf
ROOT
ATOM      1  C   UNL     1     -31.897  -3.308 -31.961  1.00  0.00     0.000 C 
ENDROOT
BRANCH   1   2
ATOM      2  C   UNL     1     -32.397  -4.233 -33.086  1.00  0.00     0.000 C 
BRANCH   2   3
ATOM      3  C   UNL     1     -33.884  -4.073 -33.451  1.00  0.00     0.000 C 
BRANCH   3   4
ATOM      4  C   UNL     1     -34.698  -5.356 -33.226  1.00  0.00     0.000 C 
BRANCH   4   5
ATOM      5  C   UNL     1     -34.866  -5.644 -31.729  1.00  0.00     0.001 C 
BRANCH   5   6
ATOM      6  C   UNL     1     -34.663  -7.141 -31.432  1.00  0.00     0.009 C 
BRANCH   6   7
ATOM      7  C   UNL     1     -33.187  -7.561 -31.247  1.00  0.00     0.032 C 
ATOM      8  C   UNL     1     -32.417  -6.624 -30.305  1.00  0.00     0.014 C 
BRANCH   7   9
ATOM      9  C   UNL     1     -33.066  -9.004 -30.828  1.00  0.00     0.044 C 
ATOM     10  O   UNL     1     -33.208  -9.935 -31.665  1.00  0.00    -0.550 OA
ATOM     11  O   UNL     1     -32.747  -9.312 -29.512  1.00  0.00    -0.550 OA
ENDBRANCH   7   9
ENDBRANCH   6   7
ENDBRANCH   5   6
ENDBRANCH   4   5
ENDBRANCH   3   4
ENDBRANCH   2   3
ENDBRANCH   1   2
BRANCH   1  12
ATOM     12  C   UNL     1     -32.990  -2.364 -31.431  1.00  0.00     0.000 C 
BRANCH  12  13
ATOM     13  C   UNL     1     -33.445  -2.729 -30.008  1.00  0.00    -0.000 C 
BRANCH  13  14
ATOM     14  C   UNL     1     -34.760  -2.042 -29.614  1.00  0.00    -0.000 C 
BRANCH  14  15
ATOM     15  C   UNL     1     -35.379  -2.712 -28.376  1.00  0.00    -0.000 C 
BRANCH  15  16
ATOM     16  C   UNL     1     -35.331  -4.248 -28.445  1.00  0.00    -0.000 C 
BRANCH  16  17
ATOM     17  C   UNL     1     -35.013  -4.891 -27.084  1.00  0.00    -0.000 C 
BRANCH  17  18
ATOM     18  C   UNL     1     -33.618  -5.532 -27.048  1.00  0.00    -0.003 C 
ATOM     19  C   UNL     1     -32.504  -4.516 -26.792  1.00  0.00     0.004 C 
ENDBRANCH  17  18
ENDBRANCH  16  17
ENDBRANCH  15  16
ENDBRANCH  14  15
ENDBRANCH  13  14
ENDBRANCH  12  13
ENDBRANCH   1  12
TORSDOF 14
ENDMDL
MODEL 4
REMARK VINA RESULT:    -2.841      1.029      3.330
REMARK INTER + INTRA:          -7.940
REMARK INTER:                  -5.969
REMARK INTRA:                  -1.971
REMARK UNBOUND:                -2.774
REMARK SMILES CCCCCCCCCCCCCC[C@@H](C)C(=O)[O-]
REMARK SMILES IDX 9 1 10 2 11 3 12 4 13 5 14 6 15 7 16 8 17 9 18 10 19 11 8 12
REMARK SMILES IDX 7 13 6 14 5 15 4 16 3 17 2 18 1 19
REMARK H PARENT
REMARK Flexibility Score: inf
ROOT
ATOM      1  C   UNL     1     -31.569   3.172 -39.746  1.00  0.00     0.000 C 
ENDROOT
BRANCH   1   2
ATOM      2  C   UNL     1     -30.103   3.570 -39.494  1.00  0.00     0.000 C 
BRANCH   2   3
ATOM      3  C   UNL     1     -29.793   5.067 -39.677  1.00  0.00     0.000 C 
BRANCH   3   4
ATOM      4  C   UNL     1     -28.862   5.623 -38.589  1.00  0.00     0.000 C 
BRANCH   4   5
ATOM      5  C   UNL     1     -28.219   4.488 -37.782  1.00  0.00     0.001 C 
BRANCH   5   6
ATOM      6  C   UNL     1     -26.886   4.942 -37.162  1.00  0.00     0.009 C 
BRANCH   6   7
ATOM      7  C   UNL     1     -26.280   3.944 -36.150  1.00  0.00     0.032 C 
ATOM      8  C   UNL     1     -25.001   3.272 -36.671  1.00  0.00     0.014 C 
BRANCH   7   9
ATOM      9  C   UNL     1     -26.071   4.578 -34.798  1.00  0.00     0.044 C 
ATOM     10  O   UNL     1     -26.757   5.572 -34.436  1.00  0.00    -0.550 OA
ATOM     11  O   UNL     1     -25.146   4.031 -33.919  1.00  0.00    -0.550 OA
ENDBRANCH   7   9
ENDBRANCH   6   7
ENDBRANCH   5   6
ENDBRANCH   4   5
ENDBRANCH   3   4
ENDBRANCH   2   3
ENDBRANCH   1   2
BRANCH   1  12
ATOM     12  C   UNL     1     -32.258   2.597 -38.497  1.00  0.00     0.000 C 
BRANCH  12  13
ATOM     13  C   UNL     1     -33.080   1.334 -38.805  1.00  0.00    -0.000 C 
BRANCH  13  14
ATOM     14  C   UNL     1     -32.557   0.093 -38.067  1.00  0.00    -0.000 C 
BRANCH  14  15
ATOM     15  C   UNL     1     -31.561  -0.685 -38.942  1.00  0.00    -0.000 C 
BRANCH  15  16
ATOM     16  C   UNL     1     -30.176  -0.822 -38.288  1.00  0.00    -0.000 C 
BRANCH  16  17
ATOM     17  C   UNL     1     -30.104  -0.147 -36.907  1.00  0.00    -0.000 C 
BRANCH  17  18
ATOM     18  C   UNL     1     -29.126   1.037 -36.882  1.00  0.00    -0.003 C 
ATOM     19  C   UNL     1     -27.935   0.845 -37.820  1.00  0.00     0.004 C 
ENDBRANCH  17  18
ENDBRANCH  16  17
ENDBRANCH  15  16
ENDBRANCH  14  15
ENDBRANCH  13  14
ENDBRANCH  12  13
ENDBRANCH   1  12
TORSDOF 14
ENDMDL
MODEL 5
REMARK VINA RESULT:    -2.807      3.362      5.395
REMARK INTER + INTRA:          -7.879
REMARK INTER:                  -5.283
REMARK INTRA:                  -2.595
REMARK UNBOUND:                -2.774
REMARK SMILES CCCCCCCCCCCCCC[C@@H](C)C(=O)[O-]
REMARK SMILES IDX 9 1 10 2 11 3 12 4 13 5 14 6 15 7 16 8 17 9 18 10 19 11 8 12
REMARK SMILES IDX 7 13 6 14 5 15 4 16 3 17 2 18 1 19
REMARK H PARENT
REMARK Flexibility Score: inf
ROOT
ATOM      1  C   UNL     1     -30.866   0.178 -37.075  1.00  0.00     0.000 C 
ENDROOT
BRANCH   1   2
ATOM      2  C   UNL     1     -31.874  -0.233 -38.164  1.00  0.00     0.000 C 
BRANCH   2   3
ATOM      3  C   UNL     1     -32.829   0.883 -38.625  1.00  0.00     0.000 C 
BRANCH   3   4
ATOM      4  C   UNL     1     -32.103   2.045 -39.318  1.00  0.00     0.000 C 
BRANCH   4   5
ATOM      5  C   UNL     1     -32.718   3.393 -38.920  1.00  0.00     0.001 C 
BRANCH   5   6
ATOM      6  C   UNL     1     -33.580   3.249 -37.654  1.00  0.00     0.009 C 
BRANCH   6   7
ATOM      7  C   UNL     1     -33.348   4.351 -36.595  1.00  0.00     0.032 C 
ATOM      8  C   UNL     1     -32.471   5.500 -37.116  1.00  0.00     0.014 C 
BRANCH   7   9
ATOM      9  C   UNL     1     -34.646   4.852 -36.017  1.00  0.00     0.044 C 
ATOM     10  O   UNL     1     -34.662   5.792 -35.178  1.00  0.00    -0.550 OA
ATOM     11  O   UNL     1     -35.847   4.305 -36.450  1.00  0.00    -0.550 OA
ENDBRANCH   7   9
ENDBRANCH   6   7
ENDBRANCH   5   6
ENDBRANCH   4   5
ENDBRANCH   3   4
ENDBRANCH   2   3
ENDBRANCH   1   2
BRANCH   1  12
ATOM     12  C   UNL     1     -31.537   0.823 -35.850  1.00  0.00     0.000 C 
BRANCH  12  13
ATOM     13  C   UNL     1     -30.725   1.999 -35.283  1.00  0.00    -0.000 C 
BRANCH  13  14
ATOM     14  C   UNL     1     -29.438   2.266 -36.077  1.00  0.00    -0.000 C 
BRANCH  14  15
ATOM     15  C   UNL     1     -29.446   3.683 -36.673  1.00  0.00    -0.000 C 
BRANCH  15  16
ATOM     16  C   UNL     1     -28.297   3.917 -37.667  1.00  0.00    -0.000 C 
BRANCH  16  17
ATOM     17  C   UNL     1     -28.764   3.869 -39.133  1.00  0.00    -0.000 C 
BRANCH  17  18
ATOM     18  C   UNL     1     -29.628   5.080 -39.515  1.00  0.00    -0.003 C 
ATOM     19  C   UNL     1     -29.119   6.388 -38.907  1.00  0.00     0.004 C 
ENDBRANCH  17  18
ENDBRANCH  16  17
ENDBRANCH  15  16
ENDBRANCH  14  15
ENDBRANCH  13  14
ENDBRANCH  12  13
ENDBRANCH   1  12
TORSDOF 14
ENDMDL
MODEL 6
REMARK VINA RESULT:    -2.792      1.456      3.418
REMARK INTER + INTRA:          -7.850
REMARK INTER:                  -6.104
REMARK INTRA:                  -1.747
REMARK UNBOUND:                -2.774
REMARK SMILES CCCCCCCCCCCCCC[C@@H](C)C(=O)[O-]
REMARK SMILES IDX 9 1 10 2 11 3 12 4 13 5 14 6 15 7 16 8 17 9 18 10 19 11 8 12
REMARK SMILES IDX 7 13 6 14 5 15 4 16 3 17 2 18 1 19
REMARK H PARENT
REMARK Flexibility Score: inf
ROOT
ATOM      1  C   UNL     1     -30.572   3.734 -36.876  1.00  0.00     0.000 C 
ENDROOT
BRANCH   1   2
ATOM      2  C   UNL     1     -29.866   4.296 -38.123  1.00  0.00     0.000 C 
BRANCH   2   3
ATOM      3  C   UNL     1     -28.362   3.984 -38.218  1.00  0.00     0.000 C 
BRANCH   3   4
ATOM      4  C   UNL     1     -27.669   3.949 -36.847  1.00  0.00     0.000 C 
BRANCH   4   5
ATOM      5  C   UNL     1     -26.609   5.052 -36.738  1.00  0.00     0.001 C 
BRANCH   5   6
ATOM      6  C   UNL     1     -26.456   5.522 -35.281  1.00  0.00     0.009 C 
BRANCH   6   7
ATOM      7  C   UNL     1     -25.807   4.482 -34.339  1.00  0.00     0.032 C 
ATOM      8  C   UNL     1     -24.538   3.854 -34.933  1.00  0.00     0.014 C 
BRANCH   7   9
ATOM      9  C   UNL     1     -25.564   5.050 -32.964  1.00  0.00     0.044 C 
ATOM     10  O   UNL     1     -26.412   4.903 -32.044  1.00  0.00    -0.550 OA
ATOM     11  O   UNL     1     -24.369   5.703 -32.693  1.00  0.00    -0.550 OA
ENDBRANCH   7   9
ENDBRANCH   6   7
ENDBRANCH   5   6
ENDBRANCH   4   5
ENDBRANCH   3   4
ENDBRANCH   2   3
ENDBRANCH   1   2
BRANCH   1  12
ATOM     12  C   UNL     1     -31.970   3.168 -37.180  1.00  0.00     0.000 C 
BRANCH  12  13
ATOM     13  C   UNL     1     -32.390   3.389 -38.643  1.00  0.00    -0.000 C 
BRANCH  13  14
ATOM     14  C   UNL     1     -32.735   2.077 -39.364  1.00  0.00    -0.000 C 
BRANCH  14  15
ATOM     15  C   UNL     1     -33.092   0.975 -38.353  1.00  0.00    -0.000 C 
BRANCH  15  16
ATOM     16  C   UNL     1     -32.317  -0.330 -38.598  1.00  0.00    -0.000 C 
BRANCH  16  17
ATOM     17  C   UNL     1     -30.809  -0.096 -38.791  1.00  0.00    -0.000 C 
BRANCH  17  18
ATOM     18  C   UNL     1     -30.041  -0.082 -37.461  1.00  0.00    -0.003 C 
ATOM     19  C   UNL     1     -28.585   0.354 -37.620  1.00  0.00     0.004 C 
ENDBRANCH  17  18
ENDBRANCH  16  17
ENDBRANCH  15  16
ENDBRANCH  14  15
ENDBRANCH  13  14
ENDBRANCH  12  13
ENDBRANCH   1  12
TORSDOF 14
ENDMDL
MODEL 7
REMARK VINA RESULT:    -2.790      3.016      6.093
REMARK INTER + INTRA:          -7.847
REMARK INTER:                  -5.672
REMARK INTRA:                  -2.175
REMARK UNBOUND:                -2.774
REMARK SMILES CCCCCCCCCCCCCC[C@@H](C)C(=O)[O-]
REMARK SMILES IDX 9 1 10 2 11 3 12 4 13 5 14 6 15 7 16 8 17 9 18 10 19 11 8 12
REMARK SMILES IDX 7 13 6 14 5 15 4 16 3 17 2 18 1 19
REMARK H PARENT
REMARK Flexibility Score: inf
ROOT
ATOM      1  C   UNL     1     -30.897   3.855 -37.838  1.00  0.00     0.000 C 
ENDROOT
BRANCH   1   2
ATOM      2  C   UNL     1     -32.381   3.542 -38.103  1.00  0.00     0.000 C 
BRANCH   2   3
ATOM      3  C   UNL     1     -32.643   2.540 -39.242  1.00  0.00     0.000 C 
BRANCH   3   4
ATOM      4  C   UNL     1     -33.024   1.141 -38.733  1.00  0.00     0.000 C 
BRANCH   4   5
ATOM      5  C   UNL     1     -31.794   0.396 -38.200  1.00  0.00     0.001 C 
BRANCH   5   6
ATOM      6  C   UNL     1     -31.531  -0.882 -39.016  1.00  0.00     0.009 C 
BRANCH   6   7
ATOM      7  C   UNL     1     -30.146  -0.930 -39.700  1.00  0.00     0.032 C 
ATOM      8  C   UNL     1     -29.514   0.461 -39.859  1.00  0.00     0.014 C 
BRANCH   7   9
ATOM      9  C   UNL     1     -29.216  -1.894 -39.009  1.00  0.00     0.044 C 
ATOM     10  O   UNL     1     -29.005  -1.814 -37.769  1.00  0.00    -0.550 OA
ATOM     11  O   UNL     1     -28.619  -2.914 -39.738  1.00  0.00    -0.550 OA
ENDBRANCH   7   9
ENDBRANCH   6   7
ENDBRANCH   5   6
ENDBRANCH   4   5
ENDBRANCH   3   4
ENDBRANCH   2   3
ENDBRANCH   1   2
BRANCH   1  12
ATOM     12  C   UNL     1     -30.079   4.025 -39.130  1.00  0.00     0.000 C 
BRANCH  12  13
ATOM     13  C   UNL     1     -28.563   3.992 -38.877  1.00  0.00    -0.000 C 
BRANCH  13  14
ATOM     14  C   UNL     1     -28.110   5.046 -37.856  1.00  0.00    -0.000 C 
BRANCH  14  15
ATOM     15  C   UNL     1     -26.894   4.550 -37.058  1.00  0.00    -0.000 C 
BRANCH  15  16
ATOM     16  C   UNL     1     -27.111   4.620 -35.537  1.00  0.00    -0.000 C 
BRANCH  16  17
ATOM     17  C   UNL     1     -28.092   3.548 -35.030  1.00  0.00    -0.000 C 
BRANCH  17  18
ATOM     18  C   UNL     1     -27.703   2.133 -35.483  1.00  0.00    -0.003 C 
ATOM     19  C   UNL     1     -28.867   1.370 -36.115  1.00  0.00     0.004 C 
ENDBRANCH  17  18
ENDBRANCH  16  17
ENDBRANCH  15  16
ENDBRANCH  14  15
ENDBRANCH  13  14
ENDBRANCH  12  13
ENDBRANCH   1  12
TORSDOF 14
ENDMDL
MODEL 8
REMARK VINA RESULT:    -2.777      2.752      4.954
REMARK INTER + INTRA:          -7.824
REMARK INTER:                  -5.030
REMARK INTRA:                  -2.794
REMARK UNBOUND:                -2.774
REMARK SMILES CCCCCCCCCCCCCC[C@@H](C)C(=O)[O-]
REMARK SMILES IDX 9 1 10 2 11 3 12 4 13 5 14 6 15 7 16 8 17 9 18 10 19 11 8 12
REMARK SMILES IDX 7 13 6 14 5 15 4 16 3 17 2 18 1 19
REMARK H PARENT
REMARK Flexibility Score: inf
ROOT
ATOM      1  C   UNL     1     -30.441  -0.769 -37.779  1.00  0.00     0.000 C 
ENDROOT
BRANCH   1   2
ATOM      2  C   UNL     1     -31.533  -0.506 -38.833  1.00  0.00     0.000 C 
BRANCH   2   3
ATOM      3  C   UNL     1     -32.858   0.046 -38.277  1.00  0.00     0.000 C 
BRANCH   3   4
ATOM      4  C   UNL     1     -33.121   1.502 -38.690  1.00  0.00     0.000 C 
BRANCH   4   5
ATOM      5  C   UNL     1     -32.324   2.475 -37.813  1.00  0.00     0.001 C 
BRANCH   5   6
ATOM      6  C   UNL     1     -31.395   3.351 -38.671  1.00  0.00     0.009 C 
BRANCH   6   7
ATOM      7  C   UNL     1     -31.166   4.775 -38.113  1.00  0.00     0.032 C 
ATOM      8  C   UNL     1     -30.142   5.575 -38.930  1.00  0.00     0.014 C 
BRANCH   7   9
ATOM      9  C   UNL     1     -32.464   5.525 -37.948  1.00  0.00     0.044 C 
ATOM     10  O   UNL     1     -32.759   6.075 -36.854  1.00  0.00    -0.550 OA
ATOM     11  O   UNL     1     -33.325   5.653 -39.030  1.00  0.00    -0.550 OA
ENDBRANCH   7   9
ENDBRANCH   6   7
ENDBRANCH   5   6
ENDBRANCH   4   5
ENDBRANCH   3   4
ENDBRANCH   2   3
ENDBRANCH   1   2
BRANCH   1  12
ATOM     12  C   UNL     1     -29.056  -0.258 -38.209  1.00  0.00     0.000 C 
BRANCH  12  13
ATOM     13  C   UNL     1     -29.115   0.615 -39.474  1.00  0.00    -0.000 C 
BRANCH  13  14
ATOM     14  C   UNL     1     -28.242   1.874 -39.365  1.00  0.00    -0.000 C 
BRANCH  14  15
ATOM     15  C   UNL     1     -27.687   2.034 -37.941  1.00  0.00    -0.000 C 
BRANCH  15  16
ATOM     16  C   UNL     1     -27.517   3.506 -37.531  1.00  0.00    -0.000 C 
BRANCH  16  17
ATOM     17  C   UNL     1     -28.135   3.813 -36.156  1.00  0.00    -0.000 C 
BRANCH  17  18
ATOM     18  C   UNL     1     -29.161   2.755 -35.723  1.00  0.00    -0.003 C 
ATOM     19  C   UNL     1     -30.248   3.320 -34.808  1.00  0.00     0.004 C 
ENDBRANCH  17  18
ENDBRANCH  16  17
ENDBRANCH  15  16
ENDBRANCH  14  15
ENDBRANCH  13  14
ENDBRANCH  12  13
ENDBRANCH   1  12
TORSDOF 14
ENDMDL
MODEL 9
REMARK VINA RESULT:    -2.775      1.688      3.223
REMARK INTER + INTRA:          -7.820
REMARK INTER:                  -5.498
REMARK INTRA:                  -2.323
REMARK UNBOUND:                -2.774
REMARK SMILES CCCCCCCCCCCCCC[C@@H](C)C(=O)[O-]
REMARK SMILES IDX 9 1 10 2 11 3 12 4 13 5 14 6 15 7 16 8 17 9 18 10 19 11 8 12
REMARK SMILES IDX 7 13 6 14 5 15 4 16 3 17 2 18 1 19
REMARK H PARENT
REMARK Flexibility Score: inf
ROOT
ATOM      1  C   UNL     1     -32.431   2.399 -38.349  1.00  0.00     0.000 C 
ENDROOT
BRANCH   1   2
ATOM      2  C   UNL     1     -31.990   2.875 -39.745  1.00  0.00     0.000 C 
BRANCH   2   3
ATOM      3  C   UNL     1     -30.542   3.392 -39.831  1.00  0.00     0.000 C 
BRANCH   3   4
ATOM      4  C   UNL     1     -29.875   3.538 -38.455  1.00  0.00     0.000 C 
BRANCH   4   5
ATOM      5  C   UNL     1     -28.348   3.588 -38.587  1.00  0.00     0.001 C 
BRANCH   5   6
ATOM      6  C   UNL     1     -27.670   3.165 -37.272  1.00  0.00     0.009 C 
BRANCH   6   7
ATOM      7  C   UNL     1     -26.401   3.974 -36.919  1.00  0.00     0.032 C 
ATOM      8  C   UNL     1     -26.709   5.228 -36.087  1.00  0.00     0.014 C 
BRANCH   7   9
ATOM      9  C   UNL     1     -25.352   3.110 -36.267  1.00  0.00     0.044 C 
ATOM     10  O   UNL     1     -24.133   3.240 -36.559  1.00  0.00    -0.550 OA
ATOM     11  O   UNL     1     -25.726   2.190 -35.296  1.00  0.00    -0.550 OA
ENDBRANCH   7   9
ENDBRANCH   6   7
ENDBRANCH   5   6
ENDBRANCH   4   5
ENDBRANCH   3   4
ENDBRANCH   2   3
ENDBRANCH   1   2
BRANCH   1  12
ATOM     12  C   UNL     1     -33.204   1.069 -38.385  1.00  0.00     0.000 C 
BRANCH  12  13
ATOM     13  C   UNL     1     -32.278  -0.146 -38.562  1.00  0.00    -0.000 C 
BRANCH  13  14
ATOM     14  C   UNL     1     -31.048  -0.092 -37.644  1.00  0.00    -0.000 C 
BRANCH  14  15
ATOM     15  C   UNL     1     -29.815  -0.683 -38.346  1.00  0.00    -0.000 C 
BRANCH  15  16
ATOM     16  C   UNL     1     -29.645  -0.168 -39.785  1.00  0.00    -0.000 C 
BRANCH  16  17
ATOM     17  C   UNL     1     -28.189   0.204 -40.113  1.00  0.00    -0.000 C 
BRANCH  17  18
ATOM     18  C   UNL     1     -27.179  -0.521 -39.210  1.00  0.00    -0.003 C 
ATOM     19  C   UNL     1     -25.968   0.344 -38.859  1.00  0.00     0.004 C 
ENDBRANCH  17  18
ENDBRANCH  16  17
ENDBRANCH  15  16
ENDBRANCH  14  15
ENDBRANCH  13  14
ENDBRANCH  12  13
ENDBRANCH   1  12
TORSDOF 14
ENDMDL
