MODEL 1
REMARK VINA RESULT:     1.049      0.000      0.000
REMARK INTER + INTRA:           1.013
REMARK INTER:                   1.601
REMARK INTRA:                  -0.588
REMARK UNBOUND:                -0.588
REMARK SMILES O=C([O-])CCCCCCCCC(=O)[O-]
REMARK SMILES IDX 7 1 6 2 5 3 4 4 2 5 1 6 3 7 8 8 9 9 10 10 11 11 12 12 13 13
REMARK SMILES IDX 14 14
REMARK H PARENT
REMARK Flexibility Score: inf
ROOT
ATOM      1  C   UNL     1     104.650 105.633 104.955  1.00  0.00     0.000 C 
ENDROOT
BRANCH   1   2
ATOM      2  C   UNL     1     104.435 106.231 106.354  1.00  0.00     0.000 C 
BRANCH   2   3
ATOM      3  C   UNL     1     104.351 105.154 107.450  1.00  0.00     0.006 C 
BRANCH   3   4
ATOM      4  C   UNL     1     104.541 103.740 106.887  1.00  0.00     0.053 C 
BRANCH   4   5
ATOM      5  C   UNL     1     103.398 102.842 107.250  1.00  0.00     0.041 C 
ATOM      6  O   UNL     1     102.229 103.303 107.331  1.00  0.00    -0.550 OA
ATOM      7  O   UNL     1     103.630 101.500 107.530  1.00  0.00    -0.550 OA
ENDBRANCH   4   5
ENDBRANCH   3   4
ENDBRANCH   2   3
ENDBRANCH   1   2
BRANCH   1   8
ATOM      8  C   UNL     1     104.668 106.706 103.852  1.00  0.00     0.000 C 
BRANCH   8   9
ATOM      9  C   UNL     1     104.274 106.146 102.475  1.00  0.00     0.000 C 
BRANCH   9  10
ATOM     10  C   UNL     1     104.721 104.686 102.283  1.00  0.00     0.006 C 
BRANCH  10  11
ATOM     11  C   UNL     1     103.551 103.768 101.902  1.00  0.00     0.053 C 
BRANCH  11  12
ATOM     12  C   UNL     1     103.559 102.496 102.694  1.00  0.00     0.041 C 
ATOM     13  O   UNL     1     103.220 102.504 103.906  1.00  0.00    -0.550 OA
ATOM     14  O   UNL     1     103.969 101.310 102.102  1.00  0.00    -0.550 OA
ENDBRANCH  11  12
ENDBRANCH  10  11
ENDBRANCH   9  10
ENDBRANCH   8   9
ENDBRANCH   1   8
TORSDOF 9
ENDMDL
MODEL 2
REMARK VINA RESULT:     1.050      2.416      3.727
REMARK INTER + INTRA:           1.015
REMARK INTER:                   1.612
REMARK INTRA:                  -0.597
REMARK UNBOUND:                -0.588
REMARK SMILES O=C([O-])CCCCCCCCC(=O)[O-]
REMARK SMILES IDX 7 1 6 2 5 3 4 4 2 5 1 6 3 7 8 8 9 9 10 10 11 11 12 12 13 13
REMARK SMILES IDX 14 14
REMARK H PARENT
REMARK Flexibility Score: inf
ROOT
ATOM      1  C   UNL     1     103.301 102.636 104.985  1.00  0.00     0.000 C 
ENDROOT
BRANCH   1   2
ATOM      2  C   UNL     1     103.429 102.031 106.392  1.00  0.00     0.000 C 
BRANCH   2   3
ATOM      3  C   UNL     1     103.668 103.098 107.475  1.00  0.00     0.006 C 
BRANCH   3   4
ATOM      4  C   UNL     1     103.426 104.519 106.950  1.00  0.00     0.053 C 
BRANCH   4   5
ATOM      5  C   UNL     1     104.579 105.425 107.254  1.00  0.00     0.041 C 
ATOM      6  O   UNL     1     105.751 104.966 107.308  1.00  0.00    -0.550 OA
ATOM      7  O   UNL     1     104.355 106.773 107.511  1.00  0.00    -0.550 OA
ENDBRANCH   4   5
ENDBRANCH   3   4
ENDBRANCH   2   3
ENDBRANCH   1   2
BRANCH   1   8
ATOM      8  C   UNL     1     103.338 101.569 103.877  1.00  0.00     0.000 C 
BRANCH   8   9
ATOM      9  C   UNL     1     103.721 102.150 102.507  1.00  0.00     0.000 C 
BRANCH   9  10
ATOM     10  C   UNL     1     103.288 103.617 102.347  1.00  0.00     0.006 C 
BRANCH  10  11
ATOM     11  C   UNL     1     104.457 104.526 101.944  1.00  0.00     0.053 C 
BRANCH  11  12
ATOM     12  C   UNL     1     104.423 105.836 102.672  1.00  0.00     0.041 C 
ATOM     13  O   UNL     1     104.697 105.884 103.900  1.00  0.00    -0.550 OA
ATOM     14  O   UNL     1     104.060 106.995 102.001  1.00  0.00    -0.550 OA
ENDBRANCH  11  12
ENDBRANCH  10  11
ENDBRANCH   9  10
ENDBRANCH   8   9
ENDBRANCH   1   8
TORSDOF 9
ENDMDL
MODEL 3
REMARK VINA RESULT:     1.098      2.380      5.623
REMARK INTER + INTRA:           1.088
REMARK INTER:                   1.687
REMARK INTRA:                  -0.599
REMARK UNBOUND:                -0.588
REMARK SMILES O=C([O-])CCCCCCCCC(=O)[O-]
REMARK SMILES IDX 7 1 6 2 5 3 4 4 2 5 1 6 3 7 8 8 9 9 10 10 11 11 12 12 13 13
REMARK SMILES IDX 14 14
REMARK H PARENT
REMARK Flexibility Score: inf
ROOT
ATOM      1  C   UNL     1     103.315 101.507 103.868  1.00  0.00     0.000 C 
ENDROOT
BRANCH   1   2
ATOM      2  C   UNL     1     103.731 102.102 102.513  1.00  0.00     0.000 C 
BRANCH   2   3
ATOM      3  C   UNL     1     103.281 103.564 102.346  1.00  0.00     0.006 C 
BRANCH   3   4
ATOM      4  C   UNL     1     104.437 104.481 101.930  1.00  0.00     0.053 C 
BRANCH   4   5
ATOM      5  C   UNL     1     104.428 105.767 102.698  1.00  0.00     0.041 C 
ATOM      6  O   UNL     1     104.681 105.772 103.931  1.00  0.00    -0.550 OA
ATOM      7  O   UNL     1     104.107 106.957 102.056  1.00  0.00    -0.550 OA
ENDBRANCH   4   5
ENDBRANCH   3   4
ENDBRANCH   2   3
ENDBRANCH   1   2
BRANCH   1   8
ATOM      8  C   UNL     1     103.285 102.560 104.990  1.00  0.00     0.000 C 
BRANCH   8   9
ATOM      9  C   UNL     1     103.644 101.971 106.364  1.00  0.00     0.000 C 
BRANCH   9  10
ATOM     10  C   UNL     1     103.582 103.019 107.488  1.00  0.00     0.006 C 
BRANCH  10  11
ATOM     11  C   UNL     1     103.369 104.439 106.945  1.00  0.00     0.053 C 
BRANCH  11  12
ATOM     12  C   UNL     1     104.530 105.335 107.252  1.00  0.00     0.041 C 
ATOM     13  O   UNL     1     105.689 104.855 107.354  1.00  0.00    -0.550 OA
ATOM     14  O   UNL     1     104.327 106.693 107.454  1.00  0.00    -0.550 OA
ENDBRANCH  11  12
ENDBRANCH  10  11
ENDBRANCH   9  10
ENDBRANCH   8   9
ENDBRANCH   1   8
TORSDOF 9
ENDMDL
MODEL 4
REMARK VINA RESULT:     1.130      3.141      6.413
REMARK INTER + INTRA:           1.137
REMARK INTER:                   1.719
REMARK INTRA:                  -0.582
REMARK UNBOUND:                -0.588
REMARK SMILES O=C([O-])CCCCCCCCC(=O)[O-]
REMARK SMILES IDX 7 1 6 2 5 3 4 4 2 5 1 6 3 7 8 8 9 9 10 10 11 11 12 12 13 13
REMARK SMILES IDX 14 14
REMARK H PARENT
REMARK Flexibility Score: inf
ROOT
ATOM      1  C   UNL     1     104.653 106.788  99.172  1.00  0.00     0.000 C 
ENDROOT
BRANCH   1   2
ATOM      2  C   UNL     1     104.336 106.201  97.788  1.00  0.00     0.000 C 
BRANCH   2   3
ATOM      3  C   UNL     1     104.734 104.719  97.671  1.00  0.00     0.006 C 
BRANCH   3   4
ATOM      4  C   UNL     1     103.548 103.832  97.271  1.00  0.00     0.053 C 
BRANCH   4   5
ATOM      5  C   UNL     1     103.573 102.517  97.989  1.00  0.00     0.041 C 
ATOM      6  O   UNL     1     103.241 102.450  99.202  1.00  0.00    -0.550 OA
ATOM      7  O   UNL     1     103.995 101.371  97.326  1.00  0.00    -0.550 OA
ENDBRANCH   4   5
ENDBRANCH   3   4
ENDBRANCH   2   3
ENDBRANCH   1   2
BRANCH   1   8
ATOM      8  C   UNL     1     104.677 105.717 100.277  1.00  0.00     0.000 C 
BRANCH   8   9
ATOM      9  C   UNL     1     104.506 106.314 101.684  1.00  0.00     0.000 C 
BRANCH   9  10
ATOM     10  C   UNL     1     104.221 105.240 102.748  1.00  0.00     0.006 C 
BRANCH  10  11
ATOM     11  C   UNL     1     104.545 103.826 102.246  1.00  0.00     0.053 C 
BRANCH  11  12
ATOM     12  C   UNL     1     103.427 102.867 102.522  1.00  0.00     0.041 C 
ATOM     13  O   UNL     1     102.242 103.283 102.605  1.00  0.00    -0.550 OA
ATOM     14  O   UNL     1     103.699 101.519 102.716  1.00  0.00    -0.550 OA
ENDBRANCH  11  12
ENDBRANCH  10  11
ENDBRANCH   9  10
ENDBRANCH   8   9
ENDBRANCH   1   8
TORSDOF 9
ENDMDL
MODEL 5
REMARK VINA RESULT:     1.146      0.111      4.447
REMARK INTER + INTRA:           1.160
REMARK INTER:                   1.748
REMARK INTRA:                  -0.587
REMARK UNBOUND:                -0.588
REMARK SMILES O=C([O-])CCCCCCCCC(=O)[O-]
REMARK SMILES IDX 7 1 6 2 5 3 4 4 2 5 1 6 3 7 8 8 9 9 10 10 11 11 12 12 13 13
REMARK SMILES IDX 14 14
REMARK H PARENT
REMARK Flexibility Score: inf
ROOT
ATOM      1  C   UNL     1     104.689 106.744 103.897  1.00  0.00     0.000 C 
ENDROOT
BRANCH   1   2
ATOM      2  C   UNL     1     104.327 106.221 102.499  1.00  0.00     0.000 C 
BRANCH   2   3
ATOM      3  C   UNL     1     104.753 104.757 102.286  1.00  0.00     0.006 C 
BRANCH   3   4
ATOM      4  C   UNL     1     103.574 103.865 101.878  1.00  0.00     0.053 C 
BRANCH   4   5
ATOM      5  C   UNL     1     103.562 102.578 102.644  1.00  0.00     0.041 C 
ATOM      6  O   UNL     1     103.225 102.565 103.857  1.00  0.00    -0.550 OA
ATOM      7  O   UNL     1     103.955 101.397 102.025  1.00  0.00    -0.550 OA
ENDBRANCH   4   5
ENDBRANCH   3   4
ENDBRANCH   2   3
ENDBRANCH   1   2
BRANCH   1   8
ATOM      8  C   UNL     1     104.565 105.660 104.983  1.00  0.00     0.000 C 
BRANCH   8   9
ATOM      9  C   UNL     1     104.584 106.242 106.406  1.00  0.00     0.000 C 
BRANCH   9  10
ATOM     10  C   UNL     1     104.217 105.198 107.475  1.00  0.00     0.006 C 
BRANCH  10  11
ATOM     11  C   UNL     1     104.570 103.771 107.035  1.00  0.00     0.053 C 
BRANCH  11  12
ATOM     12  C   UNL     1     103.438 102.818 107.270  1.00  0.00     0.041 C 
ATOM     13  O   UNL     1     103.669 101.595 107.457  1.00  0.00    -0.550 OA
ATOM     14  O   UNL     1     102.127 103.276 107.250  1.00  0.00    -0.550 OA
ENDBRANCH  11  12
ENDBRANCH  10  11
ENDBRANCH   9  10
ENDBRANCH   8   9
ENDBRANCH   1   8
TORSDOF 9
ENDMDL
MODEL 6
REMARK VINA RESULT:     1.156      3.943      6.007
REMARK INTER + INTRA:           1.176
REMARK INTER:                   1.771
REMARK INTRA:                  -0.595
REMARK UNBOUND:                -0.588
REMARK SMILES O=C([O-])CCCCCCCCC(=O)[O-]
REMARK SMILES IDX 7 1 6 2 5 3 4 4 2 5 1 6 3 7 8 8 9 9 10 10 11 11 12 12 13 13
REMARK SMILES IDX 14 14
REMARK H PARENT
REMARK Flexibility Score: inf
ROOT
ATOM      1  C   UNL     1     103.273 102.496 100.254  1.00  0.00     0.000 C 
ENDROOT
BRANCH   1   2
ATOM      2  C   UNL     1     103.571 101.889 101.634  1.00  0.00     0.000 C 
BRANCH   2   3
ATOM      3  C   UNL     1     103.622 102.951 102.748  1.00  0.00     0.006 C 
BRANCH   3   4
ATOM      4  C   UNL     1     103.360 104.364 102.212  1.00  0.00     0.053 C 
BRANCH   4   5
ATOM      5  C   UNL     1     104.506 105.286 102.500  1.00  0.00     0.041 C 
ATOM      6  O   UNL     1     105.672 104.828 102.625  1.00  0.00    -0.550 OA
ATOM      7  O   UNL     1     104.278 106.647 102.662  1.00  0.00    -0.550 OA
ENDBRANCH   4   5
ENDBRANCH   3   4
ENDBRANCH   2   3
ENDBRANCH   1   2
BRANCH   1   8
ATOM      8  C   UNL     1     103.368 101.459  99.121  1.00  0.00     0.000 C 
BRANCH   8   9
ATOM      9  C   UNL     1     103.667 102.100  97.756  1.00  0.00     0.000 C 
BRANCH   9  10
ATOM     10  C   UNL     1     103.263 103.584  97.700  1.00  0.00     0.006 C 
BRANCH  10  11
ATOM     11  C   UNL     1     104.435 104.487  97.292  1.00  0.00     0.053 C 
BRANCH  11  12
ATOM     12  C   UNL     1     104.392 105.809  97.996  1.00  0.00     0.041 C 
ATOM     13  O   UNL     1     104.705 105.888  99.213  1.00  0.00    -0.550 OA
ATOM     14  O   UNL     1     103.978 106.947  97.317  1.00  0.00    -0.550 OA
ENDBRANCH  11  12
ENDBRANCH  10  11
ENDBRANCH   9  10
ENDBRANCH   8   9
ENDBRANCH   1   8
TORSDOF 9
ENDMDL
MODEL 7
REMARK VINA RESULT:     1.178      3.183      4.740
REMARK INTER + INTRA:           1.209
REMARK INTER:                   1.767
REMARK INTRA:                  -0.558
REMARK UNBOUND:                -0.588
REMARK SMILES O=C([O-])CCCCCCCCC(=O)[O-]
REMARK SMILES IDX 7 1 6 2 5 3 4 4 2 5 1 6 3 7 8 8 9 9 10 10 11 11 12 12 13 13
REMARK SMILES IDX 14 14
REMARK H PARENT
REMARK Flexibility Score: inf
ROOT
ATOM      1  C   UNL     1     104.662 105.632 109.650  1.00  0.00     0.000 C 
ENDROOT
BRANCH   1   2
ATOM      2  C   UNL     1     104.611 106.242 111.059  1.00  0.00     0.000 C 
BRANCH   2   3
ATOM      3  C   UNL     1     104.320 105.194 112.147  1.00  0.00     0.006 C 
BRANCH   3   4
ATOM      4  C   UNL     1     104.516 103.761 111.637  1.00  0.00     0.053 C 
BRANCH   4   5
ATOM      5  C   UNL     1     103.364 102.878 112.007  1.00  0.00     0.041 C 
ATOM      6  O   UNL     1     102.197 103.349 112.066  1.00  0.00    -0.550 OA
ATOM      7  O   UNL     1     103.584 101.542 112.320  1.00  0.00    -0.550 OA
ENDBRANCH   4   5
ENDBRANCH   3   4
ENDBRANCH   2   3
ENDBRANCH   1   2
BRANCH   1   8
ATOM      8  C   UNL     1     104.683 106.702 108.544  1.00  0.00     0.000 C 
BRANCH   8   9
ATOM      9  C   UNL     1     104.297 106.138 107.167  1.00  0.00     0.000 C 
BRANCH   9  10
ATOM     10  C   UNL     1     104.665 104.652 107.014  1.00  0.00     0.006 C 
BRANCH  10  11
ATOM     11  C   UNL     1     103.432 103.774 106.761  1.00  0.00     0.053 C 
BRANCH  11  12
ATOM     12  C   UNL     1     103.528 102.458 107.470  1.00  0.00     0.041 C 
ATOM     13  O   UNL     1     103.232 102.374 108.691  1.00  0.00    -0.550 OA
ATOM     14  O   UNL     1     103.974 101.332 106.791  1.00  0.00    -0.550 OA
ENDBRANCH  11  12
ENDBRANCH  10  11
ENDBRANCH   9  10
ENDBRANCH   8   9
ENDBRANCH   1   8
TORSDOF 9
ENDMDL
MODEL 8
REMARK VINA RESULT:     1.183      4.029      6.010
REMARK INTER + INTRA:           1.218
REMARK INTER:                   1.799
REMARK INTRA:                  -0.581
REMARK UNBOUND:                -0.588
REMARK SMILES O=C([O-])CCCCCCCCC(=O)[O-]
REMARK SMILES IDX 7 1 6 2 5 3 4 4 2 5 1 6 3 7 8 8 9 9 10 10 11 11 12 12 13 13
REMARK SMILES IDX 14 14
REMARK H PARENT
REMARK Flexibility Score: inf
ROOT
ATOM      1  C   UNL     1     103.267 102.568 109.627  1.00  0.00     0.000 C 
ENDROOT
BRANCH   1   2
ATOM      2  C   UNL     1     103.525 101.937 111.004  1.00  0.00     0.000 C 
BRANCH   2   3
ATOM      3  C   UNL     1     103.601 102.985 112.129  1.00  0.00     0.006 C 
BRANCH   3   4
ATOM      4  C   UNL     1     103.407 104.413 111.603  1.00  0.00     0.053 C 
BRANCH   4   5
ATOM      5  C   UNL     1     104.556 105.300 111.973  1.00  0.00     0.041 C 
ATOM      6  O   UNL     1     105.719 104.827 112.065  1.00  0.00    -0.550 OA
ATOM      7  O   UNL     1     104.335 106.644 112.250  1.00  0.00    -0.550 OA
ENDBRANCH   4   5
ENDBRANCH   3   4
ENDBRANCH   2   3
ENDBRANCH   1   2
BRANCH   1   8
ATOM      8  C   UNL     1     103.295 101.532 108.489  1.00  0.00     0.000 C 
BRANCH   8   9
ATOM      9  C   UNL     1     103.689 102.148 107.136  1.00  0.00     0.000 C 
BRANCH   9  10
ATOM     10  C   UNL     1     103.325 103.640 107.040  1.00  0.00     0.006 C 
BRANCH  10  11
ATOM     11  C   UNL     1     104.553 104.518 106.765  1.00  0.00     0.053 C 
BRANCH  11  12
ATOM     12  C   UNL     1     104.465 105.837 107.471  1.00  0.00     0.041 C 
ATOM     13  O   UNL     1     104.745 105.918 108.696  1.00  0.00    -0.550 OA
ATOM     14  O   UNL     1     104.046 106.968 106.784  1.00  0.00    -0.550 OA
ENDBRANCH  11  12
ENDBRANCH  10  11
ENDBRANCH   9  10
ENDBRANCH   8   9
ENDBRANCH   1   8
TORSDOF 9
ENDMDL
MODEL 9
REMARK VINA RESULT:     1.200      4.014      7.349
REMARK INTER + INTRA:           1.243
REMARK INTER:                   1.840
REMARK INTRA:                  -0.597
REMARK UNBOUND:                -0.588
REMARK SMILES O=C([O-])CCCCCCCCC(=O)[O-]
REMARK SMILES IDX 7 1 6 2 5 3 4 4 2 5 1 6 3 7 8 8 9 9 10 10 11 11 12 12 13 13
REMARK SMILES IDX 14 14
REMARK H PARENT
REMARK Flexibility Score: inf
ROOT
ATOM      1  C   UNL     1     103.286 101.550 108.509  1.00  0.00     0.000 C 
ENDROOT
BRANCH   1   2
ATOM      2  C   UNL     1     103.646 102.166 107.148  1.00  0.00     0.000 C 
BRANCH   2   3
ATOM      3  C   UNL     1     103.297 103.662 107.064  1.00  0.00     0.006 C 
BRANCH   3   4
ATOM      4  C   UNL     1     104.522 104.524 106.734  1.00  0.00     0.053 C 
BRANCH   4   5
ATOM      5  C   UNL     1     104.473 105.847 107.435  1.00  0.00     0.041 C 
ATOM      6  O   UNL     1     104.715 105.921 108.669  1.00  0.00    -0.550 OA
ATOM      7  O   UNL     1     104.127 106.994 106.731  1.00  0.00    -0.550 OA
ENDBRANCH   4   5
ENDBRANCH   3   4
ENDBRANCH   2   3
ENDBRANCH   1   2
BRANCH   1   8
ATOM      8  C   UNL     1     103.254 102.595 109.639  1.00  0.00     0.000 C 
BRANCH   8   9
ATOM      9  C   UNL     1     103.489 101.974 111.026  1.00  0.00     0.000 C 
BRANCH   9  10
ATOM     10  C   UNL     1     103.544 103.030 112.143  1.00  0.00     0.006 C 
BRANCH  10  11
ATOM     11  C   UNL     1     103.414 104.459 111.596  1.00  0.00     0.053 C 
BRANCH  11  12
ATOM     12  C   UNL     1     104.569 105.320 112.006  1.00  0.00     0.041 C 
ATOM     13  O   UNL     1     105.725 104.828 112.097  1.00  0.00    -0.550 OA
ATOM     14  O   UNL     1     104.364 106.657 112.317  1.00  0.00    -0.550 OA
ENDBRANCH  11  12
ENDBRANCH  10  11
ENDBRANCH   9  10
ENDBRANCH   8   9
ENDBRANCH   1   8
TORSDOF 9
ENDMDL
