MODEL 1
REMARK VINA RESULT:    -5.394      0.000      0.000
REMARK INTER + INTRA:          -7.230
REMARK INTER:                  -6.655
REMARK INTRA:                  -0.575
REMARK UNBOUND:                -0.575
REMARK SMILES CCCCC=CC(C)=O
REMARK SMILES IDX 4 1 3 2 2 3 1 4 5 5 6 6 7 7 9 8 8 9
REMARK H PARENT
REMARK Flexibility Score: inf
ROOT
ATOM      1  C   UNL     1     108.202  47.769  65.564  1.00  0.00     0.027 C 
ENDROOT
BRANCH   1   2
ATOM      2  C   UNL     1     106.777  48.343  65.545  1.00  0.00     0.004 C 
BRANCH   2   3
ATOM      3  C   UNL     1     106.725  49.652  64.749  1.00  0.00    -0.003 C 
ATOM      4  C   UNL     1     108.068  50.375  64.790  1.00  0.00     0.004 C 
ENDBRANCH   2   3
ENDBRANCH   1   2
BRANCH   1   5
ATOM      5  C   UNL     1     108.285  46.473  64.803  1.00  0.00    -0.023 C 
ATOM      6  C   UNL     1     108.529  46.344  63.489  1.00  0.00     0.042 C 
BRANCH   6   7
ATOM      7  C   UNL     1     108.677  47.443  62.512  1.00  0.00     0.152 C 
ATOM      8  O   UNL     1     109.741  48.115  62.521  1.00  0.00    -0.295 OA
ATOM      9  C   UNL     1     107.644  47.747  61.470  1.00  0.00     0.093 C 
ENDBRANCH   6   7
ENDBRANCH   1   5
TORSDOF 4
ENDMDL
MODEL 2
REMARK VINA RESULT:    -5.224      8.621     10.854
REMARK INTER + INTRA:          -7.021
REMARK INTER:                  -6.833
REMARK INTRA:                  -0.188
REMARK UNBOUND:                -0.575
REMARK SMILES CCCCC=CC(C)=O
REMARK SMILES IDX 4 1 3 2 2 3 1 4 5 5 6 6 7 7 9 8 8 9
REMARK H PARENT
REMARK Flexibility Score: inf
ROOT
ATOM      1  C   UNL     1     102.736  47.865  53.166  1.00  0.00     0.027 C 
ENDROOT
BRANCH   1   2
ATOM      2  C   UNL     1     104.195  48.242  53.460  1.00  0.00     0.004 C 
BRANCH   2   3
ATOM      3  C   UNL     1     104.290  49.666  54.022  1.00  0.00    -0.003 C 
ATOM      4  C   UNL     1     105.725  50.182  53.973  1.00  0.00     0.004 C 
ENDBRANCH   2   3
ENDBRANCH   1   2
BRANCH   1   5
ATOM      5  C   UNL     1     102.302  46.669  53.972  1.00  0.00    -0.023 C 
ATOM      6  C   UNL     1     102.122  46.638  55.302  1.00  0.00     0.042 C 
BRANCH   6   7
ATOM      7  C   UNL     1     102.396  47.737  56.251  1.00  0.00     0.152 C 
ATOM      8  O   UNL     1     101.615  48.724  56.268  1.00  0.00    -0.295 OA
ATOM      9  C   UNL     1     103.523  47.696  57.237  1.00  0.00     0.093 C 
ENDBRANCH   6   7
ENDBRANCH   1   5
TORSDOF 4
ENDMDL
MODEL 3
REMARK VINA RESULT:    -5.005      1.715      3.602
REMARK INTER + INTRA:          -6.750
REMARK INTER:                  -6.303
REMARK INTRA:                  -0.448
REMARK UNBOUND:                -0.575
REMARK SMILES CCCCC=CC(C)=O
REMARK SMILES IDX 4 1 3 2 2 3 1 4 5 5 6 6 7 7 9 8 8 9
REMARK H PARENT
REMARK Flexibility Score: inf
ROOT
ATOM      1  C   UNL     1     108.647  49.829  63.916  1.00  0.00     0.027 C 
ENDROOT
BRANCH   1   2
ATOM      2  C   UNL     1     109.278  48.972  62.809  1.00  0.00     0.004 C 
BRANCH   2   3
ATOM      3  C   UNL     1     108.315  48.813  61.626  1.00  0.00    -0.003 C 
ATOM      4  C   UNL     1     108.000  47.343  61.367  1.00  0.00     0.004 C 
ENDBRANCH   2   3
ENDBRANCH   1   2
BRANCH   1   5
ATOM      5  C   UNL     1     107.289  49.310  64.310  1.00  0.00    -0.023 C 
ATOM      6  C   UNL     1     107.046  48.225  65.062  1.00  0.00     0.042 C 
BRANCH   6   7
ATOM      7  C   UNL     1     108.053  47.274  65.580  1.00  0.00     0.152 C 
ATOM      8  O   UNL     1     108.609  47.529  66.679  1.00  0.00    -0.295 OA
ATOM      9  C   UNL     1     108.388  45.989  64.885  1.00  0.00     0.093 C 
ENDBRANCH   6   7
ENDBRANCH   1   5
TORSDOF 4
ENDMDL
MODEL 4
REMARK VINA RESULT:    -4.993      8.513     10.332
REMARK INTER + INTRA:          -6.736
REMARK INTER:                  -6.252
REMARK INTRA:                  -0.484
REMARK UNBOUND:                -0.575
REMARK SMILES CCCCC=CC(C)=O
REMARK SMILES IDX 4 1 3 2 2 3 1 4 5 5 6 6 7 7 9 8 8 9
REMARK H PARENT
REMARK Flexibility Score: inf
ROOT
ATOM      1  C   UNL     1     103.164  49.928  55.290  1.00  0.00     0.027 C 
ENDROOT
BRANCH   1   2
ATOM      2  C   UNL     1     102.472  49.383  56.547  1.00  0.00     0.004 C 
BRANCH   2   3
ATOM      3  C   UNL     1     103.503  48.973  57.605  1.00  0.00    -0.003 C 
ATOM      4  C   UNL     1     103.342  47.505  57.990  1.00  0.00     0.004 C 
ENDBRANCH   2   3
ENDBRANCH   1   2
BRANCH   1   5
ATOM      5  C   UNL     1     104.258  49.007  54.818  1.00  0.00    -0.023 C 
ATOM      6  C   UNL     1     104.095  47.913  54.059  1.00  0.00     0.042 C 
BRANCH   6   7
ATOM      7  C   UNL     1     102.808  47.342  53.608  1.00  0.00     0.152 C 
ATOM      8  O   UNL     1     102.363  47.683  52.481  1.00  0.00    -0.295 OA
ATOM      9  C   UNL     1     102.048  46.326  54.404  1.00  0.00     0.093 C 
ENDBRANCH   6   7
ENDBRANCH   1   5
TORSDOF 4
ENDMDL
MODEL 5
REMARK VINA RESULT:    -4.916      8.548     10.573
REMARK INTER + INTRA:          -6.641
REMARK INTER:                  -6.239
REMARK INTRA:                  -0.402
REMARK UNBOUND:                -0.575
REMARK SMILES CCCCC=CC(C)=O
REMARK SMILES IDX 4 1 3 2 2 3 1 4 5 5 6 6 7 7 9 8 8 9
REMARK H PARENT
REMARK Flexibility Score: inf
ROOT
ATOM      1  C   UNL     1     104.000  49.128  54.029  1.00  0.00     0.027 C 
ENDROOT
BRANCH   1   2
ATOM      2  C   UNL     1     103.838  48.041  52.956  1.00  0.00     0.004 C 
BRANCH   2   3
ATOM      3  C   UNL     1     102.404  47.497  52.941  1.00  0.00    -0.003 C 
ATOM      4  C   UNL     1     102.173  46.522  54.091  1.00  0.00     0.004 C 
ENDBRANCH   2   3
ENDBRANCH   1   2
BRANCH   1   5
ATOM      5  C   UNL     1     104.997  48.720  55.081  1.00  0.00    -0.023 C 
ATOM      6  C   UNL     1     104.719  48.430  56.361  1.00  0.00     0.042 C 
BRANCH   6   7
ATOM      7  C   UNL     1     103.398  48.537  57.018  1.00  0.00     0.152 C 
ATOM      8  O   UNL     1     102.819  47.478  57.375  1.00  0.00    -0.295 OA
ATOM      9  C   UNL     1     102.753  49.851  57.335  1.00  0.00     0.093 C 
ENDBRANCH   6   7
ENDBRANCH   1   5
TORSDOF 4
ENDMDL
MODEL 6
REMARK VINA RESULT:    -4.894      1.171      2.427
REMARK INTER + INTRA:          -6.614
REMARK INTER:                  -6.197
REMARK INTRA:                  -0.418
REMARK UNBOUND:                -0.575
REMARK SMILES CCCCC=CC(C)=O
REMARK SMILES IDX 4 1 3 2 2 3 1 4 5 5 6 6 7 7 9 8 8 9
REMARK H PARENT
REMARK Flexibility Score: inf
ROOT
ATOM      1  C   UNL     1     107.680  49.762  64.368  1.00  0.00     0.027 C 
ENDROOT
BRANCH   1   2
ATOM      2  C   UNL     1     107.760  48.922  65.650  1.00  0.00     0.004 C 
BRANCH   2   3
ATOM      3  C   UNL     1     107.324  47.476  65.385  1.00  0.00    -0.003 C 
ATOM      4  C   UNL     1     108.475  46.502  65.617  1.00  0.00     0.004 C 
ENDBRANCH   2   3
ENDBRANCH   1   2
BRANCH   1   5
ATOM      5  C   UNL     1     108.999  49.792  63.643  1.00  0.00    -0.023 C 
ATOM      6  C   UNL     1     109.358  48.994  62.625  1.00  0.00     0.042 C 
BRANCH   6   7
ATOM      7  C   UNL     1     108.571  47.872  62.070  1.00  0.00     0.152 C 
ATOM      8  O   UNL     1     108.941  46.696  62.323  1.00  0.00    -0.295 OA
ATOM      9  C   UNL     1     107.315  48.076  61.279  1.00  0.00     0.093 C 
ENDBRANCH   6   7
ENDBRANCH   1   5
TORSDOF 4
ENDMDL
MODEL 7
REMARK VINA RESULT:    -4.873      1.639      2.186
REMARK INTER + INTRA:          -6.588
REMARK INTER:                  -6.208
REMARK INTRA:                  -0.380
REMARK UNBOUND:                -0.575
REMARK SMILES CCCCC=CC(C)=O
REMARK SMILES IDX 4 1 3 2 2 3 1 4 5 5 6 6 7 7 9 8 8 9
REMARK H PARENT
REMARK Flexibility Score: inf
ROOT
ATOM      1  C   UNL     1     106.580  48.280  65.353  1.00  0.00     0.027 C 
ENDROOT
BRANCH   1   2
ATOM      2  C   UNL     1     106.789  49.425  64.352  1.00  0.00     0.004 C 
BRANCH   2   3
ATOM      3  C   UNL     1     107.440  50.635  65.033  1.00  0.00    -0.003 C 
ATOM      4  C   UNL     1     108.809  50.935  64.431  1.00  0.00     0.004 C 
ENDBRANCH   2   3
ENDBRANCH   1   2
BRANCH   1   5
ATOM      5  C   UNL     1     107.873  47.881  66.014  1.00  0.00    -0.023 C 
ATOM      6  C   UNL     1     108.743  46.968  65.558  1.00  0.00     0.042 C 
BRANCH   6   7
ATOM      7  C   UNL     1     108.569  46.109  64.367  1.00  0.00     0.152 C 
ATOM      8  O   UNL     1     108.210  44.914  64.536  1.00  0.00    -0.295 OA
ATOM      9  C   UNL     1     108.736  46.618  62.968  1.00  0.00     0.093 C 
ENDBRANCH   6   7
ENDBRANCH   1   5
TORSDOF 4
ENDMDL
MODEL 8
REMARK VINA RESULT:    -4.801     10.308     11.148
REMARK INTER + INTRA:          -6.500
REMARK INTER:                  -6.291
REMARK INTRA:                  -0.209
REMARK UNBOUND:                -0.575
REMARK SMILES CCCCC=CC(C)=O
REMARK SMILES IDX 4 1 3 2 2 3 1 4 5 5 6 6 7 7 9 8 8 9
REMARK H PARENT
REMARK Flexibility Score: inf
ROOT
ATOM      1  C   UNL     1     104.597  48.211  54.166  1.00  0.00     0.027 C 
ENDROOT
BRANCH   1   2
ATOM      2  C   UNL     1     104.826  49.708  54.423  1.00  0.00     0.004 C 
BRANCH   2   3
ATOM      3  C   UNL     1     103.500  50.422  54.711  1.00  0.00    -0.003 C 
ATOM      4  C   UNL     1     103.501  51.836  54.140  1.00  0.00     0.004 C 
ENDBRANCH   2   3
ENDBRANCH   1   2
BRANCH   1   5
ATOM      5  C   UNL     1     103.450  47.982  53.217  1.00  0.00    -0.023 C 
ATOM      6  C   UNL     1     102.326  47.303  53.490  1.00  0.00     0.042 C 
BRANCH   6   7
ATOM      7  C   UNL     1     102.023  46.571  54.738  1.00  0.00     0.152 C 
ATOM      8  O   UNL     1     101.825  45.330  54.673  1.00  0.00    -0.295 OA
ATOM      9  C   UNL     1     102.010  47.231  56.083  1.00  0.00     0.093 C 
ENDBRANCH   6   7
ENDBRANCH   1   5
TORSDOF 4
ENDMDL
MODEL 9
REMARK VINA RESULT:    -4.685      1.226      3.629
REMARK INTER + INTRA:          -6.356
REMARK INTER:                  -6.134
REMARK INTRA:                  -0.222
REMARK UNBOUND:                -0.575
REMARK SMILES CCCCC=CC(C)=O
REMARK SMILES IDX 4 1 3 2 2 3 1 4 5 5 6 6 7 7 9 8 8 9
REMARK H PARENT
REMARK Flexibility Score: inf
ROOT
ATOM      1  C   UNL     1     108.024  48.094  65.863  1.00  0.00     0.027 C 
ENDROOT
BRANCH   1   2
ATOM      2  C   UNL     1     107.730  46.711  65.263  1.00  0.00     0.004 C 
BRANCH   2   3
ATOM      3  C   UNL     1     108.795  46.325  64.230  1.00  0.00    -0.003 C 
ATOM      4  C   UNL     1     108.468  46.906  62.858  1.00  0.00     0.004 C 
ENDBRANCH   2   3
ENDBRANCH   1   2
BRANCH   1   5
ATOM      5  C   UNL     1     106.950  49.089  65.509  1.00  0.00    -0.023 C 
ATOM      6  C   UNL     1     107.136  50.259  64.878  1.00  0.00     0.042 C 
BRANCH   6   7
ATOM      7  C   UNL     1     108.434  50.846  64.483  1.00  0.00     0.152 C 
ATOM      8  O   UNL     1     109.186  50.182  63.723  1.00  0.00    -0.295 OA
ATOM      9  C   UNL     1     108.860  52.222  64.892  1.00  0.00     0.093 C 
ENDBRANCH   6   7
ENDBRANCH   1   5
TORSDOF 4
ENDMDL
