MODEL 1
REMARK VINA RESULT:    -3.727      0.000      0.000
REMARK INTER + INTRA:          -5.232
REMARK INTER:                  -4.926
REMARK INTRA:                  -0.306
REMARK UNBOUND:                -0.306
REMARK SMILES C=C[C@H](O)CCCCC
REMARK SMILES IDX 6 1 7 2 8 3 9 4 5 5 3 6 2 7 1 8 4 9
REMARK H PARENT 4 10
REMARK Flexibility Score: inf
ROOT
ATOM      1  C   UNL     1     179.605 179.587 184.956  1.00  0.00     0.003 C 
ENDROOT
BRANCH   1   2
ATOM      2  C   UNL     1     180.763 178.589 185.114  1.00  0.00    -0.000 C 
BRANCH   2   3
ATOM      3  C   UNL     1     181.301 178.088 183.767  1.00  0.00    -0.003 C 
ATOM      4  C   UNL     1     181.149 176.574 183.641  1.00  0.00     0.004 C 
ENDBRANCH   2   3
ENDBRANCH   1   2
BRANCH   1   5
ATOM      5  C   UNL     1     179.238 179.838 183.483  1.00  0.00     0.036 C 
BRANCH   5   6
ATOM      6  C   UNL     1     179.275 181.339 183.138  1.00  0.00     0.136 C 
BRANCH   6   7
ATOM      7  C   UNL     1     179.371 182.182 184.388  1.00  0.00    -0.004 C 
ATOM      8  C   UNL     1     178.839 183.407 184.438  1.00  0.00     0.007 C 
ENDBRANCH   6   7
BRANCH   6   9
ATOM      9  O   UNL     1     178.147 181.709 182.383  1.00  0.00    -0.389 OA
ATOM     10  H   UNL     1     177.492 182.122 183.007  1.00  0.00     0.211 HD
ENDBRANCH   6   9
ENDBRANCH   5   6
ENDBRANCH   1   5
TORSDOF 6
ENDMDL
MODEL 2
REMARK VINA RESULT:    -3.685      1.132      1.847
REMARK INTER + INTRA:          -5.176
REMARK INTER:                  -4.659
REMARK INTRA:                  -0.517
REMARK UNBOUND:                -0.306
REMARK SMILES C=C[C@H](O)CCCCC
REMARK SMILES IDX 6 1 7 2 8 3 9 4 5 5 3 6 2 7 1 8 4 9
REMARK H PARENT 4 10
REMARK Flexibility Score: inf
ROOT
ATOM      1  C   UNL     1     180.138 178.739 183.725  1.00  0.00     0.003 C 
ENDROOT
BRANCH   1   2
ATOM      2  C   UNL     1     180.967 178.262 184.927  1.00  0.00    -0.000 C 
BRANCH   2   3
ATOM      3  C   UNL     1     182.111 179.223 185.276  1.00  0.00    -0.003 C 
ATOM      4  C   UNL     1     181.982 179.735 186.709  1.00  0.00     0.004 C 
ENDBRANCH   2   3
ENDBRANCH   1   2
BRANCH   1   5
ATOM      5  C   UNL     1     179.128 179.836 184.101  1.00  0.00     0.036 C 
BRANCH   5   6
ATOM      6  C   UNL     1     179.348 181.118 183.275  1.00  0.00     0.136 C 
BRANCH   6   7
ATOM      7  C   UNL     1     179.539 182.318 184.173  1.00  0.00    -0.004 C 
ATOM      8  C   UNL     1     179.467 182.205 185.502  1.00  0.00     0.007 C 
ENDBRANCH   6   7
BRANCH   6   9
ATOM      9  O   UNL     1     178.277 181.335 182.389  1.00  0.00    -0.389 OA
ATOM     10  H   UNL     1     178.180 180.519 181.832  1.00  0.00     0.211 HD
ENDBRANCH   6   9
ENDBRANCH   5   6
ENDBRANCH   1   5
TORSDOF 6
ENDMDL
MODEL 3
REMARK VINA RESULT:    -3.637      2.140      3.033
REMARK INTER + INTRA:          -5.113
REMARK INTER:                  -4.728
REMARK INTRA:                  -0.384
REMARK UNBOUND:                -0.306
REMARK SMILES C=C[C@H](O)CCCCC
REMARK SMILES IDX 6 1 7 2 8 3 9 4 5 5 3 6 2 7 1 8 4 9
REMARK H PARENT 4 10
REMARK Flexibility Score: inf
ROOT
ATOM      1  C   UNL     1     179.370 179.638 184.130  1.00  0.00     0.003 C 
ENDROOT
BRANCH   1   2
ATOM      2  C   UNL     1     180.426 178.759 183.442  1.00  0.00    -0.000 C 
BRANCH   2   3
ATOM      3  C   UNL     1     180.840 177.553 184.297  1.00  0.00    -0.003 C 
ATOM      4  C   UNL     1     181.480 176.464 183.440  1.00  0.00     0.004 C 
ENDBRANCH   2   3
ENDBRANCH   1   2
BRANCH   1   5
ATOM      5  C   UNL     1     179.650 179.836 185.629  1.00  0.00     0.036 C 
BRANCH   5   6
ATOM      6  C   UNL     1     180.642 180.989 185.873  1.00  0.00     0.136 C 
BRANCH   6   7
ATOM      7  C   UNL     1     181.532 180.699 187.060  1.00  0.00    -0.004 C 
ATOM      8  C   UNL     1     182.552 179.843 186.966  1.00  0.00     0.007 C 
ENDBRANCH   6   7
BRANCH   6   9
ATOM      9  O   UNL     1     179.962 182.207 186.058  1.00  0.00    -0.389 OA
ATOM     10  H   UNL     1     179.026 181.991 186.312  1.00  0.00     0.211 HD
ENDBRANCH   6   9
ENDBRANCH   5   6
ENDBRANCH   1   5
TORSDOF 6
ENDMDL
MODEL 4
REMARK VINA RESULT:    -3.631      1.181      2.306
REMARK INTER + INTRA:          -5.104
REMARK INTER:                  -4.611
REMARK INTRA:                  -0.493
REMARK UNBOUND:                -0.306
REMARK SMILES C=C[C@H](O)CCCCC
REMARK SMILES IDX 6 1 7 2 8 3 9 4 5 5 3 6 2 7 1 8 4 9
REMARK H PARENT 4 10
REMARK Flexibility Score: inf
ROOT
ATOM      1  C   UNL     1     180.316 181.176 185.000  1.00  0.00     0.003 C 
ENDROOT
BRANCH   1   2
ATOM      2  C   UNL     1     179.735 179.757 185.106  1.00  0.00    -0.000 C 
BRANCH   2   3
ATOM      3  C   UNL     1     180.817 178.687 185.300  1.00  0.00    -0.003 C 
ATOM      4  C   UNL     1     180.766 177.643 184.187  1.00  0.00     0.004 C 
ENDBRANCH   2   3
ENDBRANCH   1   2
BRANCH   1   5
ATOM      5  C   UNL     1     179.495 182.085 184.070  1.00  0.00     0.036 C 
BRANCH   5   6
ATOM      6  C   UNL     1     179.015 181.328 182.817  1.00  0.00     0.136 C 
BRANCH   6   7
ATOM      7  C   UNL     1     180.109 181.246 181.779  1.00  0.00    -0.004 C 
ATOM      8  C   UNL     1     180.501 180.072 181.278  1.00  0.00     0.007 C 
ENDBRANCH   6   7
BRANCH   6   9
ATOM      9  O   UNL     1     177.868 181.935 182.273  1.00  0.00    -0.389 OA
ATOM     10  H   UNL     1     177.112 181.755 182.892  1.00  0.00     0.211 HD
ENDBRANCH   6   9
ENDBRANCH   5   6
ENDBRANCH   1   5
TORSDOF 6
ENDMDL
MODEL 5
REMARK VINA RESULT:    -3.619      2.362      3.879
REMARK INTER + INTRA:          -5.089
REMARK INTER:                  -4.740
REMARK INTRA:                  -0.349
REMARK UNBOUND:                -0.306
REMARK SMILES C=C[C@H](O)CCCCC
REMARK SMILES IDX 6 1 7 2 8 3 9 4 5 5 3 6 2 7 1 8 4 9
REMARK H PARENT 4 10
REMARK Flexibility Score: inf
ROOT
ATOM      1  C   UNL     1     180.709 181.104 185.833  1.00  0.00     0.003 C 
ENDROOT
BRANCH   1   2
ATOM      2  C   UNL     1     181.486 181.095 187.159  1.00  0.00    -0.000 C 
BRANCH   2   3
ATOM      3  C   UNL     1     182.377 179.855 187.315  1.00  0.00    -0.003 C 
ATOM      4  C   UNL     1     183.071 179.844 188.674  1.00  0.00     0.004 C 
ENDBRANCH   2   3
ENDBRANCH   1   2
BRANCH   1   5
ATOM      5  C   UNL     1     179.502 180.150 185.849  1.00  0.00     0.036 C 
BRANCH   5   6
ATOM      6  C   UNL     1     179.284 179.489 184.475  1.00  0.00     0.136 C 
BRANCH   6   7
ATOM      7  C   UNL     1     180.588 178.986 183.901  1.00  0.00    -0.004 C 
ATOM      8  C   UNL     1     180.904 177.689 183.935  1.00  0.00     0.007 C 
ENDBRANCH   6   7
BRANCH   6   9
ATOM      9  O   UNL     1     178.667 180.382 183.580  1.00  0.00    -0.389 OA
ATOM     10  H   UNL     1     179.320 180.578 182.856  1.00  0.00     0.211 HD
ENDBRANCH   6   9
ENDBRANCH   5   6
ENDBRANCH   1   5
TORSDOF 6
ENDMDL
MODEL 6
REMARK VINA RESULT:    -3.582      1.063      1.345
REMARK INTER + INTRA:          -5.040
REMARK INTER:                  -4.908
REMARK INTRA:                  -0.132
REMARK UNBOUND:                -0.306
REMARK SMILES C=C[C@H](O)CCCCC
REMARK SMILES IDX 6 1 7 2 8 3 9 4 5 5 3 6 2 7 1 8 4 9
REMARK H PARENT 4 10
REMARK Flexibility Score: inf
ROOT
ATOM      1  C   UNL     1     179.443 179.864 184.056  1.00  0.00     0.003 C 
ENDROOT
BRANCH   1   2
ATOM      2  C   UNL     1     179.997 179.073 185.252  1.00  0.00    -0.000 C 
BRANCH   2   3
ATOM      3  C   UNL     1     181.113 178.098 184.851  1.00  0.00    -0.003 C 
ATOM      4  C   UNL     1     180.759 177.355 183.565  1.00  0.00     0.004 C 
ENDBRANCH   2   3
ENDBRANCH   1   2
BRANCH   1   5
ATOM      5  C   UNL     1     179.657 181.380 184.200  1.00  0.00     0.036 C 
BRANCH   5   6
ATOM      6  C   UNL     1     179.158 182.143 182.958  1.00  0.00     0.136 C 
BRANCH   6   7
ATOM      7  C   UNL     1     178.550 183.472 183.345  1.00  0.00    -0.004 C 
ATOM      8  C   UNL     1     177.528 183.990 182.659  1.00  0.00     0.007 C 
ENDBRANCH   6   7
BRANCH   6   9
ATOM      9  O   UNL     1     178.230 181.373 182.234  1.00  0.00    -0.389 OA
ATOM     10  H   UNL     1     178.626 181.190 181.341  1.00  0.00     0.211 HD
ENDBRANCH   6   9
ENDBRANCH   5   6
ENDBRANCH   1   5
TORSDOF 6
ENDMDL
MODEL 7
REMARK VINA RESULT:    -3.579      1.743      2.441
REMARK INTER + INTRA:          -5.035
REMARK INTER:                  -4.483
REMARK INTRA:                  -0.552
REMARK UNBOUND:                -0.306
REMARK SMILES C=C[C@H](O)CCCCC
REMARK SMILES IDX 6 1 7 2 8 3 9 4 5 5 3 6 2 7 1 8 4 9
REMARK H PARENT 4 10
REMARK Flexibility Score: inf
ROOT
ATOM      1  C   UNL     1     181.021 178.558 184.884  1.00  0.00     0.003 C 
ENDROOT
BRANCH   1   2
ATOM      2  C   UNL     1     180.623 177.348 184.025  1.00  0.00    -0.000 C 
BRANCH   2   3
ATOM      3  C   UNL     1     181.834 176.644 183.397  1.00  0.00    -0.003 C 
ATOM      4  C   UNL     1     182.947 177.640 183.082  1.00  0.00     0.004 C 
ENDBRANCH   2   3
ENDBRANCH   1   2
BRANCH   1   5
ATOM      5  C   UNL     1     180.061 179.748 184.711  1.00  0.00     0.036 C 
BRANCH   5   6
ATOM      6  C   UNL     1     179.564 179.869 183.258  1.00  0.00     0.136 C 
BRANCH   6   7
ATOM      7  C   UNL     1     180.611 180.513 182.378  1.00  0.00    -0.004 C 
ATOM      8  C   UNL     1     180.819 180.090 181.128  1.00  0.00     0.007 C 
ENDBRANCH   6   7
BRANCH   6   9
ATOM      9  O   UNL     1     178.360 180.593 183.197  1.00  0.00    -0.389 OA
ATOM     10  H   UNL     1     178.111 180.679 182.238  1.00  0.00     0.211 HD
ENDBRANCH   6   9
ENDBRANCH   5   6
ENDBRANCH   1   5
TORSDOF 6
ENDMDL
MODEL 8
REMARK VINA RESULT:    -3.474      1.529      2.200
REMARK INTER + INTRA:          -4.897
REMARK INTER:                  -4.662
REMARK INTRA:                  -0.235
REMARK UNBOUND:                -0.306
REMARK SMILES C=C[C@H](O)CCCCC
REMARK SMILES IDX 6 1 7 2 8 3 9 4 5 5 3 6 2 7 1 8 4 9
REMARK H PARENT 4 10
REMARK Flexibility Score: inf
ROOT
ATOM      1  C   UNL     1     181.284 178.287 183.807  1.00  0.00     0.003 C 
ENDROOT
BRANCH   1   2
ATOM      2  C   UNL     1     180.887 176.804 183.750  1.00  0.00    -0.000 C 
BRANCH   2   3
ATOM      3  C   UNL     1     181.995 175.916 183.167  1.00  0.00    -0.003 C 
ATOM      4  C   UNL     1     181.503 175.158 181.937  1.00  0.00     0.004 C 
ENDBRANCH   2   3
ENDBRANCH   1   2
BRANCH   1   5
ATOM      5  C   UNL     1     180.401 179.171 182.910  1.00  0.00     0.036 C 
BRANCH   5   6
ATOM      6  C   UNL     1     179.725 180.298 183.713  1.00  0.00     0.136 C 
BRANCH   6   7
ATOM      7  C   UNL     1     179.471 179.872 185.140  1.00  0.00    -0.004 C 
ATOM      8  C   UNL     1     179.624 180.726 186.155  1.00  0.00     0.007 C 
ENDBRANCH   6   7
BRANCH   6   9
ATOM      9  O   UNL     1     178.524 180.701 183.101  1.00  0.00    -0.389 OA
ATOM     10  H   UNL     1     178.552 181.690 183.010  1.00  0.00     0.211 HD
ENDBRANCH   6   9
ENDBRANCH   5   6
ENDBRANCH   1   5
TORSDOF 6
ENDMDL
MODEL 9
REMARK VINA RESULT:    -3.437      1.541      4.843
REMARK INTER + INTRA:          -4.848
REMARK INTER:                  -4.633
REMARK INTRA:                  -0.215
REMARK UNBOUND:                -0.306
REMARK SMILES C=C[C@H](O)CCCCC
REMARK SMILES IDX 6 1 7 2 8 3 9 4 5 5 3 6 2 7 1 8 4 9
REMARK H PARENT 4 10
REMARK Flexibility Score: inf
ROOT
ATOM      1  C   UNL     1     179.648 181.251 182.870  1.00  0.00     0.003 C 
ENDROOT
BRANCH   1   2
ATOM      2  C   UNL     1     178.622 182.387 183.006  1.00  0.00    -0.000 C 
BRANCH   2   3
ATOM      3  C   UNL     1     178.935 183.329 184.178  1.00  0.00    -0.003 C 
ATOM      4  C   UNL     1     178.170 184.643 184.046  1.00  0.00     0.004 C 
ENDBRANCH   2   3
ENDBRANCH   1   2
BRANCH   1   5
ATOM      5  C   UNL     1     179.236 179.986 183.641  1.00  0.00     0.036 C 
BRANCH   5   6
ATOM      6  C   UNL     1     179.890 179.933 185.035  1.00  0.00     0.136 C 
BRANCH   6   7
ATOM      7  C   UNL     1     180.643 178.638 185.233  1.00  0.00    -0.004 C 
ATOM      8  C   UNL     1     180.853 177.798 184.216  1.00  0.00     0.007 C 
ENDBRANCH   6   7
BRANCH   6   9
ATOM      9  O   UNL     1     178.929 180.100 186.048  1.00  0.00    -0.389 OA
ATOM     10  H   UNL     1     178.108 179.617 185.764  1.00  0.00     0.211 HD
ENDBRANCH   6   9
ENDBRANCH   5   6
ENDBRANCH   1   5
TORSDOF 6
ENDMDL
