MODEL 1
REMARK VINA RESULT:    -5.582      0.000      0.000
REMARK INTER + INTRA:          -6.366
REMARK INTER:                  -6.235
REMARK INTRA:                  -0.132
REMARK UNBOUND:                -0.132
REMARK SMILES O=C([O-])c1ccccc1C(=O)[O-]
REMARK SMILES IDX 4 1 9 2 5 3 8 4 6 5 7 6 2 7 1 8 3 9 10 10 11 11 12 12
REMARK H PARENT
REMARK Flexibility Score: inf
ROOT
ATOM      1  C   UNL     1      19.015   5.162  13.261  1.00  0.00     0.006 A 
ATOM      2  C   UNL     1      19.125   6.274  12.381  1.00  0.00     0.006 A 
ATOM      3  C   UNL     1      17.797   4.935  13.928  1.00  0.00     0.010 A 
ATOM      4  C   UNL     1      17.993   7.077  12.149  1.00  0.00     0.010 A 
ATOM      5  C   UNL     1      16.694   5.758  13.701  1.00  0.00     0.001 A 
ATOM      6  C   UNL     1      16.789   6.820  12.804  1.00  0.00     0.001 A 
ENDROOT
BRANCH   1   7
ATOM      7  C   UNL     1      20.111   4.184  13.455  1.00  0.00     0.072 C 
ATOM      8  O   UNL     1      20.159   3.139  12.754  1.00  0.00    -0.545 OA
ATOM      9  O   UNL     1      21.135   4.436  14.362  1.00  0.00    -0.545 OA
ENDBRANCH   1   7
BRANCH   2  10
ATOM     10  C   UNL     1      20.401   6.673  11.741  1.00  0.00     0.072 C 
ATOM     11  O   UNL     1      20.952   7.768  12.031  1.00  0.00    -0.545 OA
ATOM     12  O   UNL     1      20.970   5.870  10.759  1.00  0.00    -0.545 OA
ENDBRANCH   2  10
TORSDOF 2
ENDMDL
MODEL 2
REMARK VINA RESULT:    -5.566      0.038      3.127
REMARK INTER + INTRA:          -6.348
REMARK INTER:                  -6.228
REMARK INTRA:                  -0.121
REMARK UNBOUND:                -0.132
REMARK SMILES O=C([O-])c1ccccc1C(=O)[O-]
REMARK SMILES IDX 4 1 9 2 5 3 8 4 6 5 7 6 2 7 1 8 3 9 10 10 11 11 12 12
REMARK H PARENT
REMARK Flexibility Score: inf
ROOT
ATOM      1  C   UNL     1      19.104   6.289  12.371  1.00  0.00     0.006 A 
ATOM      2  C   UNL     1      19.012   5.174  13.248  1.00  0.00     0.006 A 
ATOM      3  C   UNL     1      17.967   7.093  12.164  1.00  0.00     0.010 A 
ATOM      4  C   UNL     1      17.807   4.942  13.938  1.00  0.00     0.010 A 
ATOM      5  C   UNL     1      16.775   6.831  12.841  1.00  0.00     0.001 A 
ATOM      6  C   UNL     1      16.699   5.765  13.734  1.00  0.00     0.001 A 
ENDROOT
BRANCH   1   7
ATOM      7  C   UNL     1      20.370   6.689  11.714  1.00  0.00     0.072 C 
ATOM      8  O   UNL     1      20.961   7.743  12.068  1.00  0.00    -0.545 OA
ATOM      9  O   UNL     1      20.957   5.876  10.751  1.00  0.00    -0.545 OA
ENDBRANCH   1   7
BRANCH   2  10
ATOM     10  C   UNL     1      20.110   4.194  13.425  1.00  0.00     0.072 C 
ATOM     11  O   UNL     1      20.104   3.101  12.798  1.00  0.00    -0.545 OA
ATOM     12  O   UNL     1      21.128   4.443  14.338  1.00  0.00    -0.545 OA
ENDBRANCH   2  10
TORSDOF 2
ENDMDL
MODEL 3
REMARK VINA RESULT:    -5.534     13.218     13.940
REMARK INTER + INTRA:          -6.313
REMARK INTER:                  -6.092
REMARK INTRA:                  -0.221
REMARK UNBOUND:                -0.132
REMARK SMILES O=C([O-])c1ccccc1C(=O)[O-]
REMARK SMILES IDX 4 1 9 2 5 3 8 4 6 5 7 6 2 7 1 8 3 9 10 10 11 11 12 12
REMARK H PARENT
REMARK Flexibility Score: inf
ROOT
ATOM      1  C   UNL     1      20.709  13.828  24.159  1.00  0.00     0.006 A 
ATOM      2  C   UNL     1      20.404  12.443  24.037  1.00  0.00     0.006 A 
ATOM      3  C   UNL     1      19.668  14.769  24.054  1.00  0.00     0.010 A 
ATOM      4  C   UNL     1      19.062  12.049  23.881  1.00  0.00     0.010 A 
ATOM      5  C   UNL     1      18.347  14.356  23.877  1.00  0.00     0.001 A 
ATOM      6  C   UNL     1      18.043  12.999  23.802  1.00  0.00     0.001 A 
ENDROOT
BRANCH   1   7
ATOM      7  C   UNL     1      22.071  14.323  24.464  1.00  0.00     0.072 C 
ATOM      8  O   UNL     1      22.456  14.421  25.660  1.00  0.00    -0.545 OA
ATOM      9  O   UNL     1      22.964  14.620  23.441  1.00  0.00    -0.545 OA
ENDBRANCH   1   7
BRANCH   2  10
ATOM     10  C   UNL     1      21.445  11.389  23.996  1.00  0.00     0.072 C 
ATOM     11  O   UNL     1      21.842  10.918  22.898  1.00  0.00    -0.545 OA
ATOM     12  O   UNL     1      21.947  10.859  25.179  1.00  0.00    -0.545 OA
ENDBRANCH   2  10
TORSDOF 2
ENDMDL
MODEL 4
REMARK VINA RESULT:    -5.529     13.185     13.653
REMARK INTER + INTRA:          -6.307
REMARK INTER:                  -6.087
REMARK INTRA:                  -0.220
REMARK UNBOUND:                -0.132
REMARK SMILES O=C([O-])c1ccccc1C(=O)[O-]
REMARK SMILES IDX 4 1 9 2 5 3 8 4 6 5 7 6 2 7 1 8 3 9 10 10 11 11 12 12
REMARK H PARENT
REMARK Flexibility Score: inf
ROOT
ATOM      1  C   UNL     1      20.492  12.423  23.952  1.00  0.00     0.006 A 
ATOM      2  C   UNL     1      20.831  13.793  24.137  1.00  0.00     0.006 A 
ATOM      3  C   UNL     1      19.139  12.069  23.791  1.00  0.00     0.010 A 
ATOM      4  C   UNL     1      19.812  14.762  24.087  1.00  0.00     0.010 A 
ATOM      5  C   UNL     1      18.143  13.046  23.768  1.00  0.00     0.001 A 
ATOM      6  C   UNL     1      18.480  14.390  23.904  1.00  0.00     0.001 A 
ENDROOT
BRANCH   1   7
ATOM      7  C   UNL     1      21.511  11.354  23.850  1.00  0.00     0.072 C 
ATOM      8  O   UNL     1      21.952  11.004  22.723  1.00  0.00    -0.545 OA
ATOM      9  O   UNL     1      22.044  10.770  24.994  1.00  0.00    -0.545 OA
ENDBRANCH   1   7
BRANCH   2  10
ATOM     10  C   UNL     1      22.206  14.248  24.449  1.00  0.00     0.072 C 
ATOM     11  O   UNL     1      22.600  14.334  25.642  1.00  0.00    -0.545 OA
ATOM     12  O   UNL     1      23.057  14.651  23.427  1.00  0.00    -0.545 OA
ENDBRANCH   2  10
TORSDOF 2
ENDMDL
MODEL 5
REMARK VINA RESULT:    -5.304     12.319     13.299
REMARK INTER + INTRA:          -6.056
REMARK INTER:                  -5.859
REMARK INTRA:                  -0.196
REMARK UNBOUND:                -0.132
REMARK SMILES O=C([O-])c1ccccc1C(=O)[O-]
REMARK SMILES IDX 4 1 9 2 5 3 8 4 6 5 7 6 2 7 1 8 3 9 10 10 11 11 12 12
REMARK H PARENT
REMARK Flexibility Score: inf
ROOT
ATOM      1  C   UNL     1      21.700   9.970  24.284  1.00  0.00     0.006 A 
ATOM      2  C   UNL     1      20.537   9.489  24.947  1.00  0.00     0.006 A 
ATOM      3  C   UNL     1      22.658   9.047  23.828  1.00  0.00     0.010 A 
ATOM      4  C   UNL     1      20.344   8.101  25.070  1.00  0.00     0.010 A 
ATOM      5  C   UNL     1      22.458   7.674  23.981  1.00  0.00     0.001 A 
ATOM      6  C   UNL     1      21.297   7.202  24.590  1.00  0.00     0.001 A 
ENDROOT
BRANCH   1   7
ATOM      7  C   UNL     1      21.915  11.405  23.986  1.00  0.00     0.072 C 
ATOM      8  O   UNL     1      21.648  11.862  22.843  1.00  0.00    -0.545 OA
ATOM      9  O   UNL     1      22.348  12.278  24.978  1.00  0.00    -0.545 OA
ENDBRANCH   1   7
BRANCH   2  10
ATOM     10  C   UNL     1      19.541  10.385  25.581  1.00  0.00     0.072 C 
ATOM     11  O   UNL     1      19.579  10.618  26.818  1.00  0.00    -0.545 OA
ATOM     12  O   UNL     1      18.510  10.929  24.824  1.00  0.00    -0.545 OA
ENDBRANCH   2  10
TORSDOF 2
ENDMDL
MODEL 6
REMARK VINA RESULT:    -5.252     13.579     14.330
REMARK INTER + INTRA:          -5.997
REMARK INTER:                  -5.839
REMARK INTRA:                  -0.158
REMARK UNBOUND:                -0.132
REMARK SMILES O=C([O-])c1ccccc1C(=O)[O-]
REMARK SMILES IDX 4 1 9 2 5 3 8 4 6 5 7 6 2 7 1 8 3 9 10 10 11 11 12 12
REMARK H PARENT
REMARK Flexibility Score: inf
ROOT
ATOM      1  C   UNL     1      19.659  12.886  24.239  1.00  0.00     0.006 A 
ATOM      2  C   UNL     1      20.009  12.868  25.618  1.00  0.00     0.006 A 
ATOM      3  C   UNL     1      18.855  13.933  23.752  1.00  0.00     0.010 A 
ATOM      4  C   UNL     1      19.597  13.931  26.443  1.00  0.00     0.010 A 
ATOM      5  C   UNL     1      18.438  14.965  24.593  1.00  0.00     0.001 A 
ATOM      6  C   UNL     1      18.818  14.970  25.933  1.00  0.00     0.001 A 
ENDROOT
BRANCH   1   7
ATOM      7  C   UNL     1      20.165  11.885  23.272  1.00  0.00     0.072 C 
ATOM      8  O   UNL     1      19.359  11.147  22.645  1.00  0.00    -0.545 OA
ATOM      9  O   UNL     1      21.524  11.791  22.993  1.00  0.00    -0.545 OA
ENDBRANCH   1   7
BRANCH   2  10
ATOM     10  C   UNL     1      20.734  11.741  26.251  1.00  0.00     0.072 C 
ATOM     11  O   UNL     1      21.989  11.763  26.359  1.00  0.00    -0.545 OA
ATOM     12  O   UNL     1      20.039  10.615  26.675  1.00  0.00    -0.545 OA
ENDBRANCH   2  10
TORSDOF 2
ENDMDL
MODEL 7
REMARK VINA RESULT:    -5.245     12.993     13.821
REMARK INTER + INTRA:          -5.990
REMARK INTER:                  -5.784
REMARK INTRA:                  -0.206
REMARK UNBOUND:                -0.132
REMARK SMILES O=C([O-])c1ccccc1C(=O)[O-]
REMARK SMILES IDX 4 1 9 2 5 3 8 4 6 5 7 6 2 7 1 8 3 9 10 10 11 11 12 12
REMARK H PARENT
REMARK Flexibility Score: inf
ROOT
ATOM      1  C   UNL     1      21.870  10.943  25.321  1.00  0.00     0.006 A 
ATOM      2  C   UNL     1      20.981  10.398  24.354  1.00  0.00     0.006 A 
ATOM      3  C   UNL     1      23.015  10.211  25.686  1.00  0.00     0.010 A 
ATOM      4  C   UNL     1      21.304   9.173  23.741  1.00  0.00     0.010 A 
ATOM      5  C   UNL     1      23.304   8.987  25.082  1.00  0.00     0.001 A 
ATOM      6  C   UNL     1      22.456   8.475  24.103  1.00  0.00     0.001 A 
ENDROOT
BRANCH   1   7
ATOM      7  C   UNL     1      21.682  12.288  25.912  1.00  0.00     0.072 C 
ATOM      8  O   UNL     1      22.262  13.287  25.409  1.00  0.00    -0.545 OA
ATOM      9  O   UNL     1      20.815  12.478  26.982  1.00  0.00    -0.545 OA
ENDBRANCH   1   7
BRANCH   2  10
ATOM     10  C   UNL     1      19.685  11.026  24.005  1.00  0.00     0.072 C 
ATOM     11  O   UNL     1      19.553  11.679  22.936  1.00  0.00    -0.545 OA
ATOM     12  O   UNL     1      18.615  10.957  24.890  1.00  0.00    -0.545 OA
ENDBRANCH   2  10
TORSDOF 2
ENDMDL
MODEL 8
REMARK VINA RESULT:    -5.232     12.847     13.657
REMARK INTER + INTRA:          -5.976
REMARK INTER:                  -5.785
REMARK INTRA:                  -0.191
REMARK UNBOUND:                -0.132
REMARK SMILES O=C([O-])c1ccccc1C(=O)[O-]
REMARK SMILES IDX 4 1 9 2 5 3 8 4 6 5 7 6 2 7 1 8 3 9 10 10 11 11 12 12
REMARK H PARENT
REMARK Flexibility Score: inf
ROOT
ATOM      1  C   UNL     1      21.174  10.249  24.253  1.00  0.00     0.006 A 
ATOM      2  C   UNL     1      22.089  10.806  25.189  1.00  0.00     0.006 A 
ATOM      3  C   UNL     1      21.438   8.976  23.715  1.00  0.00     0.010 A 
ATOM      4  C   UNL     1      23.197  10.043  25.600  1.00  0.00     0.010 A 
ATOM      5  C   UNL     1      22.555   8.246  24.120  1.00  0.00     0.001 A 
ATOM      6  C   UNL     1      23.427   8.774  25.069  1.00  0.00     0.001 A 
ENDROOT
BRANCH   1   7
ATOM      7  C   UNL     1      19.911  10.921  23.871  1.00  0.00     0.072 C 
ATOM      8  O   UNL     1      19.753  11.353  22.698  1.00  0.00    -0.545 OA
ATOM      9  O   UNL     1      18.861  11.026  24.776  1.00  0.00    -0.545 OA
ENDBRANCH   1   7
BRANCH   2  10
ATOM     10  C   UNL     1      21.971  12.190  25.706  1.00  0.00     0.072 C 
ATOM     11  O   UNL     1      21.299  12.435  26.743  1.00  0.00    -0.545 OA
ATOM     12  O   UNL     1      22.548  13.246  25.012  1.00  0.00    -0.545 OA
ENDBRANCH   2  10
TORSDOF 2
ENDMDL
MODEL 9
REMARK VINA RESULT:    -5.213     13.564     14.168
REMARK INTER + INTRA:          -5.954
REMARK INTER:                  -5.805
REMARK INTRA:                  -0.150
REMARK UNBOUND:                -0.132
REMARK SMILES O=C([O-])c1ccccc1C(=O)[O-]
REMARK SMILES IDX 4 1 9 2 5 3 8 4 6 5 7 6 2 7 1 8 3 9 10 10 11 11 12 12
REMARK H PARENT
REMARK Flexibility Score: inf
ROOT
ATOM      1  C   UNL     1      20.022  12.845  25.595  1.00  0.00     0.006 A 
ATOM      2  C   UNL     1      19.677  12.887  24.216  1.00  0.00     0.006 A 
ATOM      3  C   UNL     1      19.604  13.891  26.438  1.00  0.00     0.010 A 
ATOM      4  C   UNL     1      18.871  13.940  23.745  1.00  0.00     0.010 A 
ATOM      5  C   UNL     1      18.825  14.938  25.944  1.00  0.00     0.001 A 
ATOM      6  C   UNL     1      18.450  14.956  24.603  1.00  0.00     0.001 A 
ENDROOT
BRANCH   1   7
ATOM      7  C   UNL     1      20.746  11.705  26.204  1.00  0.00     0.072 C 
ATOM      8  O   UNL     1      21.998  11.747  26.334  1.00  0.00    -0.545 OA
ATOM      9  O   UNL     1      20.052  10.606  26.699  1.00  0.00    -0.545 OA
ENDBRANCH   1   7
BRANCH   2  10
ATOM     10  C   UNL     1      20.183  11.907  23.227  1.00  0.00     0.072 C 
ATOM     11  O   UNL     1      19.398  11.106  22.654  1.00  0.00    -0.545 OA
ATOM     12  O   UNL     1      21.546  11.816  22.969  1.00  0.00    -0.545 OA
ENDBRANCH   2  10
TORSDOF 2
ENDMDL
