MODEL 1
REMARK VINA RESULT:    -3.486      0.000      0.000
REMARK INTER + INTRA:          -6.297
REMARK INTER:                  -5.321
REMARK INTRA:                  -0.976
REMARK UNBOUND:                -0.976
REMARK SMILES O=C([O-])CCCCCCCCC(=O)[O-]
REMARK SMILES IDX 7 1 6 2 5 3 4 4 2 5 1 6 3 7 8 8 9 9 10 10 11 11 12 12 13 13
REMARK SMILES IDX 14 14
REMARK H PARENT
REMARK Flexibility Score: inf
ROOT
ATOM      1  C   UNL     1      -6.938   1.910   0.558  1.00  0.00     0.000 C 
ENDROOT
BRANCH   1   2
ATOM      2  C   UNL     1      -5.976   1.035   1.381  1.00  0.00     0.000 C 
BRANCH   2   3
ATOM      3  C   UNL     1      -5.133   0.091   0.503  1.00  0.00     0.006 C 
BRANCH   3   4
ATOM      4  C   UNL     1      -5.279  -1.399   0.851  1.00  0.00     0.053 C 
BRANCH   4   5
ATOM      5  C   UNL     1      -6.701  -1.859   0.775  1.00  0.00     0.041 C 
ATOM      6  O   UNL     1      -7.245  -2.404   1.772  1.00  0.00    -0.550 OA
ATOM      7  O   UNL     1      -7.439  -1.655  -0.383  1.00  0.00    -0.550 OA
ENDBRANCH   4   5
ENDBRANCH   3   4
ENDBRANCH   2   3
ENDBRANCH   1   2
BRANCH   1   8
ATOM      8  C   UNL     1      -6.576   1.934  -0.937  1.00  0.00     0.000 C 
BRANCH   8   9
ATOM      9  C   UNL     1      -6.014   3.295  -1.384  1.00  0.00     0.000 C 
BRANCH   9  10
ATOM     10  C   UNL     1      -4.502   3.429  -1.121  1.00  0.00     0.006 C 
BRANCH  10  11
ATOM     11  C   UNL     1      -4.139   4.396   0.018  1.00  0.00     0.053 C 
BRANCH  11  12
ATOM     12  C   UNL     1      -3.418   3.702   1.133  1.00  0.00     0.041 C 
ATOM     13  O   UNL     1      -2.784   2.637   0.914  1.00  0.00    -0.550 OA
ATOM     14  O   UNL     1      -3.474   4.217   2.422  1.00  0.00    -0.550 OA
ENDBRANCH  11  12
ENDBRANCH  10  11
ENDBRANCH   9  10
ENDBRANCH   8   9
ENDBRANCH   1   8
TORSDOF 9
ENDMDL
MODEL 2
REMARK VINA RESULT:    -3.456      1.627      5.613
REMARK INTER + INTRA:          -6.250
REMARK INTER:                  -5.514
REMARK INTRA:                  -0.737
REMARK UNBOUND:                -0.976
REMARK SMILES O=C([O-])CCCCCCCCC(=O)[O-]
REMARK SMILES IDX 7 1 6 2 5 3 4 4 2 5 1 6 3 7 8 8 9 9 10 10 11 11 12 12 13 13
REMARK SMILES IDX 14 14
REMARK H PARENT
REMARK Flexibility Score: inf
ROOT
ATOM      1  C   UNL     1      -5.063   2.091  -0.439  1.00  0.00     0.000 C 
ENDROOT
BRANCH   1   2
ATOM      2  C   UNL     1      -3.589   1.934  -0.032  1.00  0.00     0.000 C 
BRANCH   2   3
ATOM      3  C   UNL     1      -3.150   2.968   1.022  1.00  0.00     0.006 C 
BRANCH   3   4
ATOM      4  C   UNL     1      -4.261   3.932   1.467  1.00  0.00     0.053 C 
BRANCH   4   5
ATOM      5  C   UNL     1      -4.674   3.699   2.887  1.00  0.00     0.041 C 
ATOM      6  O   UNL     1      -4.022   4.219   3.830  1.00  0.00    -0.550 OA
ATOM      7  O   UNL     1      -5.799   2.935   3.169  1.00  0.00    -0.550 OA
ENDBRANCH   4   5
ENDBRANCH   3   4
ENDBRANCH   2   3
ENDBRANCH   1   2
BRANCH   1   8
ATOM      8  C   UNL     1      -5.950   0.966   0.120  1.00  0.00     0.000 C 
BRANCH   8   9
ATOM      9  C   UNL     1      -5.154  -0.050   0.957  1.00  0.00     0.000 C 
BRANCH   9  10
ATOM     10  C   UNL     1      -5.232  -1.480   0.389  1.00  0.00     0.006 C 
BRANCH  10  11
ATOM     11  C   UNL     1      -6.658  -2.044   0.282  1.00  0.00     0.053 C 
BRANCH  11  12
ATOM     12  C   UNL     1      -7.371  -2.019   1.599  1.00  0.00     0.041 C 
ATOM     13  O   UNL     1      -8.391  -1.297   1.755  1.00  0.00    -0.550 OA
ATOM     14  O   UNL     1      -6.890  -2.770   2.664  1.00  0.00    -0.550 OA
ENDBRANCH  11  12
ENDBRANCH  10  11
ENDBRANCH   9  10
ENDBRANCH   8   9
ENDBRANCH   1   8
TORSDOF 9
ENDMDL
MODEL 3
REMARK VINA RESULT:    -3.411      1.598      5.922
REMARK INTER + INTRA:          -6.182
REMARK INTER:                  -5.628
REMARK INTRA:                  -0.555
REMARK UNBOUND:                -0.976
REMARK SMILES O=C([O-])CCCCCCCCC(=O)[O-]
REMARK SMILES IDX 7 1 6 2 5 3 4 4 2 5 1 6 3 7 8 8 9 9 10 10 11 11 12 12 13 13
REMARK SMILES IDX 14 14
REMARK H PARENT
REMARK Flexibility Score: inf
ROOT
ATOM      1  C   UNL     1      -4.919   2.521  -0.408  1.00  0.00     0.000 C 
ENDROOT
BRANCH   1   2
ATOM      2  C   UNL     1      -3.438   2.261  -0.085  1.00  0.00     0.000 C 
BRANCH   2   3
ATOM      3  C   UNL     1      -2.954   3.042   1.152  1.00  0.00     0.006 C 
BRANCH   3   4
ATOM      4  C   UNL     1      -3.909   4.153   1.616  1.00  0.00     0.053 C 
BRANCH   4   5
ATOM      5  C   UNL     1      -4.496   3.865   2.963  1.00  0.00     0.041 C 
ATOM      6  O   UNL     1      -4.053   4.452   3.986  1.00  0.00    -0.550 OA
ATOM      7  O   UNL     1      -5.555   2.976   3.086  1.00  0.00    -0.550 OA
ENDBRANCH   4   5
ENDBRANCH   3   4
ENDBRANCH   2   3
ENDBRANCH   1   2
BRANCH   1   8
ATOM      8  C   UNL     1      -5.793   1.273  -0.198  1.00  0.00     0.000 C 
BRANCH   8   9
ATOM      9  C   UNL     1      -5.192   0.299   0.830  1.00  0.00     0.000 C 
BRANCH   9  10
ATOM     10  C   UNL     1      -5.544  -1.171   0.533  1.00  0.00     0.006 C 
BRANCH  10  11
ATOM     11  C   UNL     1      -7.047  -1.487   0.581  1.00  0.00     0.053 C 
BRANCH  11  12
ATOM     12  C   UNL     1      -7.348  -2.861   0.067  1.00  0.00     0.041 C 
ATOM     13  O   UNL     1      -6.879  -3.242  -1.037  1.00  0.00    -0.550 OA
ATOM     14  O   UNL     1      -8.174  -3.709   0.793  1.00  0.00    -0.550 OA
ENDBRANCH  11  12
ENDBRANCH  10  11
ENDBRANCH   9  10
ENDBRANCH   8   9
ENDBRANCH   1   8
TORSDOF 9
ENDMDL
MODEL 4
REMARK VINA RESULT:    -3.395      1.556      2.188
REMARK INTER + INTRA:          -6.158
REMARK INTER:                  -5.669
REMARK INTRA:                  -0.489
REMARK UNBOUND:                -0.976
REMARK SMILES O=C([O-])CCCCCCCCC(=O)[O-]
REMARK SMILES IDX 7 1 6 2 5 3 4 4 2 5 1 6 3 7 8 8 9 9 10 10 11 11 12 12 13 13
REMARK SMILES IDX 14 14
REMARK H PARENT
REMARK Flexibility Score: inf
ROOT
ATOM      1  C   UNL     1      -5.824   1.811  -0.399  1.00  0.00     0.000 C 
ENDROOT
BRANCH   1   2
ATOM      2  C   UNL     1      -5.225   0.585   0.310  1.00  0.00     0.000 C 
BRANCH   2   3
ATOM      3  C   UNL     1      -6.302  -0.382   0.837  1.00  0.00     0.006 C 
BRANCH   3   4
ATOM      4  C   UNL     1      -6.066  -1.856   0.470  1.00  0.00     0.053 C 
BRANCH   4   5
ATOM      5  C   UNL     1      -7.202  -2.429  -0.319  1.00  0.00     0.041 C 
ATOM      6  O   UNL     1      -8.317  -1.843  -0.341  1.00  0.00    -0.550 OA
ATOM      7  O   UNL     1      -7.021  -3.589  -1.060  1.00  0.00    -0.550 OA
ENDBRANCH   4   5
ENDBRANCH   3   4
ENDBRANCH   2   3
ENDBRANCH   1   2
BRANCH   1   8
ATOM      8  C   UNL     1      -4.769   2.886  -0.708  1.00  0.00     0.000 C 
BRANCH   8   9
ATOM      9  C   UNL     1      -3.353   2.460  -0.283  1.00  0.00     0.000 C 
BRANCH   9  10
ATOM     10  C   UNL     1      -2.975   2.967   1.122  1.00  0.00     0.006 C 
BRANCH  10  11
ATOM     11  C   UNL     1      -3.788   4.182   1.597  1.00  0.00     0.053 C 
BRANCH  11  12
ATOM     12  C   UNL     1      -4.473   3.922   2.904  1.00  0.00     0.041 C 
ATOM     13  O   UNL     1      -4.120   4.543   3.941  1.00  0.00    -0.550 OA
ATOM     14  O   UNL     1      -5.480   2.968   2.982  1.00  0.00    -0.550 OA
ENDBRANCH  11  12
ENDBRANCH  10  11
ENDBRANCH   9  10
ENDBRANCH   8   9
ENDBRANCH   1   8
TORSDOF 9
ENDMDL
MODEL 5
REMARK VINA RESULT:    -3.319      1.578      6.393
REMARK INTER + INTRA:          -6.041
REMARK INTER:                  -5.461
REMARK INTRA:                  -0.580
REMARK UNBOUND:                -0.976
REMARK SMILES O=C([O-])CCCCCCCCC(=O)[O-]
REMARK SMILES IDX 7 1 6 2 5 3 4 4 2 5 1 6 3 7 8 8 9 9 10 10 11 11 12 12 13 13
REMARK SMILES IDX 14 14
REMARK H PARENT
REMARK Flexibility Score: inf
ROOT
ATOM      1  C   UNL     1      -5.319   0.672   0.931  1.00  0.00     0.000 C 
ENDROOT
BRANCH   1   2
ATOM      2  C   UNL     1      -5.642   1.599  -0.253  1.00  0.00     0.000 C 
BRANCH   2   3
ATOM      3  C   UNL     1      -4.487   2.562  -0.586  1.00  0.00     0.006 C 
BRANCH   3   4
ATOM      4  C   UNL     1      -3.330   2.541   0.426  1.00  0.00     0.053 C 
BRANCH   4   5
ATOM      5  C   UNL     1      -3.313   3.766   1.287  1.00  0.00     0.041 C 
ATOM      6  O   UNL     1      -3.005   3.679   2.505  1.00  0.00    -0.550 OA
ATOM      7  O   UNL     1      -3.602   5.008   0.738  1.00  0.00    -0.550 OA
ENDBRANCH   4   5
ENDBRANCH   3   4
ENDBRANCH   2   3
ENDBRANCH   1   2
BRANCH   1   8
ATOM      8  C   UNL     1      -5.168  -0.797   0.502  1.00  0.00     0.000 C 
BRANCH   8   9
ATOM      9  C   UNL     1      -6.136  -1.731   1.248  1.00  0.00     0.000 C 
BRANCH   9  10
ATOM     10  C   UNL     1      -7.604  -1.525   0.827  1.00  0.00     0.006 C 
BRANCH  10  11
ATOM     11  C   UNL     1      -7.930  -2.003  -0.597  1.00  0.00     0.053 C 
BRANCH  11  12
ATOM     12  C   UNL     1      -7.565  -3.441  -0.803  1.00  0.00     0.041 C 
ATOM     13  O   UNL     1      -8.166  -4.346  -0.166  1.00  0.00    -0.550 OA
ATOM     14  O   UNL     1      -6.539  -3.779  -1.676  1.00  0.00    -0.550 OA
ENDBRANCH  11  12
ENDBRANCH  10  11
ENDBRANCH   9  10
ENDBRANCH   8   9
ENDBRANCH   1   8
TORSDOF 9
ENDMDL
MODEL 6
REMARK VINA RESULT:    -3.310      2.449      5.868
REMARK INTER + INTRA:          -6.028
REMARK INTER:                  -5.477
REMARK INTRA:                  -0.551
REMARK UNBOUND:                -0.976
REMARK SMILES O=C([O-])CCCCCCCCC(=O)[O-]
REMARK SMILES IDX 7 1 6 2 5 3 4 4 2 5 1 6 3 7 8 8 9 9 10 10 11 11 12 12 13 13
REMARK SMILES IDX 14 14
REMARK H PARENT
REMARK Flexibility Score: inf
ROOT
ATOM      1  C   UNL     1      -3.052   3.231   1.243  1.00  0.00     0.000 C 
ENDROOT
BRANCH   1   2
ATOM      2  C   UNL     1      -4.243   4.092   1.698  1.00  0.00     0.000 C 
BRANCH   2   3
ATOM      3  C   UNL     1      -4.773   3.687   3.086  1.00  0.00     0.006 C 
BRANCH   3   4
ATOM      4  C   UNL     1      -5.741   4.701   3.717  1.00  0.00     0.053 C 
BRANCH   4   5
ATOM      5  C   UNL     1      -5.201   5.277   4.990  1.00  0.00     0.041 C 
ATOM      6  O   UNL     1      -4.036   4.989   5.371  1.00  0.00    -0.550 OA
ATOM      7  O   UNL     1      -5.971   6.158   5.738  1.00  0.00    -0.550 OA
ENDBRANCH   4   5
ENDBRANCH   3   4
ENDBRANCH   2   3
ENDBRANCH   1   2
BRANCH   1   8
ATOM      8  C   UNL     1      -3.371   2.405  -0.014  1.00  0.00     0.000 C 
BRANCH   8   9
ATOM      9  C   UNL     1      -4.812   2.618  -0.510  1.00  0.00     0.000 C 
BRANCH   9  10
ATOM     10  C   UNL     1      -5.724   1.410  -0.224  1.00  0.00     0.006 C 
BRANCH  10  11
ATOM     11  C   UNL     1      -5.184   0.444   0.842  1.00  0.00     0.053 C 
BRANCH  11  12
ATOM     12  C   UNL     1      -5.720  -0.944   0.663  1.00  0.00     0.041 C 
ATOM     13  O   UNL     1      -5.049  -1.937   1.048  1.00  0.00    -0.550 OA
ATOM     14  O   UNL     1      -6.946  -1.140   0.042  1.00  0.00    -0.550 OA
ENDBRANCH  11  12
ENDBRANCH  10  11
ENDBRANCH   9  10
ENDBRANCH   8   9
ENDBRANCH   1   8
TORSDOF 9
ENDMDL
MODEL 7
REMARK VINA RESULT:    -3.308      3.120      5.361
REMARK INTER + INTRA:          -6.025
REMARK INTER:                  -5.287
REMARK INTRA:                  -0.738
REMARK UNBOUND:                -0.976
REMARK SMILES O=C([O-])CCCCCCCCC(=O)[O-]
REMARK SMILES IDX 7 1 6 2 5 3 4 4 2 5 1 6 3 7 8 8 9 9 10 10 11 11 12 12 13 13
REMARK SMILES IDX 14 14
REMARK H PARENT
REMARK Flexibility Score: inf
ROOT
ATOM      1  C   UNL     1      -6.047   3.552  -1.824  1.00  0.00     0.000 C 
ENDROOT
BRANCH   1   2
ATOM      2  C   UNL     1      -4.891   4.490  -1.436  1.00  0.00     0.000 C 
BRANCH   2   3
ATOM      3  C   UNL     1      -3.531   4.012  -1.977  1.00  0.00     0.006 C 
BRANCH   3   4
ATOM      4  C   UNL     1      -3.176   4.552  -3.371  1.00  0.00     0.053 C 
BRANCH   4   5
ATOM      5  C   UNL     1      -1.879   4.000  -3.875  1.00  0.00     0.041 C 
ATOM      6  O   UNL     1      -1.357   2.998  -3.318  1.00  0.00    -0.550 OA
ATOM      7  O   UNL     1      -1.261   4.570  -4.981  1.00  0.00    -0.550 OA
ENDBRANCH   4   5
ENDBRANCH   3   4
ENDBRANCH   2   3
ENDBRANCH   1   2
BRANCH   1   8
ATOM      8  C   UNL     1      -6.661   2.841  -0.607  1.00  0.00     0.000 C 
BRANCH   8   9
ATOM      9  C   UNL     1      -5.979   1.495  -0.306  1.00  0.00     0.000 C 
BRANCH   9  10
ATOM     10  C   UNL     1      -4.971   1.586   0.855  1.00  0.00     0.006 C 
BRANCH  10  11
ATOM     11  C   UNL     1      -5.232   2.741   1.835  1.00  0.00     0.053 C 
BRANCH  11  12
ATOM     12  C   UNL     1      -3.972   3.464   2.198  1.00  0.00     0.041 C 
ATOM     13  O   UNL     1      -2.931   3.314   1.505  1.00  0.00    -0.550 OA
ATOM     14  O   UNL     1      -3.938   4.281   3.321  1.00  0.00    -0.550 OA
ENDBRANCH  11  12
ENDBRANCH  10  11
ENDBRANCH   9  10
ENDBRANCH   8   9
ENDBRANCH   1   8
TORSDOF 9
ENDMDL
MODEL 8
REMARK VINA RESULT:    -3.294      3.416      4.898
REMARK INTER + INTRA:          -6.003
REMARK INTER:                  -4.959
REMARK INTRA:                  -1.044
REMARK UNBOUND:                -0.976
REMARK SMILES O=C([O-])CCCCCCCCC(=O)[O-]
REMARK SMILES IDX 7 1 6 2 5 3 4 4 2 5 1 6 3 7 8 8 9 9 10 10 11 11 12 12 13 13
REMARK SMILES IDX 14 14
REMARK H PARENT
REMARK Flexibility Score: inf
ROOT
ATOM      1  C   UNL     1      -5.925   1.885  -0.521  1.00  0.00     0.000 C 
ENDROOT
BRANCH   1   2
ATOM      2  C   UNL     1      -4.648   1.367   0.162  1.00  0.00     0.000 C 
BRANCH   2   3
ATOM      3  C   UNL     1      -3.451   2.320  -0.014  1.00  0.00     0.006 C 
BRANCH   3   4
ATOM      4  C   UNL     1      -3.184   3.235   1.191  1.00  0.00     0.053 C 
BRANCH   4   5
ATOM      5  C   UNL     1      -3.565   4.656   0.915  1.00  0.00     0.041 C 
ATOM      6  O   UNL     1      -4.418   4.922   0.026  1.00  0.00    -0.550 OA
ATOM      7  O   UNL     1      -3.006   5.686   1.660  1.00  0.00    -0.550 OA
ENDBRANCH   4   5
ENDBRANCH   3   4
ENDBRANCH   2   3
ENDBRANCH   1   2
BRANCH   1   8
ATOM      8  C   UNL     1      -7.151   1.825   0.405  1.00  0.00     0.000 C 
BRANCH   8   9
ATOM      9  C   UNL     1      -6.769   1.885   1.894  1.00  0.00     0.000 C 
BRANCH   9  10
ATOM     10  C   UNL     1      -6.761   3.322   2.449  1.00  0.00     0.006 C 
BRANCH  10  11
ATOM     11  C   UNL     1      -6.135   3.461   3.846  1.00  0.00     0.053 C 
BRANCH  11  12
ATOM     12  C   UNL     1      -5.500   4.803   4.045  1.00  0.00     0.041 C 
ATOM     13  O   UNL     1      -6.100   5.849   3.682  1.00  0.00    -0.550 OA
ATOM     14  O   UNL     1      -4.231   4.896   4.602  1.00  0.00    -0.550 OA
ENDBRANCH  11  12
ENDBRANCH  10  11
ENDBRANCH   9  10
ENDBRANCH   8   9
ENDBRANCH   1   8
TORSDOF 9
ENDMDL
MODEL 9
REMARK VINA RESULT:    -3.252      2.967      4.658
REMARK INTER + INTRA:          -5.939
REMARK INTER:                  -5.235
REMARK INTRA:                  -0.704
REMARK UNBOUND:                -0.976
REMARK SMILES O=C([O-])CCCCCCCCC(=O)[O-]
REMARK SMILES IDX 7 1 6 2 5 3 4 4 2 5 1 6 3 7 8 8 9 9 10 10 11 11 12 12 13 13
REMARK SMILES IDX 14 14
REMARK H PARENT
REMARK Flexibility Score: inf
ROOT
ATOM      1  C   UNL     1      -6.805   3.328  -0.921  1.00  0.00     0.000 C 
ENDROOT
BRANCH   1   2
ATOM      2  C   UNL     1      -6.627   1.813  -0.723  1.00  0.00     0.000 C 
BRANCH   2   3
ATOM      3  C   UNL     1      -5.326   1.460   0.021  1.00  0.00     0.006 C 
BRANCH   3   4
ATOM      4  C   UNL     1      -4.956   2.434   1.151  1.00  0.00     0.053 C 
BRANCH   4   5
ATOM      5  C   UNL     1      -3.523   2.862   1.080  1.00  0.00     0.041 C 
ATOM      6  O   UNL     1      -3.064   3.682   1.919  1.00  0.00    -0.550 OA
ATOM      7  O   UNL     1      -2.684   2.331   0.109  1.00  0.00    -0.550 OA
ENDBRANCH   4   5
ENDBRANCH   3   4
ENDBRANCH   2   3
ENDBRANCH   1   2
BRANCH   1   8
ATOM      8  C   UNL     1      -6.079   3.846  -2.174  1.00  0.00     0.000 C 
BRANCH   8   9
ATOM      9  C   UNL     1      -4.989   4.880  -1.837  1.00  0.00     0.000 C 
BRANCH   9  10
ATOM     10  C   UNL     1      -3.598   4.467  -2.354  1.00  0.00     0.006 C 
BRANCH  10  11
ATOM     11  C   UNL     1      -3.374   4.726  -3.852  1.00  0.00     0.053 C 
BRANCH  11  12
ATOM     12  C   UNL     1      -2.134   4.054  -4.358  1.00  0.00     0.041 C 
ATOM     13  O   UNL     1      -1.442   3.338  -3.588  1.00  0.00    -0.550 OA
ATOM     14  O   UNL     1      -1.727   4.247  -5.671  1.00  0.00    -0.550 OA
ENDBRANCH  11  12
ENDBRANCH  10  11
ENDBRANCH   9  10
ENDBRANCH   8   9
ENDBRANCH   1   8
TORSDOF 9
ENDMDL
