MODEL 1
REMARK VINA RESULT:    -4.894      0.000      0.000
REMARK INTER + INTRA:         -10.570
REMARK INTER:                  -8.900
REMARK INTRA:                  -1.670
REMARK UNBOUND:                -1.670
REMARK SMILES CCCCCCCCCCCCCC[C@@H](C)C(=O)[O-]
REMARK SMILES IDX 9 1 10 2 11 3 12 4 13 5 14 6 15 7 16 8 17 9 18 10 19 11 8 12
REMARK SMILES IDX 7 13 6 14 5 15 4 16 3 17 2 18 1 19
REMARK H PARENT
REMARK Flexibility Score: inf
ROOT
ATOM      1  C   UNL     1     192.217   2.413  98.818  1.00  0.00     0.000 C 
ENDROOT
BRANCH   1   2
ATOM      2  C   UNL     1     192.389   1.833 100.231  1.00  0.00     0.000 C 
BRANCH   2   3
ATOM      3  C   UNL     1     193.338   2.703 101.069  1.00  0.00     0.000 C 
BRANCH   3   4
ATOM      4  C   UNL     1     193.645   2.089 102.444  1.00  0.00     0.000 C 
BRANCH   4   5
ATOM      5  C   UNL     1     193.063   0.673 102.601  1.00  0.00     0.001 C 
BRANCH   5   6
ATOM      6  C   UNL     1     191.994   0.582 103.706  1.00  0.00     0.009 C 
BRANCH   6   7
ATOM      7  C   UNL     1     191.827   1.857 104.565  1.00  0.00     0.032 C 
ATOM      8  C   UNL     1     190.358   2.271 104.726  1.00  0.00     0.014 C 
BRANCH   7   9
ATOM      9  C   UNL     1     192.448   1.640 105.917  1.00  0.00     0.044 C 
ATOM     10  O   UNL     1     192.112   0.654 106.626  1.00  0.00    -0.550 OA
ATOM     11  O   UNL     1     193.414   2.522 106.387  1.00  0.00    -0.550 OA
ENDBRANCH   7   9
ENDBRANCH   6   7
ENDBRANCH   5   6
ENDBRANCH   4   5
ENDBRANCH   3   4
ENDBRANCH   2   3
ENDBRANCH   1   2
BRANCH   1  12
ATOM     12  C   UNL     1     192.234   3.950  98.802  1.00  0.00     0.000 C 
BRANCH  12  13
ATOM     13  C   UNL     1     190.899   4.553  98.338  1.00  0.00    -0.000 C 
BRANCH  13  14
ATOM     14  C   UNL     1     189.874   3.448  98.042  1.00  0.00    -0.000 C 
BRANCH  14  15
ATOM     15  C   UNL     1     189.059   3.719  96.767  1.00  0.00    -0.000 C 
BRANCH  15  16
ATOM     16  C   UNL     1     189.842   4.545  95.731  1.00  0.00    -0.000 C 
BRANCH  16  17
ATOM     17  C   UNL     1     190.509   3.668  94.659  1.00  0.00    -0.000 C 
BRANCH  17  18
ATOM     18  C   UNL     1     191.992   3.397  94.954  1.00  0.00    -0.003 C 
ATOM     19  C   UNL     1     192.236   1.913  95.216  1.00  0.00     0.004 C 
ENDBRANCH  17  18
ENDBRANCH  16  17
ENDBRANCH  15  16
ENDBRANCH  14  15
ENDBRANCH  13  14
ENDBRANCH  12  13
ENDBRANCH   1  12
TORSDOF 14
ENDMDL
MODEL 2
REMARK VINA RESULT:    -4.553      1.631      2.776
REMARK INTER + INTRA:          -9.949
REMARK INTER:                  -8.349
REMARK INTRA:                  -1.600
REMARK UNBOUND:                -1.670
REMARK SMILES CCCCCCCCCCCCCC[C@@H](C)C(=O)[O-]
REMARK SMILES IDX 9 1 10 2 11 3 12 4 13 5 14 6 15 7 16 8 17 9 18 10 19 11 8 12
REMARK SMILES IDX 7 13 6 14 5 15 4 16 3 17 2 18 1 19
REMARK H PARENT
REMARK Flexibility Score: inf
ROOT
ATOM      1  C   UNL     1     191.675   0.029 101.255  1.00  0.00     0.000 C 
ENDROOT
BRANCH   1   2
ATOM      2  C   UNL     1     193.023  -0.616 100.901  1.00  0.00     0.000 C 
BRANCH   2   3
ATOM      3  C   UNL     1     194.082  -0.294 101.968  1.00  0.00     0.000 C 
BRANCH   3   4
ATOM      4  C   UNL     1     193.959  -1.189 103.212  1.00  0.00     0.000 C 
BRANCH   4   5
ATOM      5  C   UNL     1     193.869  -0.376 104.516  1.00  0.00     0.001 C 
BRANCH   5   6
ATOM      6  C   UNL     1     192.424   0.009 104.884  1.00  0.00     0.009 C 
BRANCH   6   7
ATOM      7  C   UNL     1     192.213   1.497 105.248  1.00  0.00     0.032 C 
ATOM      8  C   UNL     1     192.940   2.447 104.287  1.00  0.00     0.014 C 
BRANCH   7   9
ATOM      9  C   UNL     1     190.741   1.810 105.260  1.00  0.00     0.044 C 
ATOM     10  O   UNL     1     190.139   2.102 104.193  1.00  0.00    -0.550 OA
ATOM     11  O   UNL     1     190.032   1.763 106.455  1.00  0.00    -0.550 OA
ENDBRANCH   7   9
ENDBRANCH   6   7
ENDBRANCH   5   6
ENDBRANCH   4   5
ENDBRANCH   3   4
ENDBRANCH   2   3
ENDBRANCH   1   2
BRANCH   1  12
ATOM     12  C   UNL     1     191.638   1.535 100.950  1.00  0.00     0.000 C 
BRANCH  12  13
ATOM     13  C   UNL     1     192.261   1.880  99.589  1.00  0.00    -0.000 C 
BRANCH  13  14
ATOM     14  C   UNL     1     192.757   3.334  99.568  1.00  0.00    -0.000 C 
BRANCH  14  15
ATOM     15  C   UNL     1     192.008   4.202  98.543  1.00  0.00    -0.000 C 
BRANCH  15  16
ATOM     16  C   UNL     1     190.719   3.533  98.033  1.00  0.00    -0.000 C 
BRANCH  16  17
ATOM     17  C   UNL     1     190.379   3.930  96.588  1.00  0.00    -0.000 C 
BRANCH  17  18
ATOM     18  C   UNL     1     191.465   3.509  95.587  1.00  0.00    -0.003 C 
ATOM     19  C   UNL     1     191.697   4.596  94.540  1.00  0.00     0.004 C 
ENDBRANCH  17  18
ENDBRANCH  16  17
ENDBRANCH  15  16
ENDBRANCH  14  15
ENDBRANCH  13  14
ENDBRANCH  12  13
ENDBRANCH   1  12
TORSDOF 14
ENDMDL
MODEL 3
REMARK VINA RESULT:    -4.503      4.205      8.133
REMARK INTER + INTRA:          -9.858
REMARK INTER:                  -8.293
REMARK INTRA:                  -1.565
REMARK UNBOUND:                -1.670
REMARK SMILES CCCCCCCCCCCCCC[C@@H](C)C(=O)[O-]
REMARK SMILES IDX 9 1 10 2 11 3 12 4 13 5 14 6 15 7 16 8 17 9 18 10 19 11 8 12
REMARK SMILES IDX 7 13 6 14 5 15 4 16 3 17 2 18 1 19
REMARK H PARENT
REMARK Flexibility Score: inf
ROOT
ATOM      1  C   UNL     1     193.508   2.470 100.729  1.00  0.00     0.000 C 
ENDROOT
BRANCH   1   2
ATOM      2  C   UNL     1     192.145   2.056 100.155  1.00  0.00     0.000 C 
BRANCH   2   3
ATOM      3  C   UNL     1     192.014   2.486  98.686  1.00  0.00     0.000 C 
BRANCH   3   4
ATOM      4  C   UNL     1     191.874   4.008  98.525  1.00  0.00     0.000 C 
BRANCH   4   5
ATOM      5  C   UNL     1     190.975   4.394  97.337  1.00  0.00     0.001 C 
BRANCH   5   6
ATOM      6  C   UNL     1     190.590   3.189  96.458  1.00  0.00     0.009 C 
BRANCH   6   7
ATOM      7  C   UNL     1     190.911   3.345  94.954  1.00  0.00     0.032 C 
ATOM      8  C   UNL     1     191.708   4.621  94.650  1.00  0.00     0.014 C 
BRANCH   7   9
ATOM      9  C   UNL     1     191.672   2.140  94.473  1.00  0.00     0.044 C 
ATOM     10  O   UNL     1     192.471   1.539  95.239  1.00  0.00    -0.550 OA
ATOM     11  O   UNL     1     191.484   1.672  93.178  1.00  0.00    -0.550 OA
ENDBRANCH   7   9
ENDBRANCH   6   7
ENDBRANCH   5   6
ENDBRANCH   4   5
ENDBRANCH   3   4
ENDBRANCH   2   3
ENDBRANCH   1   2
BRANCH   1  12
ATOM     12  C   UNL     1     193.411   2.988 102.173  1.00  0.00     0.000 C 
BRANCH  12  13
ATOM     13  C   UNL     1     193.751   1.911 103.215  1.00  0.00    -0.000 C 
BRANCH  13  14
ATOM     14  C   UNL     1     192.678   1.855 104.313  1.00  0.00    -0.000 C 
BRANCH  14  15
ATOM     15  C   UNL     1     191.975   0.490 104.387  1.00  0.00    -0.000 C 
BRANCH  15  16
ATOM     16  C   UNL     1     191.509  -0.009 103.007  1.00  0.00    -0.000 C 
BRANCH  16  17
ATOM     17  C   UNL     1     191.696  -1.525 102.833  1.00  0.00    -0.000 C 
BRANCH  17  18
ATOM     18  C   UNL     1     192.253  -1.899 101.452  1.00  0.00    -0.003 C 
ATOM     19  C   UNL     1     193.595  -1.217 101.199  1.00  0.00     0.004 C 
ENDBRANCH  17  18
ENDBRANCH  16  17
ENDBRANCH  15  16
ENDBRANCH  14  15
ENDBRANCH  13  14
ENDBRANCH  12  13
ENDBRANCH   1  12
TORSDOF 14
ENDMDL
MODEL 4
REMARK VINA RESULT:    -4.476      1.609      2.817
REMARK INTER + INTRA:          -9.809
REMARK INTER:                  -8.167
REMARK INTRA:                  -1.642
REMARK UNBOUND:                -1.670
REMARK SMILES CCCCCCCCCCCCCC[C@@H](C)C(=O)[O-]
REMARK SMILES IDX 9 1 10 2 11 3 12 4 13 5 14 6 15 7 16 8 17 9 18 10 19 11 8 12
REMARK SMILES IDX 7 13 6 14 5 15 4 16 3 17 2 18 1 19
REMARK H PARENT
REMARK Flexibility Score: inf
ROOT
ATOM      1  C   UNL     1     190.221   3.620  98.226  1.00  0.00     0.000 C 
ENDROOT
BRANCH   1   2
ATOM      2  C   UNL     1     191.390   4.558  98.562  1.00  0.00     0.000 C 
BRANCH   2   3
ATOM      3  C   UNL     1     192.624   3.760  99.011  1.00  0.00     0.000 C 
BRANCH   3   4
ATOM      4  C   UNL     1     192.270   2.344  99.493  1.00  0.00     0.000 C 
BRANCH   4   5
ATOM      5  C   UNL     1     192.992   1.967 100.798  1.00  0.00     0.001 C 
BRANCH   5   6
ATOM      6  C   UNL     1     192.947   0.456 101.094  1.00  0.00     0.009 C 
BRANCH   6   7
ATOM      7  C   UNL     1     191.720  -0.018 101.906  1.00  0.00     0.032 C 
ATOM      8  C   UNL     1     191.624  -1.548 101.991  1.00  0.00     0.014 C 
BRANCH   7   9
ATOM      9  C   UNL     1     191.772   0.569 103.290  1.00  0.00     0.044 C 
ATOM     10  O   UNL     1     190.999   1.508 103.617  1.00  0.00    -0.550 OA
ATOM     11  O   UNL     1     192.669   0.064 104.224  1.00  0.00    -0.550 OA
ENDBRANCH   7   9
ENDBRANCH   6   7
ENDBRANCH   5   6
ENDBRANCH   4   5
ENDBRANCH   3   4
ENDBRANCH   2   3
ENDBRANCH   1   2
BRANCH   1  12
ATOM     12  C   UNL     1     188.861   4.336  98.245  1.00  0.00     0.000 C 
BRANCH  12  13
ATOM     13  C   UNL     1     188.427   4.821  96.854  1.00  0.00    -0.000 C 
BRANCH  13  14
ATOM     14  C   UNL     1     188.660   3.730  95.797  1.00  0.00    -0.000 C 
BRANCH  14  15
ATOM     15  C   UNL     1     188.883   4.305  94.389  1.00  0.00    -0.000 C 
BRANCH  15  16
ATOM     16  C   UNL     1     190.262   3.936  93.812  1.00  0.00    -0.000 C 
BRANCH  16  17
ATOM     17  C   UNL     1     191.412   4.679  94.510  1.00  0.00    -0.000 C 
BRANCH  17  18
ATOM     18  C   UNL     1     192.368   3.732  95.250  1.00  0.00    -0.003 C 
ATOM     19  C   UNL     1     191.978   2.274  95.025  1.00  0.00     0.004 C 
ENDBRANCH  17  18
ENDBRANCH  16  17
ENDBRANCH  15  16
ENDBRANCH  14  15
ENDBRANCH  13  14
ENDBRANCH  12  13
ENDBRANCH   1  12
TORSDOF 14
ENDMDL
MODEL 5
REMARK VINA RESULT:    -4.448      3.924      8.879
REMARK INTER + INTRA:          -9.759
REMARK INTER:                  -8.683
REMARK INTRA:                  -1.076
REMARK UNBOUND:                -1.670
REMARK SMILES CCCCCCCCCCCCCC[C@@H](C)C(=O)[O-]
REMARK SMILES IDX 9 1 10 2 11 3 12 4 13 5 14 6 15 7 16 8 17 9 18 10 19 11 8 12
REMARK SMILES IDX 7 13 6 14 5 15 4 16 3 17 2 18 1 19
REMARK H PARENT
REMARK Flexibility Score: inf
ROOT
ATOM      1  C   UNL     1     193.412   1.698 102.082  1.00  0.00     0.000 C 
ENDROOT
BRANCH   1   2
ATOM      2  C   UNL     1     192.696   0.848 101.021  1.00  0.00     0.000 C 
BRANCH   2   3
ATOM      3  C   UNL     1     191.931   1.737 100.029  1.00  0.00     0.000 C 
BRANCH   3   4
ATOM      4  C   UNL     1     192.728   2.984  99.615  1.00  0.00     0.000 C 
BRANCH   4   5
ATOM      5  C   UNL     1     191.954   3.879  98.631  1.00  0.00     0.001 C 
BRANCH   5   6
ATOM      6  C   UNL     1     190.712   3.187  98.039  1.00  0.00     0.009 C 
BRANCH   6   7
ATOM      7  C   UNL     1     190.418   3.519  96.558  1.00  0.00     0.032 C 
ATOM      8  C   UNL     1     189.971   4.973  96.358  1.00  0.00     0.014 C 
BRANCH   7   9
ATOM      9  C   UNL     1     191.639   3.240  95.726  1.00  0.00     0.044 C 
ATOM     10  O   UNL     1     192.003   2.055  95.498  1.00  0.00    -0.550 OA
ATOM     11  O   UNL     1     192.368   4.294  95.189  1.00  0.00    -0.550 OA
ENDBRANCH   7   9
ENDBRANCH   6   7
ENDBRANCH   5   6
ENDBRANCH   4   5
ENDBRANCH   3   4
ENDBRANCH   2   3
ENDBRANCH   1   2
BRANCH   1  12
ATOM     12  C   UNL     1     192.775   1.569 103.475  1.00  0.00     0.000 C 
BRANCH  12  13
ATOM     13  C   UNL     1     193.230   2.674 104.440  1.00  0.00    -0.000 C 
BRANCH  13  14
ATOM     14  C   UNL     1     193.048   2.233 105.900  1.00  0.00    -0.000 C 
BRANCH  14  15
ATOM     15  C   UNL     1     192.487   0.808 106.025  1.00  0.00    -0.000 C 
BRANCH  15  16
ATOM     16  C   UNL     1     191.250   0.737 106.939  1.00  0.00    -0.000 C 
BRANCH  16  17
ATOM     17  C   UNL     1     190.114   1.658 106.467  1.00  0.00    -0.000 C 
BRANCH  17  18
ATOM     18  C   UNL     1     189.494   2.471 107.613  1.00  0.00    -0.003 C 
ATOM     19  C   UNL     1     190.490   2.659 108.753  1.00  0.00     0.004 C 
ENDBRANCH  17  18
ENDBRANCH  16  17
ENDBRANCH  15  16
ENDBRANCH  14  15
ENDBRANCH  13  14
ENDBRANCH  12  13
ENDBRANCH   1  12
TORSDOF 14
ENDMDL
MODEL 6
REMARK VINA RESULT:    -4.365      1.591      2.635
REMARK INTER + INTRA:          -9.608
REMARK INTER:                  -8.297
REMARK INTRA:                  -1.312
REMARK UNBOUND:                -1.670
REMARK SMILES CCCCCCCCCCCCCC[C@@H](C)C(=O)[O-]
REMARK SMILES IDX 9 1 10 2 11 3 12 4 13 5 14 6 15 7 16 8 17 9 18 10 19 11 8 12
REMARK SMILES IDX 7 13 6 14 5 15 4 16 3 17 2 18 1 19
REMARK H PARENT
REMARK Flexibility Score: inf
ROOT
ATOM      1  C   UNL     1     192.388   1.940  99.759  1.00  0.00     0.000 C 
ENDROOT
BRANCH   1   2
ATOM      2  C   UNL     1     192.499   1.331 101.165  1.00  0.00     0.000 C 
BRANCH   2   3
ATOM      3  C   UNL     1     191.576   0.111 101.309  1.00  0.00     0.000 C 
BRANCH   3   4
ATOM      4  C   UNL     1     191.860  -0.699 102.584  1.00  0.00     0.000 C 
BRANCH   4   5
ATOM      5  C   UNL     1     193.085  -0.175 103.355  1.00  0.00     0.001 C 
BRANCH   5   6
ATOM      6  C   UNL     1     192.850  -0.098 104.875  1.00  0.00     0.009 C 
BRANCH   6   7
ATOM      7  C   UNL     1     192.523   1.312 105.418  1.00  0.00     0.032 C 
ATOM      8  C   UNL     1     193.200   2.427 104.610  1.00  0.00     0.014 C 
BRANCH   7   9
ATOM      9  C   UNL     1     191.033   1.517 105.424  1.00  0.00     0.044 C 
ATOM     10  O   UNL     1     190.350   1.226 106.442  1.00  0.00    -0.550 OA
ATOM     11  O   UNL     1     190.401   2.048 104.306  1.00  0.00    -0.550 OA
ENDBRANCH   7   9
ENDBRANCH   6   7
ENDBRANCH   5   6
ENDBRANCH   4   5
ENDBRANCH   3   4
ENDBRANCH   2   3
ENDBRANCH   1   2
BRANCH   1  12
ATOM     12  C   UNL     1     192.783   3.425  99.723  1.00  0.00     0.000 C 
BRANCH  12  13
ATOM     13  C   UNL     1     192.076   4.200  98.601  1.00  0.00    -0.000 C 
BRANCH  13  14
ATOM     14  C   UNL     1     191.000   3.332  97.930  1.00  0.00    -0.000 C 
BRANCH  14  15
ATOM     15  C   UNL     1     191.055   3.398  96.395  1.00  0.00    -0.000 C 
BRANCH  15  16
ATOM     16  C   UNL     1     190.192   4.536  95.822  1.00  0.00    -0.000 C 
BRANCH  16  17
ATOM     17  C   UNL     1     188.686   4.267  95.969  1.00  0.00    -0.000 C 
BRANCH  17  18
ATOM     18  C   UNL     1     187.907   5.500  96.450  1.00  0.00    -0.003 C 
ATOM     19  C   UNL     1     188.222   5.812  97.910  1.00  0.00     0.004 C 
ENDBRANCH  17  18
ENDBRANCH  16  17
ENDBRANCH  15  16
ENDBRANCH  14  15
ENDBRANCH  13  14
ENDBRANCH  12  13
ENDBRANCH   1  12
TORSDOF 14
ENDMDL
MODEL 7
REMARK VINA RESULT:    -4.349      1.645      2.676
REMARK INTER + INTRA:          -9.579
REMARK INTER:                  -8.367
REMARK INTRA:                  -1.212
REMARK UNBOUND:                -1.670
REMARK SMILES CCCCCCCCCCCCCC[C@@H](C)C(=O)[O-]
REMARK SMILES IDX 9 1 10 2 11 3 12 4 13 5 14 6 15 7 16 8 17 9 18 10 19 11 8 12
REMARK SMILES IDX 7 13 6 14 5 15 4 16 3 17 2 18 1 19
REMARK H PARENT
REMARK Flexibility Score: inf
ROOT
ATOM      1  C   UNL     1     192.063   2.396  99.083  1.00  0.00     0.000 C 
ENDROOT
BRANCH   1   2
ATOM      2  C   UNL     1     192.948   2.764 100.283  1.00  0.00     0.000 C 
BRANCH   2   3
ATOM      3  C   UNL     1     193.101   1.570 101.238  1.00  0.00     0.000 C 
BRANCH   3   4
ATOM      4  C   UNL     1     191.990   0.524 101.061  1.00  0.00     0.000 C 
BRANCH   4   5
ATOM      5  C   UNL     1     191.446   0.008 102.405  1.00  0.00     0.001 C 
BRANCH   5   6
ATOM      6  C   UNL     1     191.489   1.072 103.518  1.00  0.00     0.009 C 
BRANCH   6   7
ATOM      7  C   UNL     1     192.153   0.615 104.838  1.00  0.00     0.032 C 
ATOM      8  C   UNL     1     192.922  -0.704 104.686  1.00  0.00     0.014 C 
BRANCH   7   9
ATOM      9  C   UNL     1     193.078   1.692 105.337  1.00  0.00     0.044 C 
ATOM     10  O   UNL     1     192.845   2.283 106.425  1.00  0.00    -0.550 OA
ATOM     11  O   UNL     1     194.208   2.031 104.602  1.00  0.00    -0.550 OA
ENDBRANCH   7   9
ENDBRANCH   6   7
ENDBRANCH   5   6
ENDBRANCH   4   5
ENDBRANCH   3   4
ENDBRANCH   2   3
ENDBRANCH   1   2
BRANCH   1  12
ATOM     12  C   UNL     1     191.673   3.619  98.236  1.00  0.00     0.000 C 
BRANCH  12  13
ATOM     13  C   UNL     1     190.152   3.812  98.138  1.00  0.00    -0.000 C 
BRANCH  13  14
ATOM     14  C   UNL     1     189.794   5.304  98.065  1.00  0.00    -0.000 C 
BRANCH  14  15
ATOM     15  C   UNL     1     188.728   5.607  96.999  1.00  0.00    -0.000 C 
BRANCH  15  16
ATOM     16  C   UNL     1     188.689   4.546  95.884  1.00  0.00    -0.000 C 
BRANCH  16  17
ATOM     17  C   UNL     1     187.288   3.947  95.688  1.00  0.00    -0.000 C 
BRANCH  17  18
ATOM     18  C   UNL     1     186.496   3.849  97.001  1.00  0.00    -0.003 C 
ATOM     19  C   UNL     1     186.226   2.393  97.370  1.00  0.00     0.004 C 
ENDBRANCH  17  18
ENDBRANCH  16  17
ENDBRANCH  15  16
ENDBRANCH  14  15
ENDBRANCH  13  14
ENDBRANCH  12  13
ENDBRANCH   1  12
TORSDOF 14
ENDMDL
MODEL 8
REMARK VINA RESULT:    -4.349      1.858      4.146
REMARK INTER + INTRA:          -9.579
REMARK INTER:                  -7.710
REMARK INTRA:                  -1.869
REMARK UNBOUND:                -1.670
REMARK SMILES CCCCCCCCCCCCCC[C@@H](C)C(=O)[O-]
REMARK SMILES IDX 9 1 10 2 11 3 12 4 13 5 14 6 15 7 16 8 17 9 18 10 19 11 8 12
REMARK SMILES IDX 7 13 6 14 5 15 4 16 3 17 2 18 1 19
REMARK H PARENT
REMARK Flexibility Score: inf
ROOT
ATOM      1  C   UNL     1     194.252  -1.069 102.616  1.00  0.00     0.000 C 
ENDROOT
BRANCH   1   2
ATOM      2  C   UNL     1     193.263  -2.235 102.764  1.00  0.00     0.000 C 
BRANCH   2   3
ATOM      3  C   UNL     1     193.089  -2.622 104.241  1.00  0.00     0.000 C 
BRANCH   3   4
ATOM      4  C   UNL     1     192.095  -1.710 104.979  1.00  0.00     0.000 C 
BRANCH   4   5
ATOM      5  C   UNL     1     192.758  -0.916 106.118  1.00  0.00     0.001 C 
BRANCH   5   6
ATOM      6  C   UNL     1     192.361   0.573 106.123  1.00  0.00     0.009 C 
BRANCH   6   7
ATOM      7  C   UNL     1     192.253   1.227 104.726  1.00  0.00     0.032 C 
ATOM      8  C   UNL     1     190.842   1.756 104.431  1.00  0.00     0.014 C 
BRANCH   7   9
ATOM      9  C   UNL     1     193.252   2.346 104.614  1.00  0.00     0.044 C 
ATOM     10  O   UNL     1     193.781   2.839 105.646  1.00  0.00    -0.550 OA
ATOM     11  O   UNL     1     193.611   2.833 103.363  1.00  0.00    -0.550 OA
ENDBRANCH   7   9
ENDBRANCH   6   7
ENDBRANCH   5   6
ENDBRANCH   4   5
ENDBRANCH   3   4
ENDBRANCH   2   3
ENDBRANCH   1   2
BRANCH   1  12
ATOM     12  C   UNL     1     193.852  -0.090 101.500  1.00  0.00     0.000 C 
BRANCH  12  13
ATOM     13  C   UNL     1     192.372  -0.210 101.107  1.00  0.00    -0.000 C 
BRANCH  13  14
ATOM     14  C   UNL     1     191.743   1.178 100.916  1.00  0.00    -0.000 C 
BRANCH  14  15
ATOM     15  C   UNL     1     192.602   2.104 100.039  1.00  0.00    -0.000 C 
BRANCH  15  16
ATOM     16  C   UNL     1     191.886   2.520  98.741  1.00  0.00    -0.000 C 
BRANCH  16  17
ATOM     17  C   UNL     1     191.874   4.043  98.536  1.00  0.00    -0.000 C 
BRANCH  17  18
ATOM     18  C   UNL     1     190.623   4.531  97.792  1.00  0.00    -0.003 C 
ATOM     19  C   UNL     1     189.386   3.753  98.231  1.00  0.00     0.004 C 
ENDBRANCH  17  18
ENDBRANCH  16  17
ENDBRANCH  15  16
ENDBRANCH  14  15
ENDBRANCH  13  14
ENDBRANCH  12  13
ENDBRANCH   1  12
TORSDOF 14
ENDMDL
MODEL 9
REMARK VINA RESULT:    -4.348      1.349      2.618
REMARK INTER + INTRA:          -9.576
REMARK INTER:                  -8.342
REMARK INTRA:                  -1.234
REMARK UNBOUND:                -1.670
REMARK SMILES CCCCCCCCCCCCCC[C@@H](C)C(=O)[O-]
REMARK SMILES IDX 9 1 10 2 11 3 12 4 13 5 14 6 15 7 16 8 17 9 18 10 19 11 8 12
REMARK SMILES IDX 7 13 6 14 5 15 4 16 3 17 2 18 1 19
REMARK H PARENT
REMARK Flexibility Score: inf
ROOT
ATOM      1  C   UNL     1     192.007   2.383  98.653  1.00  0.00     0.000 C 
ENDROOT
BRANCH   1   2
ATOM      2  C   UNL     1     192.338   1.729 100.003  1.00  0.00     0.000 C 
BRANCH   2   3
ATOM      3  C   UNL     1     193.161   2.681 100.887  1.00  0.00     0.000 C 
BRANCH   3   4
ATOM      4  C   UNL     1     193.433   2.104 102.285  1.00  0.00     0.000 C 
BRANCH   4   5
ATOM      5  C   UNL     1     192.950   0.649 102.427  1.00  0.00     0.001 C 
BRANCH   5   6
ATOM      6  C   UNL     1     191.751   0.506 103.384  1.00  0.00     0.009 C 
BRANCH   6   7
ATOM      7  C   UNL     1     191.731   1.505 104.564  1.00  0.00     0.032 C 
ATOM      8  C   UNL     1     190.413   2.287 104.652  1.00  0.00     0.014 C 
BRANCH   7   9
ATOM      9  C   UNL     1     191.974   0.768 105.853  1.00  0.00     0.044 C 
ATOM     10  O   UNL     1     192.975   0.012 105.981  1.00  0.00    -0.550 OA
ATOM     11  O   UNL     1     191.101   0.931 106.922  1.00  0.00    -0.550 OA
ENDBRANCH   7   9
ENDBRANCH   6   7
ENDBRANCH   5   6
ENDBRANCH   4   5
ENDBRANCH   3   4
ENDBRANCH   2   3
ENDBRANCH   1   2
BRANCH   1  12
ATOM     12  C   UNL     1     191.970   3.918  98.730  1.00  0.00     0.000 C 
BRANCH  12  13
ATOM     13  C   UNL     1     190.738   4.518  98.036  1.00  0.00    -0.000 C 
BRANCH  13  14
ATOM     14  C   UNL     1     190.683   4.094  96.560  1.00  0.00    -0.000 C 
BRANCH  14  15
ATOM     15  C   UNL     1     189.332   3.473  96.171  1.00  0.00    -0.000 C 
BRANCH  15  16
ATOM     16  C   UNL     1     188.217   3.805  97.179  1.00  0.00    -0.000 C 
BRANCH  16  17
ATOM     17  C   UNL     1     187.035   4.545  96.530  1.00  0.00    -0.000 C 
BRANCH  17  18
ATOM     18  C   UNL     1     186.422   5.608  97.454  1.00  0.00    -0.003 C 
ATOM     19  C   UNL     1     187.452   6.123  98.456  1.00  0.00     0.004 C 
ENDBRANCH  17  18
ENDBRANCH  16  17
ENDBRANCH  15  16
ENDBRANCH  14  15
ENDBRANCH  13  14
ENDBRANCH  12  13
ENDBRANCH   1  12
TORSDOF 14
ENDMDL
