MODEL 1
REMARK VINA RESULT:    -5.209      0.000      0.000
REMARK INTER + INTRA:          -5.735
REMARK INTER:                  -6.123
REMARK INTRA:                   0.388
REMARK UNBOUND:                 0.388
REMARK SMILES O=c1c(O)c(-c2ccc(O)cc2)oc2cc(O)cc(O)c12
REMARK SMILES IDX 5 1 3 2 2 3 1 4 21 5 19 6 18 7 16 8 15 9 14 10 13 11 6 12
REMARK SMILES IDX 7 13 8 14 9 15 12 16 11 17 10 18 4 20 20 22 17 24
REMARK H PARENT 10 19 4 21 20 23 17 25
REMARK Flexibility Score: inf
ROOT
ATOM      1  C   UNL     1       1.036  32.509   6.610  1.00  0.00     0.180 A 
ATOM      2  C   UNL     1       1.510  31.212   6.881  1.00  0.00     0.208 A 
ATOM      3  C   UNL     1       2.060  30.939   8.143  1.00  0.00     0.238 A 
ATOM      4  O   UNL     1       2.432  29.764   8.399  1.00  0.00    -0.285 OA
ATOM      5  C   UNL     1       2.146  31.967   9.113  1.00  0.00     0.111 A 
ATOM      6  C   UNL     1       2.722  31.812  10.410  1.00  0.00     0.134 A 
ATOM      7  C   UNL     1       2.636  32.862  11.333  1.00  0.00     0.093 A 
ATOM      8  C   UNL     1       2.051  34.082  10.985  1.00  0.00     0.123 A 
ATOM      9  C   UNL     1       1.540  34.262   9.702  1.00  0.00     0.094 A 
ATOM     10  C   UNL     1       1.579  33.222   8.771  1.00  0.00     0.146 A 
ATOM     11  O   UNL     1       1.070  33.433   7.562  1.00  0.00    -0.452 OA
ENDROOT
BRANCH   1  12
ATOM     12  C   UNL     1       0.465  32.880   5.295  1.00  0.00     0.021 A 
ATOM     13  C   UNL     1      -0.313  34.044   5.183  1.00  0.00     0.016 A 
ATOM     14  C   UNL     1      -0.842  34.426   3.947  1.00  0.00     0.047 A 
ATOM     15  C   UNL     1      -0.590  33.658   2.806  1.00  0.00     0.115 A 
ATOM     16  C   UNL     1       0.732  32.123   4.140  1.00  0.00     0.016 A 
ATOM     17  C   UNL     1       0.202  32.508   2.905  1.00  0.00     0.047 A 
BRANCH  15  18
ATOM     18  O   UNL     1      -1.125  34.051   1.581  1.00  0.00    -0.508 OA
ATOM     19  H   UNL     1      -1.230  33.395   0.816  1.00  0.00     0.293 HD
ENDBRANCH  15  18
ENDBRANCH   1  12
BRANCH   2  20
ATOM     20  O   UNL     1       1.394  30.207   5.918  1.00  0.00    -0.502 OA
ATOM     21  H   UNL     1       2.140  29.549   5.727  1.00  0.00     0.293 HD
ENDBRANCH   2  20
BRANCH   6  22
ATOM     22  O   UNL     1       3.410  30.668  10.827  1.00  0.00    -0.507 OA
ATOM     23  H   UNL     1       4.264  30.675  11.361  1.00  0.00     0.293 HD
ENDBRANCH   6  22
BRANCH   8  24
ATOM     24  O   UNL     1       1.984  35.125  11.906  1.00  0.00    -0.508 OA
ATOM     25  H   UNL     1       1.805  34.955  12.888  1.00  0.00     0.293 HD
ENDBRANCH   8  24
TORSDOF 5
ENDMDL
MODEL 2
REMARK VINA RESULT:    -4.068      2.438      2.876
REMARK INTER + INTRA:          -4.394
REMARK INTER:                  -4.109
REMARK INTRA:                  -0.285
REMARK UNBOUND:                 0.388
REMARK SMILES O=c1c(O)c(-c2ccc(O)cc2)oc2cc(O)cc(O)c12
REMARK SMILES IDX 5 1 3 2 2 3 1 4 21 5 19 6 18 7 16 8 15 9 14 10 13 11 6 12
REMARK SMILES IDX 7 13 8 14 9 15 12 16 11 17 10 18 4 20 20 22 17 24
REMARK H PARENT 10 19 4 21 20 23 17 25
REMARK Flexibility Score: inf
ROOT
ATOM      1  C   UNL     1       1.075  32.087   5.820  1.00  0.00     0.180 A 
ATOM      2  C   UNL     1       0.262  31.376   6.721  1.00  0.00     0.208 A 
ATOM      3  C   UNL     1       0.862  30.724   7.809  1.00  0.00     0.238 A 
ATOM      4  O   UNL     1       0.125  30.135   8.642  1.00  0.00    -0.285 OA
ATOM      5  C   UNL     1       2.267  30.776   7.975  1.00  0.00     0.111 A 
ATOM      6  C   UNL     1       2.985  30.119   9.019  1.00  0.00     0.134 A 
ATOM      7  C   UNL     1       4.360  30.346   9.161  1.00  0.00     0.093 A 
ATOM      8  C   UNL     1       5.053  31.156   8.258  1.00  0.00     0.123 A 
ATOM      9  C   UNL     1       4.371  31.754   7.202  1.00  0.00     0.094 A 
ATOM     10  C   UNL     1       2.994  31.576   7.055  1.00  0.00     0.146 A 
ATOM     11  O   UNL     1       2.381  32.173   6.039  1.00  0.00    -0.452 OA
ENDROOT
BRANCH   1  12
ATOM     12  C   UNL     1       0.518  32.780   4.635  1.00  0.00     0.021 A 
ATOM     13  C   UNL     1       0.426  32.094   3.413  1.00  0.00     0.016 A 
ATOM     14  C   UNL     1      -0.118  32.721   2.288  1.00  0.00     0.047 A 
ATOM     15  C   UNL     1      -0.587  34.036   2.373  1.00  0.00     0.115 A 
ATOM     16  C   UNL     1       0.027  34.095   4.719  1.00  0.00     0.016 A 
ATOM     17  C   UNL     1      -0.517  34.720   3.592  1.00  0.00     0.047 A 
BRANCH  15  18
ATOM     18  O   UNL     1      -1.125  34.648   1.243  1.00  0.00    -0.508 OA
ATOM     19  H   UNL     1      -2.119  34.623   1.051  1.00  0.00     0.293 HD
ENDBRANCH  15  18
ENDBRANCH   1  12
BRANCH   2  20
ATOM     20  O   UNL     1      -1.125  31.357   6.551  1.00  0.00    -0.502 OA
ATOM     21  H   UNL     1      -1.766  31.643   7.282  1.00  0.00     0.293 HD
ENDBRANCH   2  20
BRANCH   6  22
ATOM     22  O   UNL     1       2.405  29.217   9.917  1.00  0.00    -0.507 OA
ATOM     23  H   UNL     1       1.646  29.437  10.542  1.00  0.00     0.293 HD
ENDBRANCH   6  22
BRANCH   8  24
ATOM     24  O   UNL     1       6.423  31.364   8.399  1.00  0.00    -0.508 OA
ATOM     25  H   UNL     1       7.091  30.963   7.751  1.00  0.00     0.293 HD
ENDBRANCH   8  24
TORSDOF 5
ENDMDL
MODEL 3
REMARK VINA RESULT:    -3.765     19.257     21.108
REMARK INTER + INTRA:          -4.037
REMARK INTER:                  -3.890
REMARK INTRA:                  -0.147
REMARK UNBOUND:                 0.388
REMARK SMILES O=c1c(O)c(-c2ccc(O)cc2)oc2cc(O)cc(O)c12
REMARK SMILES IDX 5 1 3 2 2 3 1 4 21 5 19 6 18 7 16 8 15 9 14 10 13 11 6 12
REMARK SMILES IDX 7 13 8 14 9 15 12 16 11 17 10 18 4 20 20 22 17 24
REMARK H PARENT 10 19 4 21 20 23 17 25
REMARK Flexibility Score: inf
ROOT
ATOM      1  C   UNL     1      17.134  21.619   1.972  1.00  0.00     0.180 A 
ATOM      2  C   UNL     1      15.885  21.288   1.417  1.00  0.00     0.208 A 
ATOM      3  C   UNL     1      15.520  19.936   1.322  1.00  0.00     0.238 A 
ATOM      4  O   UNL     1      14.378  19.649   0.875  1.00  0.00    -0.285 OA
ATOM      5  C   UNL     1      16.413  18.931   1.766  1.00  0.00     0.111 A 
ATOM      6  C   UNL     1      16.162  17.528   1.680  1.00  0.00     0.134 A 
ATOM      7  C   UNL     1      17.060  16.629   2.269  1.00  0.00     0.093 A 
ATOM      8  C   UNL     1      18.231  17.079   2.884  1.00  0.00     0.123 A 
ATOM      9  C   UNL     1      18.512  18.442   2.921  1.00  0.00     0.094 A 
ATOM     10  C   UNL     1      17.619  19.366   2.374  1.00  0.00     0.146 A 
ATOM     11  O   UNL     1      17.921  20.657   2.440  1.00  0.00    -0.452 OA
ENDROOT
BRANCH   1  12
ATOM     12  C   UNL     1      17.601  23.020   2.084  1.00  0.00     0.021 A 
ATOM     13  C   UNL     1      17.886  23.555   3.351  1.00  0.00     0.016 A 
ATOM     14  C   UNL     1      18.349  24.867   3.478  1.00  0.00     0.047 A 
ATOM     15  C   UNL     1      18.547  25.657   2.341  1.00  0.00     0.115 A 
ATOM     16  C   UNL     1      17.820  23.812   0.943  1.00  0.00     0.016 A 
ATOM     17  C   UNL     1      18.285  25.125   1.072  1.00  0.00     0.047 A 
BRANCH  15  18
ATOM     18  O   UNL     1      19.008  26.963   2.482  1.00  0.00    -0.508 OA
ATOM     19  H   UNL     1      19.218  27.540   1.677  1.00  0.00     0.293 HD
ENDBRANCH  15  18
ENDBRANCH   1  12
BRANCH   2  20
ATOM     20  O   UNL     1      15.010  22.297   1.006  1.00  0.00    -0.502 OA
ATOM     21  H   UNL     1      14.528  22.899   1.663  1.00  0.00     0.293 HD
ENDBRANCH   2  20
BRANCH   6  22
ATOM     22  O   UNL     1      15.071  16.970   1.006  1.00  0.00    -0.507 OA
ATOM     23  H   UNL     1      14.246  17.479   0.728  1.00  0.00     0.293 HD
ENDBRANCH   6  22
BRANCH   8  24
ATOM     24  O   UNL     1      19.125  16.176   3.454  1.00  0.00    -0.508 OA
ATOM     25  H   UNL     1      19.259  15.248   3.071  1.00  0.00     0.293 HD
ENDBRANCH   8  24
TORSDOF 5
ENDMDL
MODEL 4
REMARK VINA RESULT:    -3.548      1.541      2.960
REMARK INTER + INTRA:          -3.782
REMARK INTER:                  -4.089
REMARK INTRA:                   0.307
REMARK UNBOUND:                 0.388
REMARK SMILES O=c1c(O)c(-c2ccc(O)cc2)oc2cc(O)cc(O)c12
REMARK SMILES IDX 5 1 3 2 2 3 1 4 21 5 19 6 18 7 16 8 15 9 14 10 13 11 6 12
REMARK SMILES IDX 7 13 8 14 9 15 12 16 11 17 10 18 4 20 20 22 17 24
REMARK H PARENT 10 19 4 21 20 23 17 25
REMARK Flexibility Score: inf
ROOT
ATOM      1  C   UNL     1       1.042  33.145   6.229  1.00  0.00     0.180 A 
ATOM      2  C   UNL     1       0.575  33.749   7.409  1.00  0.00     0.208 A 
ATOM      3  C   UNL     1       1.158  33.391   8.634  1.00  0.00     0.238 A 
ATOM      4  O   UNL     1       0.773  33.975   9.681  1.00  0.00    -0.285 OA
ATOM      5  C   UNL     1       2.189  32.421   8.668  1.00  0.00     0.111 A 
ATOM      6  C   UNL     1       2.823  31.952   9.858  1.00  0.00     0.134 A 
ATOM      7  C   UNL     1       3.920  31.087   9.761  1.00  0.00     0.093 A 
ATOM      8  C   UNL     1       4.364  30.623   8.520  1.00  0.00     0.123 A 
ATOM      9  C   UNL     1       3.714  31.029   7.357  1.00  0.00     0.094 A 
ATOM     10  C   UNL     1       2.640  31.919   7.419  1.00  0.00     0.146 A 
ATOM     11  O   UNL     1       2.055  32.289   6.285  1.00  0.00    -0.452 OA
ENDROOT
BRANCH   1  12
ATOM     12  C   UNL     1       0.461  33.453   4.902  1.00  0.00     0.021 A 
ATOM     13  C   UNL     1       0.018  34.757   4.627  1.00  0.00     0.016 A 
ATOM     14  C   UNL     1      -0.512  35.076   3.374  1.00  0.00     0.047 A 
ATOM     15  C   UNL     1      -0.594  34.100   2.375  1.00  0.00     0.115 A 
ATOM     16  C   UNL     1       0.396  32.481   3.887  1.00  0.00     0.016 A 
ATOM     17  C   UNL     1      -0.135  32.802   2.634  1.00  0.00     0.047 A 
BRANCH  15  18
ATOM     18  O   UNL     1      -1.125  34.432   1.131  1.00  0.00    -0.508 OA
ATOM     19  H   UNL     1      -1.842  35.141   1.034  1.00  0.00     0.293 HD
ENDBRANCH  15  18
ENDBRANCH   1  12
BRANCH   2  20
ATOM     20  O   UNL     1      -0.428  34.721   7.351  1.00  0.00    -0.502 OA
ATOM     21  H   UNL     1      -0.628  35.342   8.125  1.00  0.00     0.293 HD
ENDBRANCH   2  20
BRANCH   6  22
ATOM     22  O   UNL     1       2.398  32.281  11.149  1.00  0.00    -0.507 OA
ATOM     23  H   UNL     1       1.436  32.405  11.424  1.00  0.00     0.293 HD
ENDBRANCH   6  22
BRANCH   8  24
ATOM     24  O   UNL     1       5.446  29.751   8.435  1.00  0.00    -0.508 OA
ATOM     25  H   UNL     1       5.776  29.233   9.240  1.00  0.00     0.293 HD
ENDBRANCH   8  24
TORSDOF 5
ENDMDL
