MODEL 1
REMARK VINA RESULT:    -5.619      0.000      0.000
REMARK INTER + INTRA:         -14.729
REMARK INTER:                 -12.190
REMARK INTRA:                  -2.539
REMARK UNBOUND:                -2.539
REMARK SMILES CCCCCCCCCCCCCCCCCCCCCC(=O)[O-]
REMARK SMILES IDX 12 1 11 2 10 3 9 4 8 5 7 6 6 7 5 8 4 9 3 10 2 11 1 12 13 13
REMARK SMILES IDX 14 14 15 15 16 16 17 17 18 18 19 19 20 20 21 21 22 22 23 23
REMARK SMILES IDX 24 24
REMARK H PARENT
REMARK Flexibility Score: inf
ROOT
ATOM      1  C   UNL     1       6.842  -2.313 -36.572  1.00  0.00     0.000 C 
ENDROOT
BRANCH   1   2
ATOM      2  C   UNL     1       6.480  -1.167 -35.607  1.00  0.00     0.000 C 
BRANCH   2   3
ATOM      3  C   UNL     1       5.431  -1.518 -34.536  1.00  0.00     0.000 C 
BRANCH   3   4
ATOM      4  C   UNL     1       5.172  -0.421 -33.485  1.00  0.00    -0.000 C 
BRANCH   4   5
ATOM      5  C   UNL     1       5.517   1.003 -33.969  1.00  0.00    -0.000 C 
BRANCH   5   6
ATOM      6  C   UNL     1       6.542   1.706 -33.062  1.00  0.00    -0.000 C 
BRANCH   6   7
ATOM      7  C   UNL     1       6.748   0.974 -31.725  1.00  0.00    -0.000 C 
BRANCH   7   8
ATOM      8  C   UNL     1       7.601   1.783 -30.734  1.00  0.00    -0.000 C 
BRANCH   8   9
ATOM      9  C   UNL     1       7.438   1.247 -29.306  1.00  0.00    -0.000 C 
BRANCH   9  10
ATOM     10  C   UNL     1       6.361   0.157 -29.245  1.00  0.00    -0.000 C 
BRANCH  10  11
ATOM     11  C   UNL     1       6.918  -1.131 -28.630  1.00  0.00    -0.003 C 
ATOM     12  C   UNL     1       5.793  -2.068 -28.199  1.00  0.00     0.004 C 
ENDBRANCH  10  11
ENDBRANCH   9  10
ENDBRANCH   8   9
ENDBRANCH   7   8
ENDBRANCH   6   7
ENDBRANCH   5   6
ENDBRANCH   4   5
ENDBRANCH   3   4
ENDBRANCH   2   3
ENDBRANCH   1   2
BRANCH   1  13
ATOM     13  C   UNL     1       8.194  -2.102 -37.272  1.00  0.00     0.000 C 
BRANCH  13  14
ATOM     14  C   UNL     1       8.129  -1.040 -38.386  1.00  0.00     0.000 C 
BRANCH  14  15
ATOM     15  C   UNL     1       8.896   0.266 -38.098  1.00  0.00     0.000 C 
BRANCH  15  16
ATOM     16  C   UNL     1       8.023   1.472 -37.703  1.00  0.00     0.000 C 
BRANCH  16  17
ATOM     17  C   UNL     1       8.365   2.027 -36.310  1.00  0.00     0.000 C 
BRANCH  17  18
ATOM     18  C   UNL     1       9.297   1.100 -35.508  1.00  0.00     0.000 C 
BRANCH  18  19
ATOM     19  C   UNL     1      10.490   1.793 -34.822  1.00  0.00     0.000 C 
BRANCH  19  20
ATOM     20  C   UNL     1      10.541   1.662 -33.287  1.00  0.00     0.006 C 
BRANCH  20  21
ATOM     21  C   UNL     1      11.827   2.221 -32.652  1.00  0.00     0.053 C 
BRANCH  21  22
ATOM     22  C   UNL     1      11.616   2.691 -31.245  1.00  0.00     0.041 C 
ATOM     23  O   UNL     1      11.072   1.935 -30.399  1.00  0.00    -0.550 OA
ATOM     24  O   UNL     1      11.986   3.980 -30.878  1.00  0.00    -0.550 OA
ENDBRANCH  21  22
ENDBRANCH  20  21
ENDBRANCH  19  20
ENDBRANCH  18  19
ENDBRANCH  17  18
ENDBRANCH  16  17
ENDBRANCH  15  16
ENDBRANCH  14  15
ENDBRANCH  13  14
ENDBRANCH   1  13
TORSDOF 20
ENDMDL
MODEL 2
REMARK VINA RESULT:    -5.468      1.246      2.072
REMARK INTER + INTRA:         -14.401
REMARK INTER:                 -12.326
REMARK INTRA:                  -2.075
REMARK UNBOUND:                -2.539
REMARK SMILES CCCCCCCCCCCCCCCCCCCCCC(=O)[O-]
REMARK SMILES IDX 12 1 11 2 10 3 9 4 8 5 7 6 6 7 5 8 4 9 3 10 2 11 1 12 13 13
REMARK SMILES IDX 14 14 15 15 16 16 17 17 18 18 19 19 20 20 21 21 22 22 23 23
REMARK SMILES IDX 24 24
REMARK H PARENT
REMARK Flexibility Score: inf
ROOT
ATOM      1  C   UNL     1       8.026  -1.396 -37.413  1.00  0.00     0.000 C 
ENDROOT
BRANCH   1   2
ATOM      2  C   UNL     1       7.405  -1.278 -36.008  1.00  0.00     0.000 C 
BRANCH   2   3
ATOM      3  C   UNL     1       6.193  -2.192 -35.747  1.00  0.00     0.000 C 
BRANCH   3   4
ATOM      4  C   UNL     1       5.149  -1.635 -34.760  1.00  0.00    -0.000 C 
BRANCH   4   5
ATOM      5  C   UNL     1       5.047  -0.095 -34.760  1.00  0.00    -0.000 C 
BRANCH   5   6
ATOM      6  C   UNL     1       4.829   0.485 -33.352  1.00  0.00    -0.000 C 
BRANCH   6   7
ATOM      7  C   UNL     1       6.140   0.942 -32.691  1.00  0.00    -0.000 C 
BRANCH   7   8
ATOM      8  C   UNL     1       6.256   0.481 -31.229  1.00  0.00    -0.000 C 
BRANCH   8   9
ATOM      9  C   UNL     1       6.939   1.553 -30.370  1.00  0.00    -0.000 C 
BRANCH   9  10
ATOM     10  C   UNL     1       8.048   0.943 -29.504  1.00  0.00    -0.000 C 
BRANCH  10  11
ATOM     11  C   UNL     1       7.601   0.824 -28.043  1.00  0.00    -0.003 C 
ATOM     12  C   UNL     1       8.527   1.609 -27.118  1.00  0.00     0.004 C 
ENDBRANCH  10  11
ENDBRANCH   9  10
ENDBRANCH   8   9
ENDBRANCH   7   8
ENDBRANCH   6   7
ENDBRANCH   5   6
ENDBRANCH   4   5
ENDBRANCH   3   4
ENDBRANCH   2   3
ENDBRANCH   1   2
BRANCH   1  13
ATOM     13  C   UNL     1       8.559  -0.056 -37.946  1.00  0.00     0.000 C 
BRANCH  13  14
ATOM     14  C   UNL     1       7.608   1.121 -37.659  1.00  0.00     0.000 C 
BRANCH  14  15
ATOM     15  C   UNL     1       8.192   2.241 -36.774  1.00  0.00     0.000 C 
BRANCH  15  16
ATOM     16  C   UNL     1       8.390   1.876 -35.291  1.00  0.00     0.000 C 
BRANCH  16  17
ATOM     17  C   UNL     1       9.831   1.443 -34.971  1.00  0.00     0.000 C 
BRANCH  17  18
ATOM     18  C   UNL     1      10.885   2.225 -35.776  1.00  0.00     0.000 C 
BRANCH  18  19
ATOM     19  C   UNL     1      12.308   2.218 -35.185  1.00  0.00     0.000 C 
BRANCH  19  20
ATOM     20  C   UNL     1      12.439   1.604 -33.777  1.00  0.00     0.006 C 
BRANCH  20  21
ATOM     21  C   UNL     1      12.892   2.604 -32.697  1.00  0.00     0.053 C 
BRANCH  21  22
ATOM     22  C   UNL     1      11.827   2.869 -31.677  1.00  0.00     0.041 C 
ATOM     23  O   UNL     1      11.973   3.791 -30.832  1.00  0.00    -0.550 OA
ATOM     24  O   UNL     1      10.688   2.073 -31.635  1.00  0.00    -0.550 OA
ENDBRANCH  21  22
ENDBRANCH  20  21
ENDBRANCH  19  20
ENDBRANCH  18  19
ENDBRANCH  17  18
ENDBRANCH  16  17
ENDBRANCH  15  16
ENDBRANCH  14  15
ENDBRANCH  13  14
ENDBRANCH   1  13
TORSDOF 20
ENDMDL
MODEL 3
REMARK VINA RESULT:    -5.402      1.359      2.452
REMARK INTER + INTRA:         -14.257
REMARK INTER:                 -12.305
REMARK INTRA:                  -1.952
REMARK UNBOUND:                -2.539
REMARK SMILES CCCCCCCCCCCCCCCCCCCCCC(=O)[O-]
REMARK SMILES IDX 12 1 11 2 10 3 9 4 8 5 7 6 6 7 5 8 4 9 3 10 2 11 1 12 13 13
REMARK SMILES IDX 14 14 15 15 16 16 17 17 18 18 19 19 20 20 21 21 22 22 23 23
REMARK SMILES IDX 24 24
REMARK H PARENT
REMARK Flexibility Score: inf
ROOT
ATOM      1  C   UNL     1       5.362  -1.767 -34.679  1.00  0.00     0.000 C 
ENDROOT
BRANCH   1   2
ATOM      2  C   UNL     1       4.997  -0.303 -34.995  1.00  0.00     0.000 C 
BRANCH   2   3
ATOM      3  C   UNL     1       4.881   0.624 -33.771  1.00  0.00     0.000 C 
BRANCH   3   4
ATOM      4  C   UNL     1       5.869   0.327 -32.626  1.00  0.00    -0.000 C 
BRANCH   4   5
ATOM      5  C   UNL     1       6.813   1.503 -32.295  1.00  0.00    -0.000 C 
BRANCH   5   6
ATOM      6  C   UNL     1       7.648   1.253 -31.026  1.00  0.00    -0.000 C 
BRANCH   6   7
ATOM      7  C   UNL     1       7.006   1.859 -29.767  1.00  0.00    -0.000 C 
BRANCH   7   8
ATOM      8  C   UNL     1       6.833   0.830 -28.639  1.00  0.00    -0.000 C 
BRANCH   8   9
ATOM      9  C   UNL     1       6.651  -0.582 -29.209  1.00  0.00    -0.000 C 
BRANCH   9  10
ATOM     10  C   UNL     1       6.737  -1.640 -28.102  1.00  0.00    -0.000 C 
BRANCH  10  11
ATOM     11  C   UNL     1       7.895  -2.611 -28.359  1.00  0.00    -0.003 C 
ATOM     12  C   UNL     1       7.379  -4.008 -28.692  1.00  0.00     0.004 C 
ENDBRANCH  10  11
ENDBRANCH   9  10
ENDBRANCH   8   9
ENDBRANCH   7   8
ENDBRANCH   6   7
ENDBRANCH   5   6
ENDBRANCH   4   5
ENDBRANCH   3   4
ENDBRANCH   2   3
ENDBRANCH   1   2
BRANCH   1  13
ATOM     13  C   UNL     1       6.279  -2.398 -35.740  1.00  0.00     0.000 C 
BRANCH  13  14
ATOM     14  C   UNL     1       7.370  -1.430 -36.237  1.00  0.00     0.000 C 
BRANCH  14  15
ATOM     15  C   UNL     1       8.107  -1.868 -37.518  1.00  0.00     0.000 C 
BRANCH  15  16
ATOM     16  C   UNL     1       8.218  -0.795 -38.616  1.00  0.00     0.000 C 
BRANCH  16  17
ATOM     17  C   UNL     1       8.985   0.455 -38.154  1.00  0.00     0.000 C 
BRANCH  17  18
ATOM     18  C   UNL     1       8.058   1.570 -37.633  1.00  0.00     0.000 C 
BRANCH  18  19
ATOM     19  C   UNL     1       8.410   2.125 -36.240  1.00  0.00     0.000 C 
BRANCH  19  20
ATOM     20  C   UNL     1       9.411   1.283 -35.423  1.00  0.00     0.006 C 
BRANCH  20  21
ATOM     21  C   UNL     1      10.752   1.991 -35.156  1.00  0.00     0.053 C 
BRANCH  21  22
ATOM     22  C   UNL     1      11.426   1.492 -33.914  1.00  0.00     0.041 C 
ATOM     23  O   UNL     1      10.792   1.433 -32.828  1.00  0.00    -0.550 OA
ATOM     24  O   UNL     1      12.767   1.130 -33.946  1.00  0.00    -0.550 OA
ENDBRANCH  21  22
ENDBRANCH  20  21
ENDBRANCH  19  20
ENDBRANCH  18  19
ENDBRANCH  17  18
ENDBRANCH  16  17
ENDBRANCH  15  16
ENDBRANCH  14  15
ENDBRANCH  13  14
ENDBRANCH   1  13
TORSDOF 20
ENDMDL
MODEL 4
REMARK VINA RESULT:    -5.328      8.524     12.082
REMARK INTER + INTRA:         -14.096
REMARK INTER:                 -10.636
REMARK INTRA:                  -3.461
REMARK UNBOUND:                -2.539
REMARK SMILES CCCCCCCCCCCCCCCCCCCCCC(=O)[O-]
REMARK SMILES IDX 12 1 11 2 10 3 9 4 8 5 7 6 6 7 5 8 4 9 3 10 2 11 1 12 13 13
REMARK SMILES IDX 14 14 15 15 16 16 17 17 18 18 19 19 20 20 21 21 22 22 23 23
REMARK SMILES IDX 24 24
REMARK H PARENT
REMARK Flexibility Score: inf
ROOT
ATOM      1  C   UNL     1       8.563  -8.246 -28.482  1.00  0.00     0.000 C 
ENDROOT
BRANCH   1   2
ATOM      2  C   UNL     1       8.124  -6.780 -28.659  1.00  0.00     0.000 C 
BRANCH   2   3
ATOM      3  C   UNL     1       6.659  -6.581 -29.088  1.00  0.00     0.000 C 
BRANCH   3   4
ATOM      4  C   UNL     1       5.891  -7.873 -29.428  1.00  0.00    -0.000 C 
BRANCH   4   5
ATOM      5  C   UNL     1       4.828  -7.697 -30.533  1.00  0.00    -0.000 C 
BRANCH   5   6
ATOM      6  C   UNL     1       4.773  -8.894 -31.498  1.00  0.00    -0.000 C 
BRANCH   6   7
ATOM      7  C   UNL     1       4.141  -8.533 -32.853  1.00  0.00    -0.000 C 
BRANCH   7   8
ATOM      8  C   UNL     1       5.063  -8.854 -34.039  1.00  0.00    -0.000 C 
BRANCH   8   9
ATOM      9  C   UNL     1       6.027  -7.692 -34.314  1.00  0.00    -0.000 C 
BRANCH   9  10
ATOM     10  C   UNL     1       7.451  -8.037 -33.864  1.00  0.00    -0.000 C 
BRANCH  10  11
ATOM     11  C   UNL     1       7.856  -7.210 -32.640  1.00  0.00    -0.003 C 
ATOM     12  C   UNL     1       7.273  -5.801 -32.708  1.00  0.00     0.004 C 
ENDBRANCH  10  11
ENDBRANCH   9  10
ENDBRANCH   8   9
ENDBRANCH   7   8
ENDBRANCH   6   7
ENDBRANCH   5   6
ENDBRANCH   4   5
ENDBRANCH   3   4
ENDBRANCH   2   3
ENDBRANCH   1   2
BRANCH   1  13
ATOM     13  C   UNL     1      10.063  -8.389 -28.176  1.00  0.00     0.000 C 
BRANCH  13  14
ATOM     14  C   UNL     1      10.345  -9.377 -27.027  1.00  0.00     0.000 C 
BRANCH  14  15
ATOM     15  C   UNL     1      10.603 -10.834 -27.459  1.00  0.00     0.000 C 
BRANCH  15  16
ATOM     16  C   UNL     1       9.645 -11.880 -26.858  1.00  0.00     0.000 C 
BRANCH  16  17
ATOM     17  C   UNL     1       8.862 -12.658 -27.930  1.00  0.00     0.000 C 
BRANCH  17  18
ATOM     18  C   UNL     1       9.002 -12.046 -29.337  1.00  0.00     0.000 C 
BRANCH  18  19
ATOM     19  C   UNL     1       7.784 -11.243 -29.833  1.00  0.00     0.000 C 
BRANCH  19  20
ATOM     20  C   UNL     1       7.831 -10.815 -31.313  1.00  0.00     0.006 C 
BRANCH  20  21
ATOM     21  C   UNL     1       8.943 -11.500 -32.129  1.00  0.00     0.053 C 
BRANCH  21  22
ATOM     22  C   UNL     1      10.088 -10.578 -32.425  1.00  0.00     0.041 C 
ATOM     23  O   UNL     1      10.855 -10.811 -33.395  1.00  0.00    -0.550 OA
ATOM     24  O   UNL     1      10.330  -9.483 -31.605  1.00  0.00    -0.550 OA
ENDBRANCH  21  22
ENDBRANCH  20  21
ENDBRANCH  19  20
ENDBRANCH  18  19
ENDBRANCH  17  18
ENDBRANCH  16  17
ENDBRANCH  15  16
ENDBRANCH  14  15
ENDBRANCH  13  14
ENDBRANCH   1  13
TORSDOF 20
ENDMDL
MODEL 5
REMARK VINA RESULT:    -5.262      4.444      8.026
REMARK INTER + INTRA:         -13.955
REMARK INTER:                 -11.867
REMARK INTRA:                  -2.088
REMARK UNBOUND:                -2.539
REMARK SMILES CCCCCCCCCCCCCCCCCCCCCC(=O)[O-]
REMARK SMILES IDX 12 1 11 2 10 3 9 4 8 5 7 6 6 7 5 8 4 9 3 10 2 11 1 12 13 13
REMARK SMILES IDX 14 14 15 15 16 16 17 17 18 18 19 19 20 20 21 21 22 22 23 23
REMARK SMILES IDX 24 24
REMARK H PARENT
REMARK Flexibility Score: inf
ROOT
ATOM      1  C   UNL     1       7.048  -5.425 -33.689  1.00  0.00     0.000 C 
ENDROOT
BRANCH   1   2
ATOM      2  C   UNL     1       7.234  -5.112 -35.186  1.00  0.00     0.000 C 
BRANCH   2   3
ATOM      3  C   UNL     1       6.113  -4.272 -35.826  1.00  0.00     0.000 C 
BRANCH   3   4
ATOM      4  C   UNL     1       6.329  -2.747 -35.784  1.00  0.00    -0.000 C 
BRANCH   4   5
ATOM      5  C   UNL     1       5.182  -1.972 -35.102  1.00  0.00    -0.000 C 
BRANCH   5   6
ATOM      6  C   UNL     1       5.683  -0.761 -34.295  1.00  0.00    -0.000 C 
BRANCH   6   7
ATOM      7  C   UNL     1       6.051   0.435 -35.189  1.00  0.00    -0.000 C 
BRANCH   7   8
ATOM      8  C   UNL     1       7.255   1.225 -34.652  1.00  0.00    -0.000 C 
BRANCH   8   9
ATOM      9  C   UNL     1       8.021   1.900 -35.797  1.00  0.00    -0.000 C 
BRANCH   9  10
ATOM     10  C   UNL     1       7.445   1.499 -37.160  1.00  0.00    -0.000 C 
BRANCH  10  11
ATOM     11  C   UNL     1       8.522   0.862 -38.045  1.00  0.00    -0.003 C 
ATOM     12  C   UNL     1       8.619  -0.641 -37.801  1.00  0.00     0.004 C 
ENDBRANCH  10  11
ENDBRANCH   9  10
ENDBRANCH   8   9
ENDBRANCH   7   8
ENDBRANCH   6   7
ENDBRANCH   5   6
ENDBRANCH   4   5
ENDBRANCH   3   4
ENDBRANCH   2   3
ENDBRANCH   1   2
BRANCH   1  13
ATOM     13  C   UNL     1       7.882  -6.628 -33.220  1.00  0.00     0.000 C 
BRANCH  13  14
ATOM     14  C   UNL     1       7.118  -7.961 -33.327  1.00  0.00     0.000 C 
BRANCH  14  15
ATOM     15  C   UNL     1       5.630  -7.903 -32.927  1.00  0.00     0.000 C 
BRANCH  15  16
ATOM     16  C   UNL     1       5.357  -7.622 -31.438  1.00  0.00     0.000 C 
BRANCH  16  17
ATOM     17  C   UNL     1       5.386  -8.894 -30.574  1.00  0.00     0.000 C 
BRANCH  17  18
ATOM     18  C   UNL     1       6.359  -8.789 -29.385  1.00  0.00     0.000 C 
BRANCH  18  19
ATOM     19  C   UNL     1       7.594  -7.897 -29.618  1.00  0.00     0.000 C 
BRANCH  19  20
ATOM     20  C   UNL     1       7.608  -6.566 -28.840  1.00  0.00     0.006 C 
BRANCH  20  21
ATOM     21  C   UNL     1       7.664  -5.316 -29.738  1.00  0.00     0.053 C 
BRANCH  21  22
ATOM     22  C   UNL     1       8.355  -4.164 -29.074  1.00  0.00     0.041 C 
ATOM     23  O   UNL     1       9.612  -4.093 -29.074  1.00  0.00    -0.550 OA
ATOM     24  O   UNL     1       7.612  -3.187 -28.423  1.00  0.00    -0.550 OA
ENDBRANCH  21  22
ENDBRANCH  20  21
ENDBRANCH  19  20
ENDBRANCH  18  19
ENDBRANCH  17  18
ENDBRANCH  16  17
ENDBRANCH  15  16
ENDBRANCH  14  15
ENDBRANCH  13  14
ENDBRANCH   1  13
TORSDOF 20
ENDMDL
MODEL 6
REMARK VINA RESULT:    -5.229      9.089     11.814
REMARK INTER + INTRA:         -13.882
REMARK INTER:                 -10.764
REMARK INTRA:                  -3.118
REMARK UNBOUND:                -2.539
REMARK SMILES CCCCCCCCCCCCCCCCCCCCCC(=O)[O-]
REMARK SMILES IDX 12 1 11 2 10 3 9 4 8 5 7 6 6 7 5 8 4 9 3 10 2 11 1 12 13 13
REMARK SMILES IDX 14 14 15 15 16 16 17 17 18 18 19 19 20 20 21 21 22 22 23 23
REMARK SMILES IDX 24 24
REMARK H PARENT
REMARK Flexibility Score: inf
ROOT
ATOM      1  C   UNL     1       8.787  -8.530 -32.359  1.00  0.00     0.000 C 
ENDROOT
BRANCH   1   2
ATOM      2  C   UNL     1       7.943  -7.527 -33.168  1.00  0.00     0.000 C 
BRANCH   2   3
ATOM      3  C   UNL     1       6.654  -7.044 -32.476  1.00  0.00     0.000 C 
BRANCH   3   4
ATOM      4  C   UNL     1       5.437  -7.977 -32.626  1.00  0.00    -0.000 C 
BRANCH   4   5
ATOM      5  C   UNL     1       4.795  -8.388 -31.284  1.00  0.00    -0.000 C 
BRANCH   5   6
ATOM      6  C   UNL     1       5.614  -9.455 -30.537  1.00  0.00    -0.000 C 
BRANCH   6   7
ATOM      7  C   UNL     1       6.133  -8.958 -29.178  1.00  0.00    -0.000 C 
BRANCH   7   8
ATOM      8  C   UNL     1       5.987  -7.437 -29.010  1.00  0.00    -0.000 C 
BRANCH   8   9
ATOM      9  C   UNL     1       7.361  -6.765 -28.888  1.00  0.00    -0.000 C 
BRANCH   9  10
ATOM     10  C   UNL     1       8.466  -7.804 -28.666  1.00  0.00    -0.000 C 
BRANCH  10  11
ATOM     11  C   UNL     1       9.513  -7.288 -27.672  1.00  0.00    -0.003 C 
ATOM     12  C   UNL     1       9.394  -5.779 -27.478  1.00  0.00     0.004 C 
ENDBRANCH  10  11
ENDBRANCH   9  10
ENDBRANCH   8   9
ENDBRANCH   7   8
ENDBRANCH   6   7
ENDBRANCH   5   6
ENDBRANCH   4   5
ENDBRANCH   3   4
ENDBRANCH   2   3
ENDBRANCH   1   2
BRANCH   1  13
ATOM     13  C   UNL     1       9.001  -9.863 -33.095  1.00  0.00     0.000 C 
BRANCH  13  14
ATOM     14  C   UNL     1       9.205 -11.049 -32.133  1.00  0.00     0.000 C 
BRANCH  14  15
ATOM     15  C   UNL     1       9.103 -10.707 -30.633  1.00  0.00     0.000 C 
BRANCH  15  16
ATOM     16  C   UNL     1       8.543 -11.827 -29.736  1.00  0.00     0.000 C 
BRANCH  16  17
ATOM     17  C   UNL     1       9.580 -12.366 -28.736  1.00  0.00     0.000 C 
BRANCH  17  18
ATOM     18  C   UNL     1       9.018 -12.510 -27.310  1.00  0.00     0.000 C 
BRANCH  18  19
ATOM     19  C   UNL     1       9.856 -11.847 -26.199  1.00  0.00     0.000 C 
BRANCH  19  20
ATOM     20  C   UNL     1      10.596 -10.558 -26.605  1.00  0.00     0.006 C 
BRANCH  20  21
ATOM     21  C   UNL     1      11.314  -9.854 -25.439  1.00  0.00     0.053 C 
BRANCH  21  22
ATOM     22  C   UNL     1      12.285 -10.754 -24.736  1.00  0.00     0.041 C 
ATOM     23  O   UNL     1      13.307 -11.177 -25.337  1.00  0.00    -0.550 OA
ATOM     24  O   UNL     1      12.040 -11.157 -23.429  1.00  0.00    -0.550 OA
ENDBRANCH  21  22
ENDBRANCH  20  21
ENDBRANCH  19  20
ENDBRANCH  18  19
ENDBRANCH  17  18
ENDBRANCH  16  17
ENDBRANCH  15  16
ENDBRANCH  14  15
ENDBRANCH  13  14
ENDBRANCH   1  13
TORSDOF 20
ENDMDL
MODEL 7
REMARK VINA RESULT:    -5.171      7.596     10.741
REMARK INTER + INTRA:         -13.756
REMARK INTER:                 -10.528
REMARK INTRA:                  -3.229
REMARK UNBOUND:                -2.539
REMARK SMILES CCCCCCCCCCCCCCCCCCCCCC(=O)[O-]
REMARK SMILES IDX 12 1 11 2 10 3 9 4 8 5 7 6 6 7 5 8 4 9 3 10 2 11 1 12 13 13
REMARK SMILES IDX 14 14 15 15 16 16 17 17 18 18 19 19 20 20 21 21 22 22 23 23
REMARK SMILES IDX 24 24
REMARK H PARENT
REMARK Flexibility Score: inf
ROOT
ATOM      1  C   UNL     1       6.162  -8.808 -29.281  1.00  0.00     0.000 C 
ENDROOT
BRANCH   1   2
ATOM      2  C   UNL     1       5.488  -7.564 -29.892  1.00  0.00     0.000 C 
BRANCH   2   3
ATOM      3  C   UNL     1       4.387  -7.857 -30.929  1.00  0.00     0.000 C 
BRANCH   3   4
ATOM      4  C   UNL     1       4.703  -8.992 -31.921  1.00  0.00    -0.000 C 
BRANCH   4   5
ATOM      5  C   UNL     1       4.785  -8.532 -33.392  1.00  0.00    -0.000 C 
BRANCH   5   6
ATOM      6  C   UNL     1       6.171  -8.776 -34.014  1.00  0.00    -0.000 C 
BRANCH   6   7
ATOM      7  C   UNL     1       7.294  -8.801 -32.963  1.00  0.00    -0.000 C 
BRANCH   7   8
ATOM      8  C   UNL     1       8.233  -7.590 -33.073  1.00  0.00    -0.000 C 
BRANCH   8   9
ATOM      9  C   UNL     1       7.451  -6.276 -32.937  1.00  0.00    -0.000 C 
BRANCH   9  10
ATOM     10  C   UNL     1       7.814  -5.299 -34.061  1.00  0.00    -0.000 C 
BRANCH  10  11
ATOM     11  C   UNL     1       6.768  -5.338 -35.182  1.00  0.00    -0.003 C 
ATOM     12  C   UNL     1       6.607  -3.968 -35.833  1.00  0.00     0.004 C 
ENDBRANCH  10  11
ENDBRANCH   9  10
ENDBRANCH   8   9
ENDBRANCH   7   8
ENDBRANCH   6   7
ENDBRANCH   5   6
ENDBRANCH   4   5
ENDBRANCH   3   4
ENDBRANCH   2   3
ENDBRANCH   1   2
BRANCH   1  13
ATOM     13  C   UNL     1       7.678  -8.635 -29.092  1.00  0.00     0.000 C 
BRANCH  13  14
ATOM     14  C   UNL     1       8.149  -7.191 -29.344  1.00  0.00     0.000 C 
BRANCH  14  15
ATOM     15  C   UNL     1       8.919  -6.535 -28.180  1.00  0.00     0.000 C 
BRANCH  15  16
ATOM     16  C   UNL     1       9.872  -7.467 -27.410  1.00  0.00     0.000 C 
BRANCH  16  17
ATOM     17  C   UNL     1      11.351  -7.083 -27.580  1.00  0.00     0.000 C 
BRANCH  17  18
ATOM     18  C   UNL     1      12.236  -8.273 -27.998  1.00  0.00     0.000 C 
BRANCH  18  19
ATOM     19  C   UNL     1      11.484  -9.476 -28.599  1.00  0.00     0.000 C 
BRANCH  19  20
ATOM     20  C   UNL     1      11.892  -9.863 -30.034  1.00  0.00     0.006 C 
BRANCH  20  21
ATOM     21  C   UNL     1      10.790  -9.626 -31.083  1.00  0.00     0.053 C 
BRANCH  21  22
ATOM     22  C   UNL     1      11.331  -9.565 -32.479  1.00  0.00     0.041 C 
ATOM     23  O   UNL     1      12.406  -8.955 -32.717  1.00  0.00    -0.550 OA
ATOM     24  O   UNL     1      10.627 -10.150 -33.525  1.00  0.00    -0.550 OA
ENDBRANCH  21  22
ENDBRANCH  20  21
ENDBRANCH  19  20
ENDBRANCH  18  19
ENDBRANCH  17  18
ENDBRANCH  16  17
ENDBRANCH  15  16
ENDBRANCH  14  15
ENDBRANCH  13  14
ENDBRANCH   1  13
TORSDOF 20
ENDMDL
MODEL 8
REMARK VINA RESULT:    -5.154      7.227      9.559
REMARK INTER + INTRA:         -13.719
REMARK INTER:                 -10.190
REMARK INTRA:                  -3.528
REMARK UNBOUND:                -2.539
REMARK SMILES CCCCCCCCCCCCCCCCCCCCCC(=O)[O-]
REMARK SMILES IDX 12 1 11 2 10 3 9 4 8 5 7 6 6 7 5 8 4 9 3 10 2 11 1 12 13 13
REMARK SMILES IDX 14 14 15 15 16 16 17 17 18 18 19 19 20 20 21 21 22 22 23 23
REMARK SMILES IDX 24 24
REMARK H PARENT
REMARK Flexibility Score: inf
ROOT
ATOM      1  C   UNL     1       4.798  -9.459 -33.956  1.00  0.00     0.000 C 
ENDROOT
BRANCH   1   2
ATOM      2  C   UNL     1       4.317  -8.313 -33.045  1.00  0.00     0.000 C 
BRANCH   2   3
ATOM      3  C   UNL     1       4.371  -8.608 -31.535  1.00  0.00     0.000 C 
BRANCH   3   4
ATOM      4  C   UNL     1       5.075  -7.538 -30.679  1.00  0.00    -0.000 C 
BRANCH   4   5
ATOM      5  C   UNL     1       6.150  -8.105 -29.728  1.00  0.00    -0.000 C 
BRANCH   5   6
ATOM      6  C   UNL     1       6.917  -7.003 -28.976  1.00  0.00    -0.000 C 
BRANCH   6   7
ATOM      7  C   UNL     1       8.439  -7.104 -29.169  1.00  0.00    -0.000 C 
BRANCH   7   8
ATOM      8  C   UNL     1       9.189  -7.317 -27.845  1.00  0.00    -0.000 C 
BRANCH   8   9
ATOM      9  C   UNL     1      10.184  -8.480 -27.959  1.00  0.00    -0.000 C 
BRANCH   9  10
ATOM     10  C   UNL     1       9.645  -9.580 -28.880  1.00  0.00    -0.000 C 
BRANCH  10  11
ATOM     11  C   UNL     1       9.235 -10.818 -28.076  1.00  0.00    -0.003 C 
ATOM     12  C   UNL     1       8.553 -11.853 -28.965  1.00  0.00     0.004 C 
ENDBRANCH  10  11
ENDBRANCH   9  10
ENDBRANCH   8   9
ENDBRANCH   7   8
ENDBRANCH   6   7
ENDBRANCH   5   6
ENDBRANCH   4   5
ENDBRANCH   3   4
ENDBRANCH   2   3
ENDBRANCH   1   2
BRANCH   1  13
ATOM     13  C   UNL     1       5.393 -10.639 -33.170  1.00  0.00     0.000 C 
BRANCH  13  14
ATOM     14  C   UNL     1       6.921 -10.752 -33.332  1.00  0.00     0.000 C 
BRANCH  14  15
ATOM     15  C   UNL     1       7.750 -10.264 -32.127  1.00  0.00     0.000 C 
BRANCH  15  16
ATOM     16  C   UNL     1       8.694  -9.081 -32.410  1.00  0.00     0.000 C 
BRANCH  16  17
ATOM     17  C   UNL     1       8.098  -8.065 -33.399  1.00  0.00     0.000 C 
BRANCH  17  18
ATOM     18  C   UNL     1       7.959  -6.654 -32.798  1.00  0.00     0.000 C 
BRANCH  18  19
ATOM     19  C   UNL     1       6.968  -5.721 -33.521  1.00  0.00     0.000 C 
BRANCH  19  20
ATOM     20  C   UNL     1       7.382  -5.287 -34.941  1.00  0.00     0.006 C 
BRANCH  20  21
ATOM     21  C   UNL     1       6.222  -4.733 -35.789  1.00  0.00     0.053 C 
BRANCH  21  22
ATOM     22  C   UNL     1       6.316  -3.251 -35.990  1.00  0.00     0.041 C 
ATOM     23  O   UNL     1       7.262  -2.760 -36.660  1.00  0.00    -0.550 OA
ATOM     24  O   UNL     1       5.378  -2.407 -35.406  1.00  0.00    -0.550 OA
ENDBRANCH  21  22
ENDBRANCH  20  21
ENDBRANCH  19  20
ENDBRANCH  18  19
ENDBRANCH  17  18
ENDBRANCH  16  17
ENDBRANCH  15  16
ENDBRANCH  14  15
ENDBRANCH  13  14
ENDBRANCH   1  13
TORSDOF 20
ENDMDL
MODEL 9
REMARK VINA RESULT:    -5.151      7.003     10.434
REMARK INTER + INTRA:         -13.713
REMARK INTER:                 -10.030
REMARK INTRA:                  -3.683
REMARK UNBOUND:                -2.539
REMARK SMILES CCCCCCCCCCCCCCCCCCCCCC(=O)[O-]
REMARK SMILES IDX 12 1 11 2 10 3 9 4 8 5 7 6 6 7 5 8 4 9 3 10 2 11 1 12 13 13
REMARK SMILES IDX 14 14 15 15 16 16 17 17 18 18 19 19 20 20 21 21 22 22 23 23
REMARK SMILES IDX 24 24
REMARK H PARENT
REMARK Flexibility Score: inf
ROOT
ATOM      1  C   UNL     1       5.486  -9.038 -30.256  1.00  0.00     0.000 C 
ENDROOT
BRANCH   1   2
ATOM      2  C   UNL     1       5.274  -7.694 -30.981  1.00  0.00     0.000 C 
BRANCH   2   3
ATOM      3  C   UNL     1       6.563  -6.925 -31.327  1.00  0.00     0.000 C 
BRANCH   3   4
ATOM      4  C   UNL     1       7.139  -7.205 -32.729  1.00  0.00    -0.000 C 
BRANCH   4   5
ATOM      5  C   UNL     1       8.464  -7.996 -32.713  1.00  0.00    -0.000 C 
BRANCH   5   6
ATOM      6  C   UNL     1       8.376  -9.316 -33.499  1.00  0.00    -0.000 C 
BRANCH   6   7
ATOM      7  C   UNL     1       8.281 -10.546 -32.581  1.00  0.00    -0.000 C 
BRANCH   7   8
ATOM      8  C   UNL     1       6.915 -11.244 -32.667  1.00  0.00    -0.000 C 
BRANCH   8   9
ATOM      9  C   UNL     1       6.122 -10.749 -33.883  1.00  0.00    -0.000 C 
BRANCH   9  10
ATOM     10  C   UNL     1       4.649 -10.521 -33.527  1.00  0.00    -0.000 C 
BRANCH  10  11
ATOM     11  C   UNL     1       4.162  -9.163 -34.045  1.00  0.00    -0.003 C 
ATOM     12  C   UNL     1       4.412  -9.023 -35.544  1.00  0.00     0.004 C 
ENDBRANCH  10  11
ENDBRANCH   9  10
ENDBRANCH   8   9
ENDBRANCH   7   8
ENDBRANCH   6   7
ENDBRANCH   5   6
ENDBRANCH   4   5
ENDBRANCH   3   4
ENDBRANCH   2   3
ENDBRANCH   1   2
BRANCH   1  13
ATOM     13  C   UNL     1       6.369  -8.909 -29.004  1.00  0.00     0.000 C 
BRANCH  13  14
ATOM     14  C   UNL     1       7.651  -9.760 -29.088  1.00  0.00     0.000 C 
BRANCH  14  15
ATOM     15  C   UNL     1       8.969  -8.962 -29.148  1.00  0.00     0.000 C 
BRANCH  15  16
ATOM     16  C   UNL     1       9.627  -8.671 -27.787  1.00  0.00     0.000 C 
BRANCH  16  17
ATOM     17  C   UNL     1       9.756  -7.166 -27.497  1.00  0.00     0.000 C 
BRANCH  17  18
ATOM     18  C   UNL     1       8.982  -6.293 -28.501  1.00  0.00     0.000 C 
BRANCH  18  19
ATOM     19  C   UNL     1       8.414  -4.977 -27.935  1.00  0.00     0.000 C 
BRANCH  19  20
ATOM     20  C   UNL     1       7.009  -4.589 -28.438  1.00  0.00     0.006 C 
BRANCH  20  21
ATOM     21  C   UNL     1       6.344  -3.461 -27.628  1.00  0.00     0.053 C 
BRANCH  21  22
ATOM     22  C   UNL     1       7.182  -2.220 -27.578  1.00  0.00     0.041 C 
ATOM     23  O   UNL     1       7.400  -1.558 -28.626  1.00  0.00    -0.550 OA
ATOM     24  O   UNL     1       7.756  -1.815 -26.379  1.00  0.00    -0.550 OA
ENDBRANCH  21  22
ENDBRANCH  20  21
ENDBRANCH  19  20
ENDBRANCH  18  19
ENDBRANCH  17  18
ENDBRANCH  16  17
ENDBRANCH  15  16
ENDBRANCH  14  15
ENDBRANCH  13  14
ENDBRANCH   1  13
TORSDOF 20
ENDMDL
