MODEL 1
REMARK VINA RESULT:    -4.614      0.000      0.000
REMARK INTER + INTRA:          -5.708
REMARK INTER:                  -5.423
REMARK INTRA:                  -0.284
REMARK UNBOUND:                -0.284
REMARK SMILES O=c1cc(-c2ccc(O)c(O)c2)oc2cc(O)cc(O)c12
REMARK SMILES IDX 4 1 3 2 2 3 1 4 21 5 19 6 18 7 16 8 15 9 14 10 13 11 5 12
REMARK SMILES IDX 6 13 7 14 8 15 12 16 10 17 9 18 11 20 20 22 17 24
REMARK H PARENT 9 19 11 21 20 23 17 25
REMARK Flexibility Score: inf
ROOT
ATOM      1  C   UNL     1      55.701   9.320   5.103  1.00  0.00     0.138 A 
ATOM      2  C   UNL     1      54.866   9.058   6.198  1.00  0.00     0.100 A 
ATOM      3  C   UNL     1      53.481   9.053   6.025  1.00  0.00     0.197 A 
ATOM      4  O   UNL     1      52.756   8.876   7.038  1.00  0.00    -0.289 OA
ATOM      5  C   UNL     1      52.931   9.282   4.741  1.00  0.00     0.107 A 
ATOM      6  C   UNL     1      51.538   9.260   4.438  1.00  0.00     0.134 A 
ATOM      7  C   UNL     1      51.105   9.616   3.154  1.00  0.00     0.093 A 
ATOM      8  C   UNL     1      52.020   9.934   2.147  1.00  0.00     0.123 A 
ATOM      9  C   UNL     1      53.385   9.905   2.419  1.00  0.00     0.094 A 
ATOM     10  C   UNL     1      53.847   9.588   3.698  1.00  0.00     0.146 A 
ATOM     11  O   UNL     1      55.157   9.586   3.920  1.00  0.00    -0.456 OA
ENDROOT
BRANCH   1  12
ATOM     12  C   UNL     1      57.180   9.336   5.231  1.00  0.00     0.021 A 
ATOM     13  C   UNL     1      57.971   8.878   4.163  1.00  0.00     0.016 A 
ATOM     14  C   UNL     1      59.364   8.877   4.261  1.00  0.00     0.051 A 
ATOM     15  C   UNL     1      59.992   9.322   5.428  1.00  0.00     0.157 A 
ATOM     16  C   UNL     1      57.817   9.772   6.409  1.00  0.00     0.062 A 
ATOM     17  C   UNL     1      59.216   9.769   6.509  1.00  0.00     0.158 A 
BRANCH  15  18
ATOM     18  O   UNL     1      61.384   9.309   5.495  1.00  0.00    -0.504 OA
ATOM     19  H   UNL     1      61.902   9.973   6.059  1.00  0.00     0.293 HD
ENDBRANCH  15  18
BRANCH  17  20
ATOM     20  O   UNL     1      59.835  10.204   7.680  1.00  0.00    -0.504 OA
ATOM     21  H   UNL     1      60.823  10.047   7.848  1.00  0.00     0.293 HD
ENDBRANCH  17  20
ENDBRANCH   1  12
BRANCH   6  22
ATOM     22  O   UNL     1      50.546   8.875   5.346  1.00  0.00    -0.507 OA
ATOM     23  H   UNL     1      49.912   8.102   5.214  1.00  0.00     0.293 HD
ENDBRANCH   6  22
BRANCH   8  24
ATOM     24  O   UNL     1      51.581  10.272   0.869  1.00  0.00    -0.508 OA
ATOM     25  H   UNL     1      51.341   9.562   0.186  1.00  0.00     0.293 HD
ENDBRANCH   8  24
TORSDOF 5
ENDMDL
MODEL 2
REMARK VINA RESULT:    -4.413      1.225      1.977
REMARK INTER + INTRA:          -5.471
REMARK INTER:                  -5.157
REMARK INTRA:                  -0.314
REMARK UNBOUND:                -0.284
REMARK SMILES O=c1cc(-c2ccc(O)c(O)c2)oc2cc(O)cc(O)c12
REMARK SMILES IDX 4 1 3 2 2 3 1 4 21 5 19 6 18 7 16 8 15 9 14 10 13 11 5 12
REMARK SMILES IDX 6 13 7 14 8 15 12 16 10 17 9 18 11 20 20 22 17 24
REMARK H PARENT 9 19 11 21 20 23 17 25
REMARK Flexibility Score: inf
ROOT
ATOM      1  C   UNL     1      54.397   9.258   4.902  1.00  0.00     0.138 A 
ATOM      2  C   UNL     1      53.375   9.184   5.857  1.00  0.00     0.100 A 
ATOM      3  C   UNL     1      52.042   9.155   5.442  1.00  0.00     0.197 A 
ATOM      4  O   UNL     1      51.145   9.151   6.324  1.00  0.00    -0.289 OA
ATOM      5  C   UNL     1      51.736   9.168   4.061  1.00  0.00     0.107 A 
ATOM      6  C   UNL     1      50.417   9.100   3.520  1.00  0.00     0.134 A 
ATOM      7  C   UNL     1      50.230   9.238   2.139  1.00  0.00     0.093 A 
ATOM      8  C   UNL     1      51.318   9.381   1.274  1.00  0.00     0.123 A 
ATOM      9  C   UNL     1      52.612   9.394   1.788  1.00  0.00     0.094 A 
ATOM     10  C   UNL     1      52.830   9.293   3.163  1.00  0.00     0.146 A 
ATOM     11  O   UNL     1      54.080   9.324   3.613  1.00  0.00    -0.456 OA
ENDROOT
BRANCH   1  12
ATOM     12  C   UNL     1      55.830   9.290   5.289  1.00  0.00     0.021 A 
ATOM     13  C   UNL     1      56.182   9.587   6.617  1.00  0.00     0.016 A 
ATOM     14  C   UNL     1      57.523   9.631   7.003  1.00  0.00     0.051 A 
ATOM     15  C   UNL     1      58.537   9.389   6.072  1.00  0.00     0.157 A 
ATOM     16  C   UNL     1      56.856   9.060   4.350  1.00  0.00     0.062 A 
ATOM     17  C   UNL     1      58.203   9.106   4.738  1.00  0.00     0.158 A 
BRANCH  15  18
ATOM     18  O   UNL     1      59.866   9.439   6.488  1.00  0.00    -0.504 OA
ATOM     19  H   UNL     1      60.213  10.170   7.098  1.00  0.00     0.293 HD
ENDBRANCH  15  18
BRANCH  17  20
ATOM     20  O   UNL     1      59.209   8.875   3.801  1.00  0.00    -0.504 OA
ATOM     21  H   UNL     1      59.460   9.571   3.108  1.00  0.00     0.293 HD
ENDBRANCH  17  20
ENDBRANCH   1  12
BRANCH   6  22
ATOM     22  O   UNL     1      49.269   8.875   4.286  1.00  0.00    -0.507 OA
ATOM     23  H   UNL     1      48.899   7.966   4.516  1.00  0.00     0.293 HD
ENDBRANCH   6  22
BRANCH   8  24
ATOM     24  O   UNL     1      51.122   9.503  -0.100  1.00  0.00    -0.508 OA
ATOM     25  H   UNL     1      50.291   9.941  -0.480  1.00  0.00     0.293 HD
ENDBRANCH   8  24
TORSDOF 5
ENDMDL
MODEL 3
REMARK VINA RESULT:    -4.192      2.669      4.722
REMARK INTER + INTRA:          -5.212
REMARK INTER:                  -4.946
REMARK INTRA:                  -0.265
REMARK UNBOUND:                -0.284
REMARK SMILES O=c1cc(-c2ccc(O)c(O)c2)oc2cc(O)cc(O)c12
REMARK SMILES IDX 4 1 3 2 2 3 1 4 21 5 19 6 18 7 16 8 15 9 14 10 13 11 5 12
REMARK SMILES IDX 6 13 7 14 8 15 12 16 10 17 9 18 11 20 20 22 17 24
REMARK H PARENT 9 19 11 21 20 23 17 25
REMARK Flexibility Score: inf
ROOT
ATOM      1  C   UNL     1      52.413  10.306   3.201  1.00  0.00     0.138 A 
ATOM      2  C   UNL     1      51.529   9.349   2.684  1.00  0.00     0.100 A 
ATOM      3  C   UNL     1      50.472   9.754   1.869  1.00  0.00     0.197 A 
ATOM      4  O   UNL     1      49.659   8.880   1.470  1.00  0.00    -0.289 OA
ATOM      5  C   UNL     1      50.318  11.124   1.545  1.00  0.00     0.107 A 
ATOM      6  C   UNL     1      49.304  11.648   0.690  1.00  0.00     0.134 A 
ATOM      7  C   UNL     1      49.180  13.035   0.535  1.00  0.00     0.093 A 
ATOM      8  C   UNL     1      50.073  13.912   1.156  1.00  0.00     0.123 A 
ATOM      9  C   UNL     1      51.100  13.406   1.948  1.00  0.00     0.094 A 
ATOM     10  C   UNL     1      51.229  12.031   2.151  1.00  0.00     0.146 A 
ATOM     11  O   UNL     1      52.215  11.591   2.926  1.00  0.00    -0.456 OA
ENDROOT
BRANCH   1  12
ATOM     12  C   UNL     1      53.555   9.929   4.072  1.00  0.00     0.021 A 
ATOM     13  C   UNL     1      53.318   9.597   5.417  1.00  0.00     0.016 A 
ATOM     14  C   UNL     1      54.376   9.246   6.258  1.00  0.00     0.051 A 
ATOM     15  C   UNL     1      55.689   9.230   5.777  1.00  0.00     0.157 A 
ATOM     16  C   UNL     1      54.880   9.925   3.595  1.00  0.00     0.062 A 
ATOM     17  C   UNL     1      55.944   9.574   4.440  1.00  0.00     0.158 A 
BRANCH  15  18
ATOM     18  O   UNL     1      56.723   8.875   6.641  1.00  0.00    -0.504 OA
ATOM     19  H   UNL     1      57.414   9.545   6.958  1.00  0.00     0.293 HD
ENDBRANCH  15  18
BRANCH  17  20
ATOM     20  O   UNL     1      57.251   9.572   3.957  1.00  0.00    -0.504 OA
ATOM     21  H   UNL     1      57.927   8.879   4.257  1.00  0.00     0.293 HD
ENDBRANCH  17  20
ENDBRANCH   1  12
BRANCH   6  22
ATOM     22  O   UNL     1      48.414  10.857  -0.043  1.00  0.00    -0.507 OA
ATOM     23  H   UNL     1      47.446  11.084  -0.215  1.00  0.00     0.293 HD
ENDBRANCH   6  22
BRANCH   8  24
ATOM     24  O   UNL     1      49.952  15.289   0.984  1.00  0.00    -0.508 OA
ATOM     25  H   UNL     1      50.536  15.940   1.495  1.00  0.00     0.293 HD
ENDBRANCH   8  24
TORSDOF 5
ENDMDL
MODEL 4
REMARK VINA RESULT:    -3.640      1.532      7.790
REMARK INTER + INTRA:          -4.563
REMARK INTER:                  -4.273
REMARK INTRA:                  -0.289
REMARK UNBOUND:                -0.284
REMARK SMILES O=c1cc(-c2ccc(O)c(O)c2)oc2cc(O)cc(O)c12
REMARK SMILES IDX 4 1 3 2 2 3 1 4 21 5 19 6 18 7 16 8 15 9 14 10 13 11 5 12
REMARK SMILES IDX 6 13 7 14 8 15 12 16 10 17 9 18 11 20 20 22 17 24
REMARK H PARENT 9 19 11 21 20 23 17 25
REMARK Flexibility Score: inf
ROOT
ATOM      1  C   UNL     1      57.371   9.299   5.059  1.00  0.00     0.138 A 
ATOM      2  C   UNL     1      58.156   8.994   3.939  1.00  0.00     0.100 A 
ATOM      3  C   UNL     1      59.545   9.100   4.020  1.00  0.00     0.197 A 
ATOM      4  O   UNL     1      60.220   8.879   2.981  1.00  0.00    -0.289 OA
ATOM      5  C   UNL     1      60.152   9.485   5.239  1.00  0.00     0.107 A 
ATOM      6  C   UNL     1      61.559   9.588   5.451  1.00  0.00     0.134 A 
ATOM      7  C   UNL     1      62.039  10.091   6.667  1.00  0.00     0.093 A 
ATOM      8  C   UNL     1      61.165  10.438   7.699  1.00  0.00     0.123 A 
ATOM      9  C   UNL     1      59.791  10.290   7.522  1.00  0.00     0.094 A 
ATOM     10  C   UNL     1      59.279   9.823   6.309  1.00  0.00     0.146 A 
ATOM     11  O   UNL     1      57.962   9.711   6.176  1.00  0.00    -0.456 OA
ENDROOT
BRANCH   1  12
ATOM     12  C   UNL     1      55.889   9.201   5.028  1.00  0.00     0.021 A 
ATOM     13  C   UNL     1      55.187   8.978   6.225  1.00  0.00     0.016 A 
ATOM     14  C   UNL     1      53.794   8.875   6.221  1.00  0.00     0.051 A 
ATOM     15  C   UNL     1      53.078   8.984   5.026  1.00  0.00     0.157 A 
ATOM     16  C   UNL     1      55.166   9.297   3.824  1.00  0.00     0.062 A 
ATOM     17  C   UNL     1      53.767   9.192   3.819  1.00  0.00     0.158 A 
BRANCH  15  18
ATOM     18  O   UNL     1      51.689   8.878   5.054  1.00  0.00    -0.504 OA
ATOM     19  H   UNL     1      51.115   9.477   5.636  1.00  0.00     0.293 HD
ENDBRANCH  15  18
BRANCH  17  20
ATOM     20  O   UNL     1      53.061   9.290   2.621  1.00  0.00    -0.504 OA
ATOM     21  H   UNL     1      53.279  10.001   1.933  1.00  0.00     0.293 HD
ENDBRANCH  17  20
ENDBRANCH   1  12
BRANCH   6  22
ATOM     22  O   UNL     1      62.520   9.189   4.517  1.00  0.00    -0.507 OA
ATOM     23  H   UNL     1      63.470   8.933   4.740  1.00  0.00     0.293 HD
ENDBRANCH   6  22
BRANCH   8  24
ATOM     24  O   UNL     1      61.652  10.923   8.911  1.00  0.00    -0.508 OA
ATOM     25  H   UNL     1      61.044  11.373   9.585  1.00  0.00     0.293 HD
ENDBRANCH   8  24
TORSDOF 5
ENDMDL
