MODEL 1
REMARK VINA RESULT:    -5.236      0.000      0.000
REMARK INTER + INTRA:         -10.997
REMARK INTER:                  -9.828
REMARK INTRA:                  -1.169
REMARK UNBOUND:                -1.169
REMARK SMILES O=C([O-])CCCCCCCCCCCCCCC(=O)[O-]
REMARK SMILES IDX 10 1 9 2 8 3 7 4 6 5 5 6 4 7 2 8 1 9 3 10 11 11 12 12 13 13
REMARK SMILES IDX 14 14 15 15 16 16 17 17 18 18 19 19 20 20
REMARK H PARENT
REMARK Flexibility Score: inf
ROOT
ATOM      1  C   UNL     1       9.619  54.852  23.909  1.00  0.00     0.000 C 
ENDROOT
BRANCH   1   2
ATOM      2  C   UNL     1       8.362  54.031  24.241  1.00  0.00     0.000 C 
BRANCH   2   3
ATOM      3  C   UNL     1       7.288  54.112  23.148  1.00  0.00     0.000 C 
BRANCH   3   4
ATOM      4  C   UNL     1       7.716  55.062  22.024  1.00  0.00     0.000 C 
BRANCH   4   5
ATOM      5  C   UNL     1       6.517  55.862  21.494  1.00  0.00     0.000 C 
BRANCH   5   6
ATOM      6  C   UNL     1       6.864  56.710  20.257  1.00  0.00     0.006 C 
BRANCH   6   7
ATOM      7  C   UNL     1       7.975  56.116  19.375  1.00  0.00     0.053 C 
BRANCH   7   8
ATOM      8  C   UNL     1       7.422  55.302  18.246  1.00  0.00     0.041 C 
ATOM      9  O   UNL     1       7.238  54.064  18.390  1.00  0.00    -0.550 OA
ATOM     10  O   UNL     1       7.144  55.902  17.026  1.00  0.00    -0.550 OA
ENDBRANCH   7   8
ENDBRANCH   6   7
ENDBRANCH   5   6
ENDBRANCH   4   5
ENDBRANCH   3   4
ENDBRANCH   2   3
ENDBRANCH   1   2
BRANCH   1  11
ATOM     11  C   UNL     1      10.856  53.986  23.589  1.00  0.00     0.000 C 
BRANCH  11  12
ATOM     12  C   UNL     1      10.934  53.611  22.099  1.00  0.00     0.000 C 
BRANCH  12  13
ATOM     13  C   UNL     1      10.367  52.213  21.809  1.00  0.00     0.000 C 
BRANCH  13  14
ATOM     14  C   UNL     1      10.365  51.305  23.046  1.00  0.00     0.000 C 
BRANCH  14  15
ATOM     15  C   UNL     1      11.150  50.011  22.779  1.00  0.00     0.000 C 
BRANCH  15  16
ATOM     16  C   UNL     1      10.845  48.909  23.805  1.00  0.00     0.006 C 
BRANCH  16  17
ATOM     17  C   UNL     1      10.424  47.589  23.147  1.00  0.00     0.053 C 
BRANCH  17  18
ATOM     18  C   UNL     1       9.522  46.817  24.058  1.00  0.00     0.041 C 
ATOM     19  O   UNL     1       8.273  46.856  23.897  1.00  0.00    -0.550 OA
ATOM     20  O   UNL     1      10.056  46.093  25.116  1.00  0.00    -0.550 OA
ENDBRANCH  17  18
ENDBRANCH  16  17
ENDBRANCH  15  16
ENDBRANCH  14  15
ENDBRANCH  13  14
ENDBRANCH  12  13
ENDBRANCH  11  12
ENDBRANCH   1  11
TORSDOF 15
ENDMDL
MODEL 2
REMARK VINA RESULT:    -5.161      4.539      6.423
REMARK INTER + INTRA:         -10.856
REMARK INTER:                 -10.129
REMARK INTRA:                  -0.727
REMARK UNBOUND:                -1.169
REMARK SMILES O=C([O-])CCCCCCCCCCCCCCC(=O)[O-]
REMARK SMILES IDX 10 1 9 2 8 3 7 4 6 5 5 6 4 7 2 8 1 9 3 10 11 11 12 12 13 13
REMARK SMILES IDX 14 14 15 15 16 16 17 17 18 18 19 19 20 20
REMARK H PARENT
REMARK Flexibility Score: inf
ROOT
ATOM      1  C   UNL     1       5.502  56.662  21.617  1.00  0.00     0.000 C 
ENDROOT
BRANCH   1   2
ATOM      2  C   UNL     1       4.661  57.631  20.767  1.00  0.00     0.000 C 
BRANCH   2   3
ATOM      3  C   UNL     1       3.757  58.538  21.612  1.00  0.00     0.000 C 
BRANCH   3   4
ATOM      4  C   UNL     1       2.515  58.969  20.822  1.00  0.00     0.000 C 
BRANCH   4   5
ATOM      5  C   UNL     1       2.887  59.973  19.721  1.00  0.00     0.000 C 
BRANCH   5   6
ATOM      6  C   UNL     1       2.078  59.768  18.427  1.00  0.00     0.006 C 
BRANCH   6   7
ATOM      7  C   UNL     1       2.560  60.616  17.239  1.00  0.00     0.053 C 
BRANCH   7   8
ATOM      8  C   UNL     1       2.118  60.046  15.926  1.00  0.00     0.041 C 
ATOM      9  O   UNL     1       1.072  59.349  15.858  1.00  0.00    -0.550 OA
ATOM     10  O   UNL     1       2.881  60.256  14.784  1.00  0.00    -0.550 OA
ENDBRANCH   7   8
ENDBRANCH   6   7
ENDBRANCH   5   6
ENDBRANCH   4   5
ENDBRANCH   3   4
ENDBRANCH   2   3
ENDBRANCH   1   2
BRANCH   1  11
ATOM     11  C   UNL     1       7.012  56.717  21.303  1.00  0.00     0.000 C 
BRANCH  11  12
ATOM     12  C   UNL     1       7.292  56.696  19.790  1.00  0.00     0.000 C 
BRANCH  12  13
ATOM     13  C   UNL     1       8.005  55.413  19.337  1.00  0.00     0.000 C 
BRANCH  13  14
ATOM     14  C   UNL     1       8.064  54.345  20.439  1.00  0.00     0.000 C 
BRANCH  14  15
ATOM     15  C   UNL     1       9.508  54.135  20.922  1.00  0.00     0.000 C 
BRANCH  15  16
ATOM     16  C   UNL     1       9.588  53.279  22.196  1.00  0.00     0.006 C 
BRANCH  16  17
ATOM     17  C   UNL     1      10.871  53.533  22.998  1.00  0.00     0.053 C 
BRANCH  17  18
ATOM     18  C   UNL     1      10.581  54.395  24.186  1.00  0.00     0.041 C 
ATOM     19  O   UNL     1      11.523  54.831  24.898  1.00  0.00    -0.550 OA
ATOM     20  O   UNL     1       9.266  54.676  24.537  1.00  0.00    -0.550 OA
ENDBRANCH  17  18
ENDBRANCH  16  17
ENDBRANCH  15  16
ENDBRANCH  14  15
ENDBRANCH  13  14
ENDBRANCH  12  13
ENDBRANCH  11  12
ENDBRANCH   1  11
TORSDOF 15
ENDMDL
MODEL 3
REMARK VINA RESULT:    -5.159      4.853     10.915
REMARK INTER + INTRA:         -10.853
REMARK INTER:                 -10.132
REMARK INTRA:                  -0.720
REMARK UNBOUND:                -1.169
REMARK SMILES O=C([O-])CCCCCCCCCCCCCCC(=O)[O-]
REMARK SMILES IDX 10 1 9 2 8 3 7 4 6 5 5 6 4 7 2 8 1 9 3 10 11 11 12 12 13 13
REMARK SMILES IDX 14 14 15 15 16 16 17 17 18 18 19 19 20 20
REMARK H PARENT
REMARK Flexibility Score: inf
ROOT
ATOM      1  C   UNL     1       5.216  57.190  21.338  1.00  0.00     0.000 C 
ENDROOT
BRANCH   1   2
ATOM      2  C   UNL     1       6.520  56.909  20.573  1.00  0.00     0.000 C 
BRANCH   2   3
ATOM      3  C   UNL     1       6.988  55.452  20.702  1.00  0.00     0.000 C 
BRANCH   3   4
ATOM      4  C   UNL     1       8.516  55.356  20.622  1.00  0.00     0.000 C 
BRANCH   4   5
ATOM      5  C   UNL     1       9.003  53.970  21.073  1.00  0.00     0.000 C 
BRANCH   5   6
ATOM      6  C   UNL     1      10.458  53.982  21.576  1.00  0.00     0.006 C 
BRANCH   6   7
ATOM      7  C   UNL     1      10.607  53.729  23.085  1.00  0.00     0.053 C 
BRANCH   7   8
ATOM      8  C   UNL     1       9.704  54.608  23.895  1.00  0.00     0.041 C 
ATOM      9  O   UNL     1       9.884  55.855  23.914  1.00  0.00    -0.550 OA
ATOM     10  O   UNL     1       8.686  54.048  24.655  1.00  0.00    -0.550 OA
ENDBRANCH   7   8
ENDBRANCH   6   7
ENDBRANCH   5   6
ENDBRANCH   4   5
ENDBRANCH   3   4
ENDBRANCH   2   3
ENDBRANCH   1   2
BRANCH   1  11
ATOM     11  C   UNL     1       4.330  58.265  20.674  1.00  0.00     0.000 C 
BRANCH  11  12
ATOM     12  C   UNL     1       3.307  58.862  21.655  1.00  0.00     0.000 C 
BRANCH  12  13
ATOM     13  C   UNL     1       3.102  60.371  21.453  1.00  0.00     0.000 C 
BRANCH  13  14
ATOM     14  C   UNL     1       2.953  60.757  19.975  1.00  0.00     0.000 C 
BRANCH  14  15
ATOM     15  C   UNL     1       1.474  60.948  19.604  1.00  0.00     0.000 C 
BRANCH  15  16
ATOM     16  C   UNL     1       1.202  60.715  18.110  1.00  0.00     0.006 C 
BRANCH  16  17
ATOM     17  C   UNL     1       2.466  60.320  17.334  1.00  0.00     0.053 C 
BRANCH  17  18
ATOM     18  C   UNL     1       2.139  60.079  15.894  1.00  0.00     0.041 C 
ATOM     19  O   UNL     1       1.168  59.343  15.578  1.00  0.00    -0.550 OA
ATOM     20  O   UNL     1       2.938  60.628  14.898  1.00  0.00    -0.550 OA
ENDBRANCH  17  18
ENDBRANCH  16  17
ENDBRANCH  15  16
ENDBRANCH  14  15
ENDBRANCH  13  14
ENDBRANCH  12  13
ENDBRANCH  11  12
ENDBRANCH   1  11
TORSDOF 15
ENDMDL
MODEL 4
REMARK VINA RESULT:    -5.083      5.717     10.104
REMARK INTER + INTRA:         -10.709
REMARK INTER:                  -9.961
REMARK INTRA:                  -0.748
REMARK UNBOUND:                -1.169
REMARK SMILES O=C([O-])CCCCCCCCCCCCCCC(=O)[O-]
REMARK SMILES IDX 10 1 9 2 8 3 7 4 6 5 5 6 4 7 2 8 1 9 3 10 11 11 12 12 13 13
REMARK SMILES IDX 14 14 15 15 16 16 17 17 18 18 19 19 20 20
REMARK H PARENT
REMARK Flexibility Score: inf
ROOT
ATOM      1  C   UNL     1       5.745  56.734  21.549  1.00  0.00     0.000 C 
ENDROOT
BRANCH   1   2
ATOM      2  C   UNL     1       7.246  56.542  21.269  1.00  0.00     0.000 C 
BRANCH   2   3
ATOM      3  C   UNL     1       7.543  56.208  19.801  1.00  0.00     0.000 C 
BRANCH   3   4
ATOM      4  C   UNL     1       8.275  54.866  19.679  1.00  0.00     0.000 C 
BRANCH   4   5
ATOM      5  C   UNL     1       8.481  54.226  21.060  1.00  0.00     0.000 C 
BRANCH   5   6
ATOM      6  C   UNL     1       9.967  54.027  21.409  1.00  0.00     0.006 C 
BRANCH   6   7
ATOM      7  C   UNL     1      10.211  53.238  22.706  1.00  0.00     0.053 C 
BRANCH   7   8
ATOM      8  C   UNL     1      10.264  54.132  23.907  1.00  0.00     0.041 C 
ATOM      9  O   UNL     1      11.373  54.532  24.350  1.00  0.00    -0.550 OA
ATOM     10  O   UNL     1       9.091  54.494  24.557  1.00  0.00    -0.550 OA
ENDBRANCH   7   8
ENDBRANCH   6   7
ENDBRANCH   5   6
ENDBRANCH   4   5
ENDBRANCH   3   4
ENDBRANCH   2   3
ENDBRANCH   1   2
BRANCH   1  11
ATOM     11  C   UNL     1       5.054  57.706  20.570  1.00  0.00     0.000 C 
BRANCH  11  12
ATOM     12  C   UNL     1       3.801  58.355  21.183  1.00  0.00     0.000 C 
BRANCH  12  13
ATOM     13  C   UNL     1       3.078  59.292  20.204  1.00  0.00     0.000 C 
BRANCH  13  14
ATOM     14  C   UNL     1       1.796  59.894  20.795  1.00  0.00     0.000 C 
BRANCH  14  15
ATOM     15  C   UNL     1       1.989  60.249  22.278  1.00  0.00     0.000 C 
BRANCH  15  16
ATOM     16  C   UNL     1       0.660  60.337  23.044  1.00  0.00     0.006 C 
BRANCH  16  17
ATOM     17  C   UNL     1       0.122  58.960  23.456  1.00  0.00     0.053 C 
BRANCH  17  18
ATOM     18  C   UNL     1       0.012  58.868  24.945  1.00  0.00     0.041 C 
ATOM     19  O   UNL     1       0.378  57.823  25.544  1.00  0.00    -0.550 OA
ATOM     20  O   UNL     1      -0.543  59.916  25.668  1.00  0.00    -0.550 OA
ENDBRANCH  17  18
ENDBRANCH  16  17
ENDBRANCH  15  16
ENDBRANCH  14  15
ENDBRANCH  13  14
ENDBRANCH  12  13
ENDBRANCH  11  12
ENDBRANCH   1  11
TORSDOF 15
ENDMDL
MODEL 5
REMARK VINA RESULT:    -5.059      4.985     11.046
REMARK INTER + INTRA:         -10.663
REMARK INTER:                  -9.940
REMARK INTRA:                  -0.724
REMARK UNBOUND:                -1.169
REMARK SMILES O=C([O-])CCCCCCCCCCCCCCC(=O)[O-]
REMARK SMILES IDX 10 1 9 2 8 3 7 4 6 5 5 6 4 7 2 8 1 9 3 10 11 11 12 12 13 13
REMARK SMILES IDX 14 14 15 15 16 16 17 17 18 18 19 19 20 20
REMARK H PARENT
REMARK Flexibility Score: inf
ROOT
ATOM      1  C   UNL     1       5.830  56.447  21.285  1.00  0.00     0.000 C 
ENDROOT
BRANCH   1   2
ATOM      2  C   UNL     1       6.811  56.994  20.233  1.00  0.00     0.000 C 
BRANCH   2   3
ATOM      3  C   UNL     1       8.015  56.070  19.999  1.00  0.00     0.000 C 
BRANCH   3   4
ATOM      4  C   UNL     1       8.491  55.443  21.315  1.00  0.00     0.000 C 
BRANCH   4   5
ATOM      5  C   UNL     1       9.174  54.090  21.062  1.00  0.00     0.000 C 
BRANCH   5   6
ATOM      6  C   UNL     1      10.551  53.981  21.741  1.00  0.00     0.006 C 
BRANCH   6   7
ATOM      7  C   UNL     1      10.529  53.275  23.106  1.00  0.00     0.053 C 
BRANCH   7   8
ATOM      8  C   UNL     1      10.445  54.249  24.241  1.00  0.00     0.041 C 
ATOM      9  O   UNL     1       9.323  54.598  24.694  1.00  0.00    -0.550 OA
ATOM     10  O   UNL     1      11.604  54.796  24.776  1.00  0.00    -0.550 OA
ENDBRANCH   7   8
ENDBRANCH   6   7
ENDBRANCH   5   6
ENDBRANCH   4   5
ENDBRANCH   3   4
ENDBRANCH   2   3
ENDBRANCH   1   2
BRANCH   1  11
ATOM     11  C   UNL     1       4.686  57.423  21.628  1.00  0.00     0.000 C 
BRANCH  11  12
ATOM     12  C   UNL     1       4.399  58.408  20.482  1.00  0.00     0.000 C 
BRANCH  12  13
ATOM     13  C   UNL     1       2.971  58.973  20.529  1.00  0.00     0.000 C 
BRANCH  13  14
ATOM     14  C   UNL     1       2.934  60.504  20.408  1.00  0.00     0.000 C 
BRANCH  14  15
ATOM     15  C   UNL     1       2.167  60.936  19.148  1.00  0.00     0.000 C 
BRANCH  15  16
ATOM     16  C   UNL     1       2.369  59.970  17.970  1.00  0.00     0.006 C 
BRANCH  16  17
ATOM     17  C   UNL     1       1.198  59.992  16.980  1.00  0.00     0.053 C 
BRANCH  17  18
ATOM     18  C   UNL     1       1.573  60.751  15.746  1.00  0.00     0.041 C 
ATOM     19  O   UNL     1       2.728  60.639  15.258  1.00  0.00    -0.550 OA
ATOM     20  O   UNL     1       0.662  61.623  15.163  1.00  0.00    -0.550 OA
ENDBRANCH  17  18
ENDBRANCH  16  17
ENDBRANCH  15  16
ENDBRANCH  14  15
ENDBRANCH  13  14
ENDBRANCH  12  13
ENDBRANCH  11  12
ENDBRANCH   1  11
TORSDOF 15
ENDMDL
MODEL 6
REMARK VINA RESULT:    -5.057      5.338      7.176
REMARK INTER + INTRA:         -10.660
REMARK INTER:                  -9.575
REMARK INTRA:                  -1.085
REMARK UNBOUND:                -1.169
REMARK SMILES O=C([O-])CCCCCCCCCCCCCCC(=O)[O-]
REMARK SMILES IDX 10 1 9 2 8 3 7 4 6 5 5 6 4 7 2 8 1 9 3 10 11 11 12 12 13 13
REMARK SMILES IDX 14 14 15 15 16 16 17 17 18 18 19 19 20 20
REMARK H PARENT
REMARK Flexibility Score: inf
ROOT
ATOM      1  C   UNL     1       5.209  56.852  21.282  1.00  0.00     0.000 C 
ENDROOT
BRANCH   1   2
ATOM      2  C   UNL     1       4.363  58.112  21.534  1.00  0.00     0.000 C 
BRANCH   2   3
ATOM      3  C   UNL     1       3.852  58.758  20.239  1.00  0.00     0.000 C 
BRANCH   3   4
ATOM      4  C   UNL     1       3.373  60.193  20.492  1.00  0.00     0.000 C 
BRANCH   4   5
ATOM      5  C   UNL     1       2.721  60.318  21.877  1.00  0.00     0.000 C 
BRANCH   5   6
ATOM      6  C   UNL     1       1.194  60.128  21.838  1.00  0.00     0.006 C 
BRANCH   6   7
ATOM      7  C   UNL     1       0.707  58.801  22.443  1.00  0.00     0.053 C 
BRANCH   7   8
ATOM      8  C   UNL     1       0.246  58.964  23.858  1.00  0.00     0.041 C 
ATOM      9  O   UNL     1       0.082  57.953  24.592  1.00  0.00    -0.550 OA
ATOM     10  O   UNL     1      -0.037  60.229  24.357  1.00  0.00    -0.550 OA
ENDBRANCH   7   8
ENDBRANCH   6   7
ENDBRANCH   5   6
ENDBRANCH   4   5
ENDBRANCH   3   4
ENDBRANCH   2   3
ENDBRANCH   1   2
BRANCH   1  11
ATOM     11  C   UNL     1       6.489  57.120  20.463  1.00  0.00     0.000 C 
BRANCH  11  12
ATOM     12  C   UNL     1       7.746  56.559  21.148  1.00  0.00     0.000 C 
BRANCH  12  13
ATOM     13  C   UNL     1       8.318  55.330  20.425  1.00  0.00     0.000 C 
BRANCH  13  14
ATOM     14  C   UNL     1       8.181  54.041  21.248  1.00  0.00     0.000 C 
BRANCH  14  15
ATOM     15  C   UNL     1       7.592  54.335  22.636  1.00  0.00     0.000 C 
BRANCH  15  16
ATOM     16  C   UNL     1       8.343  53.612  23.765  1.00  0.00     0.006 C 
BRANCH  16  17
ATOM     17  C   UNL     1       9.167  54.570  24.635  1.00  0.00     0.053 C 
BRANCH  17  18
ATOM     18  C   UNL     1      10.629  54.385  24.375  1.00  0.00     0.041 C 
ATOM     19  O   UNL     1      11.020  53.863  23.298  1.00  0.00    -0.550 OA
ATOM     20  O   UNL     1      11.558  54.742  25.345  1.00  0.00    -0.550 OA
ENDBRANCH  17  18
ENDBRANCH  16  17
ENDBRANCH  15  16
ENDBRANCH  14  15
ENDBRANCH  13  14
ENDBRANCH  12  13
ENDBRANCH  11  12
ENDBRANCH   1  11
TORSDOF 15
ENDMDL
MODEL 7
REMARK VINA RESULT:    -4.870      5.435     11.290
REMARK INTER + INTRA:         -10.310
REMARK INTER:                  -9.238
REMARK INTRA:                  -1.072
REMARK UNBOUND:                -1.169
REMARK SMILES O=C([O-])CCCCCCCCCCCCCCC(=O)[O-]
REMARK SMILES IDX 10 1 9 2 8 3 7 4 6 5 5 6 4 7 2 8 1 9 3 10 11 11 12 12 13 13
REMARK SMILES IDX 14 14 15 15 16 16 17 17 18 18 19 19 20 20
REMARK H PARENT
REMARK Flexibility Score: inf
ROOT
ATOM      1  C   UNL     1       3.029  58.632  21.221  1.00  0.00     0.000 C 
ENDROOT
BRANCH   1   2
ATOM      2  C   UNL     1       4.420  58.310  20.647  1.00  0.00     0.000 C 
BRANCH   2   3
ATOM      3  C   UNL     1       5.042  57.047  21.260  1.00  0.00     0.000 C 
BRANCH   3   4
ATOM      4  C   UNL     1       6.518  56.915  20.868  1.00  0.00     0.000 C 
BRANCH   4   5
ATOM      5  C   UNL     1       6.876  55.453  20.560  1.00  0.00     0.000 C 
BRANCH   5   6
ATOM      6  C   UNL     1       8.387  55.176  20.655  1.00  0.00     0.006 C 
BRANCH   6   7
ATOM      7  C   UNL     1       8.918  55.055  22.093  1.00  0.00     0.053 C 
BRANCH   7   8
ATOM      8  C   UNL     1       9.875  53.913  22.245  1.00  0.00     0.041 C 
ATOM      9  O   UNL     1      10.950  53.896  21.590  1.00  0.00    -0.550 OA
ATOM     10  O   UNL     1       9.563  52.850  23.084  1.00  0.00    -0.550 OA
ENDBRANCH   7   8
ENDBRANCH   6   7
ENDBRANCH   5   6
ENDBRANCH   4   5
ENDBRANCH   3   4
ENDBRANCH   2   3
ENDBRANCH   1   2
BRANCH   1  11
ATOM     11  C   UNL     1       2.973  59.970  21.989  1.00  0.00     0.000 C 
BRANCH  11  12
ATOM     12  C   UNL     1       1.553  60.298  22.481  1.00  0.00     0.000 C 
BRANCH  12  13
ATOM     13  C   UNL     1       0.469  59.918  21.462  1.00  0.00     0.000 C 
BRANCH  13  14
ATOM     14  C   UNL     1      -0.105  61.135  20.724  1.00  0.00     0.000 C 
BRANCH  14  15
ATOM     15  C   UNL     1      -0.073  60.920  19.202  1.00  0.00     0.000 C 
BRANCH  15  16
ATOM     16  C   UNL     1       1.276  61.311  18.577  1.00  0.00     0.006 C 
BRANCH  16  17
ATOM     17  C   UNL     1       2.062  60.099  18.060  1.00  0.00     0.053 C 
BRANCH  17  18
ATOM     18  C   UNL     1       1.955  60.006  16.571  1.00  0.00     0.041 C 
ATOM     19  O   UNL     1       2.864  60.479  15.839  1.00  0.00    -0.550 OA
ATOM     20  O   UNL     1       0.828  59.440  15.989  1.00  0.00    -0.550 OA
ENDBRANCH  17  18
ENDBRANCH  16  17
ENDBRANCH  15  16
ENDBRANCH  14  15
ENDBRANCH  13  14
ENDBRANCH  12  13
ENDBRANCH  11  12
ENDBRANCH   1  11
TORSDOF 15
ENDMDL
MODEL 8
REMARK VINA RESULT:    -4.823      2.669      9.271
REMARK INTER + INTRA:         -10.222
REMARK INTER:                  -9.420
REMARK INTRA:                  -0.801
REMARK UNBOUND:                -1.169
REMARK SMILES O=C([O-])CCCCCCCCCCCCCCC(=O)[O-]
REMARK SMILES IDX 10 1 9 2 8 3 7 4 6 5 5 6 4 7 2 8 1 9 3 10 11 11 12 12 13 13
REMARK SMILES IDX 14 14 15 15 16 16 17 17 18 18 19 19 20 20
REMARK H PARENT
REMARK Flexibility Score: inf
ROOT
ATOM      1  C   UNL     1      10.994  50.731  23.109  1.00  0.00     0.000 C 
ENDROOT
BRANCH   1   2
ATOM      2  C   UNL     1      10.750  49.257  22.743  1.00  0.00     0.000 C 
BRANCH   2   3
ATOM      3  C   UNL     1      11.924  48.343  23.124  1.00  0.00     0.000 C 
BRANCH   3   4
ATOM      4  C   UNL     1      11.432  46.937  23.488  1.00  0.00     0.000 C 
BRANCH   4   5
ATOM      5  C   UNL     1      11.621  46.660  24.987  1.00  0.00     0.000 C 
BRANCH   5   6
ATOM      6  C   UNL     1      12.399  47.777  25.707  1.00  0.00     0.006 C 
BRANCH   6   7
ATOM      7  C   UNL     1      12.705  47.483  27.184  1.00  0.00     0.053 C 
BRANCH   7   8
ATOM      8  C   UNL     1      13.342  48.652  27.871  1.00  0.00     0.041 C 
ATOM      9  O   UNL     1      14.346  49.216  27.361  1.00  0.00    -0.550 OA
ATOM     10  O   UNL     1      12.848  49.096  29.091  1.00  0.00    -0.550 OA
ENDBRANCH   7   8
ENDBRANCH   6   7
ENDBRANCH   5   6
ENDBRANCH   4   5
ENDBRANCH   3   4
ENDBRANCH   2   3
ENDBRANCH   1   2
BRANCH   1  11
ATOM     11  C   UNL     1      10.235  51.725  22.204  1.00  0.00     0.000 C 
BRANCH  11  12
ATOM     12  C   UNL     1      10.816  53.147  22.288  1.00  0.00     0.000 C 
BRANCH  12  13
ATOM     13  C   UNL     1      10.106  54.017  23.336  1.00  0.00     0.000 C 
BRANCH  13  14
ATOM     14  C   UNL     1       8.646  53.600  23.563  1.00  0.00     0.000 C 
BRANCH  14  15
ATOM     15  C   UNL     1       7.734  54.180  22.471  1.00  0.00     0.000 C 
BRANCH  15  16
ATOM     16  C   UNL     1       8.212  55.549  21.964  1.00  0.00     0.006 C 
BRANCH  16  17
ATOM     17  C   UNL     1       8.599  55.528  20.480  1.00  0.00     0.053 C 
BRANCH  17  18
ATOM     18  C   UNL     1       7.541  56.191  19.656  1.00  0.00     0.041 C 
ATOM     19  O   UNL     1       7.406  55.895  18.439  1.00  0.00    -0.550 OA
ATOM     20  O   UNL     1       6.735  57.174  20.218  1.00  0.00    -0.550 OA
ENDBRANCH  17  18
ENDBRANCH  16  17
ENDBRANCH  15  16
ENDBRANCH  14  15
ENDBRANCH  13  14
ENDBRANCH  12  13
ENDBRANCH  11  12
ENDBRANCH   1  11
TORSDOF 15
ENDMDL
MODEL 9
REMARK VINA RESULT:    -4.784      1.465      3.150
REMARK INTER + INTRA:         -10.149
REMARK INTER:                  -9.250
REMARK INTRA:                  -0.898
REMARK UNBOUND:                -1.169
REMARK SMILES O=C([O-])CCCCCCCCCCCCCCC(=O)[O-]
REMARK SMILES IDX 10 1 9 2 8 3 7 4 6 5 5 6 4 7 2 8 1 9 3 10 11 11 12 12 13 13
REMARK SMILES IDX 14 14 15 15 16 16 17 17 18 18 19 19 20 20
REMARK H PARENT
REMARK Flexibility Score: inf
ROOT
ATOM      1  C   UNL     1      10.378  52.079  21.976  1.00  0.00     0.000 C 
ENDROOT
BRANCH   1   2
ATOM      2  C   UNL     1      10.992  53.475  22.183  1.00  0.00     0.000 C 
BRANCH   2   3
ATOM      3  C   UNL     1      10.691  54.062  23.569  1.00  0.00     0.000 C 
BRANCH   3   4
ATOM      4  C   UNL     1       9.503  55.029  23.511  1.00  0.00     0.000 C 
BRANCH   4   5
ATOM      5  C   UNL     1       8.177  54.263  23.384  1.00  0.00     0.000 C 
BRANCH   5   6
ATOM      6  C   UNL     1       7.386  54.645  22.119  1.00  0.00     0.006 C 
BRANCH   6   7
ATOM      7  C   UNL     1       8.155  55.548  21.141  1.00  0.00     0.053 C 
BRANCH   7   8
ATOM      8  C   UNL     1       7.554  55.533  19.770  1.00  0.00     0.041 C 
ATOM      9  O   UNL     1       7.582  56.569  19.054  1.00  0.00    -0.550 OA
ATOM     10  O   UNL     1       6.932  54.385  19.296  1.00  0.00    -0.550 OA
ENDBRANCH   7   8
ENDBRANCH   6   7
ENDBRANCH   5   6
ENDBRANCH   4   5
ENDBRANCH   3   4
ENDBRANCH   2   3
ENDBRANCH   1   2
BRANCH   1  11
ATOM     11  C   UNL     1      10.744  51.073  23.087  1.00  0.00     0.000 C 
BRANCH  11  12
ATOM     12  C   UNL     1      10.718  49.619  22.586  1.00  0.00     0.000 C 
BRANCH  12  13
ATOM     13  C   UNL     1      11.881  48.780  23.138  1.00  0.00     0.000 C 
BRANCH  13  14
ATOM     14  C   UNL     1      11.474  47.332  23.448  1.00  0.00     0.000 C 
BRANCH  14  15
ATOM     15  C   UNL     1       9.970  47.238  23.751  1.00  0.00     0.000 C 
BRANCH  15  16
ATOM     16  C   UNL     1       9.447  45.794  23.711  1.00  0.00     0.006 C 
BRANCH  16  17
ATOM     17  C   UNL     1      10.577  44.756  23.689  1.00  0.00     0.053 C 
BRANCH  17  18
ATOM     18  C   UNL     1      10.801  44.200  25.060  1.00  0.00     0.041 C 
ATOM     19  O   UNL     1       9.835  44.066  25.856  1.00  0.00    -0.550 OA
ATOM     20  O   UNL     1      12.086  43.876  25.477  1.00  0.00    -0.550 OA
ENDBRANCH  17  18
ENDBRANCH  16  17
ENDBRANCH  15  16
ENDBRANCH  14  15
ENDBRANCH  13  14
ENDBRANCH  12  13
ENDBRANCH  11  12
ENDBRANCH   1  11
TORSDOF 15
ENDMDL
