MODEL 1
REMARK VINA RESULT:    -4.320      0.000      0.000
REMARK INTER + INTRA:          -6.307
REMARK INTER:                  -5.835
REMARK INTRA:                  -0.472
REMARK UNBOUND:                -0.472
REMARK SMILES CCCCCCCC(=O)[O-]
REMARK SMILES IDX 5 1 6 2 7 3 8 4 9 5 10 6 4 7 3 8 2 9 1 10
REMARK H PARENT
REMARK Flexibility Score: inf
ROOT
ATOM      1  C   UNL     1      61.732   2.897  19.543  1.00  0.00     0.000 C 
ENDROOT
BRANCH   1   2
ATOM      2  C   UNL     1      60.875   3.288  20.763  1.00  0.00     0.006 C 
BRANCH   2   3
ATOM      3  C   UNL     1      61.529   4.339  21.678  1.00  0.00     0.053 C 
BRANCH   3   4
ATOM      4  C   UNL     1      62.465   3.732  22.680  1.00  0.00     0.041 C 
ATOM      5  O   UNL     1      62.024   2.973  23.584  1.00  0.00    -0.550 OA
ATOM      6  O   UNL     1      63.820   4.037  22.642  1.00  0.00    -0.550 OA
ENDBRANCH   3   4
ENDBRANCH   2   3
ENDBRANCH   1   2
BRANCH   1   7
ATOM      7  C   UNL     1      62.525   1.587  19.690  1.00  0.00     0.000 C 
BRANCH   7   8
ATOM      8  C   UNL     1      64.022   1.755  19.391  1.00  0.00    -0.000 C 
BRANCH   8   9
ATOM      9  C   UNL     1      64.369   3.227  19.148  1.00  0.00    -0.003 C 
ATOM     10  C   UNL     1      65.658   3.364  18.341  1.00  0.00     0.004 C 
ENDBRANCH   8   9
ENDBRANCH   7   8
ENDBRANCH   1   7
TORSDOF 6
ENDMDL
MODEL 2
REMARK VINA RESULT:    -4.236      1.125      1.836
REMARK INTER + INTRA:          -6.193
REMARK INTER:                  -5.603
REMARK INTRA:                  -0.591
REMARK UNBOUND:                -0.472
REMARK SMILES CCCCCCCC(=O)[O-]
REMARK SMILES IDX 5 1 6 2 7 3 8 4 9 5 10 6 4 7 3 8 2 9 1 10
REMARK H PARENT
REMARK Flexibility Score: inf
ROOT
ATOM      1  C   UNL     1      60.876   3.615  20.722  1.00  0.00     0.000 C 
ENDROOT
BRANCH   1   2
ATOM      2  C   UNL     1      61.663   4.327  21.840  1.00  0.00     0.006 C 
BRANCH   2   3
ATOM      3  C   UNL     1      62.188   3.382  22.937  1.00  0.00     0.053 C 
BRANCH   3   4
ATOM      4  C   UNL     1      63.680   3.234  22.907  1.00  0.00     0.041 C 
ATOM      5  O   UNL     1      64.205   2.089  22.883  1.00  0.00    -0.550 OA
ATOM      6  O   UNL     1      64.493   4.360  22.949  1.00  0.00    -0.550 OA
ENDBRANCH   3   4
ENDBRANCH   2   3
ENDBRANCH   1   2
BRANCH   1   7
ATOM      7  C   UNL     1      61.736   2.979  19.617  1.00  0.00     0.000 C 
BRANCH   7   8
ATOM      8  C   UNL     1      61.940   1.468  19.811  1.00  0.00    -0.000 C 
BRANCH   8   9
ATOM      9  C   UNL     1      63.390   1.071  19.513  1.00  0.00    -0.003 C 
ATOM     10  C   UNL     1      64.256   2.300  19.250  1.00  0.00     0.004 C 
ENDBRANCH   8   9
ENDBRANCH   7   8
ENDBRANCH   1   7
TORSDOF 6
ENDMDL
MODEL 3
REMARK VINA RESULT:    -4.155     12.982     14.516
REMARK INTER + INTRA:          -6.085
REMARK INTER:                  -5.536
REMARK INTRA:                  -0.549
REMARK UNBOUND:                -0.472
REMARK SMILES CCCCCCCC(=O)[O-]
REMARK SMILES IDX 5 1 6 2 7 3 8 4 9 5 10 6 4 7 3 8 2 9 1 10
REMARK H PARENT
REMARK Flexibility Score: inf
ROOT
ATOM      1  C   UNL     1      78.949   4.731  21.339  1.00  0.00     0.000 C 
ENDROOT
BRANCH   1   2
ATOM      2  C   UNL     1      78.115   3.739  22.174  1.00  0.00     0.006 C 
BRANCH   2   3
ATOM      3  C   UNL     1      77.211   2.818  21.334  1.00  0.00     0.053 C 
BRANCH   3   4
ATOM      4  C   UNL     1      75.779   2.851  21.780  1.00  0.00     0.041 C 
ATOM      5  O   UNL     1      75.423   3.613  22.718  1.00  0.00    -0.550 OA
ATOM      6  O   UNL     1      74.846   2.009  21.188  1.00  0.00    -0.550 OA
ENDBRANCH   3   4
ENDBRANCH   2   3
ENDBRANCH   1   2
BRANCH   1   7
ATOM      7  C   UNL     1      78.184   5.962  20.825  1.00  0.00     0.000 C 
BRANCH   7   8
ATOM      8  C   UNL     1      77.793   6.938  21.945  1.00  0.00    -0.000 C 
BRANCH   8   9
ATOM      9  C   UNL     1      76.288   7.226  21.919  1.00  0.00    -0.003 C 
ATOM     10  C   UNL     1      75.602   6.472  20.783  1.00  0.00     0.004 C 
ENDBRANCH   8   9
ENDBRANCH   7   8
ENDBRANCH   1   7
TORSDOF 6
ENDMDL
MODEL 4
REMARK VINA RESULT:    -4.110      2.074      3.862
REMARK INTER + INTRA:          -6.024
REMARK INTER:                  -5.357
REMARK INTRA:                  -0.667
REMARK UNBOUND:                -0.472
REMARK SMILES CCCCCCCC(=O)[O-]
REMARK SMILES IDX 5 1 6 2 7 3 8 4 9 5 10 6 4 7 3 8 2 9 1 10
REMARK H PARENT
REMARK Flexibility Score: inf
ROOT
ATOM      1  C   UNL     1      61.811   1.343  20.034  1.00  0.00     0.000 C 
ENDROOT
BRANCH   1   2
ATOM      2  C   UNL     1      63.194   1.257  19.360  1.00  0.00     0.006 C 
BRANCH   2   3
ATOM      3  C   UNL     1      64.349   1.787  20.229  1.00  0.00     0.053 C 
BRANCH   3   4
ATOM      4  C   UNL     1      64.830   3.138  19.788  1.00  0.00     0.041 C 
ATOM      5  O   UNL     1      65.854   3.650  20.314  1.00  0.00    -0.550 OA
ATOM      6  O   UNL     1      64.123   3.850  18.827  1.00  0.00    -0.550 OA
ENDBRANCH   3   4
ENDBRANCH   2   3
ENDBRANCH   1   2
BRANCH   1   7
ATOM      7  C   UNL     1      60.926   2.513  19.571  1.00  0.00     0.000 C 
BRANCH   7   8
ATOM      8  C   UNL     1      60.886   3.671  20.579  1.00  0.00    -0.000 C 
BRANCH   8   9
ATOM      9  C   UNL     1      61.347   3.206  21.965  1.00  0.00    -0.003 C 
ATOM     10  C   UNL     1      62.450   4.109  22.511  1.00  0.00     0.004 C 
ENDBRANCH   8   9
ENDBRANCH   7   8
ENDBRANCH   1   7
TORSDOF 6
ENDMDL
MODEL 5
REMARK VINA RESULT:    -4.070      3.730      5.041
REMARK INTER + INTRA:          -5.970
REMARK INTER:                  -5.613
REMARK INTRA:                  -0.357
REMARK UNBOUND:                -0.472
REMARK SMILES CCCCCCCC(=O)[O-]
REMARK SMILES IDX 5 1 6 2 7 3 8 4 9 5 10 6 4 7 3 8 2 9 1 10
REMARK H PARENT
REMARK Flexibility Score: inf
ROOT
ATOM      1  C   UNL     1      65.667   2.478  23.991  1.00  0.00     0.000 C 
ENDROOT
BRANCH   1   2
ATOM      2  C   UNL     1      64.412   2.458  23.096  1.00  0.00     0.006 C 
BRANCH   2   3
ATOM      3  C   UNL     1      63.780   3.843  22.870  1.00  0.00     0.053 C 
BRANCH   3   4
ATOM      4  C   UNL     1      62.286   3.785  22.751  1.00  0.00     0.041 C 
ATOM      5  O   UNL     1      61.641   2.852  23.300  1.00  0.00    -0.550 OA
ATOM      6  O   UNL     1      61.610   4.736  21.997  1.00  0.00    -0.550 OA
ENDBRANCH   3   4
ENDBRANCH   2   3
ENDBRANCH   1   2
BRANCH   1   7
ATOM      7  C   UNL     1      66.956   2.958  23.304  1.00  0.00     0.000 C 
BRANCH   7   8
ATOM      8  C   UNL     1      67.668   4.077  24.078  1.00  0.00    -0.000 C 
BRANCH   8   9
ATOM      9  C   UNL     1      66.686   4.823  24.987  1.00  0.00    -0.003 C 
ATOM     10  C   UNL     1      67.178   4.843  26.433  1.00  0.00     0.004 C 
ENDBRANCH   8   9
ENDBRANCH   7   8
ENDBRANCH   1   7
TORSDOF 6
ENDMDL
MODEL 6
REMARK VINA RESULT:    -4.020      1.786      2.901
REMARK INTER + INTRA:          -5.902
REMARK INTER:                  -5.343
REMARK INTRA:                  -0.558
REMARK UNBOUND:                -0.472
REMARK SMILES CCCCCCCC(=O)[O-]
REMARK SMILES IDX 5 1 6 2 7 3 8 4 9 5 10 6 4 7 3 8 2 9 1 10
REMARK H PARENT
REMARK Flexibility Score: inf
ROOT
ATOM      1  C   UNL     1      61.462   4.445  21.724  1.00  0.00     0.000 C 
ENDROOT
BRANCH   1   2
ATOM      2  C   UNL     1      62.478   3.948  22.772  1.00  0.00     0.006 C 
BRANCH   2   3
ATOM      3  C   UNL     1      63.932   4.364  22.481  1.00  0.00     0.053 C 
BRANCH   3   4
ATOM      4  C   UNL     1      64.763   3.232  21.954  1.00  0.00     0.041 C 
ATOM      5  O   UNL     1      65.610   3.435  21.045  1.00  0.00    -0.550 OA
ATOM      6  O   UNL     1      64.571   1.943  22.438  1.00  0.00    -0.550 OA
ENDBRANCH   3   4
ENDBRANCH   2   3
ENDBRANCH   1   2
BRANCH   1   7
ATOM      7  C   UNL     1      60.875   3.355  20.811  1.00  0.00     0.000 C 
BRANCH   7   8
ATOM      8  C   UNL     1      61.862   2.879  19.734  1.00  0.00    -0.000 C 
BRANCH   8   9
ATOM      9  C   UNL     1      62.186   1.391  19.911  1.00  0.00    -0.003 C 
ATOM     10  C   UNL     1      63.457   1.011  19.154  1.00  0.00     0.004 C 
ENDBRANCH   8   9
ENDBRANCH   7   8
ENDBRANCH   1   7
TORSDOF 6
ENDMDL
MODEL 7
REMARK VINA RESULT:    -3.999      2.393      4.395
REMARK INTER + INTRA:          -5.874
REMARK INTER:                  -5.281
REMARK INTRA:                  -0.593
REMARK UNBOUND:                -0.472
REMARK SMILES CCCCCCCC(=O)[O-]
REMARK SMILES IDX 5 1 6 2 7 3 8 4 9 5 10 6 4 7 3 8 2 9 1 10
REMARK H PARENT
REMARK Flexibility Score: inf
ROOT
ATOM      1  C   UNL     1      65.995   4.299  20.135  1.00  0.00     0.000 C 
ENDROOT
BRANCH   1   2
ATOM      2  C   UNL     1      65.505   3.421  18.966  1.00  0.00     0.006 C 
BRANCH   2   3
ATOM      3  C   UNL     1      64.023   3.017  19.065  1.00  0.00     0.053 C 
BRANCH   3   4
ATOM      4  C   UNL     1      63.838   1.616  19.567  1.00  0.00     0.041 C 
ATOM      5  O   UNL     1      63.152   0.790  18.908  1.00  0.00    -0.550 OA
ATOM      6  O   UNL     1      64.386   1.235  20.785  1.00  0.00    -0.550 OA
ENDBRANCH   3   4
ENDBRANCH   2   3
ENDBRANCH   1   2
BRANCH   1   7
ATOM      7  C   UNL     1      64.894   5.064  20.888  1.00  0.00     0.000 C 
BRANCH   7   8
ATOM      8  C   UNL     1      64.873   4.758  22.394  1.00  0.00    -0.000 C 
BRANCH   8   9
ATOM      9  C   UNL     1      63.577   4.041  22.788  1.00  0.00    -0.003 C 
ATOM     10  C   UNL     1      62.396   4.544  21.962  1.00  0.00     0.004 C 
ENDBRANCH   8   9
ENDBRANCH   7   8
ENDBRANCH   1   7
TORSDOF 6
ENDMDL
MODEL 8
REMARK VINA RESULT:    -3.978      1.728      3.210
REMARK INTER + INTRA:          -5.846
REMARK INTER:                  -5.235
REMARK INTRA:                  -0.611
REMARK UNBOUND:                -0.472
REMARK SMILES CCCCCCCC(=O)[O-]
REMARK SMILES IDX 5 1 6 2 7 3 8 4 9 5 10 6 4 7 3 8 2 9 1 10
REMARK H PARENT
REMARK Flexibility Score: inf
ROOT
ATOM      1  C   UNL     1      66.047   4.354  20.349  1.00  0.00     0.000 C 
ENDROOT
BRANCH   1   2
ATOM      2  C   UNL     1      64.881   4.853  21.225  1.00  0.00     0.006 C 
BRANCH   2   3
ATOM      3  C   UNL     1      64.888   4.291  22.658  1.00  0.00     0.053 C 
BRANCH   3   4
ATOM      4  C   UNL     1      64.223   2.950  22.756  1.00  0.00     0.041 C 
ATOM      5  O   UNL     1      64.902   1.894  22.648  1.00  0.00    -0.550 OA
ATOM      6  O   UNL     1      62.847   2.866  22.925  1.00  0.00    -0.550 OA
ENDBRANCH   3   4
ENDBRANCH   2   3
ENDBRANCH   1   2
BRANCH   1   7
ATOM      7  C   UNL     1      65.634   3.640  19.050  1.00  0.00     0.000 C 
BRANCH   7   8
ATOM      8  C   UNL     1      64.148   3.250  19.027  1.00  0.00    -0.000 C 
BRANCH   8   9
ATOM      9  C   UNL     1      63.976   1.740  19.222  1.00  0.00    -0.003 C 
ATOM     10  C   UNL     1      62.548   1.397  19.642  1.00  0.00     0.004 C 
ENDBRANCH   8   9
ENDBRANCH   7   8
ENDBRANCH   1   7
TORSDOF 6
ENDMDL
