MODEL 1
REMARK VINA RESULT:    -5.534      0.000      0.000
REMARK INTER + INTRA:         -10.765
REMARK INTER:                 -10.064
REMARK INTRA:                  -0.702
REMARK UNBOUND:                -0.702
REMARK SMILES CCCCCCCCCCCCCC[C@H](C)C(=O)[O-]
REMARK SMILES IDX 9 1 10 2 11 3 12 4 13 5 14 6 15 7 16 8 17 9 18 10 19 11 8 12
REMARK SMILES IDX 7 13 6 14 5 15 4 16 3 17 2 18 1 19
REMARK H PARENT
REMARK Flexibility Score: inf
ROOT
ATOM      1  C   UNL     1      -2.564  29.728  57.623  1.00  0.00     0.000 C 
ENDROOT
BRANCH   1   2
ATOM      2  C   UNL     1      -3.945  30.403  57.594  1.00  0.00     0.000 C 
BRANCH   2   3
ATOM      3  C   UNL     1      -4.466  30.736  59.003  1.00  0.00     0.000 C 
BRANCH   3   4
ATOM      4  C   UNL     1      -3.657  31.849  59.688  1.00  0.00     0.000 C 
BRANCH   4   5
ATOM      5  C   UNL     1      -3.831  31.849  61.217  1.00  0.00     0.001 C 
BRANCH   5   6
ATOM      6  C   UNL     1      -3.025  32.964  61.909  1.00  0.00     0.009 C 
BRANCH   6   7
ATOM      7  C   UNL     1      -2.139  32.477  63.078  1.00  0.00     0.032 C 
ATOM      8  C   UNL     1      -2.154  33.497  64.221  1.00  0.00     0.014 C 
BRANCH   7   9
ATOM      9  C   UNL     1      -0.722  32.238  62.633  1.00  0.00     0.044 C 
ATOM     10  O   UNL     1       0.130  31.795  63.448  1.00  0.00    -0.550 OA
ATOM     11  O   UNL     1      -0.342  32.501  61.322  1.00  0.00    -0.550 OA
ENDBRANCH   7   9
ENDBRANCH   6   7
ENDBRANCH   5   6
ENDBRANCH   4   5
ENDBRANCH   3   4
ENDBRANCH   2   3
ENDBRANCH   1   2
BRANCH   1  12
ATOM     12  C   UNL     1      -2.415  28.643  56.542  1.00  0.00     0.000 C 
BRANCH  12  13
ATOM     13  C   UNL     1      -3.737  28.351  55.815  1.00  0.00    -0.000 C 
BRANCH  13  14
ATOM     14  C   UNL     1      -3.874  26.874  55.408  1.00  0.00    -0.000 C 
BRANCH  14  15
ATOM     15  C   UNL     1      -2.624  26.348  54.670  1.00  0.00    -0.000 C 
BRANCH  15  16
ATOM     16  C   UNL     1      -2.721  26.445  53.136  1.00  0.00    -0.000 C 
BRANCH  16  17
ATOM     17  C   UNL     1      -1.423  26.106  52.379  1.00  0.00    -0.000 C 
BRANCH  17  18
ATOM     18  C   UNL     1      -1.464  26.395  50.867  1.00  0.00    -0.003 C 
ATOM     19  C   UNL     1      -2.812  26.940  50.400  1.00  0.00     0.004 C 
ENDBRANCH  17  18
ENDBRANCH  16  17
ENDBRANCH  15  16
ENDBRANCH  14  15
ENDBRANCH  13  14
ENDBRANCH  12  13
ENDBRANCH   1  12
TORSDOF 14
ENDMDL
MODEL 2
REMARK VINA RESULT:    -5.534      1.748      2.015
REMARK INTER + INTRA:         -10.764
REMARK INTER:                  -9.988
REMARK INTRA:                  -0.776
REMARK UNBOUND:                -0.702
REMARK SMILES CCCCCCCCCCCCCC[C@H](C)C(=O)[O-]
REMARK SMILES IDX 9 1 10 2 11 3 12 4 13 5 14 6 15 7 16 8 17 9 18 10 19 11 8 12
REMARK SMILES IDX 7 13 6 14 5 15 4 16 3 17 2 18 1 19
REMARK H PARENT
REMARK Flexibility Score: inf
ROOT
ATOM      1  C   UNL     1      -3.054  29.865  57.642  1.00  0.00     0.000 C 
ENDROOT
BRANCH   1   2
ATOM      2  C   UNL     1      -4.523  29.882  58.096  1.00  0.00     0.000 C 
BRANCH   2   3
ATOM      3  C   UNL     1      -4.733  30.704  59.380  1.00  0.00     0.000 C 
BRANCH   3   4
ATOM      4  C   UNL     1      -3.628  31.750  59.602  1.00  0.00     0.000 C 
BRANCH   4   5
ATOM      5  C   UNL     1      -3.497  32.165  61.078  1.00  0.00     0.001 C 
BRANCH   5   6
ATOM      6  C   UNL     1      -2.435  33.258  61.299  1.00  0.00     0.009 C 
BRANCH   6   7
ATOM      7  C   UNL     1      -2.181  33.608  62.783  1.00  0.00     0.032 C 
ATOM      8  C   UNL     1      -2.559  32.426  63.682  1.00  0.00     0.014 C 
BRANCH   7   9
ATOM      9  C   UNL     1      -2.954  34.828  63.202  1.00  0.00     0.044 C 
ATOM     10  O   UNL     1      -4.109  35.033  62.743  1.00  0.00    -0.550 OA
ATOM     11  O   UNL     1      -2.403  35.737  64.098  1.00  0.00    -0.550 OA
ENDBRANCH   7   9
ENDBRANCH   6   7
ENDBRANCH   5   6
ENDBRANCH   4   5
ENDBRANCH   3   4
ENDBRANCH   2   3
ENDBRANCH   1   2
BRANCH   1  12
ATOM     12  C   UNL     1      -2.835  29.000  56.388  1.00  0.00     0.000 C 
BRANCH  12  13
ATOM     13  C   UNL     1      -4.120  28.296  55.926  1.00  0.00    -0.000 C 
BRANCH  13  14
ATOM     14  C   UNL     1      -3.847  26.916  55.303  1.00  0.00    -0.000 C 
BRANCH  14  15
ATOM     15  C   UNL     1      -2.353  26.700  54.982  1.00  0.00    -0.000 C 
BRANCH  15  16
ATOM     16  C   UNL     1      -2.086  26.274  53.525  1.00  0.00    -0.000 C 
BRANCH  16  17
ATOM     17  C   UNL     1      -3.291  26.413  52.575  1.00  0.00    -0.000 C 
BRANCH  17  18
ATOM     18  C   UNL     1      -2.982  26.122  51.095  1.00  0.00    -0.003 C 
ATOM     19  C   UNL     1      -1.838  26.972  50.546  1.00  0.00     0.004 C 
ENDBRANCH  17  18
ENDBRANCH  16  17
ENDBRANCH  15  16
ENDBRANCH  14  15
ENDBRANCH  13  14
ENDBRANCH  12  13
ENDBRANCH   1  12
TORSDOF 14
ENDMDL
MODEL 3
REMARK VINA RESULT:    -5.506      2.162      2.776
REMARK INTER + INTRA:         -10.715
REMARK INTER:                  -9.862
REMARK INTRA:                  -0.852
REMARK UNBOUND:                -0.702
REMARK SMILES CCCCCCCCCCCCCC[C@H](C)C(=O)[O-]
REMARK SMILES IDX 9 1 10 2 11 3 12 4 13 5 14 6 15 7 16 8 17 9 18 10 19 11 8 12
REMARK SMILES IDX 7 13 6 14 5 15 4 16 3 17 2 18 1 19
REMARK H PARENT
REMARK Flexibility Score: inf
ROOT
ATOM      1  C   UNL     1      -3.143  30.171  57.676  1.00  0.00     0.000 C 
ENDROOT
BRANCH   1   2
ATOM      2  C   UNL     1      -4.467  30.766  58.181  1.00  0.00     0.000 C 
BRANCH   2   3
ATOM      3  C   UNL     1      -4.475  30.979  59.705  1.00  0.00     0.000 C 
BRANCH   3   4
ATOM      4  C   UNL     1      -3.424  32.002  60.166  1.00  0.00     0.000 C 
BRANCH   4   5
ATOM      5  C   UNL     1      -3.606  32.412  61.638  1.00  0.00     0.001 C 
BRANCH   5   6
ATOM      6  C   UNL     1      -2.796  33.667  62.013  1.00  0.00     0.009 C 
BRANCH   6   7
ATOM      7  C   UNL     1      -1.931  33.509  63.284  1.00  0.00     0.032 C 
ATOM      8  C   UNL     1      -1.702  32.026  63.593  1.00  0.00     0.014 C 
BRANCH   7   9
ATOM      9  C   UNL     1      -2.569  34.180  64.471  1.00  0.00     0.044 C 
ATOM     10  O   UNL     1      -3.572  34.924  64.312  1.00  0.00    -0.550 OA
ATOM     11  O   UNL     1      -2.060  33.980  65.749  1.00  0.00    -0.550 OA
ENDBRANCH   7   9
ENDBRANCH   6   7
ENDBRANCH   5   6
ENDBRANCH   4   5
ENDBRANCH   3   4
ENDBRANCH   2   3
ENDBRANCH   1   2
BRANCH   1  12
ATOM     12  C   UNL     1      -3.341  29.213  56.488  1.00  0.00     0.000 C 
BRANCH  12  13
ATOM     13  C   UNL     1      -4.745  28.587  56.464  1.00  0.00    -0.000 C 
BRANCH  13  14
ATOM     14  C   UNL     1      -4.870  27.457  55.428  1.00  0.00    -0.000 C 
BRANCH  14  15
ATOM     15  C   UNL     1      -3.576  27.261  54.611  1.00  0.00    -0.000 C 
BRANCH  15  16
ATOM     16  C   UNL     1      -2.747  26.036  55.042  1.00  0.00    -0.000 C 
BRANCH  16  17
ATOM     17  C   UNL     1      -1.339  25.950  54.424  1.00  0.00    -0.000 C 
BRANCH  17  18
ATOM     18  C   UNL     1      -0.183  26.144  55.421  1.00  0.00    -0.003 C 
ATOM     19  C   UNL     1      -0.554  27.047  56.597  1.00  0.00     0.004 C 
ENDBRANCH  17  18
ENDBRANCH  16  17
ENDBRANCH  15  16
ENDBRANCH  14  15
ENDBRANCH  13  14
ENDBRANCH  12  13
ENDBRANCH   1  12
TORSDOF 14
ENDMDL
MODEL 4
REMARK VINA RESULT:    -5.129      3.693      7.021
REMARK INTER + INTRA:         -10.028
REMARK INTER:                  -8.611
REMARK INTRA:                  -1.417
REMARK UNBOUND:                -0.702
REMARK SMILES CCCCCCCCCCCCCC[C@H](C)C(=O)[O-]
REMARK SMILES IDX 9 1 10 2 11 3 12 4 13 5 14 6 15 7 16 8 17 9 18 10 19 11 8 12
REMARK SMILES IDX 7 13 6 14 5 15 4 16 3 17 2 18 1 19
REMARK H PARENT
REMARK Flexibility Score: inf
ROOT
ATOM      1  C   UNL     1      -0.692  25.581  54.531  1.00  0.00     0.000 C 
ENDROOT
BRANCH   1   2
ATOM      2  C   UNL     1      -1.231  26.036  53.165  1.00  0.00     0.000 C 
BRANCH   2   3
ATOM      3  C   UNL     1      -2.737  26.351  53.201  1.00  0.00     0.000 C 
BRANCH   3   4
ATOM      4  C   UNL     1      -3.337  26.220  54.611  1.00  0.00     0.000 C 
BRANCH   4   5
ATOM      5  C   UNL     1      -4.369  27.319  54.917  1.00  0.00     0.001 C 
BRANCH   5   6
ATOM      6  C   UNL     1      -4.219  27.902  56.335  1.00  0.00     0.009 C 
BRANCH   6   7
ATOM      7  C   UNL     1      -3.251  29.103  56.429  1.00  0.00     0.032 C 
ATOM      8  C   UNL     1      -1.799  28.615  56.482  1.00  0.00     0.014 C 
BRANCH   7   9
ATOM      9  C   UNL     1      -3.542  29.952  57.636  1.00  0.00     0.044 C 
ATOM     10  O   UNL     1      -4.731  30.123  58.016  1.00  0.00    -0.550 OA
ATOM     11  O   UNL     1      -2.505  30.552  58.341  1.00  0.00    -0.550 OA
ENDBRANCH   7   9
ENDBRANCH   6   7
ENDBRANCH   5   6
ENDBRANCH   4   5
ENDBRANCH   3   4
ENDBRANCH   2   3
ENDBRANCH   1   2
BRANCH   1  12
ATOM     12  C   UNL     1       0.391  24.496  54.406  1.00  0.00     0.000 C 
BRANCH  12  13
ATOM     13  C   UNL     1       1.330  24.736  53.213  1.00  0.00    -0.000 C 
BRANCH  13  14
ATOM     14  C   UNL     1       2.719  25.234  53.645  1.00  0.00    -0.000 C 
BRANCH  14  15
ATOM     15  C   UNL     1       2.882  25.269  55.180  1.00  0.00    -0.000 C 
BRANCH  15  16
ATOM     16  C   UNL     1       2.885  26.691  55.772  1.00  0.00    -0.000 C 
BRANCH  16  17
ATOM     17  C   UNL     1       2.010  26.877  57.026  1.00  0.00    -0.000 C 
BRANCH  17  18
ATOM     18  C   UNL     1       1.957  28.317  57.569  1.00  0.00    -0.003 C 
ATOM     19  C   UNL     1       3.189  29.140  57.199  1.00  0.00     0.004 C 
ENDBRANCH  17  18
ENDBRANCH  16  17
ENDBRANCH  15  16
ENDBRANCH  14  15
ENDBRANCH  13  14
ENDBRANCH  12  13
ENDBRANCH   1  12
TORSDOF 14
ENDMDL
MODEL 5
REMARK VINA RESULT:    -5.118      1.168      1.548
REMARK INTER + INTRA:         -10.009
REMARK INTER:                  -9.473
REMARK INTRA:                  -0.536
REMARK UNBOUND:                -0.702
REMARK SMILES CCCCCCCCCCCCCC[C@H](C)C(=O)[O-]
REMARK SMILES IDX 9 1 10 2 11 3 12 4 13 5 14 6 15 7 16 8 17 9 18 10 19 11 8 12
REMARK SMILES IDX 7 13 6 14 5 15 4 16 3 17 2 18 1 19
REMARK H PARENT
REMARK Flexibility Score: inf
ROOT
ATOM      1  C   UNL     1      -3.585  30.304  57.998  1.00  0.00     0.000 C 
ENDROOT
BRANCH   1   2
ATOM      2  C   UNL     1      -4.644  30.780  59.006  1.00  0.00     0.000 C 
BRANCH   2   3
ATOM      3  C   UNL     1      -4.020  31.339  60.296  1.00  0.00     0.000 C 
BRANCH   3   4
ATOM      4  C   UNL     1      -2.838  32.284  60.022  1.00  0.00     0.000 C 
BRANCH   4   5
ATOM      5  C   UNL     1      -2.486  33.157  61.240  1.00  0.00     0.001 C 
BRANCH   5   6
ATOM      6  C   UNL     1      -1.252  32.644  62.005  1.00  0.00     0.009 C 
BRANCH   6   7
ATOM      7  C   UNL     1      -1.565  32.078  63.409  1.00  0.00     0.032 C 
ATOM      8  C   UNL     1      -2.408  33.075  64.211  1.00  0.00     0.014 C 
BRANCH   7   9
ATOM      9  C   UNL     1      -0.305  31.758  64.167  1.00  0.00     0.044 C 
ATOM     10  O   UNL     1       0.448  32.687  64.562  1.00  0.00    -0.550 OA
ATOM     11  O   UNL     1       0.035  30.438  64.441  1.00  0.00    -0.550 OA
ENDBRANCH   7   9
ENDBRANCH   6   7
ENDBRANCH   5   6
ENDBRANCH   4   5
ENDBRANCH   3   4
ENDBRANCH   2   3
ENDBRANCH   1   2
BRANCH   1  12
ATOM     12  C   UNL     1      -4.181  29.418  56.891  1.00  0.00     0.000 C 
BRANCH  12  13
ATOM     13  C   UNL     1      -3.104  28.825  55.968  1.00  0.00    -0.000 C 
BRANCH  13  14
ATOM     14  C   UNL     1      -3.148  27.288  55.920  1.00  0.00    -0.000 C 
BRANCH  14  15
ATOM     15  C   UNL     1      -3.818  26.757  54.636  1.00  0.00    -0.000 C 
BRANCH  15  16
ATOM     16  C   UNL     1      -2.830  26.131  53.633  1.00  0.00    -0.000 C 
BRANCH  16  17
ATOM     17  C   UNL     1      -3.125  26.435  52.152  1.00  0.00    -0.000 C 
BRANCH  17  18
ATOM     18  C   UNL     1      -1.877  26.619  51.269  1.00  0.00    -0.003 C 
ATOM     19  C   UNL     1      -2.202  27.175  49.884  1.00  0.00     0.004 C 
ENDBRANCH  17  18
ENDBRANCH  16  17
ENDBRANCH  15  16
ENDBRANCH  14  15
ENDBRANCH  13  14
ENDBRANCH  12  13
ENDBRANCH   1  12
TORSDOF 14
ENDMDL
MODEL 6
REMARK VINA RESULT:    -4.994      2.926      5.132
REMARK INTER + INTRA:          -9.782
REMARK INTER:                  -8.448
REMARK INTRA:                  -1.334
REMARK UNBOUND:                -0.702
REMARK SMILES CCCCCCCCCCCCCC[C@H](C)C(=O)[O-]
REMARK SMILES IDX 9 1 10 2 11 3 12 4 13 5 14 6 15 7 16 8 17 9 18 10 19 11 8 12
REMARK SMILES IDX 7 13 6 14 5 15 4 16 3 17 2 18 1 19
REMARK H PARENT
REMARK Flexibility Score: inf
ROOT
ATOM      1  C   UNL     1      -0.207  27.364  56.848  1.00  0.00     0.000 C 
ENDROOT
BRANCH   1   2
ATOM      2  C   UNL     1       1.226  27.138  57.356  1.00  0.00     0.000 C 
BRANCH   2   3
ATOM      3  C   UNL     1       1.976  28.457  57.609  1.00  0.00     0.000 C 
BRANCH   3   4
ATOM      4  C   UNL     1       1.031  29.664  57.724  1.00  0.00     0.000 C 
BRANCH   4   5
ATOM      5  C   UNL     1       1.706  30.881  58.381  1.00  0.00     0.001 C 
BRANCH   5   6
ATOM      6  C   UNL     1       2.252  30.574  59.788  1.00  0.00     0.009 C 
BRANCH   6   7
ATOM      7  C   UNL     1       1.159  30.357  60.860  1.00  0.00     0.032 C 
ATOM      8  C   UNL     1       0.830  31.680  61.561  1.00  0.00     0.014 C 
BRANCH   7   9
ATOM      9  C   UNL     1       1.583  29.337  61.881  1.00  0.00     0.044 C 
ATOM     10  O   UNL     1       1.149  29.405  63.061  1.00  0.00    -0.550 OA
ATOM     11  O   UNL     1       2.453  28.311  61.530  1.00  0.00    -0.550 OA
ENDBRANCH   7   9
ENDBRANCH   6   7
ENDBRANCH   5   6
ENDBRANCH   4   5
ENDBRANCH   3   4
ENDBRANCH   2   3
ENDBRANCH   1   2
BRANCH   1  12
ATOM     12  C   UNL     1      -0.613  26.357  55.757  1.00  0.00     0.000 C 
BRANCH  12  13
ATOM     13  C   UNL     1      -1.705  26.906  54.826  1.00  0.00    -0.000 C 
BRANCH  13  14
ATOM     14  C   UNL     1      -3.041  26.160  54.978  1.00  0.00    -0.000 C 
BRANCH  14  15
ATOM     15  C   UNL     1      -4.232  27.121  55.182  1.00  0.00    -0.000 C 
BRANCH  15  16
ATOM     16  C   UNL     1      -3.842  28.469  55.817  1.00  0.00    -0.000 C 
BRANCH  16  17
ATOM     17  C   UNL     1      -4.808  28.982  56.901  1.00  0.00    -0.000 C 
BRANCH  17  18
ATOM     18  C   UNL     1      -4.203  30.016  57.869  1.00  0.00    -0.003 C 
ATOM     19  C   UNL     1      -2.677  30.071  57.805  1.00  0.00     0.004 C 
ENDBRANCH  17  18
ENDBRANCH  16  17
ENDBRANCH  15  16
ENDBRANCH  14  15
ENDBRANCH  13  14
ENDBRANCH  12  13
ENDBRANCH   1  12
TORSDOF 14
ENDMDL
MODEL 7
REMARK VINA RESULT:    -4.974      4.031      7.288
REMARK INTER + INTRA:          -9.746
REMARK INTER:                  -8.930
REMARK INTRA:                  -0.816
REMARK UNBOUND:                -0.702
REMARK SMILES CCCCCCCCCCCCCC[C@H](C)C(=O)[O-]
REMARK SMILES IDX 9 1 10 2 11 3 12 4 13 5 14 6 15 7 16 8 17 9 18 10 19 11 8 12
REMARK SMILES IDX 7 13 6 14 5 15 4 16 3 17 2 18 1 19
REMARK H PARENT
REMARK Flexibility Score: inf
ROOT
ATOM      1  C   UNL     1      -0.329  27.111  56.694  1.00  0.00     0.000 C 
ENDROOT
BRANCH   1   2
ATOM      2  C   UNL     1      -0.731  26.228  55.502  1.00  0.00     0.000 C 
BRANCH   2   3
ATOM      3  C   UNL     1      -2.171  26.497  55.029  1.00  0.00     0.000 C 
BRANCH   3   4
ATOM      4  C   UNL     1      -3.071  27.041  56.150  1.00  0.00     0.000 C 
BRANCH   4   5
ATOM      5  C   UNL     1      -3.742  28.374  55.773  1.00  0.00     0.001 C 
BRANCH   5   6
ATOM      6  C   UNL     1      -4.602  28.952  56.912  1.00  0.00     0.009 C 
BRANCH   6   7
ATOM      7  C   UNL     1      -3.984  30.183  57.613  1.00  0.00     0.032 C 
ATOM      8  C   UNL     1      -2.468  30.013  57.752  1.00  0.00     0.014 C 
BRANCH   7   9
ATOM      9  C   UNL     1      -4.593  30.407  58.971  1.00  0.00     0.044 C 
ATOM     10  O   UNL     1      -4.105  31.270  59.748  1.00  0.00    -0.550 OA
ATOM     11  O   UNL     1      -5.697  29.668  59.377  1.00  0.00    -0.550 OA
ENDBRANCH   7   9
ENDBRANCH   6   7
ENDBRANCH   5   6
ENDBRANCH   4   5
ENDBRANCH   3   4
ENDBRANCH   2   3
ENDBRANCH   1   2
BRANCH   1  12
ATOM     12  C   UNL     1       1.189  27.106  56.947  1.00  0.00     0.000 C 
BRANCH  12  13
ATOM     13  C   UNL     1       1.609  28.113  58.029  1.00  0.00    -0.000 C 
BRANCH  13  14
ATOM     14  C   UNL     1       2.773  29.012  57.580  1.00  0.00    -0.000 C 
BRANCH  14  15
ATOM     15  C   UNL     1       2.591  30.478  58.026  1.00  0.00    -0.000 C 
BRANCH  15  16
ATOM     16  C   UNL     1       2.926  31.507  56.929  1.00  0.00    -0.000 C 
BRANCH  16  17
ATOM     17  C   UNL     1       3.734  32.729  57.407  1.00  0.00    -0.000 C 
BRANCH  17  18
ATOM     18  C   UNL     1       2.884  33.950  57.805  1.00  0.00    -0.003 C 
ATOM     19  C   UNL     1       2.544  33.980  59.294  1.00  0.00     0.004 C 
ENDBRANCH  17  18
ENDBRANCH  16  17
ENDBRANCH  15  16
ENDBRANCH  14  15
ENDBRANCH  13  14
ENDBRANCH  12  13
ENDBRANCH   1  12
TORSDOF 14
ENDMDL
MODEL 8
REMARK VINA RESULT:    -4.911      3.898      5.220
REMARK INTER + INTRA:          -9.633
REMARK INTER:                  -8.127
REMARK INTRA:                  -1.506
REMARK UNBOUND:                -0.702
REMARK SMILES CCCCCCCCCCCCCC[C@H](C)C(=O)[O-]
REMARK SMILES IDX 9 1 10 2 11 3 12 4 13 5 14 6 15 7 16 8 17 9 18 10 19 11 8 12
REMARK SMILES IDX 7 13 6 14 5 15 4 16 3 17 2 18 1 19
REMARK H PARENT
REMARK Flexibility Score: inf
ROOT
ATOM      1  C   UNL     1      -3.529  26.708  55.543  1.00  0.00     0.000 C 
ENDROOT
BRANCH   1   2
ATOM      2  C   UNL     1      -4.421  27.889  55.957  1.00  0.00     0.000 C 
BRANCH   2   3
ATOM      3  C   UNL     1      -3.638  29.210  56.061  1.00  0.00     0.000 C 
BRANCH   3   4
ATOM      4  C   UNL     1      -2.675  29.235  57.259  1.00  0.00     0.000 C 
BRANCH   4   5
ATOM      5  C   UNL     1      -1.200  29.327  56.827  1.00  0.00     0.001 C 
BRANCH   5   6
ATOM      6  C   UNL     1      -0.342  28.177  57.387  1.00  0.00     0.009 C 
BRANCH   6   7
ATOM      7  C   UNL     1       1.179  28.455  57.375  1.00  0.00     0.032 C 
ATOM      8  C   UNL     1       1.925  27.376  58.167  1.00  0.00     0.014 C 
BRANCH   7   9
ATOM      9  C   UNL     1       1.496  29.810  57.947  1.00  0.00     0.044 C 
ATOM     10  O   UNL     1       1.992  30.705  57.213  1.00  0.00    -0.550 OA
ATOM     11  O   UNL     1       1.241  30.086  59.285  1.00  0.00    -0.550 OA
ENDBRANCH   7   9
ENDBRANCH   6   7
ENDBRANCH   5   6
ENDBRANCH   4   5
ENDBRANCH   3   4
ENDBRANCH   2   3
ENDBRANCH   1   2
BRANCH   1  12
ATOM     12  C   UNL     1      -3.293  26.651  54.023  1.00  0.00     0.000 C 
BRANCH  12  13
ATOM     13  C   UNL     1      -1.869  26.197  53.665  1.00  0.00    -0.000 C 
BRANCH  13  14
ATOM     14  C   UNL     1      -1.046  25.801  54.903  1.00  0.00    -0.000 C 
BRANCH  14  15
ATOM     15  C   UNL     1       0.461  25.676  54.593  1.00  0.00    -0.000 C 
BRANCH  15  16
ATOM     16  C   UNL     1       0.824  24.424  53.770  1.00  0.00    -0.000 C 
BRANCH  16  17
ATOM     17  C   UNL     1       1.264  24.703  52.321  1.00  0.00    -0.000 C 
BRANCH  17  18
ATOM     18  C   UNL     1       2.783  24.621  52.080  1.00  0.00    -0.003 C 
ATOM     19  C   UNL     1       3.601  24.832  53.352  1.00  0.00     0.004 C 
ENDBRANCH  17  18
ENDBRANCH  16  17
ENDBRANCH  15  16
ENDBRANCH  14  15
ENDBRANCH  13  14
ENDBRANCH  12  13
ENDBRANCH   1  12
TORSDOF 14
ENDMDL
MODEL 9
REMARK VINA RESULT:    -4.824      5.443      9.064
REMARK INTER + INTRA:          -9.473
REMARK INTER:                  -7.887
REMARK INTRA:                  -1.586
REMARK UNBOUND:                -0.702
REMARK SMILES CCCCCCCCCCCCCC[C@H](C)C(=O)[O-]
REMARK SMILES IDX 9 1 10 2 11 3 12 4 13 5 14 6 15 7 16 8 17 9 18 10 19 11 8 12
REMARK SMILES IDX 7 13 6 14 5 15 4 16 3 17 2 18 1 19
REMARK H PARENT
REMARK Flexibility Score: inf
ROOT
ATOM      1  C   UNL     1      -0.367  27.914  56.975  1.00  0.00     0.000 C 
ENDROOT
BRANCH   1   2
ATOM      2  C   UNL     1       1.059  27.981  57.545  1.00  0.00     0.000 C 
BRANCH   2   3
ATOM      3  C   UNL     1       1.971  26.878  56.978  1.00  0.00     0.000 C 
BRANCH   3   4
ATOM      4  C   UNL     1       3.154  27.442  56.174  1.00  0.00     0.000 C 
BRANCH   4   5
ATOM      5  C   UNL     1       3.769  26.401  55.221  1.00  0.00     0.001 C 
BRANCH   5   6
ATOM      6  C   UNL     1       2.873  25.163  55.032  1.00  0.00     0.009 C 
BRANCH   6   7
ATOM      7  C   UNL     1       2.091  25.142  53.699  1.00  0.00     0.032 C 
ATOM      8  C   UNL     1       0.829  24.282  53.833  1.00  0.00     0.014 C 
BRANCH   7   9
ATOM      9  C   UNL     1       2.939  24.620  52.571  1.00  0.00     0.044 C 
ATOM     10  O   UNL     1       2.623  24.865  51.377  1.00  0.00    -0.550 OA
ATOM     11  O   UNL     1       4.077  23.867  52.837  1.00  0.00    -0.550 OA
ENDBRANCH   7   9
ENDBRANCH   6   7
ENDBRANCH   5   6
ENDBRANCH   4   5
ENDBRANCH   3   4
ENDBRANCH   2   3
ENDBRANCH   1   2
BRANCH   1  12
ATOM     12  C   UNL     1      -0.650  26.589  56.246  1.00  0.00     0.000 C 
BRANCH  12  13
ATOM     13  C   UNL     1      -1.605  26.764  55.055  1.00  0.00    -0.000 C 
BRANCH  13  14
ATOM     14  C   UNL     1      -3.017  26.229  55.346  1.00  0.00    -0.000 C 
BRANCH  14  15
ATOM     15  C   UNL     1      -4.106  27.307  55.158  1.00  0.00    -0.000 C 
BRANCH  15  16
ATOM     16  C   UNL     1      -3.795  28.635  55.875  1.00  0.00    -0.000 C 
BRANCH  16  17
ATOM     17  C   UNL     1      -4.761  28.999  57.019  1.00  0.00    -0.000 C 
BRANCH  17  18
ATOM     18  C   UNL     1      -4.347  30.230  57.847  1.00  0.00    -0.003 C 
ATOM     19  C   UNL     1      -2.846  30.285  58.123  1.00  0.00     0.004 C 
ENDBRANCH  17  18
ENDBRANCH  16  17
ENDBRANCH  15  16
ENDBRANCH  14  15
ENDBRANCH  13  14
ENDBRANCH  12  13
ENDBRANCH   1  12
TORSDOF 14
ENDMDL
