MODEL 1
REMARK VINA RESULT:    -5.626      0.000      0.000
REMARK INTER + INTRA:         -10.927
REMARK INTER:                  -9.901
REMARK INTRA:                  -1.026
REMARK UNBOUND:                -1.026
REMARK SMILES CCCCCCCCCCCCCCC(=O)[O-]
REMARK SMILES IDX 9 1 10 2 11 3 12 4 13 5 14 6 15 7 16 8 17 9 8 10 7 11 6 12
REMARK SMILES IDX 5 13 4 14 3 15 2 16 1 17
REMARK H PARENT
REMARK Flexibility Score: inf
ROOT
ATOM      1  C   UNL     1     -10.465 -15.187  26.234  1.00  0.00     0.000 C 
ENDROOT
BRANCH   1   2
ATOM      2  C   UNL     1     -10.737 -15.846  27.597  1.00  0.00     0.000 C 
BRANCH   2   3
ATOM      3  C   UNL     1     -12.177 -16.392  27.704  1.00  0.00     0.000 C 
BRANCH   3   4
ATOM      4  C   UNL     1     -12.738 -16.371  29.136  1.00  0.00     0.000 C 
BRANCH   4   5
ATOM      5  C   UNL     1     -12.740 -17.759  29.798  1.00  0.00     0.006 C 
BRANCH   5   6
ATOM      6  C   UNL     1     -11.736 -17.851  30.954  1.00  0.00     0.053 C 
BRANCH   6   7
ATOM      7  C   UNL     1     -10.404 -18.364  30.495  1.00  0.00     0.041 C 
ATOM      8  O   UNL     1      -9.360 -18.071  31.133  1.00  0.00    -0.550 OA
ATOM      9  O   UNL     1     -10.315 -19.134  29.342  1.00  0.00    -0.550 OA
ENDBRANCH   6   7
ENDBRANCH   5   6
ENDBRANCH   4   5
ENDBRANCH   3   4
ENDBRANCH   2   3
ENDBRANCH   1   2
BRANCH   1  10
ATOM     10  C   UNL     1      -9.136 -14.402  26.208  1.00  0.00     0.000 C 
BRANCH  10  11
ATOM     11  C   UNL     1      -7.914 -15.234  26.641  1.00  0.00    -0.000 C 
BRANCH  11  12
ATOM     12  C   UNL     1      -6.640 -14.420  26.935  1.00  0.00    -0.000 C 
BRANCH  12  13
ATOM     13  C   UNL     1      -6.163 -14.460  28.399  1.00  0.00    -0.000 C 
BRANCH  13  14
ATOM     14  C   UNL     1      -7.166 -13.825  29.373  1.00  0.00    -0.000 C 
BRANCH  14  15
ATOM     15  C   UNL     1      -7.414 -14.742  30.580  1.00  0.00    -0.000 C 
BRANCH  15  16
ATOM     16  C   UNL     1      -6.649 -14.288  31.833  1.00  0.00    -0.003 C 
ATOM     17  C   UNL     1      -6.619 -12.769  31.990  1.00  0.00     0.004 C 
ENDBRANCH  15  16
ENDBRANCH  14  15
ENDBRANCH  13  14
ENDBRANCH  12  13
ENDBRANCH  11  12
ENDBRANCH  10  11
ENDBRANCH   1  10
TORSDOF 13
ENDMDL
MODEL 2
REMARK VINA RESULT:    -5.555      2.190      5.704
REMARK INTER + INTRA:         -10.803
REMARK INTER:                  -9.445
REMARK INTRA:                  -1.359
REMARK UNBOUND:                -1.026
REMARK SMILES CCCCCCCCCCCCCCC(=O)[O-]
REMARK SMILES IDX 9 1 10 2 11 3 12 4 13 5 14 6 15 7 16 8 17 9 8 10 7 11 6 12
REMARK SMILES IDX 5 13 4 14 3 15 2 16 1 17
REMARK H PARENT
REMARK Flexibility Score: inf
ROOT
ATOM      1  C   UNL     1     -10.261 -15.088  26.239  1.00  0.00     0.000 C 
ENDROOT
BRANCH   1   2
ATOM      2  C   UNL     1      -8.909 -14.362  26.346  1.00  0.00     0.000 C 
BRANCH   2   3
ATOM      3  C   UNL     1      -7.936 -15.080  27.306  1.00  0.00     0.000 C 
BRANCH   3   4
ATOM      4  C   UNL     1      -6.914 -14.138  27.964  1.00  0.00     0.000 C 
BRANCH   4   5
ATOM      5  C   UNL     1      -6.543 -14.564  29.394  1.00  0.00     0.006 C 
BRANCH   5   6
ATOM      6  C   UNL     1      -7.510 -13.991  30.438  1.00  0.00     0.053 C 
BRANCH   6   7
ATOM      7  C   UNL     1      -6.783 -13.462  31.638  1.00  0.00     0.041 C 
ATOM      8  O   UNL     1      -6.422 -14.245  32.555  1.00  0.00    -0.550 OA
ATOM      9  O   UNL     1      -6.540 -12.100  31.759  1.00  0.00    -0.550 OA
ENDBRANCH   6   7
ENDBRANCH   5   6
ENDBRANCH   4   5
ENDBRANCH   3   4
ENDBRANCH   2   3
ENDBRANCH   1   2
BRANCH   1  10
ATOM     10  C   UNL     1     -10.543 -16.001  27.452  1.00  0.00     0.000 C 
BRANCH  10  11
ATOM     11  C   UNL     1     -12.014 -16.443  27.569  1.00  0.00    -0.000 C 
BRANCH  11  12
ATOM     12  C   UNL     1     -12.725 -16.011  28.865  1.00  0.00    -0.000 C 
BRANCH  12  13
ATOM     13  C   UNL     1     -13.399 -17.151  29.651  1.00  0.00    -0.000 C 
BRANCH  13  14
ATOM     14  C   UNL     1     -12.572 -18.445  29.658  1.00  0.00    -0.000 C 
BRANCH  14  15
ATOM     15  C   UNL     1     -11.639 -18.493  30.876  1.00  0.00    -0.000 C 
BRANCH  15  16
ATOM     16  C   UNL     1     -10.159 -18.335  30.492  1.00  0.00    -0.003 C 
ATOM     17  C   UNL     1      -9.614 -16.941  30.801  1.00  0.00     0.004 C 
ENDBRANCH  15  16
ENDBRANCH  14  15
ENDBRANCH  13  14
ENDBRANCH  12  13
ENDBRANCH  11  12
ENDBRANCH  10  11
ENDBRANCH   1  10
TORSDOF 13
ENDMDL
MODEL 3
REMARK VINA RESULT:    -5.548      2.465      5.618
REMARK INTER + INTRA:         -10.790
REMARK INTER:                  -9.585
REMARK INTRA:                  -1.205
REMARK UNBOUND:                -1.026
REMARK SMILES CCCCCCCCCCCCCCC(=O)[O-]
REMARK SMILES IDX 9 1 10 2 11 3 12 4 13 5 14 6 15 7 16 8 17 9 8 10 7 11 6 12
REMARK SMILES IDX 5 13 4 14 3 15 2 16 1 17
REMARK H PARENT
REMARK Flexibility Score: inf
ROOT
ATOM      1  C   UNL     1      -8.136 -15.240  26.616  1.00  0.00     0.000 C 
ENDROOT
BRANCH   1   2
ATOM      2  C   UNL     1      -6.888 -14.383  26.893  1.00  0.00     0.000 C 
BRANCH   2   3
ATOM      3  C   UNL     1      -6.476 -14.418  28.380  1.00  0.00     0.000 C 
BRANCH   3   4
ATOM      4  C   UNL     1      -7.627 -14.792  29.329  1.00  0.00     0.000 C 
BRANCH   4   5
ATOM      5  C   UNL     1      -7.151 -15.079  30.763  1.00  0.00     0.006 C 
BRANCH   5   6
ATOM      6  C   UNL     1      -6.792 -13.795  31.522  1.00  0.00     0.053 C 
BRANCH   6   7
ATOM      7  C   UNL     1      -5.340 -13.754  31.890  1.00  0.00     0.041 C 
ATOM      8  O   UNL     1      -4.498 -14.403  31.216  1.00  0.00    -0.550 OA
ATOM      9  O   UNL     1      -4.923 -13.030  32.999  1.00  0.00    -0.550 OA
ENDBRANCH   6   7
ENDBRANCH   5   6
ENDBRANCH   4   5
ENDBRANCH   3   4
ENDBRANCH   2   3
ENDBRANCH   1   2
BRANCH   1  10
ATOM     10  C   UNL     1      -9.303 -14.417  26.030  1.00  0.00     0.000 C 
BRANCH  10  11
ATOM     11  C   UNL     1     -10.680 -15.089  26.192  1.00  0.00    -0.000 C 
BRANCH  11  12
ATOM     12  C   UNL     1     -10.846 -15.940  27.465  1.00  0.00    -0.000 C 
BRANCH  12  13
ATOM     13  C   UNL     1     -12.290 -16.381  27.772  1.00  0.00    -0.000 C 
BRANCH  13  14
ATOM     14  C   UNL     1     -12.644 -16.276  29.262  1.00  0.00    -0.000 C 
BRANCH  14  15
ATOM     15  C   UNL     1     -11.382 -16.345  30.133  1.00  0.00    -0.000 C 
BRANCH  15  16
ATOM     16  C   UNL     1     -11.272 -17.666  30.910  1.00  0.00    -0.003 C 
ATOM     17  C   UNL     1      -9.922 -18.355  30.718  1.00  0.00     0.004 C 
ENDBRANCH  15  16
ENDBRANCH  14  15
ENDBRANCH  13  14
ENDBRANCH  12  13
ENDBRANCH  11  12
ENDBRANCH  10  11
ENDBRANCH   1  10
TORSDOF 13
ENDMDL
MODEL 4
REMARK VINA RESULT:    -5.472      2.579      5.776
REMARK INTER + INTRA:         -10.657
REMARK INTER:                  -9.492
REMARK INTRA:                  -1.164
REMARK UNBOUND:                -1.026
REMARK SMILES CCCCCCCCCCCCCCC(=O)[O-]
REMARK SMILES IDX 9 1 10 2 11 3 12 4 13 5 14 6 15 7 16 8 17 9 8 10 7 11 6 12
REMARK SMILES IDX 5 13 4 14 3 15 2 16 1 17
REMARK H PARENT
REMARK Flexibility Score: inf
ROOT
ATOM      1  C   UNL     1     -11.345 -17.841  30.525  1.00  0.00     0.000 C 
ENDROOT
BRANCH   1   2
ATOM      2  C   UNL     1      -9.863 -17.828  30.937  1.00  0.00     0.000 C 
BRANCH   2   3
ATOM      3  C   UNL     1      -9.149 -16.527  30.507  1.00  0.00     0.000 C 
BRANCH   3   4
ATOM      4  C   UNL     1      -8.024 -16.098  31.463  1.00  0.00     0.000 C 
BRANCH   4   5
ATOM      5  C   UNL     1      -7.039 -15.108  30.820  1.00  0.00     0.006 C 
BRANCH   5   6
ATOM      6  C   UNL     1      -6.637 -13.983  31.781  1.00  0.00     0.053 C 
BRANCH   6   7
ATOM      7  C   UNL     1      -5.149 -13.852  31.894  1.00  0.00     0.041 C 
ATOM      8  O   UNL     1      -4.403 -14.300  30.984  1.00  0.00    -0.550 OA
ATOM      9  O   UNL     1      -4.585 -13.269  33.022  1.00  0.00    -0.550 OA
ENDBRANCH   6   7
ENDBRANCH   5   6
ENDBRANCH   4   5
ENDBRANCH   3   4
ENDBRANCH   2   3
ENDBRANCH   1   2
BRANCH   1  10
ATOM     10  C   UNL     1     -11.880 -16.432  30.186  1.00  0.00     0.000 C 
BRANCH  10  11
ATOM     11  C   UNL     1     -12.916 -16.418  29.046  1.00  0.00    -0.000 C 
BRANCH  11  12
ATOM     12  C   UNL     1     -12.331 -16.572  27.630  1.00  0.00    -0.000 C 
BRANCH  12  13
ATOM     13  C   UNL     1     -10.920 -15.985  27.439  1.00  0.00    -0.000 C 
BRANCH  13  14
ATOM     14  C   UNL     1     -10.808 -15.084  26.200  1.00  0.00    -0.000 C 
BRANCH  14  15
ATOM     15  C   UNL     1      -9.339 -14.785  25.869  1.00  0.00    -0.000 C 
BRANCH  15  16
ATOM     16  C   UNL     1      -8.387 -15.168  27.013  1.00  0.00    -0.003 C 
ATOM     17  C   UNL     1      -7.093 -14.356  27.003  1.00  0.00     0.004 C 
ENDBRANCH  15  16
ENDBRANCH  14  15
ENDBRANCH  13  14
ENDBRANCH  12  13
ENDBRANCH  11  12
ENDBRANCH  10  11
ENDBRANCH   1  10
TORSDOF 13
ENDMDL
MODEL 5
REMARK VINA RESULT:    -5.467      1.340      1.894
REMARK INTER + INTRA:         -10.647
REMARK INTER:                  -9.537
REMARK INTRA:                  -1.110
REMARK UNBOUND:                -1.026
REMARK SMILES CCCCCCCCCCCCCCC(=O)[O-]
REMARK SMILES IDX 9 1 10 2 11 3 12 4 13 5 14 6 15 7 16 8 17 9 8 10 7 11 6 12
REMARK SMILES IDX 5 13 4 14 3 15 2 16 1 17
REMARK H PARENT
REMARK Flexibility Score: inf
ROOT
ATOM      1  C   UNL     1      -9.327 -14.906  25.991  1.00  0.00     0.000 C 
ENDROOT
BRANCH   1   2
ATOM      2  C   UNL     1     -10.746 -15.292  26.447  1.00  0.00     0.000 C 
BRANCH   2   3
ATOM      3  C   UNL     1     -10.731 -16.159  27.724  1.00  0.00     0.000 C 
BRANCH   3   4
ATOM      4  C   UNL     1     -11.990 -17.026  27.893  1.00  0.00     0.000 C 
BRANCH   4   5
ATOM      5  C   UNL     1     -12.976 -16.454  28.924  1.00  0.00     0.006 C 
BRANCH   5   6
ATOM      6  C   UNL     1     -13.412 -17.504  29.954  1.00  0.00     0.053 C 
BRANCH   6   7
ATOM      7  C   UNL     1     -12.432 -17.618  31.082  1.00  0.00     0.041 C 
ATOM      8  O   UNL     1     -11.712 -16.634  31.396  1.00  0.00    -0.550 OA
ATOM      9  O   UNL     1     -12.288 -18.821  31.761  1.00  0.00    -0.550 OA
ENDBRANCH   6   7
ENDBRANCH   5   6
ENDBRANCH   4   5
ENDBRANCH   3   4
ENDBRANCH   2   3
ENDBRANCH   1   2
BRANCH   1  10
ATOM     10  C   UNL     1      -8.271 -15.113  27.098  1.00  0.00     0.000 C 
BRANCH  10  11
ATOM     11  C   UNL     1      -7.056 -14.172  26.982  1.00  0.00    -0.000 C 
BRANCH  11  12
ATOM     12  C   UNL     1      -5.769 -14.680  27.657  1.00  0.00    -0.000 C 
BRANCH  12  13
ATOM     13  C   UNL     1      -5.568 -14.217  29.112  1.00  0.00    -0.000 C 
BRANCH  13  14
ATOM     14  C   UNL     1      -6.708 -13.322  29.619  1.00  0.00    -0.000 C 
BRANCH  14  15
ATOM     15  C   UNL     1      -7.103 -13.696  31.055  1.00  0.00    -0.000 C 
BRANCH  15  16
ATOM     16  C   UNL     1      -7.208 -15.215  31.260  1.00  0.00    -0.003 C 
ATOM     17  C   UNL     1      -8.465 -15.812  30.629  1.00  0.00     0.004 C 
ENDBRANCH  15  16
ENDBRANCH  14  15
ENDBRANCH  13  14
ENDBRANCH  12  13
ENDBRANCH  11  12
ENDBRANCH  10  11
ENDBRANCH   1  10
TORSDOF 13
ENDMDL
MODEL 6
REMARK VINA RESULT:    -5.366      1.153      2.624
REMARK INTER + INTRA:         -10.470
REMARK INTER:                  -9.515
REMARK INTRA:                  -0.956
REMARK UNBOUND:                -1.026
REMARK SMILES CCCCCCCCCCCCCCC(=O)[O-]
REMARK SMILES IDX 9 1 10 2 11 3 12 4 13 5 14 6 15 7 16 8 17 9 8 10 7 11 6 12
REMARK SMILES IDX 5 13 4 14 3 15 2 16 1 17
REMARK H PARENT
REMARK Flexibility Score: inf
ROOT
ATOM      1  C   UNL     1      -8.170 -15.198  26.972  1.00  0.00     0.000 C 
ENDROOT
BRANCH   1   2
ATOM      2  C   UNL     1      -9.253 -14.373  26.254  1.00  0.00     0.000 C 
BRANCH   2   3
ATOM      3  C   UNL     1     -10.617 -15.095  26.232  1.00  0.00     0.000 C 
BRANCH   3   4
ATOM      4  C   UNL     1     -10.802 -16.096  27.385  1.00  0.00     0.000 C 
BRANCH   4   5
ATOM      5  C   UNL     1     -12.279 -16.350  27.726  1.00  0.00     0.006 C 
BRANCH   5   6
ATOM      6  C   UNL     1     -12.508 -16.500  29.235  1.00  0.00     0.053 C 
BRANCH   6   7
ATOM      7  C   UNL     1     -12.316 -17.916  29.688  1.00  0.00     0.041 C 
ATOM      8  O   UNL     1     -13.314 -18.638  29.946  1.00  0.00    -0.550 OA
ATOM      9  O   UNL     1     -11.035 -18.424  29.861  1.00  0.00    -0.550 OA
ENDBRANCH   6   7
ENDBRANCH   5   6
ENDBRANCH   4   5
ENDBRANCH   3   4
ENDBRANCH   2   3
ENDBRANCH   1   2
BRANCH   1  10
ATOM     10  C   UNL     1      -6.864 -14.403  27.188  1.00  0.00     0.000 C 
BRANCH  10  11
ATOM     11  C   UNL     1      -6.438 -14.299  28.666  1.00  0.00    -0.000 C 
BRANCH  11  12
ATOM     12  C   UNL     1      -7.497 -14.757  29.685  1.00  0.00    -0.000 C 
BRANCH  12  13
ATOM     13  C   UNL     1      -6.972 -14.984  31.115  1.00  0.00    -0.000 C 
BRANCH  13  14
ATOM     14  C   UNL     1      -5.594 -14.349  31.355  1.00  0.00    -0.000 C 
BRANCH  14  15
ATOM     15  C   UNL     1      -5.641 -13.364  32.532  1.00  0.00    -0.000 C 
BRANCH  15  16
ATOM     16  C   UNL     1      -5.077 -11.982  32.168  1.00  0.00    -0.003 C 
ATOM     17  C   UNL     1      -5.993 -11.198  31.229  1.00  0.00     0.004 C 
ENDBRANCH  15  16
ENDBRANCH  14  15
ENDBRANCH  13  14
ENDBRANCH  12  13
ENDBRANCH  11  12
ENDBRANCH  10  11
ENDBRANCH   1  10
TORSDOF 13
ENDMDL
MODEL 7
REMARK VINA RESULT:    -5.335      2.420      6.295
REMARK INTER + INTRA:         -10.416
REMARK INTER:                  -9.215
REMARK INTRA:                  -1.201
REMARK UNBOUND:                -1.026
REMARK SMILES CCCCCCCCCCCCCCC(=O)[O-]
REMARK SMILES IDX 9 1 10 2 11 3 12 4 13 5 14 6 15 7 16 8 17 9 8 10 7 11 6 12
REMARK SMILES IDX 5 13 4 14 3 15 2 16 1 17
REMARK H PARENT
REMARK Flexibility Score: inf
ROOT
ATOM      1  C   UNL     1      -7.557 -14.679  30.534  1.00  0.00     0.000 C 
ENDROOT
BRANCH   1   2
ATOM      2  C   UNL     1      -6.062 -14.543  30.196  1.00  0.00     0.000 C 
BRANCH   2   3
ATOM      3  C   UNL     1      -5.826 -13.687  28.933  1.00  0.00     0.000 C 
BRANCH   3   4
ATOM      4  C   UNL     1      -5.838 -14.500  27.628  1.00  0.00     0.000 C 
BRANCH   4   5
ATOM      5  C   UNL     1      -7.004 -14.125  26.699  1.00  0.00     0.006 C 
BRANCH   5   6
ATOM      6  C   UNL     1      -8.172 -15.113  26.807  1.00  0.00     0.053 C 
BRANCH   6   7
ATOM      7  C   UNL     1      -9.430 -14.555  26.214  1.00  0.00     0.041 C 
ATOM      8  O   UNL     1     -10.505 -15.206  26.282  1.00  0.00    -0.550 OA
ATOM      9  O   UNL     1      -9.405 -13.333  25.554  1.00  0.00    -0.550 OA
ENDBRANCH   6   7
ENDBRANCH   5   6
ENDBRANCH   4   5
ENDBRANCH   3   4
ENDBRANCH   2   3
ENDBRANCH   1   2
BRANCH   1  10
ATOM     10  C   UNL     1      -7.852 -15.890  31.446  1.00  0.00     0.000 C 
BRANCH  10  11
ATOM     11  C   UNL     1      -9.102 -16.690  31.033  1.00  0.00    -0.000 C 
BRANCH  11  12
ATOM     12  C   UNL     1      -9.668 -16.345  29.643  1.00  0.00    -0.000 C 
BRANCH  12  13
ATOM     13  C   UNL     1     -10.935 -17.125  29.242  1.00  0.00    -0.000 C 
BRANCH  13  14
ATOM     14  C   UNL     1     -12.225 -16.313  29.436  1.00  0.00    -0.000 C 
BRANCH  14  15
ATOM     15  C   UNL     1     -13.415 -17.238  29.730  1.00  0.00    -0.000 C 
BRANCH  15  16
ATOM     16  C   UNL     1     -13.088 -18.303  30.788  1.00  0.00    -0.003 C 
ATOM     17  C   UNL     1     -13.079 -17.741  32.209  1.00  0.00     0.004 C 
ENDBRANCH  15  16
ENDBRANCH  14  15
ENDBRANCH  13  14
ENDBRANCH  12  13
ENDBRANCH  11  12
ENDBRANCH  10  11
ENDBRANCH   1  10
TORSDOF 13
ENDMDL
MODEL 8
REMARK VINA RESULT:    -5.296      2.736      4.272
REMARK INTER + INTRA:         -10.347
REMARK INTER:                  -9.673
REMARK INTRA:                  -0.673
REMARK UNBOUND:                -1.026
REMARK SMILES CCCCCCCCCCCCCCC(=O)[O-]
REMARK SMILES IDX 9 1 10 2 11 3 12 4 13 5 14 6 15 7 16 8 17 9 8 10 7 11 6 12
REMARK SMILES IDX 5 13 4 14 3 15 2 16 1 17
REMARK H PARENT
REMARK Flexibility Score: inf
ROOT
ATOM      1  C   UNL     1     -11.492 -18.582  28.743  1.00  0.00     0.000 C 
ENDROOT
BRANCH   1   2
ATOM      2  C   UNL     1     -10.625 -18.657  30.012  1.00  0.00     0.000 C 
BRANCH   2   3
ATOM      3  C   UNL     1     -11.379 -18.157  31.263  1.00  0.00     0.000 C 
BRANCH   3   4
ATOM      4  C   UNL     1     -12.807 -18.716  31.384  1.00  0.00     0.000 C 
BRANCH   4   5
ATOM      5  C   UNL     1     -13.187 -19.076  32.830  1.00  0.00     0.006 C 
BRANCH   5   6
ATOM      6  C   UNL     1     -13.642 -20.535  32.963  1.00  0.00     0.053 C 
BRANCH   6   7
ATOM      7  C   UNL     1     -12.919 -21.244  34.068  1.00  0.00     0.041 C 
ATOM      8  O   UNL     1     -11.747 -20.904  34.378  1.00  0.00    -0.550 OA
ATOM      9  O   UNL     1     -13.525 -22.304  34.728  1.00  0.00    -0.550 OA
ENDBRANCH   6   7
ENDBRANCH   5   6
ENDBRANCH   4   5
ENDBRANCH   3   4
ENDBRANCH   2   3
ENDBRANCH   1   2
BRANCH   1  10
ATOM     10  C   UNL     1     -11.932 -17.141  28.408  1.00  0.00     0.000 C 
BRANCH  10  11
ATOM     11  C   UNL     1     -10.770 -16.213  28.006  1.00  0.00    -0.000 C 
BRANCH  11  12
ATOM     12  C   UNL     1     -10.912 -15.548  26.625  1.00  0.00    -0.000 C 
BRANCH  12  13
ATOM     13  C   UNL     1      -9.697 -14.715  26.173  1.00  0.00    -0.000 C 
BRANCH  13  14
ATOM     14  C   UNL     1      -8.359 -15.301  26.648  1.00  0.00    -0.000 C 
BRANCH  14  15
ATOM     15  C   UNL     1      -7.249 -14.241  26.600  1.00  0.00    -0.000 C 
BRANCH  15  16
ATOM     16  C   UNL     1      -6.253 -14.376  27.762  1.00  0.00    -0.003 C 
ATOM     17  C   UNL     1      -6.943 -14.527  29.117  1.00  0.00     0.004 C 
ENDBRANCH  15  16
ENDBRANCH  14  15
ENDBRANCH  13  14
ENDBRANCH  12  13
ENDBRANCH  11  12
ENDBRANCH  10  11
ENDBRANCH   1  10
TORSDOF 13
ENDMDL
MODEL 9
REMARK VINA RESULT:    -5.251      1.182      2.991
REMARK INTER + INTRA:         -10.267
REMARK INTER:                  -8.724
REMARK INTRA:                  -1.543
REMARK UNBOUND:                -1.026
REMARK SMILES CCCCCCCCCCCCCCC(=O)[O-]
REMARK SMILES IDX 9 1 10 2 11 3 12 4 13 5 14 6 15 7 16 8 17 9 8 10 7 11 6 12
REMARK SMILES IDX 5 13 4 14 3 15 2 16 1 17
REMARK H PARENT
REMARK Flexibility Score: inf
ROOT
ATOM      1  C   UNL     1      -7.184 -14.206  27.213  1.00  0.00     0.000 C 
ENDROOT
BRANCH   1   2
ATOM      2  C   UNL     1      -8.162 -15.227  26.605  1.00  0.00     0.000 C 
BRANCH   2   3
ATOM      3  C   UNL     1      -9.416 -14.550  26.011  1.00  0.00     0.000 C 
BRANCH   3   4
ATOM      4  C   UNL     1     -10.736 -15.204  26.455  1.00  0.00     0.000 C 
BRANCH   4   5
ATOM      5  C   UNL     1     -10.546 -16.223  27.590  1.00  0.00     0.006 C 
BRANCH   5   6
ATOM      6  C   UNL     1     -11.879 -16.639  28.225  1.00  0.00     0.053 C 
BRANCH   6   7
ATOM      7  C   UNL     1     -11.728 -17.851  29.093  1.00  0.00     0.041 C 
ATOM      8  O   UNL     1     -12.744 -18.500  29.456  1.00  0.00    -0.550 OA
ATOM      9  O   UNL     1     -10.469 -18.241  29.530  1.00  0.00    -0.550 OA
ENDBRANCH   6   7
ENDBRANCH   5   6
ENDBRANCH   4   5
ENDBRANCH   3   4
ENDBRANCH   2   3
ENDBRANCH   1   2
BRANCH   1  10
ATOM     10  C   UNL     1      -5.789 -14.808  27.484  1.00  0.00     0.000 C 
BRANCH  10  11
ATOM     11  C   UNL     1      -5.008 -14.090  28.602  1.00  0.00    -0.000 C 
BRANCH  11  12
ATOM     12  C   UNL     1      -5.589 -12.731  29.035  1.00  0.00    -0.000 C 
BRANCH  12  13
ATOM     13  C   UNL     1      -5.691 -12.520  30.557  1.00  0.00    -0.000 C 
BRANCH  13  14
ATOM     14  C   UNL     1      -6.998 -13.068  31.152  1.00  0.00    -0.000 C 
BRANCH  14  15
ATOM     15  C   UNL     1      -6.723 -14.273  32.063  1.00  0.00    -0.000 C 
BRANCH  15  16
ATOM     16  C   UNL     1      -7.200 -15.598  31.450  1.00  0.00    -0.003 C 
ATOM     17  C   UNL     1      -8.304 -15.405  30.411  1.00  0.00     0.004 C 
ENDBRANCH  15  16
ENDBRANCH  14  15
ENDBRANCH  13  14
ENDBRANCH  12  13
ENDBRANCH  11  12
ENDBRANCH  10  11
ENDBRANCH   1  10
TORSDOF 13
ENDMDL
