MODEL 1
REMARK VINA RESULT:    -4.112      0.000      0.000
REMARK INTER + INTRA:          -7.463
REMARK INTER:                  -6.276
REMARK INTRA:                  -1.188
REMARK UNBOUND:                -1.188
REMARK SMILES CCCCCCCCCCC(=O)[O-]
REMARK SMILES IDX 7 1 8 2 9 3 10 4 11 5 12 6 13 7 6 8 5 9 4 10 3 11 2 12 1 13
REMARK H PARENT
REMARK Flexibility Score: inf
ROOT
ATOM      1  C   UNL     1     -30.389 -23.352  15.512  1.00  0.00     0.000 C 
ENDROOT
BRANCH   1   2
ATOM      2  C   UNL     1     -30.682 -23.958  16.897  1.00  0.00     0.000 C 
BRANCH   2   3
ATOM      3  C   UNL     1     -30.098 -23.119  18.044  1.00  0.00     0.006 C 
BRANCH   3   4
ATOM      4  C   UNL     1     -29.096 -22.066  17.553  1.00  0.00     0.053 C 
BRANCH   4   5
ATOM      5  C   UNL     1     -29.553 -20.693  17.933  1.00  0.00     0.041 C 
ATOM      6  O   UNL     1     -29.206 -20.193  19.035  1.00  0.00    -0.550 OA
ATOM      7  O   UNL     1     -30.321 -19.947  17.048  1.00  0.00    -0.550 OA
ENDBRANCH   4   5
ENDBRANCH   3   4
ENDBRANCH   2   3
ENDBRANCH   1   2
BRANCH   1   8
ATOM      8  C   UNL     1     -30.649 -24.346  14.369  1.00  0.00     0.000 C 
BRANCH   8   9
ATOM      9  C   UNL     1     -29.373 -24.679  13.576  1.00  0.00    -0.000 C 
BRANCH   9  10
ATOM     10  C   UNL     1     -28.121 -24.009  14.162  1.00  0.00    -0.000 C 
BRANCH  10  11
ATOM     11  C   UNL     1     -27.022 -25.021  14.517  1.00  0.00    -0.000 C 
BRANCH  11  12
ATOM     12  C   UNL     1     -26.676 -24.954  16.010  1.00  0.00    -0.003 C 
ATOM     13  C   UNL     1     -27.470 -25.984  16.807  1.00  0.00     0.004 C 
ENDBRANCH  11  12
ENDBRANCH  10  11
ENDBRANCH   9  10
ENDBRANCH   8   9
ENDBRANCH   1   8
TORSDOF 9
ENDMDL
MODEL 2
REMARK VINA RESULT:    -4.055      9.915     11.797
REMARK INTER + INTRA:          -7.377
REMARK INTER:                  -6.865
REMARK INTRA:                  -0.512
REMARK UNBOUND:                -1.188
REMARK SMILES CCCCCCCCCCC(=O)[O-]
REMARK SMILES IDX 7 1 8 2 9 3 10 4 11 5 12 6 13 7 6 8 5 9 4 10 3 11 2 12 1 13
REMARK H PARENT
REMARK Flexibility Score: inf
ROOT
ATOM      1  C   UNL     1     -20.588 -23.952  13.762  1.00  0.00     0.000 C 
ENDROOT
BRANCH   1   2
ATOM      2  C   UNL     1     -20.532 -23.160  12.443  1.00  0.00     0.000 C 
BRANCH   2   3
ATOM      3  C   UNL     1     -19.097 -22.791  12.036  1.00  0.00     0.006 C 
BRANCH   3   4
ATOM      4  C   UNL     1     -19.022 -21.452  11.289  1.00  0.00     0.053 C 
BRANCH   4   5
ATOM      5  C   UNL     1     -19.631 -21.580   9.928  1.00  0.00     0.041 C 
ATOM      6  O   UNL     1     -20.407 -20.688   9.496  1.00  0.00    -0.550 OA
ATOM      7  O   UNL     1     -19.302 -22.660   9.118  1.00  0.00    -0.550 OA
ENDBRANCH   4   5
ENDBRANCH   3   4
ENDBRANCH   2   3
ENDBRANCH   1   2
BRANCH   1   8
ATOM      8  C   UNL     1     -19.219 -24.039  14.454  1.00  0.00     0.000 C 
BRANCH   8   9
ATOM      9  C   UNL     1     -18.730 -25.489  14.615  1.00  0.00    -0.000 C 
BRANCH   9  10
ATOM     10  C   UNL     1     -17.279 -25.679  14.145  1.00  0.00    -0.000 C 
BRANCH  10  11
ATOM     11  C   UNL     1     -16.447 -26.519  15.125  1.00  0.00    -0.000 C 
BRANCH  11  12
ATOM     12  C   UNL     1     -15.994 -25.675  16.323  1.00  0.00    -0.003 C 
ATOM     13  C   UNL     1     -14.476 -25.692  16.468  1.00  0.00     0.004 C 
ENDBRANCH  11  12
ENDBRANCH  10  11
ENDBRANCH   9  10
ENDBRANCH   8   9
ENDBRANCH   1   8
TORSDOF 9
ENDMDL
MODEL 3
REMARK VINA RESULT:    -4.055     11.526     13.496
REMARK INTER + INTRA:          -7.376
REMARK INTER:                  -6.359
REMARK INTRA:                  -1.016
REMARK UNBOUND:                -1.188
REMARK SMILES CCCCCCCCCCC(=O)[O-]
REMARK SMILES IDX 7 1 8 2 9 3 10 4 11 5 12 6 13 7 6 8 5 9 4 10 3 11 2 12 1 13
REMARK H PARENT
REMARK Flexibility Score: inf
ROOT
ATOM      1  C   UNL     1     -23.957 -27.800   4.130  1.00  0.00     0.000 C 
ENDROOT
BRANCH   1   2
ATOM      2  C   UNL     1     -24.773 -27.822   5.435  1.00  0.00     0.000 C 
BRANCH   2   3
ATOM      3  C   UNL     1     -25.636 -29.086   5.571  1.00  0.00     0.006 C 
BRANCH   3   4
ATOM      4  C   UNL     1     -26.137 -29.306   7.006  1.00  0.00     0.053 C 
BRANCH   4   5
ATOM      5  C   UNL     1     -27.599 -29.003   7.100  1.00  0.00     0.041 C 
ATOM      6  O   UNL     1     -28.074 -28.497   8.151  1.00  0.00    -0.550 OA
ATOM      7  O   UNL     1     -28.429 -29.234   6.010  1.00  0.00    -0.550 OA
ENDBRANCH   4   5
ENDBRANCH   3   4
ENDBRANCH   2   3
ENDBRANCH   1   2
BRANCH   1   8
ATOM      8  C   UNL     1     -24.035 -29.131   3.366  1.00  0.00     0.000 C 
BRANCH   8   9
ATOM      9  C   UNL     1     -22.646 -29.720   3.064  1.00  0.00    -0.000 C 
BRANCH   9  10
ATOM     10  C   UNL     1     -22.513 -31.184   3.515  1.00  0.00    -0.000 C 
BRANCH  10  11
ATOM     11  C   UNL     1     -22.017 -31.312   4.962  1.00  0.00    -0.000 C 
BRANCH  11  12
ATOM     12  C   UNL     1     -23.150 -31.762   5.893  1.00  0.00    -0.003 C 
ATOM     13  C   UNL     1     -22.879 -31.342   7.334  1.00  0.00     0.004 C 
ENDBRANCH  11  12
ENDBRANCH  10  11
ENDBRANCH   9  10
ENDBRANCH   8   9
ENDBRANCH   1   8
TORSDOF 9
ENDMDL
MODEL 4
REMARK VINA RESULT:    -4.046     10.202     11.829
REMARK INTER + INTRA:          -7.363
REMARK INTER:                  -6.287
REMARK INTRA:                  -1.076
REMARK UNBOUND:                -1.188
REMARK SMILES CCCCCCCCCCC(=O)[O-]
REMARK SMILES IDX 7 1 8 2 9 3 10 4 11 5 12 6 13 7 6 8 5 9 4 10 3 11 2 12 1 13
REMARK H PARENT
REMARK Flexibility Score: inf
ROOT
ATOM      1  C   UNL     1     -19.655 -24.186  14.609  1.00  0.00     0.000 C 
ENDROOT
BRANCH   1   2
ATOM      2  C   UNL     1     -19.967 -24.060  13.107  1.00  0.00     0.000 C 
BRANCH   2   3
ATOM      3  C   UNL     1     -19.036 -23.069  12.392  1.00  0.00     0.006 C 
BRANCH   3   4
ATOM      4  C   UNL     1     -19.510 -22.738  10.970  1.00  0.00     0.053 C 
BRANCH   4   5
ATOM      5  C   UNL     1     -19.433 -21.264  10.725  1.00  0.00     0.041 C 
ATOM      6  O   UNL     1     -19.890 -20.774   9.659  1.00  0.00    -0.550 OA
ATOM      7  O   UNL     1     -18.900 -20.425  11.696  1.00  0.00    -0.550 OA
ENDBRANCH   4   5
ENDBRANCH   3   4
ENDBRANCH   2   3
ENDBRANCH   1   2
BRANCH   1   8
ATOM      8  C   UNL     1     -19.027 -25.542  14.968  1.00  0.00     0.000 C 
BRANCH   8   9
ATOM      9  C   UNL     1     -17.490 -25.522  14.881  1.00  0.00    -0.000 C 
BRANCH   9  10
ATOM     10  C   UNL     1     -16.956 -26.315  13.677  1.00  0.00    -0.000 C 
BRANCH  10  11
ATOM     11  C   UNL     1     -16.090 -25.457  12.744  1.00  0.00    -0.000 C 
BRANCH  11  12
ATOM     12  C   UNL     1     -16.272 -25.881  11.282  1.00  0.00    -0.003 C 
ATOM     13  C   UNL     1     -17.716 -26.284  11.001  1.00  0.00     0.004 C 
ENDBRANCH  11  12
ENDBRANCH  10  11
ENDBRANCH   9  10
ENDBRANCH   8   9
ENDBRANCH   1   8
TORSDOF 9
ENDMDL
MODEL 5
REMARK VINA RESULT:    -4.037      1.866      2.454
REMARK INTER + INTRA:          -7.349
REMARK INTER:                  -6.906
REMARK INTRA:                  -0.443
REMARK UNBOUND:                -1.188
REMARK SMILES CCCCCCCCCCC(=O)[O-]
REMARK SMILES IDX 7 1 8 2 9 3 10 4 11 5 12 6 13 7 6 8 5 9 4 10 3 11 2 12 1 13
REMARK H PARENT
REMARK Flexibility Score: inf
ROOT
ATOM      1  C   UNL     1     -28.618 -23.804  16.376  1.00  0.00     0.000 C 
ENDROOT
BRANCH   1   2
ATOM      2  C   UNL     1     -29.930 -23.984  17.161  1.00  0.00     0.000 C 
BRANCH   2   3
ATOM      3  C   UNL     1     -30.249 -22.780  18.061  1.00  0.00     0.006 C 
BRANCH   3   4
ATOM      4  C   UNL     1     -29.213 -21.655  17.931  1.00  0.00     0.053 C 
BRANCH   4   5
ATOM      5  C   UNL     1     -29.888 -20.359  17.610  1.00  0.00     0.041 C 
ATOM      6  O   UNL     1     -29.641 -19.331  18.293  1.00  0.00    -0.550 OA
ATOM      7  O   UNL     1     -30.752 -20.275  16.525  1.00  0.00    -0.550 OA
ENDBRANCH   4   5
ENDBRANCH   3   4
ENDBRANCH   2   3
ENDBRANCH   1   2
BRANCH   1   8
ATOM      8  C   UNL     1     -28.148 -25.105  15.709  1.00  0.00     0.000 C 
BRANCH   8   9
ATOM      9  C   UNL     1     -26.814 -25.614  16.283  1.00  0.00    -0.000 C 
BRANCH   9  10
ATOM     10  C   UNL     1     -25.606 -24.817  15.766  1.00  0.00    -0.000 C 
BRANCH  10  11
ATOM     11  C   UNL     1     -24.268 -25.506  16.074  1.00  0.00    -0.000 C 
BRANCH  11  12
ATOM     12  C   UNL     1     -24.308 -26.189  17.447  1.00  0.00    -0.003 C 
ATOM     13  C   UNL     1     -23.510 -27.489  17.439  1.00  0.00     0.004 C 
ENDBRANCH  11  12
ENDBRANCH  10  11
ENDBRANCH   9  10
ENDBRANCH   8   9
ENDBRANCH   1   8
TORSDOF 9
ENDMDL
MODEL 6
REMARK VINA RESULT:    -4.020     10.488     12.235
REMARK INTER + INTRA:          -7.323
REMARK INTER:                  -6.881
REMARK INTRA:                  -0.442
REMARK UNBOUND:                -1.188
REMARK SMILES CCCCCCCCCCC(=O)[O-]
REMARK SMILES IDX 7 1 8 2 9 3 10 4 11 5 12 6 13 7 6 8 5 9 4 10 3 11 2 12 1 13
REMARK H PARENT
REMARK Flexibility Score: inf
ROOT
ATOM      1  C   UNL     1     -19.484 -24.079  14.629  1.00  0.00     0.000 C 
ENDROOT
BRANCH   1   2
ATOM      2  C   UNL     1     -19.011 -25.541  14.730  1.00  0.00     0.000 C 
BRANCH   2   3
ATOM      3  C   UNL     1     -17.619 -25.754  14.114  1.00  0.00     0.006 C 
BRANCH   3   4
ATOM      4  C   UNL     1     -16.952 -27.048  14.601  1.00  0.00     0.053 C 
BRANCH   4   5
ATOM      5  C   UNL     1     -16.155 -26.790  15.841  1.00  0.00     0.041 C 
ATOM      6  O   UNL     1     -15.741 -27.753  16.538  1.00  0.00    -0.550 OA
ATOM      7  O   UNL     1     -15.829 -25.488  16.199  1.00  0.00    -0.550 OA
ENDBRANCH   4   5
ENDBRANCH   3   4
ENDBRANCH   2   3
ENDBRANCH   1   2
BRANCH   1   8
ATOM      8  C   UNL     1     -20.321 -23.818  13.367  1.00  0.00     0.000 C 
BRANCH   8   9
ATOM      9  C   UNL     1     -20.110 -22.402  12.802  1.00  0.00    -0.000 C 
BRANCH   9  10
ATOM     10  C   UNL     1     -19.050 -22.362  11.690  1.00  0.00    -0.000 C 
BRANCH  10  11
ATOM     11  C   UNL     1     -19.006 -21.008  10.966  1.00  0.00    -0.000 C 
BRANCH  11  12
ATOM     12  C   UNL     1     -19.942 -21.004   9.752  1.00  0.00    -0.003 C 
ATOM     13  C   UNL     1     -19.862 -22.323   8.989  1.00  0.00     0.004 C 
ENDBRANCH  11  12
ENDBRANCH  10  11
ENDBRANCH   9  10
ENDBRANCH   8   9
ENDBRANCH   1   8
TORSDOF 9
ENDMDL
MODEL 7
REMARK VINA RESULT:    -3.986      1.359      2.940
REMARK INTER + INTRA:          -7.270
REMARK INTER:                  -6.094
REMARK INTRA:                  -1.176
REMARK UNBOUND:                -1.188
REMARK SMILES CCCCCCCCCCC(=O)[O-]
REMARK SMILES IDX 7 1 8 2 9 3 10 4 11 5 12 6 13 7 6 8 5 9 4 10 3 11 2 12 1 13
REMARK H PARENT
REMARK Flexibility Score: inf
ROOT
ATOM      1  C   UNL     1     -28.599 -23.880  16.667  1.00  0.00     0.000 C 
ENDROOT
BRANCH   1   2
ATOM      2  C   UNL     1     -29.529 -24.185  17.855  1.00  0.00     0.000 C 
BRANCH   2   3
ATOM      3  C   UNL     1     -30.216 -22.926  18.405  1.00  0.00     0.006 C 
BRANCH   3   4
ATOM      4  C   UNL     1     -30.275 -21.789  17.376  1.00  0.00     0.053 C 
BRANCH   4   5
ATOM      5  C   UNL     1     -29.785 -20.511  17.981  1.00  0.00     0.041 C 
ATOM      6  O   UNL     1     -29.166 -20.526  19.078  1.00  0.00    -0.550 OA
ATOM      7  O   UNL     1     -29.969 -19.308  17.310  1.00  0.00    -0.550 OA
ENDBRANCH   4   5
ENDBRANCH   3   4
ENDBRANCH   2   3
ENDBRANCH   1   2
BRANCH   1   8
ATOM      8  C   UNL     1     -28.362 -25.108  15.775  1.00  0.00     0.000 C 
BRANCH   8   9
ATOM      9  C   UNL     1     -28.918 -24.920  14.352  1.00  0.00    -0.000 C 
BRANCH   9  10
ATOM     10  C   UNL     1     -30.090 -23.928  14.301  1.00  0.00    -0.000 C 
BRANCH  10  11
ATOM     11  C   UNL     1     -31.444 -24.623  14.097  1.00  0.00    -0.000 C 
BRANCH  11  12
ATOM     12  C   UNL     1     -32.222 -24.706  15.415  1.00  0.00    -0.003 C 
ATOM     13  C   UNL     1     -33.073 -23.459  15.633  1.00  0.00     0.004 C 
ENDBRANCH  11  12
ENDBRANCH  10  11
ENDBRANCH   9  10
ENDBRANCH   8   9
ENDBRANCH   1   8
TORSDOF 9
ENDMDL
MODEL 8
REMARK VINA RESULT:    -3.939     10.746     11.943
REMARK INTER + INTRA:          -7.199
REMARK INTER:                  -6.622
REMARK INTRA:                  -0.577
REMARK UNBOUND:                -1.188
REMARK SMILES CCCCCCCCCCC(=O)[O-]
REMARK SMILES IDX 7 1 8 2 9 3 10 4 11 5 12 6 13 7 6 8 5 9 4 10 3 11 2 12 1 13
REMARK H PARENT
REMARK Flexibility Score: inf
ROOT
ATOM      1  C   UNL     1     -20.094 -23.533  12.814  1.00  0.00     0.000 C 
ENDROOT
BRANCH   1   2
ATOM      2  C   UNL     1     -19.495 -23.749  14.215  1.00  0.00     0.000 C 
BRANCH   2   3
ATOM      3  C   UNL     1     -19.314 -25.235  14.557  1.00  0.00     0.006 C 
BRANCH   3   4
ATOM      4  C   UNL     1     -17.846 -25.609  14.805  1.00  0.00     0.053 C 
BRANCH   4   5
ATOM      5  C   UNL     1     -17.227 -26.153  13.556  1.00  0.00     0.041 C 
ATOM      6  O   UNL     1     -17.576 -27.279  13.115  1.00  0.00    -0.550 OA
ATOM      7  O   UNL     1     -16.301 -25.394  12.852  1.00  0.00    -0.550 OA
ENDBRANCH   4   5
ENDBRANCH   3   4
ENDBRANCH   2   3
ENDBRANCH   1   2
BRANCH   1   8
ATOM      8  C   UNL     1     -19.058 -23.016  11.804  1.00  0.00     0.000 C 
BRANCH   8   9
ATOM      9  C   UNL     1     -19.079 -21.483  11.669  1.00  0.00    -0.000 C 
BRANCH   9  10
ATOM     10  C   UNL     1     -19.530 -21.019  10.275  1.00  0.00    -0.000 C 
BRANCH  10  11
ATOM     11  C   UNL     1     -19.798 -22.192   9.321  1.00  0.00    -0.000 C 
BRANCH  11  12
ATOM     12  C   UNL     1     -21.296 -22.322   9.018  1.00  0.00    -0.003 C 
ATOM     13  C   UNL     1     -21.767 -21.215   8.080  1.00  0.00     0.004 C 
ENDBRANCH  11  12
ENDBRANCH  10  11
ENDBRANCH   9  10
ENDBRANCH   8   9
ENDBRANCH   1   8
TORSDOF 9
ENDMDL
MODEL 9
REMARK VINA RESULT:    -3.915      4.485      6.580
REMARK INTER + INTRA:          -7.163
REMARK INTER:                  -6.737
REMARK INTRA:                  -0.426
REMARK UNBOUND:                -1.188
REMARK SMILES CCCCCCCCCCC(=O)[O-]
REMARK SMILES IDX 7 1 8 2 9 3 10 4 11 5 12 6 13 7 6 8 5 9 4 10 3 11 2 12 1 13
REMARK H PARENT
REMARK Flexibility Score: inf
ROOT
ATOM      1  C   UNL     1     -26.230 -24.888  15.163  1.00  0.00     0.000 C 
ENDROOT
BRANCH   1   2
ATOM      2  C   UNL     1     -24.946 -25.150  15.971  1.00  0.00     0.000 C 
BRANCH   2   3
ATOM      3  C   UNL     1     -25.162 -26.156  17.112  1.00  0.00     0.006 C 
BRANCH   3   4
ATOM      4  C   UNL     1     -23.941 -26.271  18.035  1.00  0.00     0.053 C 
BRANCH   4   5
ATOM      5  C   UNL     1     -23.365 -27.651  17.969  1.00  0.00     0.041 C 
ATOM      6  O   UNL     1     -22.938 -28.106  16.876  1.00  0.00    -0.550 OA
ATOM      7  O   UNL     1     -23.255 -28.415  19.124  1.00  0.00    -0.550 OA
ENDBRANCH   4   5
ENDBRANCH   3   4
ENDBRANCH   2   3
ENDBRANCH   1   2
BRANCH   1   8
ATOM      8  C   UNL     1     -27.484 -25.444  15.854  1.00  0.00     0.000 C 
BRANCH   8   9
ATOM      9  C   UNL     1     -28.659 -24.450  15.834  1.00  0.00    -0.000 C 
BRANCH   9  10
ATOM     10  C   UNL     1     -28.339 -23.142  16.576  1.00  0.00    -0.000 C 
BRANCH  10  11
ATOM     11  C   UNL     1     -29.433 -22.751  17.580  1.00  0.00    -0.000 C 
BRANCH  11  12
ATOM     12  C   UNL     1     -29.916 -21.317  17.335  1.00  0.00    -0.003 C 
ATOM     13  C   UNL     1     -29.488 -20.389  18.468  1.00  0.00     0.004 C 
ENDBRANCH  11  12
ENDBRANCH  10  11
ENDBRANCH   9  10
ENDBRANCH   8   9
ENDBRANCH   1   8
TORSDOF 9
ENDMDL
