MODEL 1
REMARK VINA RESULT:    -1.837      0.000      0.000
REMARK INTER + INTRA:          -2.278
REMARK INTER:                  -2.159
REMARK INTRA:                  -0.119
REMARK UNBOUND:                -0.119
REMARK SMILES O=C([O-])CCC(=O)[O-]
REMARK SMILES IDX 4 1 2 2 1 3 3 4 5 5 6 6 7 7 8 8
REMARK H PARENT
REMARK Flexibility Score: inf
ROOT
ATOM      1  C   UNL     1     116.214  15.062  27.035  1.00  0.00     0.059 C 
ENDROOT
BRANCH   1   2
ATOM      2  C   UNL     1     117.272  14.778  28.057  1.00  0.00     0.042 C 
ATOM      3  O   UNL     1     117.179  13.768  28.805  1.00  0.00    -0.550 OA
ATOM      4  O   UNL     1     118.383  15.606  28.157  1.00  0.00    -0.550 OA
ENDBRANCH   1   2
BRANCH   1   5
ATOM      5  C   UNL     1     116.597  14.508  25.659  1.00  0.00     0.059 C 
BRANCH   5   6
ATOM      6  C   UNL     1     116.019  13.145  25.431  1.00  0.00     0.042 C 
ATOM      7  O   UNL     1     115.122  12.701  26.195  1.00  0.00    -0.550 OA
ATOM      8  O   UNL     1     116.503  12.348  24.401  1.00  0.00    -0.550 OA
ENDBRANCH   5   6
ENDBRANCH   1   5
TORSDOF 3
ENDMDL
MODEL 2
REMARK VINA RESULT:    -1.835      0.593      3.796
REMARK INTER + INTRA:          -2.276
REMARK INTER:                  -2.213
REMARK INTRA:                  -0.062
REMARK UNBOUND:                -0.119
REMARK SMILES O=C([O-])CCC(=O)[O-]
REMARK SMILES IDX 4 1 2 2 1 3 3 4 5 5 6 6 7 7 8 8
REMARK H PARENT
REMARK Flexibility Score: inf
ROOT
ATOM      1  C   UNL     1     116.333  14.114  25.877  1.00  0.00     0.059 C 
ENDROOT
BRANCH   1   2
ATOM      2  C   UNL     1     115.841  12.821  25.301  1.00  0.00     0.042 C 
ATOM      3  O   UNL     1     114.770  12.307  25.717  1.00  0.00    -0.550 OA
ATOM      4  O   UNL     1     116.547  12.204  24.275  1.00  0.00    -0.550 OA
ENDBRANCH   1   2
BRANCH   1   5
ATOM      5  C   UNL     1     115.868  14.298  27.325  1.00  0.00     0.059 C 
BRANCH   5   6
ATOM      6  C   UNL     1     117.016  14.235  28.286  1.00  0.00     0.042 C 
ATOM      7  O   UNL     1     117.090  13.299  29.125  1.00  0.00    -0.550 OA
ATOM      8  O   UNL     1     117.982  15.234  28.282  1.00  0.00    -0.550 OA
ENDBRANCH   5   6
ENDBRANCH   1   5
TORSDOF 3
ENDMDL
MODEL 3
REMARK VINA RESULT:    -1.827      0.227      1.167
REMARK INTER + INTRA:          -2.266
REMARK INTER:                  -2.147
REMARK INTRA:                  -0.119
REMARK UNBOUND:                -0.119
REMARK SMILES O=C([O-])CCC(=O)[O-]
REMARK SMILES IDX 4 1 2 2 1 3 3 4 5 5 6 6 7 7 8 8
REMARK H PARENT
REMARK Flexibility Score: inf
ROOT
ATOM      1  C   UNL     1     116.143  14.909  27.052  1.00  0.00     0.059 C 
ENDROOT
BRANCH   1   2
ATOM      2  C   UNL     1     117.194  14.637  28.084  1.00  0.00     0.042 C 
ATOM      3  O   UNL     1     118.166  15.425  28.224  1.00  0.00    -0.550 OA
ATOM      4  O   UNL     1     117.078  13.534  28.921  1.00  0.00    -0.550 OA
ENDBRANCH   1   2
BRANCH   1   5
ATOM      5  C   UNL     1     116.525  14.319  25.691  1.00  0.00     0.059 C 
BRANCH   5   6
ATOM      6  C   UNL     1     115.883  12.983  25.468  1.00  0.00     0.042 C 
ATOM      7  O   UNL     1     114.969  12.583  26.235  1.00  0.00    -0.550 OA
ATOM      8  O   UNL     1     116.327  12.163  24.438  1.00  0.00    -0.550 OA
ENDBRANCH   5   6
ENDBRANCH   1   5
TORSDOF 3
ENDMDL
MODEL 4
REMARK VINA RESULT:    -1.790      0.364      1.198
REMARK INTER + INTRA:          -2.223
REMARK INTER:                  -2.100
REMARK INTRA:                  -0.123
REMARK UNBOUND:                -0.119
REMARK SMILES O=C([O-])CCC(=O)[O-]
REMARK SMILES IDX 4 1 2 2 1 3 3 4 5 5 6 6 7 7 8 8
REMARK H PARENT
REMARK Flexibility Score: inf
ROOT
ATOM      1  C   UNL     1     116.118  14.933  27.241  1.00  0.00     0.059 C 
ENDROOT
BRANCH   1   2
ATOM      2  C   UNL     1     117.221  14.676  28.222  1.00  0.00     0.042 C 
ATOM      3  O   UNL     1     117.224  13.623  28.913  1.00  0.00    -0.550 OA
ATOM      4  O   UNL     1     118.267  15.582  28.344  1.00  0.00    -0.550 OA
ENDBRANCH   1   2
BRANCH   1   5
ATOM      5  C   UNL     1     116.429  14.322  25.871  1.00  0.00     0.059 C 
BRANCH   5   6
ATOM      6  C   UNL     1     115.777  12.984  25.701  1.00  0.00     0.042 C 
ATOM      7  O   UNL     1     116.037  12.276  24.693  1.00  0.00    -0.550 OA
ATOM      8  O   UNL     1     114.850  12.539  26.635  1.00  0.00    -0.550 OA
ENDBRANCH   5   6
ENDBRANCH   1   5
TORSDOF 3
ENDMDL
MODEL 5
REMARK VINA RESULT:    -1.748      0.942      4.042
REMARK INTER + INTRA:          -2.174
REMARK INTER:                  -2.129
REMARK INTRA:                  -0.045
REMARK UNBOUND:                -0.119
REMARK SMILES O=C([O-])CCC(=O)[O-]
REMARK SMILES IDX 4 1 2 2 1 3 3 4 5 5 6 6 7 7 8 8
REMARK H PARENT
REMARK Flexibility Score: inf
ROOT
ATOM      1  C   UNL     1     116.121  13.975  26.472  1.00  0.00     0.059 C 
ENDROOT
BRANCH   1   2
ATOM      2  C   UNL     1     116.328  13.528  25.057  1.00  0.00     0.042 C 
ATOM      3  O   UNL     1     116.686  14.354  24.176  1.00  0.00    -0.550 OA
ATOM      4  O   UNL     1     116.164  12.191  24.718  1.00  0.00    -0.550 OA
ENDBRANCH   1   2
BRANCH   1   5
ATOM      5  C   UNL     1     116.970  15.206  26.804  1.00  0.00     0.059 C 
BRANCH   5   6
ATOM      6  C   UNL     1     117.644  15.070  28.135  1.00  0.00     0.042 C 
ATOM      7  O   UNL     1     118.590  15.840  28.449  1.00  0.00    -0.550 OA
ATOM      8  O   UNL     1     117.254  14.065  29.012  1.00  0.00    -0.550 OA
ENDBRANCH   5   6
ENDBRANCH   1   5
TORSDOF 3
ENDMDL
MODEL 6
REMARK VINA RESULT:    -1.732      1.502      3.977
REMARK INTER + INTRA:          -2.154
REMARK INTER:                  -2.050
REMARK INTRA:                  -0.104
REMARK UNBOUND:                -0.119
REMARK SMILES O=C([O-])CCC(=O)[O-]
REMARK SMILES IDX 4 1 2 2 1 3 3 4 5 5 6 6 7 7 8 8
REMARK H PARENT
REMARK Flexibility Score: inf
ROOT
ATOM      1  C   UNL     1     116.644  14.302  27.596  1.00  0.00     0.059 C 
ENDROOT
BRANCH   1   2
ATOM      2  C   UNL     1     116.174  13.762  26.280  1.00  0.00     0.042 C 
ATOM      3  O   UNL     1     116.607  14.249  25.203  1.00  0.00    -0.550 OA
ATOM      4  O   UNL     1     115.289  12.692  26.244  1.00  0.00    -0.550 OA
ENDBRANCH   1   2
BRANCH   1   5
ATOM      5  C   UNL     1     116.929  15.805  27.519  1.00  0.00     0.059 C 
BRANCH   5   6
ATOM      6  C   UNL     1     118.395  16.096  27.620  1.00  0.00     0.042 C 
ATOM      7  O   UNL     1     118.964  16.107  28.743  1.00  0.00    -0.550 OA
ATOM      8  O   UNL     1     119.124  16.397  26.476  1.00  0.00    -0.550 OA
ENDBRANCH   5   6
ENDBRANCH   1   5
TORSDOF 3
ENDMDL
MODEL 7
REMARK VINA RESULT:    -1.657     17.649     19.111
REMARK INTER + INTRA:          -2.066
REMARK INTER:                  -1.984
REMARK INTRA:                  -0.082
REMARK UNBOUND:                -0.119
REMARK SMILES O=C([O-])CCC(=O)[O-]
REMARK SMILES IDX 4 1 2 2 1 3 3 4 5 5 6 6 7 7 8 8
REMARK H PARENT
REMARK Flexibility Score: inf
ROOT
ATOM      1  C   UNL     1     102.113  11.887  15.413  1.00  0.00     0.059 C 
ENDROOT
BRANCH   1   2
ATOM      2  C   UNL     1     101.911  12.300  16.839  1.00  0.00     0.042 C 
ATOM      3  O   UNL     1     100.878  11.941  17.464  1.00  0.00    -0.550 OA
ATOM      4  O   UNL     1     102.882  13.050  17.491  1.00  0.00    -0.550 OA
ENDBRANCH   1   2
BRANCH   1   5
ATOM      5  C   UNL     1     100.899  12.239  14.547  1.00  0.00     0.059 C 
BRANCH   5   6
ATOM      6  C   UNL     1     101.141  13.472  13.731  1.00  0.00     0.042 C 
ATOM      7  O   UNL     1     101.144  13.409  12.473  1.00  0.00    -0.550 OA
ATOM      8  O   UNL     1     101.406  14.681  14.361  1.00  0.00    -0.550 OA
ENDBRANCH   5   6
ENDBRANCH   1   5
TORSDOF 3
ENDMDL
MODEL 8
REMARK VINA RESULT:    -1.625      1.865      2.187
REMARK INTER + INTRA:          -2.029
REMARK INTER:                  -1.903
REMARK INTRA:                  -0.126
REMARK UNBOUND:                -0.119
REMARK SMILES O=C([O-])CCC(=O)[O-]
REMARK SMILES IDX 4 1 2 2 1 3 3 4 5 5 6 6 7 7 8 8
REMARK H PARENT
REMARK Flexibility Score: inf
ROOT
ATOM      1  C   UNL     1     114.571  13.324  27.047  1.00  0.00     0.059 C 
ENDROOT
BRANCH   1   2
ATOM      2  C   UNL     1     115.552  12.940  28.113  1.00  0.00     0.042 C 
ATOM      3  O   UNL     1     115.394  11.875  28.766  1.00  0.00    -0.550 OA
ATOM      4  O   UNL     1     116.662  13.738  28.357  1.00  0.00    -0.550 OA
ENDBRANCH   1   2
BRANCH   1   5
ATOM      5  C   UNL     1     114.740  12.465  25.790  1.00  0.00     0.059 C 
BRANCH   5   6
ATOM      6  C   UNL     1     115.919  12.902  24.976  1.00  0.00     0.042 C 
ATOM      7  O   UNL     1     116.252  14.115  24.943  1.00  0.00    -0.550 OA
ATOM      8  O   UNL     1     116.624  11.973  24.220  1.00  0.00    -0.550 OA
ENDBRANCH   5   6
ENDBRANCH   1   5
TORSDOF 3
ENDMDL
MODEL 9
REMARK VINA RESULT:    -1.566     18.979     20.494
REMARK INTER + INTRA:          -1.960
REMARK INTER:                  -1.930
REMARK INTRA:                  -0.030
REMARK UNBOUND:                -0.119
REMARK SMILES O=C([O-])CCC(=O)[O-]
REMARK SMILES IDX 4 1 2 2 1 3 3 4 5 5 6 6 7 7 8 8
REMARK H PARENT
REMARK Flexibility Score: inf
ROOT
ATOM      1  C   UNL     1     102.233  13.516  13.548  1.00  0.00     0.059 C 
ENDROOT
BRANCH   1   2
ATOM      2  C   UNL     1     102.130  12.372  14.510  1.00  0.00     0.042 C 
ATOM      3  O   UNL     1     103.168  11.881  15.025  1.00  0.00    -0.550 OA
ATOM      4  O   UNL     1     100.883  11.875  14.868  1.00  0.00    -0.550 OA
ENDBRANCH   1   2
BRANCH   1   5
ATOM      5  C   UNL     1     100.955  13.670  12.716  1.00  0.00     0.059 C 
BRANCH   5   6
ATOM      6  C   UNL     1     101.159  14.597  11.557  1.00  0.00     0.042 C 
ATOM      7  O   UNL     1     100.975  14.190  10.380  1.00  0.00    -0.550 OA
ATOM      8  O   UNL     1     101.594  15.899  11.775  1.00  0.00    -0.550 OA
ENDBRANCH   5   6
ENDBRANCH   1   5
TORSDOF 3
ENDMDL
