MODEL 1
REMARK VINA RESULT:    -5.533      0.000      0.000
REMARK INTER + INTRA:         -10.522
REMARK INTER:                  -8.767
REMARK INTRA:                  -1.755
REMARK UNBOUND:                -1.755
REMARK SMILES C=CCCCCCCCCCCC
REMARK SMILES IDX 7 1 8 2 9 3 10 4 11 5 12 6 13 7 6 8 5 9 4 10 3 11 2 12 1 13
REMARK H PARENT
REMARK Flexibility Score: inf
ROOT
ATOM      1  C   UNL     1      -2.217 -13.862  10.970  1.00  0.00     0.000 C 
ENDROOT
BRANCH   1   2
ATOM      2  C   UNL     1      -2.277 -15.370  11.244  1.00  0.00     0.000 C 
BRANCH   2   3
ATOM      3  C   UNL     1      -3.655 -15.777  11.787  1.00  0.00    -0.000 C 
BRANCH   3   4
ATOM      4  C   UNL     1      -4.518 -16.499  10.740  1.00  0.00    -0.000 C 
BRANCH   4   5
ATOM      5  C   UNL     1      -3.845 -17.772  10.197  1.00  0.00    -0.000 C 
BRANCH   5   6
ATOM      6  C   UNL     1      -4.121 -17.990   8.701  1.00  0.00    -0.003 C 
ATOM      7  C   UNL     1      -3.015 -18.781   8.002  1.00  0.00     0.004 C 
ENDBRANCH   5   6
ENDBRANCH   4   5
ENDBRANCH   3   4
ENDBRANCH   2   3
ENDBRANCH   1   2
BRANCH   1   8
ATOM      8  C   UNL     1      -1.840 -13.583   9.507  1.00  0.00     0.000 C 
BRANCH   8   9
ATOM      9  C   UNL     1      -1.592 -14.868   8.702  1.00  0.00     0.000 C 
BRANCH   9  10
ATOM     10  C   UNL     1      -2.589 -15.043   7.544  1.00  0.00     0.004 C 
BRANCH  10  11
ATOM     11  C   UNL     1      -3.857 -14.203   7.744  1.00  0.00     0.027 C 
BRANCH  11  12
ATOM     12  C   UNL     1      -5.047 -14.826   7.065  1.00  0.00    -0.035 C 
ATOM     13  C   UNL     1      -4.926 -15.548   5.948  1.00  0.00     0.004 C 
ENDBRANCH  11  12
ENDBRANCH  10  11
ENDBRANCH   9  10
ENDBRANCH   8   9
ENDBRANCH   1   8
TORSDOF 10
ENDMDL
MODEL 2
REMARK VINA RESULT:    -5.519      0.582      3.803
REMARK INTER + INTRA:         -10.500
REMARK INTER:                  -8.747
REMARK INTRA:                  -1.752
REMARK UNBOUND:                -1.755
REMARK SMILES C=CCCCCCCCCCCC
REMARK SMILES IDX 7 1 8 2 9 3 10 4 11 5 12 6 13 7 6 8 5 9 4 10 3 11 2 12 1 13
REMARK H PARENT
REMARK Flexibility Score: inf
ROOT
ATOM      1  C   UNL     1      -1.791 -14.602  10.137  1.00  0.00     0.000 C 
ENDROOT
BRANCH   1   2
ATOM      2  C   UNL     1      -1.252 -15.126   8.800  1.00  0.00     0.000 C 
BRANCH   2   3
ATOM      3  C   UNL     1      -2.310 -15.001   7.693  1.00  0.00    -0.000 C 
BRANCH   3   4
ATOM      4  C   UNL     1      -3.458 -14.052   8.073  1.00  0.00    -0.000 C 
BRANCH   4   5
ATOM      5  C   UNL     1      -4.754 -14.353   7.300  1.00  0.00    -0.000 C 
BRANCH   5   6
ATOM      6  C   UNL     1      -4.596 -15.531   6.324  1.00  0.00    -0.003 C 
ATOM      7  C   UNL     1      -5.423 -15.361   5.049  1.00  0.00     0.004 C 
ENDBRANCH   5   6
ENDBRANCH   4   5
ENDBRANCH   3   4
ENDBRANCH   2   3
ENDBRANCH   1   2
BRANCH   1   8
ATOM      8  C   UNL     1      -2.186 -15.762  11.063  1.00  0.00     0.000 C 
BRANCH   8   9
ATOM      9  C   UNL     1      -3.656 -15.696  11.504  1.00  0.00     0.000 C 
BRANCH   9  10
ATOM     10  C   UNL     1      -4.571 -16.590  10.651  1.00  0.00     0.004 C 
BRANCH  10  11
ATOM     11  C   UNL     1      -3.851 -17.857  10.170  1.00  0.00     0.027 C 
BRANCH  11  12
ATOM     12  C   UNL     1      -3.962 -18.025   8.678  1.00  0.00    -0.035 C 
ATOM     13  C   UNL     1      -3.074 -18.737   7.979  1.00  0.00     0.004 C 
ENDBRANCH  11  12
ENDBRANCH  10  11
ENDBRANCH   9  10
ENDBRANCH   8   9
ENDBRANCH   1   8
TORSDOF 10
ENDMDL
MODEL 3
REMARK VINA RESULT:    -5.422      0.763      3.797
REMARK INTER + INTRA:         -10.347
REMARK INTER:                  -8.809
REMARK INTRA:                  -1.538
REMARK UNBOUND:                -1.755
REMARK SMILES C=CCCCCCCCCCCC
REMARK SMILES IDX 7 1 8 2 9 3 10 4 11 5 12 6 13 7 6 8 5 9 4 10 3 11 2 12 1 13
REMARK H PARENT
REMARK Flexibility Score: inf
ROOT
ATOM      1  C   UNL     1      -4.555 -16.527  10.530  1.00  0.00     0.000 C 
ENDROOT
BRANCH   1   2
ATOM      2  C   UNL     1      -3.744 -17.722  10.013  1.00  0.00     0.000 C 
BRANCH   2   3
ATOM      3  C   UNL     1      -3.933 -17.901   8.499  1.00  0.00    -0.000 C 
BRANCH   3   4
ATOM      4  C   UNL     1      -4.853 -16.834   7.884  1.00  0.00    -0.000 C 
BRANCH   4   5
ATOM      5  C   UNL     1      -4.296 -16.260   6.570  1.00  0.00    -0.000 C 
BRANCH   5   6
ATOM      6  C   UNL     1      -5.036 -14.988   6.124  1.00  0.00    -0.003 C 
ATOM      7  C   UNL     1      -4.931 -13.852   7.141  1.00  0.00     0.004 C 
ENDBRANCH   5   6
ENDBRANCH   4   5
ENDBRANCH   3   4
ENDBRANCH   2   3
ENDBRANCH   1   2
BRANCH   1   8
ATOM      8  C   UNL     1      -3.838 -15.841  11.702  1.00  0.00     0.000 C 
BRANCH   8   9
ATOM      9  C   UNL     1      -2.377 -15.489  11.381  1.00  0.00     0.000 C 
BRANCH   9  10
ATOM     10  C   UNL     1      -2.166 -13.982  11.158  1.00  0.00     0.004 C 
BRANCH  10  11
ATOM     11  C   UNL     1      -1.512 -13.687   9.802  1.00  0.00     0.027 C 
BRANCH  11  12
ATOM     12  C   UNL     1      -1.842 -14.747   8.785  1.00  0.00    -0.035 C 
ATOM     13  C   UNL     1      -0.891 -15.434   8.146  1.00  0.00     0.004 C 
ENDBRANCH  11  12
ENDBRANCH  10  11
ENDBRANCH   9  10
ENDBRANCH   8   9
ENDBRANCH   1   8
TORSDOF 10
ENDMDL
MODEL 4
REMARK VINA RESULT:    -5.398      1.508      3.716
REMARK INTER + INTRA:         -10.308
REMARK INTER:                  -8.678
REMARK INTRA:                  -1.631
REMARK UNBOUND:                -1.755
REMARK SMILES C=CCCCCCCCCCCC
REMARK SMILES IDX 7 1 8 2 9 3 10 4 11 5 12 6 13 7 6 8 5 9 4 10 3 11 2 12 1 13
REMARK H PARENT
REMARK Flexibility Score: inf
ROOT
ATOM      1  C   UNL     1      -4.110 -17.693   8.644  1.00  0.00     0.000 C 
ENDROOT
BRANCH   1   2
ATOM      2  C   UNL     1      -3.889 -17.721  10.161  1.00  0.00     0.000 C 
BRANCH   2   3
ATOM      3  C   UNL     1      -4.510 -16.486  10.831  1.00  0.00    -0.000 C 
BRANCH   3   4
ATOM      4  C   UNL     1      -3.554 -15.802  11.822  1.00  0.00    -0.000 C 
BRANCH   4   5
ATOM      5  C   UNL     1      -2.179 -16.489  11.885  1.00  0.00    -0.000 C 
BRANCH   5   6
ATOM      6  C   UNL     1      -1.721 -16.757  13.327  1.00  0.00    -0.003 C 
ATOM      7  C   UNL     1      -1.158 -18.166  13.520  1.00  0.00     0.004 C 
ENDBRANCH   5   6
ENDBRANCH   4   5
ENDBRANCH   3   4
ENDBRANCH   2   3
ENDBRANCH   1   2
BRANCH   1   8
ATOM      8  C   UNL     1      -5.225 -16.705   8.268  1.00  0.00     0.000 C 
BRANCH   8   9
ATOM      9  C   UNL     1      -4.961 -15.991   6.933  1.00  0.00     0.000 C 
BRANCH   9  10
ATOM     10  C   UNL     1      -3.582 -15.309   6.889  1.00  0.00     0.004 C 
BRANCH  10  11
ATOM     11  C   UNL     1      -3.404 -14.297   8.027  1.00  0.00     0.027 C 
BRANCH  11  12
ATOM     12  C   UNL     1      -2.065 -14.448   8.699  1.00  0.00    -0.035 C 
ATOM     13  C   UNL     1      -1.226 -15.439   8.387  1.00  0.00     0.004 C 
ENDBRANCH  11  12
ENDBRANCH  10  11
ENDBRANCH   9  10
ENDBRANCH   8   9
ENDBRANCH   1   8
TORSDOF 10
ENDMDL
MODEL 5
REMARK VINA RESULT:    -5.370      1.153      4.045
REMARK INTER + INTRA:         -10.264
REMARK INTER:                  -8.510
REMARK INTRA:                  -1.754
REMARK UNBOUND:                -1.755
REMARK SMILES C=CCCCCCCCCCCC
REMARK SMILES IDX 7 1 8 2 9 3 10 4 11 5 12 6 13 7 6 8 5 9 4 10 3 11 2 12 1 13
REMARK H PARENT
REMARK Flexibility Score: inf
ROOT
ATOM      1  C   UNL     1      -2.012 -17.272   8.604  1.00  0.00     0.000 C 
ENDROOT
BRANCH   1   2
ATOM      2  C   UNL     1      -3.443 -17.760   8.345  1.00  0.00     0.000 C 
BRANCH   2   3
ATOM      3  C   UNL     1      -4.446 -17.025   9.247  1.00  0.00    -0.000 C 
BRANCH   3   4
ATOM      4  C   UNL     1      -5.399 -16.113   8.458  1.00  0.00    -0.000 C 
BRANCH   4   5
ATOM      5  C   UNL     1      -5.309 -16.339   6.939  1.00  0.00    -0.000 C 
BRANCH   5   6
ATOM      6  C   UNL     1      -4.898 -15.068   6.178  1.00  0.00    -0.003 C 
ATOM      7  C   UNL     1      -4.924 -13.816   7.055  1.00  0.00     0.004 C 
ENDBRANCH   5   6
ENDBRANCH   4   5
ENDBRANCH   3   4
ENDBRANCH   2   3
ENDBRANCH   1   2
BRANCH   1   8
ATOM      8  C   UNL     1      -1.801 -15.860   8.038  1.00  0.00     0.000 C 
BRANCH   8   9
ATOM      9  C   UNL     1      -1.202 -14.890   9.069  1.00  0.00     0.000 C 
BRANCH   9  10
ATOM     10  C   UNL     1      -2.267 -14.003   9.736  1.00  0.00     0.004 C 
BRANCH  10  11
ATOM     11  C   UNL     1      -2.069 -13.909  11.254  1.00  0.00     0.027 C 
BRANCH  11  12
ATOM     12  C   UNL     1      -2.802 -15.007  11.978  1.00  0.00    -0.035 C 
ATOM     13  C   UNL     1      -2.230 -16.186  12.238  1.00  0.00     0.004 C 
ENDBRANCH  11  12
ENDBRANCH  10  11
ENDBRANCH   9  10
ENDBRANCH   8   9
ENDBRANCH   1   8
TORSDOF 10
ENDMDL
MODEL 6
REMARK VINA RESULT:    -5.351      0.804      3.261
REMARK INTER + INTRA:         -10.234
REMARK INTER:                  -8.605
REMARK INTRA:                  -1.629
REMARK UNBOUND:                -1.755
REMARK SMILES C=CCCCCCCCCCCC
REMARK SMILES IDX 7 1 8 2 9 3 10 4 11 5 12 6 13 7 6 8 5 9 4 10 3 11 2 12 1 13
REMARK H PARENT
REMARK Flexibility Score: inf
ROOT
ATOM      1  C   UNL     1      -4.508 -16.502  10.540  1.00  0.00     0.000 C 
ENDROOT
BRANCH   1   2
ATOM      2  C   UNL     1      -3.915 -15.899  11.821  1.00  0.00     0.000 C 
BRANCH   2   3
ATOM      3  C   UNL     1      -2.450 -15.489  11.609  1.00  0.00    -0.000 C 
BRANCH   3   4
ATOM      4  C   UNL     1      -2.294 -14.005  11.241  1.00  0.00    -0.000 C 
BRANCH   4   5
ATOM      5  C   UNL     1      -1.830 -13.801   9.789  1.00  0.00    -0.000 C 
BRANCH   5   6
ATOM      6  C   UNL     1      -0.796 -14.850   9.350  1.00  0.00    -0.003 C 
ATOM      7  C   UNL     1      -1.105 -15.452   7.979  1.00  0.00     0.004 C 
ENDBRANCH   5   6
ENDBRANCH   4   5
ENDBRANCH   3   4
ENDBRANCH   2   3
ENDBRANCH   1   2
BRANCH   1   8
ATOM      8  C   UNL     1      -3.588 -17.591   9.968  1.00  0.00     0.000 C 
BRANCH   8   9
ATOM      9  C   UNL     1      -3.870 -17.888   8.487  1.00  0.00     0.000 C 
BRANCH   9  10
ATOM     10  C   UNL     1      -4.943 -16.961   7.891  1.00  0.00     0.004 C 
BRANCH  10  11
ATOM     11  C   UNL     1      -4.408 -16.149   6.704  1.00  0.00     0.027 C 
BRANCH  11  12
ATOM     12  C   UNL     1      -5.069 -14.799   6.613  1.00  0.00    -0.035 C 
ATOM     13  C   UNL     1      -4.586 -13.731   7.253  1.00  0.00     0.004 C 
ENDBRANCH  11  12
ENDBRANCH  10  11
ENDBRANCH   9  10
ENDBRANCH   8   9
ENDBRANCH   1   8
TORSDOF 10
ENDMDL
MODEL 7
REMARK VINA RESULT:    -5.323      5.875      8.569
REMARK INTER + INTRA:         -10.190
REMARK INTER:                  -9.574
REMARK INTRA:                  -0.616
REMARK UNBOUND:                -1.755
REMARK SMILES C=CCCCCCCCCCCC
REMARK SMILES IDX 7 1 8 2 9 3 10 4 11 5 12 6 13 7 6 8 5 9 4 10 3 11 2 12 1 13
REMARK H PARENT
REMARK Flexibility Score: inf
ROOT
ATOM      1  C   UNL     1      -0.490 -17.567  15.432  1.00  0.00     0.000 C 
ENDROOT
BRANCH   1   2
ATOM      2  C   UNL     1      -0.635 -18.093  13.999  1.00  0.00     0.000 C 
BRANCH   2   3
ATOM      3  C   UNL     1      -1.636 -17.244  13.200  1.00  0.00    -0.000 C 
BRANCH   3   4
ATOM      4  C   UNL     1      -2.043 -15.957  13.935  1.00  0.00    -0.000 C 
BRANCH   4   5
ATOM      5  C   UNL     1      -2.766 -14.956  13.017  1.00  0.00    -0.000 C 
BRANCH   5   6
ATOM      6  C   UNL     1      -2.830 -15.437  11.558  1.00  0.00    -0.003 C 
ATOM      7  C   UNL     1      -2.158 -14.469  10.583  1.00  0.00     0.004 C 
ENDBRANCH   5   6
ENDBRANCH   4   5
ENDBRANCH   3   4
ENDBRANCH   2   3
ENDBRANCH   1   2
BRANCH   1   8
ATOM      8  C   UNL     1       0.852 -17.996  16.043  1.00  0.00     0.000 C 
BRANCH   8   9
ATOM      9  C   UNL     1       1.853 -18.492  14.988  1.00  0.00     0.000 C 
BRANCH   9  10
ATOM     10  C   UNL     1       3.262 -18.713  15.565  1.00  0.00     0.004 C 
BRANCH  10  11
ATOM     11  C   UNL     1       3.656 -17.610  16.556  1.00  0.00     0.027 C 
BRANCH  11  12
ATOM     12  C   UNL     1       5.050 -17.103  16.295  1.00  0.00    -0.035 C 
ATOM     13  C   UNL     1       5.569 -16.079  16.977  1.00  0.00     0.004 C 
ENDBRANCH  11  12
ENDBRANCH  10  11
ENDBRANCH   9  10
ENDBRANCH   8   9
ENDBRANCH   1   8
TORSDOF 10
ENDMDL
MODEL 8
REMARK VINA RESULT:    -5.304      1.868      3.590
REMARK INTER + INTRA:         -10.160
REMARK INTER:                  -8.996
REMARK INTRA:                  -1.165
REMARK UNBOUND:                -1.755
REMARK SMILES C=CCCCCCCCCCCC
REMARK SMILES IDX 7 1 8 2 9 3 10 4 11 5 12 6 13 7 6 8 5 9 4 10 3 11 2 12 1 13
REMARK H PARENT
REMARK Flexibility Score: inf
ROOT
ATOM      1  C   UNL     1      -2.634 -13.944   9.013  1.00  0.00     0.000 C 
ENDROOT
BRANCH   1   2
ATOM      2  C   UNL     1      -1.879 -14.846   9.997  1.00  0.00     0.000 C 
BRANCH   2   3
ATOM      3  C   UNL     1      -2.722 -15.115  11.254  1.00  0.00    -0.000 C 
BRANCH   3   4
ATOM      4  C   UNL     1      -2.156 -16.254  12.116  1.00  0.00    -0.000 C 
BRANCH   4   5
ATOM      5  C   UNL     1      -2.215 -15.941  13.621  1.00  0.00    -0.000 C 
BRANCH   5   6
ATOM      6  C   UNL     1      -1.577 -17.047  14.477  1.00  0.00    -0.003 C 
ATOM      7  C   UNL     1      -1.038 -18.209  13.642  1.00  0.00     0.004 C 
ENDBRANCH   5   6
ENDBRANCH   4   5
ENDBRANCH   3   4
ENDBRANCH   2   3
ENDBRANCH   1   2
BRANCH   1   8
ATOM      8  C   UNL     1      -2.857 -14.658   7.671  1.00  0.00     0.000 C 
BRANCH   8   9
ATOM      9  C   UNL     1      -4.333 -14.668   7.242  1.00  0.00     0.000 C 
BRANCH   9  10
ATOM     10  C   UNL     1      -4.952 -16.075   7.286  1.00  0.00     0.004 C 
BRANCH  10  11
ATOM     11  C   UNL     1      -5.255 -16.526   8.720  1.00  0.00     0.027 C 
BRANCH  11  12
ATOM     12  C   UNL     1      -4.372 -17.671   9.140  1.00  0.00    -0.035 C 
ATOM     13  C   UNL     1      -3.528 -18.261   8.289  1.00  0.00     0.004 C 
ENDBRANCH  11  12
ENDBRANCH  10  11
ENDBRANCH   9  10
ENDBRANCH   8   9
ENDBRANCH   1   8
TORSDOF 10
ENDMDL
MODEL 9
REMARK VINA RESULT:    -5.181      1.137      5.105
REMARK INTER + INTRA:          -9.965
REMARK INTER:                  -8.565
REMARK INTRA:                  -1.400
REMARK UNBOUND:                -1.755
REMARK SMILES C=CCCCCCCCCCCC
REMARK SMILES IDX 7 1 8 2 9 3 10 4 11 5 12 6 13 7 6 8 5 9 4 10 3 11 2 12 1 13
REMARK H PARENT
REMARK Flexibility Score: inf
ROOT
ATOM      1  C   UNL     1      -5.376 -16.533   8.373  1.00  0.00     0.000 C 
ENDROOT
BRANCH   1   2
ATOM      2  C   UNL     1      -5.038 -15.642   7.171  1.00  0.00     0.000 C 
BRANCH   2   3
ATOM      3  C   UNL     1      -3.530 -15.662   6.877  1.00  0.00    -0.000 C 
BRANCH   3   4
ATOM      4  C   UNL     1      -2.752 -14.618   7.693  1.00  0.00    -0.000 C 
BRANCH   4   5
ATOM      5  C   UNL     1      -1.449 -15.183   8.285  1.00  0.00    -0.000 C 
BRANCH   5   6
ATOM      6  C   UNL     1      -0.935 -14.354   9.473  1.00  0.00    -0.003 C 
ATOM      7  C   UNL     1      -1.887 -13.224   9.866  1.00  0.00     0.004 C 
ENDBRANCH   5   6
ENDBRANCH   4   5
ENDBRANCH   3   4
ENDBRANCH   2   3
ENDBRANCH   1   2
BRANCH   1   8
ATOM      8  C   UNL     1      -4.293 -17.601   8.587  1.00  0.00     0.000 C 
BRANCH   8   9
ATOM      9  C   UNL     1      -3.912 -17.773  10.066  1.00  0.00     0.000 C 
BRANCH   9  10
ATOM     10  C   UNL     1      -4.021 -16.461  10.862  1.00  0.00     0.004 C 
BRANCH  10  11
ATOM     11  C   UNL     1      -2.792 -16.222  11.748  1.00  0.00     0.027 C 
BRANCH  11  12
ATOM     12  C   UNL     1      -3.136 -15.405  12.965  1.00  0.00    -0.035 C 
ATOM     13  C   UNL     1      -2.492 -14.274  13.262  1.00  0.00     0.004 C 
ENDBRANCH  11  12
ENDBRANCH  10  11
ENDBRANCH   9  10
ENDBRANCH   8   9
ENDBRANCH   1   8
TORSDOF 10
ENDMDL
