MODEL 1
REMARK VINA RESULT:    -5.702      0.000      0.000
REMARK INTER + INTRA:          -6.984
REMARK INTER:                  -6.535
REMARK INTRA:                  -0.449
REMARK UNBOUND:                -0.449
REMARK SMILES O=C1C[C@@H](c2ccc(O)cc2)Oc2cc(O)cc(O)c21
REMARK SMILES IDX 3 1 4 2 12 3 13 4 14 5 15 6 17 7 18 8 20 9 2 10 1 11 5 12
REMARK SMILES IDX 6 13 11 14 7 15 10 16 8 17 9 18 19 20 16 22
REMARK H PARENT 9 19 19 21 16 23
REMARK Flexibility Score: inf
ROOT
ATOM      1  C   UNL     1     173.887 169.010 171.407  1.00  0.00     0.131 C 
ATOM      2  C   UNL     1     174.019 170.548 171.399  1.00  0.00     0.211 C 
ATOM      3  O   UNL     1     173.716 171.110 170.119  1.00  0.00    -0.484 OA
ATOM      4  C   UNL     1     173.891 170.435 168.899  1.00  0.00     0.138 A 
ATOM      5  C   UNL     1     173.639 171.116 167.705  1.00  0.00     0.093 A 
ATOM      6  C   UNL     1     173.742 170.455 166.479  1.00  0.00     0.123 A 
ATOM      7  C   UNL     1     174.189 169.131 166.437  1.00  0.00     0.093 A 
ATOM      8  C   UNL     1     174.441 168.428 167.630  1.00  0.00     0.133 A 
ATOM      9  C   UNL     1     174.281 169.083 168.873  1.00  0.00     0.102 A 
ATOM     10  C   UNL     1     174.484 168.406 170.168  1.00  0.00     0.174 C 
ATOM     11  O   UNL     1     175.134 167.323 170.248  1.00  0.00    -0.294 OA
ENDROOT
BRANCH   2  12
ATOM     12  C   UNL     1     175.382 170.994 171.881  1.00  0.00    -0.007 A 
ATOM     13  C   UNL     1     175.898 172.238 171.455  1.00  0.00     0.011 A 
ATOM     14  C   UNL     1     176.152 170.191 172.764  1.00  0.00     0.011 A 
ATOM     15  C   UNL     1     177.157 172.673 171.900  1.00  0.00     0.046 A 
ATOM     16  C   UNL     1     177.403 170.636 173.212  1.00  0.00     0.046 A 
ATOM     17  C   UNL     1     177.916 171.867 172.771  1.00  0.00     0.115 A 
BRANCH  17  18
ATOM     18  O   UNL     1     179.179 172.300 173.189  1.00  0.00    -0.508 OA
ATOM     19  H   UNL     1     179.583 173.175 172.867  1.00  0.00     0.293 HD
ENDBRANCH  17  18
ENDBRANCH   2  12
BRANCH   8  20
ATOM     20  O   UNL     1     174.784 167.074 167.583  1.00  0.00    -0.507 OA
ATOM     21  H   UNL     1     174.954 166.598 166.701  1.00  0.00     0.293 HD
ENDBRANCH   8  20
BRANCH   6  22
ATOM     22  O   UNL     1     173.368 171.092 165.296  1.00  0.00    -0.508 OA
ATOM     23  H   UNL     1     172.482 170.897 164.851  1.00  0.00     0.293 HD
ENDBRANCH   6  22
TORSDOF 4
ENDMDL
MODEL 2
REMARK VINA RESULT:    -5.693      2.719      3.959
REMARK INTER + INTRA:          -6.973
REMARK INTER:                  -6.506
REMARK INTRA:                  -0.468
REMARK UNBOUND:                -0.449
REMARK SMILES O=C1C[C@@H](c2ccc(O)cc2)Oc2cc(O)cc(O)c21
REMARK SMILES IDX 3 1 4 2 12 3 13 4 14 5 15 6 17 7 18 8 20 9 2 10 1 11 5 12
REMARK SMILES IDX 6 13 11 14 7 15 10 16 8 17 9 18 19 20 16 22
REMARK H PARENT 9 19 19 21 16 23
REMARK Flexibility Score: inf
ROOT
ATOM      1  C   UNL     1     174.214 169.220 171.211  1.00  0.00     0.131 C 
ATOM      2  C   UNL     1     175.389 169.984 170.564  1.00  0.00     0.211 C 
ATOM      3  O   UNL     1     176.254 169.119 169.821  1.00  0.00    -0.484 OA
ATOM      4  C   UNL     1     176.440 167.756 170.106  1.00  0.00     0.138 A 
ATOM      5  C   UNL     1     177.374 167.029 169.362  1.00  0.00     0.093 A 
ATOM      6  C   UNL     1     177.538 165.660 169.577  1.00  0.00     0.123 A 
ATOM      7  C   UNL     1     176.832 165.026 170.604  1.00  0.00     0.093 A 
ATOM      8  C   UNL     1     175.883 165.741 171.359  1.00  0.00     0.133 A 
ATOM      9  C   UNL     1     175.678 167.116 171.101  1.00  0.00     0.102 A 
ATOM     10  C   UNL     1     174.674 167.926 171.818  1.00  0.00     0.174 C 
ATOM     11  O   UNL     1     174.185 167.540 172.920  1.00  0.00    -0.294 OA
ENDROOT
BRANCH   2  12
ATOM     12  C   UNL     1     176.168 170.781 171.588  1.00  0.00    -0.007 A 
ATOM     13  C   UNL     1     177.561 170.948 171.429  1.00  0.00     0.011 A 
ATOM     14  C   UNL     1     175.523 171.377 172.705  1.00  0.00     0.011 A 
ATOM     15  C   UNL     1     178.297 171.693 172.363  1.00  0.00     0.046 A 
ATOM     16  C   UNL     1     176.262 172.129 173.628  1.00  0.00     0.046 A 
ATOM     17  C   UNL     1     177.650 172.276 173.471  1.00  0.00     0.115 A 
BRANCH  17  18
ATOM     18  O   UNL     1     178.397 172.996 174.408  1.00  0.00    -0.508 OA
ATOM     19  H   UNL     1     177.968 173.668 175.039  1.00  0.00     0.293 HD
ENDBRANCH  17  18
ENDBRANCH   2  12
BRANCH   8  20
ATOM     20  O   UNL     1     175.105 165.077 172.312  1.00  0.00    -0.507 OA
ATOM     21  H   UNL     1     174.690 164.168 172.121  1.00  0.00     0.293 HD
ENDBRANCH   8  20
BRANCH   6  22
ATOM     22  O   UNL     1     178.374 164.906 168.752  1.00  0.00    -0.508 OA
ATOM     23  H   UNL     1     178.750 164.019 169.055  1.00  0.00     0.293 HD
ENDBRANCH   6  22
TORSDOF 4
ENDMDL
MODEL 3
REMARK VINA RESULT:    -5.655      3.039      5.602
REMARK INTER + INTRA:          -6.930
REMARK INTER:                  -6.464
REMARK INTRA:                  -0.466
REMARK UNBOUND:                -0.449
REMARK SMILES O=C1C[C@@H](c2ccc(O)cc2)Oc2cc(O)cc(O)c21
REMARK SMILES IDX 3 1 4 2 12 3 13 4 14 5 15 6 17 7 18 8 20 9 2 10 1 11 5 12
REMARK SMILES IDX 6 13 11 14 7 15 10 16 8 17 9 18 19 20 16 22
REMARK H PARENT 9 19 19 21 16 23
REMARK Flexibility Score: inf
ROOT
ATOM      1  C   UNL     1     174.727 168.757 170.915  1.00  0.00     0.131 C 
ATOM      2  C   UNL     1     176.111 168.739 171.597  1.00  0.00     0.211 C 
ATOM      3  O   UNL     1     176.175 167.792 172.668  1.00  0.00    -0.484 OA
ATOM      4  C   UNL     1     175.067 167.390 173.433  1.00  0.00     0.138 A 
ATOM      5  C   UNL     1     175.265 166.519 174.508  1.00  0.00     0.093 A 
ATOM      6  C   UNL     1     174.178 166.051 175.248  1.00  0.00     0.123 A 
ATOM      7  C   UNL     1     172.891 166.524 174.972  1.00  0.00     0.093 A 
ATOM      8  C   UNL     1     172.673 167.395 173.889  1.00  0.00     0.133 A 
ATOM      9  C   UNL     1     173.769 167.825 173.105  1.00  0.00     0.102 A 
ATOM     10  C   UNL     1     173.620 168.702 171.929  1.00  0.00     0.174 C 
ATOM     11  O   UNL     1     172.573 169.392 171.753  1.00  0.00    -0.294 OA
ENDROOT
BRANCH   2  12
ATOM     12  C   UNL     1     176.520 170.118 172.066  1.00  0.00    -0.007 A 
ATOM     13  C   UNL     1     177.318 170.252 173.224  1.00  0.00     0.011 A 
ATOM     14  C   UNL     1     176.127 171.285 171.358  1.00  0.00     0.011 A 
ATOM     15  C   UNL     1     177.716 171.523 173.668  1.00  0.00     0.046 A 
ATOM     16  C   UNL     1     176.536 172.551 171.800  1.00  0.00     0.046 A 
ATOM     17  C   UNL     1     177.316 172.676 172.962  1.00  0.00     0.115 A 
BRANCH  17  18
ATOM     18  O   UNL     1     177.698 173.938 173.427  1.00  0.00    -0.508 OA
ATOM     19  H   UNL     1     177.062 174.537 173.948  1.00  0.00     0.293 HD
ENDBRANCH  17  18
ENDBRANCH   2  12
BRANCH   8  20
ATOM     20  O   UNL     1     171.371 167.780 173.554  1.00  0.00    -0.507 OA
ATOM     21  H   UNL     1     171.053 168.738 173.669  1.00  0.00     0.293 HD
ENDBRANCH   8  20
BRANCH   6  22
ATOM     22  O   UNL     1     174.357 165.085 176.238  1.00  0.00    -0.508 OA
ATOM     23  H   UNL     1     173.637 164.894 176.922  1.00  0.00     0.293 HD
ENDBRANCH   6  22
TORSDOF 4
ENDMDL
MODEL 4
REMARK VINA RESULT:    -5.569      2.758      4.186
REMARK INTER + INTRA:          -6.831
REMARK INTER:                  -6.378
REMARK INTRA:                  -0.453
REMARK UNBOUND:                -0.449
REMARK SMILES O=C1C[C@@H](c2ccc(O)cc2)Oc2cc(O)cc(O)c21
REMARK SMILES IDX 3 1 4 2 12 3 13 4 14 5 15 6 17 7 18 8 20 9 2 10 1 11 5 12
REMARK SMILES IDX 6 13 11 14 7 15 10 16 8 17 9 18 19 20 16 22
REMARK H PARENT 9 19 19 21 16 23
REMARK Flexibility Score: inf
ROOT
ATOM      1  C   UNL     1     174.148 168.358 172.020  1.00  0.00     0.131 C 
ATOM      2  C   UNL     1     174.424 169.291 173.219  1.00  0.00     0.211 C 
ATOM      3  O   UNL     1     173.236 169.932 173.692  1.00  0.00    -0.484 OA
ATOM      4  C   UNL     1     172.121 170.219 172.886  1.00  0.00     0.138 A 
ATOM      5  C   UNL     1     171.048 170.923 173.441  1.00  0.00     0.093 A 
ATOM      6  C   UNL     1     169.899 171.169 172.687  1.00  0.00     0.123 A 
ATOM      7  C   UNL     1     169.854 170.790 171.341  1.00  0.00     0.093 A 
ATOM      8  C   UNL     1     170.922 170.074 170.769  1.00  0.00     0.133 A 
ATOM      9  C   UNL     1     172.062 169.777 171.552  1.00  0.00     0.102 A 
ATOM     10  C   UNL     1     173.205 168.996 171.041  1.00  0.00     0.174 C 
ATOM     11  O   UNL     1     173.391 168.842 169.798  1.00  0.00    -0.294 OA
ENDROOT
BRANCH   2  12
ATOM     12  C   UNL     1     175.499 170.307 172.898  1.00  0.00    -0.007 A 
ATOM     13  C   UNL     1     175.509 171.547 173.575  1.00  0.00     0.011 A 
ATOM     14  C   UNL     1     176.509 170.035 171.938  1.00  0.00     0.011 A 
ATOM     15  C   UNL     1     176.505 172.498 173.299  1.00  0.00     0.046 A 
ATOM     16  C   UNL     1     177.506 170.984 171.673  1.00  0.00     0.046 A 
ATOM     17  C   UNL     1     177.499 172.222 172.339  1.00  0.00     0.115 A 
BRANCH  17  18
ATOM     18  O   UNL     1     178.472 173.185 172.055  1.00  0.00    -0.508 OA
ATOM     19  H   UNL     1     178.632 173.985 172.661  1.00  0.00     0.293 HD
ENDBRANCH  17  18
ENDBRANCH   2  12
BRANCH   8  20
ATOM     20  O   UNL     1     170.825 169.606 169.455  1.00  0.00    -0.507 OA
ATOM     21  H   UNL     1     171.478 168.920 169.085  1.00  0.00     0.293 HD
ENDBRANCH   8  20
BRANCH   6  22
ATOM     22  O   UNL     1     168.777 171.757 173.272  1.00  0.00    -0.508 OA
ATOM     23  H   UNL     1     168.643 171.750 174.274  1.00  0.00     0.293 HD
ENDBRANCH   6  22
TORSDOF 4
ENDMDL
MODEL 5
REMARK VINA RESULT:    -5.488      1.812      6.178
REMARK INTER + INTRA:          -6.738
REMARK INTER:                  -6.308
REMARK INTRA:                  -0.430
REMARK UNBOUND:                -0.449
REMARK SMILES O=C1C[C@@H](c2ccc(O)cc2)Oc2cc(O)cc(O)c21
REMARK SMILES IDX 3 1 4 2 12 3 13 4 14 5 15 6 17 7 18 8 20 9 2 10 1 11 5 12
REMARK SMILES IDX 6 13 11 14 7 15 10 16 8 17 9 18 19 20 16 22
REMARK H PARENT 9 19 19 21 16 23
REMARK Flexibility Score: inf
ROOT
ATOM      1  C   UNL     1     174.400 168.750 172.360  1.00  0.00     0.131 C 
ATOM      2  C   UNL     1     175.097 168.558 170.996  1.00  0.00     0.211 C 
ATOM      3  O   UNL     1     176.380 169.190 170.950  1.00  0.00    -0.484 OA
ATOM      4  C   UNL     1     176.730 170.320 171.707  1.00  0.00     0.138 A 
ATOM      5  C   UNL     1     177.987 170.900 171.517  1.00  0.00     0.093 A 
ATOM      6  C   UNL     1     178.390 171.986 172.297  1.00  0.00     0.123 A 
ATOM      7  C   UNL     1     177.499 172.556 173.212  1.00  0.00     0.093 A 
ATOM      8  C   UNL     1     176.232 171.980 173.420  1.00  0.00     0.133 A 
ATOM      9  C   UNL     1     175.847 170.846 172.668  1.00  0.00     0.102 A 
ATOM     10  C   UNL     1     174.555 170.160 172.856  1.00  0.00     0.174 C 
ATOM     11  O   UNL     1     173.588 170.729 173.441  1.00  0.00    -0.294 OA
ENDROOT
BRANCH   2  12
ATOM     12  C   UNL     1     174.222 169.020 169.852  1.00  0.00    -0.007 A 
ATOM     13  C   UNL     1     172.820 169.063 170.020  1.00  0.00     0.011 A 
ATOM     14  C   UNL     1     174.782 169.427 168.611  1.00  0.00     0.011 A 
ATOM     15  C   UNL     1     171.993 169.500 168.974  1.00  0.00     0.046 A 
ATOM     16  C   UNL     1     173.952 169.872 167.574  1.00  0.00     0.046 A 
ATOM     17  C   UNL     1     172.557 169.895 167.744  1.00  0.00     0.115 A 
BRANCH  17  18
ATOM     18  O   UNL     1     171.722 170.306 166.700  1.00  0.00    -0.508 OA
ATOM     19  H   UNL     1     171.323 171.241 166.665  1.00  0.00     0.293 HD
ENDBRANCH  17  18
ENDBRANCH   2  12
BRANCH   8  20
ATOM     20  O   UNL     1     175.387 172.491 174.411  1.00  0.00    -0.507 OA
ATOM     21  H   UNL     1     174.519 172.026 174.662  1.00  0.00     0.293 HD
ENDBRANCH   8  20
BRANCH   6  22
ATOM     22  O   UNL     1     179.689 172.486 172.201  1.00  0.00    -0.508 OA
ATOM     23  H   UNL     1     180.234 172.697 173.026  1.00  0.00     0.293 HD
ENDBRANCH   6  22
TORSDOF 4
ENDMDL
MODEL 6
REMARK VINA RESULT:    -5.386      2.761      5.892
REMARK INTER + INTRA:          -6.621
REMARK INTER:                  -6.227
REMARK INTRA:                  -0.394
REMARK UNBOUND:                -0.449
REMARK SMILES O=C1C[C@@H](c2ccc(O)cc2)Oc2cc(O)cc(O)c21
REMARK SMILES IDX 3 1 4 2 12 3 13 4 14 5 15 6 17 7 18 8 20 9 2 10 1 11 5 12
REMARK SMILES IDX 6 13 11 14 7 15 10 16 8 17 9 18 19 20 16 22
REMARK H PARENT 9 19 19 21 16 23
REMARK Flexibility Score: inf
ROOT
ATOM      1  C   UNL     1     174.615 169.220 170.562  1.00  0.00     0.131 C 
ATOM      2  C   UNL     1     173.829 169.324 171.886  1.00  0.00     0.211 C 
ATOM      3  O   UNL     1     174.268 170.422 172.691  1.00  0.00    -0.484 OA
ATOM      4  C   UNL     1     175.570 170.950 172.663  1.00  0.00     0.138 A 
ATOM      5  C   UNL     1     175.907 171.972 173.555  1.00  0.00     0.093 A 
ATOM      6  C   UNL     1     177.172 172.561 173.510  1.00  0.00     0.123 A 
ATOM      7  C   UNL     1     178.140 172.067 172.630  1.00  0.00     0.093 A 
ATOM      8  C   UNL     1     177.815 171.044 171.720  1.00  0.00     0.133 A 
ATOM      9  C   UNL     1     176.516 170.486 171.729  1.00  0.00     0.102 A 
ATOM     10  C   UNL     1     176.084 169.442 170.782  1.00  0.00     0.174 C 
ATOM     11  O   UNL     1     176.927 168.746 170.142  1.00  0.00    -0.294 OA
ENDROOT
BRANCH   2  12
ATOM     12  C   UNL     1     173.873 168.027 172.665  1.00  0.00    -0.007 A 
ATOM     13  C   UNL     1     174.215 166.828 172.001  1.00  0.00     0.011 A 
ATOM     14  C   UNL     1     173.590 167.991 174.056  1.00  0.00     0.011 A 
ATOM     15  C   UNL     1     174.271 165.617 172.709  1.00  0.00     0.046 A 
ATOM     16  C   UNL     1     173.658 166.781 174.760  1.00  0.00     0.046 A 
ATOM     17  C   UNL     1     173.983 165.590 174.088  1.00  0.00     0.115 A 
BRANCH  17  18
ATOM     18  O   UNL     1     174.019 164.375 174.779  1.00  0.00    -0.508 OA
ATOM     19  H   UNL     1     173.263 164.080 175.392  1.00  0.00     0.293 HD
ENDBRANCH  17  18
ENDBRANCH   2  12
BRANCH   8  20
ATOM     20  O   UNL     1     178.756 170.629 170.772  1.00  0.00    -0.507 OA
ATOM     21  H   UNL     1     179.698 170.359 171.040  1.00  0.00     0.293 HD
ENDBRANCH   8  20
BRANCH   6  22
ATOM     22  O   UNL     1     177.470 173.664 174.310  1.00  0.00    -0.508 OA
ATOM     23  H   UNL     1     177.598 174.584 173.911  1.00  0.00     0.293 HD
ENDBRANCH   6  22
TORSDOF 4
ENDMDL
MODEL 7
REMARK VINA RESULT:    -5.243      2.279      6.151
REMARK INTER + INTRA:          -6.458
REMARK INTER:                  -6.031
REMARK INTRA:                  -0.427
REMARK UNBOUND:                -0.449
REMARK SMILES O=C1C[C@@H](c2ccc(O)cc2)Oc2cc(O)cc(O)c21
REMARK SMILES IDX 3 1 4 2 12 3 13 4 14 5 15 6 17 7 18 8 20 9 2 10 1 11 5 12
REMARK SMILES IDX 6 13 11 14 7 15 10 16 8 17 9 18 19 20 16 22
REMARK H PARENT 9 19 19 21 16 23
REMARK Flexibility Score: inf
ROOT
ATOM      1  C   UNL     1     173.802 169.454 171.423  1.00  0.00     0.131 C 
ATOM      2  C   UNL     1     174.680 168.317 171.991  1.00  0.00     0.211 C 
ATOM      3  O   UNL     1     175.723 168.810 172.838  1.00  0.00    -0.484 OA
ATOM      4  C   UNL     1     176.305 170.083 172.713  1.00  0.00     0.138 A 
ATOM      5  C   UNL     1     177.374 170.423 173.547  1.00  0.00     0.093 A 
ATOM      6  C   UNL     1     177.933 171.702 173.493  1.00  0.00     0.123 A 
ATOM      7  C   UNL     1     177.484 172.619 172.537  1.00  0.00     0.093 A 
ATOM      8  C   UNL     1     176.404 172.295 171.695  1.00  0.00     0.133 A 
ATOM      9  C   UNL     1     175.802 171.019 171.790  1.00  0.00     0.102 A 
ATOM     10  C   UNL     1     174.641 170.616 170.975  1.00  0.00     0.174 C 
ATOM     11  O   UNL     1     174.332 171.243 169.919  1.00  0.00    -0.294 OA
ENDROOT
BRANCH   2  12
ATOM     12  C   UNL     1     175.241 167.443 170.890  1.00  0.00    -0.007 A 
ATOM     13  C   UNL     1     176.383 166.652 171.143  1.00  0.00     0.011 A 
ATOM     14  C   UNL     1     174.634 167.391 169.607  1.00  0.00     0.011 A 
ATOM     15  C   UNL     1     176.911 165.827 170.138  1.00  0.00     0.046 A 
ATOM     16  C   UNL     1     175.160 166.558 168.611  1.00  0.00     0.046 A 
ATOM     17  C   UNL     1     176.306 165.787 168.866  1.00  0.00     0.115 A 
BRANCH  17  18
ATOM     18  O   UNL     1     176.855 164.980 167.864  1.00  0.00    -0.508 OA
ATOM     19  H   UNL     1     177.836 164.715 167.862  1.00  0.00     0.293 HD
ENDBRANCH  17  18
ENDBRANCH   2  12
BRANCH   8  20
ATOM     20  O   UNL     1     175.892 173.254 170.816  1.00  0.00    -0.507 OA
ATOM     21  H   UNL     1     176.405 173.546 169.989  1.00  0.00     0.293 HD
ENDBRANCH   8  20
BRANCH   6  22
ATOM     22  O   UNL     1     178.912 172.087 174.408  1.00  0.00    -0.508 OA
ATOM     23  H   UNL     1     178.862 171.812 175.380  1.00  0.00     0.293 HD
ENDBRANCH   6  22
TORSDOF 4
ENDMDL
MODEL 8
REMARK VINA RESULT:    -5.197      1.501      2.009
REMARK INTER + INTRA:          -6.405
REMARK INTER:                  -6.348
REMARK INTRA:                  -0.057
REMARK UNBOUND:                -0.449
REMARK SMILES O=C1C[C@@H](c2ccc(O)cc2)Oc2cc(O)cc(O)c21
REMARK SMILES IDX 3 1 4 2 12 3 13 4 14 5 15 6 17 7 18 8 20 9 2 10 1 11 5 12
REMARK SMILES IDX 6 13 11 14 7 15 10 16 8 17 9 18 19 20 16 22
REMARK H PARENT 9 19 19 21 16 23
REMARK Flexibility Score: inf
ROOT
ATOM      1  C   UNL     1     174.553 168.835 172.892  1.00  0.00     0.131 C 
ATOM      2  C   UNL     1     174.494 170.264 172.310  1.00  0.00     0.211 C 
ATOM      3  O   UNL     1     174.132 170.270 170.926  1.00  0.00    -0.484 OA
ATOM      4  C   UNL     1     174.397 169.215 170.037  1.00  0.00     0.138 A 
ATOM      5  C   UNL     1     174.069 169.368 168.686  1.00  0.00     0.093 A 
ATOM      6  C   UNL     1     174.260 168.316 167.789  1.00  0.00     0.123 A 
ATOM      7  C   UNL     1     174.867 167.133 168.221  1.00  0.00     0.093 A 
ATOM      8  C   UNL     1     175.196 166.959 169.578  1.00  0.00     0.133 A 
ATOM      9  C   UNL     1     174.950 168.006 170.497  1.00  0.00     0.102 A 
ATOM     10  C   UNL     1     175.227 167.888 171.940  1.00  0.00     0.174 C 
ATOM     11  O   UNL     1     176.005 166.995 172.389  1.00  0.00    -0.294 OA
ENDROOT
BRANCH   2  12
ATOM     12  C   UNL     1     175.790 171.012 172.537  1.00  0.00    -0.007 A 
ATOM     13  C   UNL     1     176.920 170.703 171.747  1.00  0.00     0.011 A 
ATOM     14  C   UNL     1     175.891 172.032 173.521  1.00  0.00     0.011 A 
ATOM     15  C   UNL     1     178.127 171.395 171.936  1.00  0.00     0.046 A 
ATOM     16  C   UNL     1     177.096 172.725 173.698  1.00  0.00     0.046 A 
ATOM     17  C   UNL     1     178.220 172.400 172.919  1.00  0.00     0.115 A 
BRANCH  17  18
ATOM     18  O   UNL     1     179.434 173.066 173.115  1.00  0.00    -0.508 OA
ATOM     19  H   UNL     1     179.958 172.988 173.983  1.00  0.00     0.293 HD
ENDBRANCH  17  18
ENDBRANCH   2  12
BRANCH   8  20
ATOM     20  O   UNL     1     175.704 165.734 170.022  1.00  0.00    -0.507 OA
ATOM     21  H   UNL     1     175.341 164.850 169.675  1.00  0.00     0.293 HD
ENDBRANCH   8  20
BRANCH   6  22
ATOM     22  O   UNL     1     173.818 168.419 166.470  1.00  0.00    -0.508 OA
ATOM     23  H   UNL     1     172.832 168.421 166.244  1.00  0.00     0.293 HD
ENDBRANCH   6  22
TORSDOF 4
ENDMDL
MODEL 9
REMARK VINA RESULT:    -5.127      2.740      5.835
REMARK INTER + INTRA:          -6.325
REMARK INTER:                  -5.868
REMARK INTRA:                  -0.457
REMARK UNBOUND:                -0.449
REMARK SMILES O=C1C[C@@H](c2ccc(O)cc2)Oc2cc(O)cc(O)c21
REMARK SMILES IDX 3 1 4 2 12 3 13 4 14 5 15 6 17 7 18 8 20 9 2 10 1 11 5 12
REMARK SMILES IDX 6 13 11 14 7 15 10 16 8 17 9 18 19 20 16 22
REMARK H PARENT 9 19 19 21 16 23
REMARK Flexibility Score: inf
ROOT
ATOM      1  C   UNL     1     175.338 168.337 171.408  1.00  0.00     0.131 C 
ATOM      2  C   UNL     1     174.343 169.329 170.767  1.00  0.00     0.211 C 
ATOM      3  O   UNL     1     174.890 170.646 170.653  1.00  0.00    -0.484 OA
ATOM      4  C   UNL     1     175.870 171.170 171.512  1.00  0.00     0.138 A 
ATOM      5  C   UNL     1     176.269 172.501 171.353  1.00  0.00     0.093 A 
ATOM      6  C   UNL     1     177.286 173.033 172.148  1.00  0.00     0.123 A 
ATOM      7  C   UNL     1     177.848 172.262 173.171  1.00  0.00     0.093 A 
ATOM      8  C   UNL     1     177.463 170.919 173.340  1.00  0.00     0.133 A 
ATOM      9  C   UNL     1     176.472 170.365 172.496  1.00  0.00     0.102 A 
ATOM     10  C   UNL     1     176.043 168.956 172.581  1.00  0.00     0.174 C 
ATOM     11  O   UNL     1     176.275 168.260 173.612  1.00  0.00    -0.294 OA
ENDROOT
BRANCH   2  12
ATOM     12  C   UNL     1     173.022 169.350 171.507  1.00  0.00    -0.007 A 
ATOM     13  C   UNL     1     172.238 170.525 171.497  1.00  0.00     0.011 A 
ATOM     14  C   UNL     1     172.547 168.207 172.201  1.00  0.00     0.011 A 
ATOM     15  C   UNL     1     171.006 170.560 172.168  1.00  0.00     0.046 A 
ATOM     16  C   UNL     1     171.311 168.245 172.861  1.00  0.00     0.046 A 
ATOM     17  C   UNL     1     170.545 169.423 172.861  1.00  0.00     0.115 A 
BRANCH  17  18
ATOM     18  O   UNL     1     169.327 169.476 173.545  1.00  0.00    -0.508 OA
ATOM     19  H   UNL     1     168.840 168.636 173.847  1.00  0.00     0.293 HD
ENDBRANCH  17  18
ENDBRANCH   2  12
BRANCH   8  20
ATOM     20  O   UNL     1     178.104 170.124 174.294  1.00  0.00    -0.507 OA
ATOM     21  H   UNL     1     178.487 169.213 174.057  1.00  0.00     0.293 HD
ENDBRANCH   8  20
BRANCH   6  22
ATOM     22  O   UNL     1     177.775 174.318 171.909  1.00  0.00    -0.508 OA
ATOM     23  H   UNL     1     177.495 174.843 171.092  1.00  0.00     0.293 HD
ENDBRANCH   6  22
TORSDOF 4
ENDMDL
