MODEL 1
REMARK VINA RESULT:    -4.593      0.000      0.000
REMARK INTER + INTRA:          -4.728
REMARK INTER:                  -4.728
REMARK INTRA:                   0.000
REMARK UNBOUND:                 0.000
REMARK SMILES O=c1ccc2ccc(O)cc2o1
REMARK SMILES IDX 6 1 7 2 8 3 10 4 11 5 5 6 4 7 3 8 2 9 1 10 12 11 9 12
REMARK H PARENT 9 13
REMARK Flexibility Score: inf
ROOT
ATOM      1  C   UNL     1      11.937  11.884  20.053  1.00  0.00     0.016 A 
ATOM      2  C   UNL     1      10.623  11.875  19.574  1.00  0.00     0.047 A 
ATOM      3  C   UNL     1      10.075  13.025  18.991  1.00  0.00     0.119 A 
ATOM      4  C   UNL     1      10.845  14.193  18.887  1.00  0.00     0.094 A 
ATOM      5  C   UNL     1      12.161  14.211  19.364  1.00  0.00     0.142 A 
ATOM      6  C   UNL     1      12.710  13.049  19.951  1.00  0.00     0.018 A 
ATOM      7  C   UNL     1      14.027  13.098  20.419  1.00  0.00     0.019 A 
ATOM      8  C   UNL     1      14.754  14.282  20.294  1.00  0.00     0.094 A 
ATOM      9  C   UNL     1      14.145  15.393  19.701  1.00  0.00     0.336 A 
ATOM     10  O   UNL     1      14.785  16.469  19.579  1.00  0.00    -0.246 OA
ATOM     11  O   UNL     1      12.890  15.320  19.264  1.00  0.00    -0.423 OA
ENDROOT
BRANCH   3  12
ATOM     12  O   UNL     1       8.765  12.995  18.519  1.00  0.00    -0.508 OA
ATOM     13  H   UNL     1       7.991  12.738  19.121  1.00  0.00     0.293 HD
ENDBRANCH   3  12
TORSDOF 1
ENDMDL
MODEL 2
REMARK VINA RESULT:    -4.360      3.089      4.464
REMARK INTER + INTRA:          -4.488
REMARK INTER:                  -4.488
REMARK INTRA:                   0.000
REMARK UNBOUND:                 0.000
REMARK SMILES O=c1ccc2ccc(O)cc2o1
REMARK SMILES IDX 6 1 7 2 8 3 10 4 11 5 5 6 4 7 3 8 2 9 1 10 12 11 9 12
REMARK H PARENT 9 13
REMARK Flexibility Score: inf
ROOT
ATOM      1  C   UNL     1      13.109  15.321  21.590  1.00  0.00     0.016 A 
ATOM      2  C   UNL     1      13.213  15.372  20.196  1.00  0.00     0.047 A 
ATOM      3  C   UNL     1      12.340  14.626  19.395  1.00  0.00     0.119 A 
ATOM      4  C   UNL     1      11.357  13.822  19.990  1.00  0.00     0.094 A 
ATOM      5  C   UNL     1      11.246  13.764  21.384  1.00  0.00     0.142 A 
ATOM      6  C   UNL     1      12.129  14.519  22.189  1.00  0.00     0.018 A 
ATOM      7  C   UNL     1      11.994  14.440  23.579  1.00  0.00     0.019 A 
ATOM      8  C   UNL     1      11.001  13.627  24.125  1.00  0.00     0.094 A 
ATOM      9  C   UNL     1      10.163  12.909  23.266  1.00  0.00     0.336 A 
ATOM     10  O   UNL     1       9.262  12.170  23.740  1.00  0.00    -0.246 OA
ATOM     11  O   UNL     1      10.312  13.001  21.947  1.00  0.00    -0.423 OA
ENDROOT
BRANCH   3  12
ATOM     12  O   UNL     1      12.459  14.691  18.008  1.00  0.00    -0.508 OA
ATOM     13  H   UNL     1      12.506  15.579  17.522  1.00  0.00     0.293 HD
ENDBRANCH   3  12
TORSDOF 1
ENDMDL
MODEL 3
REMARK VINA RESULT:    -4.308      1.994      2.377
REMARK INTER + INTRA:          -4.434
REMARK INTER:                  -4.434
REMARK INTRA:                   0.000
REMARK UNBOUND:                 0.000
REMARK SMILES O=c1ccc2ccc(O)cc2o1
REMARK SMILES IDX 6 1 7 2 8 3 10 4 11 5 5 6 4 7 3 8 2 9 1 10 12 11 9 12
REMARK H PARENT 9 13
REMARK Flexibility Score: inf
ROOT
ATOM      1  C   UNL     1      12.362  13.935  18.834  1.00  0.00     0.016 A 
ATOM      2  C   UNL     1      11.314  13.043  19.086  1.00  0.00     0.047 A 
ATOM      3  C   UNL     1      10.808  12.896  20.384  1.00  0.00     0.119 A 
ATOM      4  C   UNL     1      11.354  13.643  21.438  1.00  0.00     0.094 A 
ATOM      5  C   UNL     1      12.402  14.538  21.195  1.00  0.00     0.142 A 
ATOM      6  C   UNL     1      12.910  14.684  19.884  1.00  0.00     0.018 A 
ATOM      7  C   UNL     1      13.958  15.585  19.673  1.00  0.00     0.019 A 
ATOM      8  C   UNL     1      14.468  16.306  20.752  1.00  0.00     0.094 A 
ATOM      9  C   UNL     1      13.916  16.110  22.021  1.00  0.00     0.336 A 
ATOM     10  O   UNL     1      14.362  16.753  23.007  1.00  0.00    -0.246 OA
ATOM     11  O   UNL     1      12.918  15.247  22.196  1.00  0.00    -0.423 OA
ENDROOT
BRANCH   3  12
ATOM     12  O   UNL     1       9.764  12.003  20.614  1.00  0.00    -0.508 OA
ATOM     13  H   UNL     1       8.893  12.304  21.038  1.00  0.00     0.293 HD
ENDBRANCH   3  12
TORSDOF 1
ENDMDL
MODEL 4
REMARK VINA RESULT:    -4.289      2.049      4.896
REMARK INTER + INTRA:          -4.414
REMARK INTER:                  -4.414
REMARK INTRA:                   0.000
REMARK UNBOUND:                 0.000
REMARK SMILES O=c1ccc2ccc(O)cc2o1
REMARK SMILES IDX 6 1 7 2 8 3 10 4 11 5 5 6 4 7 3 8 2 9 1 10 12 11 9 12
REMARK H PARENT 9 13
REMARK Flexibility Score: inf
ROOT
ATOM      1  C   UNL     1      14.547  16.003  19.626  1.00  0.00     0.016 A 
ATOM      2  C   UNL     1      15.109  16.651  20.731  1.00  0.00     0.047 A 
ATOM      3  C   UNL     1      14.548  16.491  22.004  1.00  0.00     0.119 A 
ATOM      4  C   UNL     1      13.417  15.680  22.175  1.00  0.00     0.094 A 
ATOM      5  C   UNL     1      12.848  15.028  21.075  1.00  0.00     0.142 A 
ATOM      6  C   UNL     1      13.416  15.191  19.792  1.00  0.00     0.018 A 
ATOM      7  C   UNL     1      12.825  14.528  18.713  1.00  0.00     0.019 A 
ATOM      8  C   UNL     1      11.701  13.732  18.931  1.00  0.00     0.094 A 
ATOM      9  C   UNL     1      11.193  13.616  20.229  1.00  0.00     0.336 A 
ATOM     10  O   UNL     1      10.181  12.902  20.446  1.00  0.00    -0.246 OA
ATOM     11  O   UNL     1      11.775  14.258  21.240  1.00  0.00    -0.423 OA
ENDROOT
BRANCH   3  12
ATOM     12  O   UNL     1      15.123  17.145  23.093  1.00  0.00    -0.508 OA
ATOM     13  H   UNL     1      15.899  16.740  23.604  1.00  0.00     0.293 HD
ENDBRANCH   3  12
TORSDOF 1
ENDMDL
MODEL 5
REMARK VINA RESULT:    -4.203      1.531      4.417
REMARK INTER + INTRA:          -4.326
REMARK INTER:                  -4.326
REMARK INTRA:                   0.000
REMARK UNBOUND:                 0.000
REMARK SMILES O=c1ccc2ccc(O)cc2o1
REMARK SMILES IDX 6 1 7 2 8 3 10 4 11 5 5 6 4 7 3 8 2 9 1 10 12 11 9 12
REMARK H PARENT 9 13
REMARK Flexibility Score: inf
ROOT
ATOM      1  C   UNL     1      12.969  14.818  21.991  1.00  0.00     0.016 A 
ATOM      2  C   UNL     1      13.932  15.688  21.469  1.00  0.00     0.047 A 
ATOM      3  C   UNL     1      14.035  15.878  20.085  1.00  0.00     0.119 A 
ATOM      4  C   UNL     1      13.171  15.195  19.217  1.00  0.00     0.094 A 
ATOM      5  C   UNL     1      12.204  14.323  19.731  1.00  0.00     0.142 A 
ATOM      6  C   UNL     1      12.103  14.133  21.128  1.00  0.00     0.018 A 
ATOM      7  C   UNL     1      11.128  13.255  21.611  1.00  0.00     0.019 A 
ATOM      8  C   UNL     1      10.292  12.598  20.710  1.00  0.00     0.094 A 
ATOM      9  C   UNL     1      10.449  12.835  19.340  1.00  0.00     0.336 A 
ATOM     10  O   UNL     1       9.704  12.252  18.512  1.00  0.00    -0.246 OA
ATOM     11  O   UNL     1      11.385  13.676  18.906  1.00  0.00    -0.423 OA
ENDROOT
BRANCH   3  12
ATOM     12  O   UNL     1      15.000  16.749  19.584  1.00  0.00    -0.508 OA
ATOM     13  H   UNL     1      15.929  16.798  19.987  1.00  0.00     0.293 HD
ENDBRANCH   3  12
TORSDOF 1
ENDMDL
MODEL 6
REMARK VINA RESULT:    -3.983      2.491      3.130
REMARK INTER + INTRA:          -4.100
REMARK INTER:                  -4.100
REMARK INTRA:                   0.000
REMARK UNBOUND:                 0.000
REMARK SMILES O=c1ccc2ccc(O)cc2o1
REMARK SMILES IDX 6 1 7 2 8 3 10 4 11 5 5 6 4 7 3 8 2 9 1 10 12 11 9 12
REMARK H PARENT 9 13
REMARK Flexibility Score: inf
ROOT
ATOM      1  C   UNL     1      11.762  14.555  19.533  1.00  0.00     0.016 A 
ATOM      2  C   UNL     1      10.600  14.111  18.893  1.00  0.00     0.047 A 
ATOM      3  C   UNL     1       9.898  13.006  19.391  1.00  0.00     0.119 A 
ATOM      4  C   UNL     1      10.360  12.339  20.535  1.00  0.00     0.094 A 
ATOM      5  C   UNL     1      11.522  12.776  21.181  1.00  0.00     0.142 A 
ATOM      6  C   UNL     1      12.228  13.891  20.676  1.00  0.00     0.018 A 
ATOM      7  C   UNL     1      13.386  14.303  21.343  1.00  0.00     0.019 A 
ATOM      8  C   UNL     1      13.807  13.609  22.476  1.00  0.00     0.094 A 
ATOM      9  C   UNL     1      13.057  12.514  22.919  1.00  0.00     0.336 A 
ATOM     10  O   UNL     1      13.421  11.875  23.940  1.00  0.00    -0.246 OA
ATOM     11  O   UNL     1      11.959  12.142  22.267  1.00  0.00    -0.423 OA
ENDROOT
BRANCH   3  12
ATOM     12  O   UNL     1       8.742  12.580  18.740  1.00  0.00    -0.508 OA
ATOM     13  H   UNL     1       8.780  11.927  17.965  1.00  0.00     0.293 HD
ENDBRANCH   3  12
TORSDOF 1
ENDMDL
MODEL 7
REMARK VINA RESULT:    -3.889      2.548      4.440
REMARK INTER + INTRA:          -4.003
REMARK INTER:                  -4.003
REMARK INTRA:                   0.000
REMARK UNBOUND:                 0.000
REMARK SMILES O=c1ccc2ccc(O)cc2o1
REMARK SMILES IDX 6 1 7 2 8 3 10 4 11 5 5 6 4 7 3 8 2 9 1 10 12 11 9 12
REMARK H PARENT 9 13
REMARK Flexibility Score: inf
ROOT
ATOM      1  C   UNL     1      12.139  13.944  19.022  1.00  0.00     0.016 A 
ATOM      2  C   UNL     1      13.160  14.876  18.804  1.00  0.00     0.047 A 
ATOM      3  C   UNL     1      13.739  15.554  19.883  1.00  0.00     0.119 A 
ATOM      4  C   UNL     1      13.296  15.302  21.190  1.00  0.00     0.094 A 
ATOM      5  C   UNL     1      12.275  14.372  21.417  1.00  0.00     0.142 A 
ATOM      6  C   UNL     1      11.693  13.689  20.326  1.00  0.00     0.018 A 
ATOM      7  C   UNL     1      10.674  12.766  20.586  1.00  0.00     0.019 A 
ATOM      8  C   UNL     1      10.266  12.549  21.901  1.00  0.00     0.094 A 
ATOM      9  C   UNL     1      10.889  13.261  22.931  1.00  0.00     0.336 A 
ATOM     10  O   UNL     1      10.535  13.078  24.125  1.00  0.00    -0.246 OA
ATOM     11  O   UNL     1      11.856  14.134  22.658  1.00  0.00    -0.423 OA
ENDROOT
BRANCH   3  12
ATOM     12  O   UNL     1      14.755  16.478  19.645  1.00  0.00    -0.508 OA
ATOM     13  H   UNL     1      14.803  17.000  18.777  1.00  0.00     0.293 HD
ENDBRANCH   3  12
TORSDOF 1
ENDMDL
MODEL 8
REMARK VINA RESULT:    -3.843      2.894      4.910
REMARK INTER + INTRA:          -3.956
REMARK INTER:                  -3.956
REMARK INTRA:                   0.000
REMARK UNBOUND:                 0.000
REMARK SMILES O=c1ccc2ccc(O)cc2o1
REMARK SMILES IDX 6 1 7 2 8 3 10 4 11 5 5 6 4 7 3 8 2 9 1 10 12 11 9 12
REMARK H PARENT 9 13
REMARK Flexibility Score: inf
ROOT
ATOM      1  C   UNL     1      12.567  14.632  23.939  1.00  0.00     0.016 A 
ATOM      2  C   UNL     1      13.529  15.633  24.113  1.00  0.00     0.047 A 
ATOM      3  C   UNL     1      14.049  16.314  23.005  1.00  0.00     0.119 A 
ATOM      4  C   UNL     1      13.607  15.991  21.714  1.00  0.00     0.094 A 
ATOM      5  C   UNL     1      12.646  14.990  21.530  1.00  0.00     0.142 A 
ATOM      6  C   UNL     1      12.123  14.306  22.650  1.00  0.00     0.018 A 
ATOM      7  C   UNL     1      11.165  13.311  22.435  1.00  0.00     0.019 A 
ATOM      8  C   UNL     1      10.756  13.025  21.133  1.00  0.00     0.094 A 
ATOM      9  C   UNL     1      11.317  13.744  20.072  1.00  0.00     0.336 A 
ATOM     10  O   UNL     1      10.961  13.500  18.890  1.00  0.00    -0.246 OA
ATOM     11  O   UNL     1      12.228  14.686  20.304  1.00  0.00    -0.423 OA
ENDROOT
BRANCH   3  12
ATOM     12  O   UNL     1      15.006  17.308  23.200  1.00  0.00    -0.508 OA
ATOM     13  H   UNL     1      15.513  17.714  22.421  1.00  0.00     0.293 HD
ENDBRANCH   3  12
TORSDOF 1
ENDMDL
MODEL 9
REMARK VINA RESULT:    -3.697      2.408      2.819
REMARK INTER + INTRA:          -3.805
REMARK INTER:                  -3.805
REMARK INTRA:                   0.000
REMARK UNBOUND:                 0.000
REMARK SMILES O=c1ccc2ccc(O)cc2o1
REMARK SMILES IDX 6 1 7 2 8 3 10 4 11 5 5 6 4 7 3 8 2 9 1 10 12 11 9 12
REMARK H PARENT 9 13
REMARK Flexibility Score: inf
ROOT
ATOM      1  C   UNL     1      10.632  12.490  20.433  1.00  0.00     0.016 A 
ATOM      2  C   UNL     1      10.275  12.111  21.731  1.00  0.00     0.047 A 
ATOM      3  C   UNL     1      10.894  12.707  22.837  1.00  0.00     0.119 A 
ATOM      4  C   UNL     1      11.878  13.688  22.645  1.00  0.00     0.094 A 
ATOM      5  C   UNL     1      12.242  14.074  21.349  1.00  0.00     0.142 A 
ATOM      6  C   UNL     1      11.614  13.471  20.236  1.00  0.00     0.018 A 
ATOM      7  C   UNL     1      12.000  13.876  18.955  1.00  0.00     0.019 A 
ATOM      8  C   UNL     1      12.982  14.855  18.813  1.00  0.00     0.094 A 
ATOM      9  C   UNL     1      13.559  15.409  19.961  1.00  0.00     0.336 A 
ATOM     10  O   UNL     1      14.447  16.294  19.853  1.00  0.00    -0.246 OA
ATOM     11  O   UNL     1      13.175  15.005  21.169  1.00  0.00    -0.423 OA
ENDROOT
BRANCH   3  12
ATOM     12  O   UNL     1      10.524  12.316  24.122  1.00  0.00    -0.508 OA
ATOM     13  H   UNL     1      10.146  11.393  24.306  1.00  0.00     0.293 HD
ENDBRANCH   3  12
TORSDOF 1
ENDMDL
