MODEL 1
REMARK VINA RESULT:    -4.751      0.000      0.000
REMARK INTER + INTRA:          -9.838
REMARK INTER:                  -8.640
REMARK INTRA:                  -1.198
REMARK UNBOUND:                -1.198
REMARK SMILES CCCCCCCCCCCCCC[C@@H](C)C(=O)[O-]
REMARK SMILES IDX 9 1 10 2 11 3 12 4 13 5 14 6 15 7 16 8 17 9 18 10 19 11 8 12
REMARK SMILES IDX 7 13 6 14 5 15 4 16 3 17 2 18 1 19
REMARK H PARENT
REMARK Flexibility Score: inf
ROOT
ATOM      1  C   UNL     1     -10.691   3.275 -41.094  1.00  0.00     0.000 C 
ENDROOT
BRANCH   1   2
ATOM      2  C   UNL     1     -12.111   3.210 -41.682  1.00  0.00     0.000 C 
BRANCH   2   3
ATOM      3  C   UNL     1     -13.182   3.694 -40.690  1.00  0.00     0.000 C 
BRANCH   3   4
ATOM      4  C   UNL     1     -13.474   5.201 -40.809  1.00  0.00     0.000 C 
BRANCH   4   5
ATOM      5  C   UNL     1     -14.861   5.562 -41.375  1.00  0.00     0.001 C 
BRANCH   5   6
ATOM      6  C   UNL     1     -16.008   4.807 -40.680  1.00  0.00     0.009 C 
BRANCH   6   7
ATOM      7  C   UNL     1     -17.319   4.832 -41.498  1.00  0.00     0.032 C 
ATOM      8  C   UNL     1     -18.080   3.502 -41.421  1.00  0.00     0.014 C 
BRANCH   7   9
ATOM      9  C   UNL     1     -18.205   5.942 -41.003  1.00  0.00     0.044 C 
ATOM     10  O   UNL     1     -17.834   6.669 -40.045  1.00  0.00    -0.550 OA
ATOM     11  O   UNL     1     -19.436   6.176 -41.604  1.00  0.00    -0.550 OA
ENDBRANCH   7   9
ENDBRANCH   6   7
ENDBRANCH   5   6
ENDBRANCH   4   5
ENDBRANCH   3   4
ENDBRANCH   2   3
ENDBRANCH   1   2
BRANCH   1  12
ATOM     12  C   UNL     1     -10.662   2.953 -39.588  1.00  0.00     0.000 C 
BRANCH  12  13
ATOM     13  C   UNL     1     -10.479   1.453 -39.307  1.00  0.00    -0.000 C 
BRANCH  13  14
ATOM     14  C   UNL     1      -9.765   0.717 -40.456  1.00  0.00    -0.000 C 
BRANCH  14  15
ATOM     15  C   UNL     1     -10.669  -0.319 -41.144  1.00  0.00    -0.000 C 
BRANCH  15  16
ATOM     16  C   UNL     1     -12.075  -0.381 -40.523  1.00  0.00    -0.000 C 
BRANCH  16  17
ATOM     17  C   UNL     1     -12.350  -1.710 -39.797  1.00  0.00    -0.000 C 
BRANCH  17  18
ATOM     18  C   UNL     1     -13.816  -2.176 -39.828  1.00  0.00    -0.003 C 
ATOM     19  C   UNL     1     -14.769  -1.119 -40.387  1.00  0.00     0.004 C 
ENDBRANCH  17  18
ENDBRANCH  16  17
ENDBRANCH  15  16
ENDBRANCH  14  15
ENDBRANCH  13  14
ENDBRANCH  12  13
ENDBRANCH   1  12
TORSDOF 14
ENDMDL
MODEL 2
REMARK VINA RESULT:    -4.622      4.866      7.282
REMARK INTER + INTRA:          -9.603
REMARK INTER:                  -7.100
REMARK INTRA:                  -2.503
REMARK UNBOUND:                -1.198
REMARK SMILES CCCCCCCCCCCCCC[C@@H](C)C(=O)[O-]
REMARK SMILES IDX 9 1 10 2 11 3 12 4 13 5 14 6 15 7 16 8 17 9 18 10 19 11 8 12
REMARK SMILES IDX 7 13 6 14 5 15 4 16 3 17 2 18 1 19
REMARK H PARENT
REMARK Flexibility Score: inf
ROOT
ATOM      1  C   UNL     1     -10.854  -0.005 -35.582  1.00  0.00     0.000 C 
ENDROOT
BRANCH   1   2
ATOM      2  C   UNL     1      -9.458  -0.633 -35.435  1.00  0.00     0.000 C 
BRANCH   2   3
ATOM      3  C   UNL     1      -9.034  -1.425 -36.683  1.00  0.00     0.000 C 
BRANCH   3   4
ATOM      4  C   UNL     1      -9.995  -1.232 -37.872  1.00  0.00     0.000 C 
BRANCH   4   5
ATOM      5  C   UNL     1      -9.832  -2.244 -39.023  1.00  0.00     0.001 C 
BRANCH   5   6
ATOM      6  C   UNL     1     -10.817  -2.002 -40.180  1.00  0.00     0.009 C 
BRANCH   6   7
ATOM      7  C   UNL     1     -11.979  -1.063 -39.785  1.00  0.00     0.032 C 
ATOM      8  C   UNL     1     -12.151   0.099 -40.771  1.00  0.00     0.014 C 
BRANCH   7   9
ATOM      9  C   UNL     1     -13.262  -1.846 -39.710  1.00  0.00     0.044 C 
ATOM     10  O   UNL     1     -13.296  -2.949 -39.103  1.00  0.00    -0.550 OA
ATOM     11  O   UNL     1     -14.418  -1.357 -40.306  1.00  0.00    -0.550 OA
ENDBRANCH   7   9
ENDBRANCH   6   7
ENDBRANCH   5   6
ENDBRANCH   4   5
ENDBRANCH   3   4
ENDBRANCH   2   3
ENDBRANCH   1   2
BRANCH   1  12
ATOM     12  C   UNL     1     -10.816   1.534 -35.534  1.00  0.00     0.000 C 
BRANCH  12  13
ATOM     13  C   UNL     1      -9.389   2.094 -35.651  1.00  0.00    -0.000 C 
BRANCH  13  14
ATOM     14  C   UNL     1      -9.211   3.012 -36.874  1.00  0.00    -0.000 C 
BRANCH  14  15
ATOM     15  C   UNL     1     -10.531   3.259 -37.622  1.00  0.00    -0.000 C 
BRANCH  15  16
ATOM     16  C   UNL     1     -10.473   2.804 -39.090  1.00  0.00    -0.000 C 
BRANCH  16  17
ATOM     17  C   UNL     1      -9.036   2.740 -39.639  1.00  0.00    -0.000 C 
BRANCH  17  18
ATOM     18  C   UNL     1      -8.599   1.358 -40.157  1.00  0.00    -0.003 C 
ATOM     19  C   UNL     1      -7.422   0.771 -39.378  1.00  0.00     0.004 C 
ENDBRANCH  17  18
ENDBRANCH  16  17
ENDBRANCH  15  16
ENDBRANCH  14  15
ENDBRANCH  13  14
ENDBRANCH  12  13
ENDBRANCH   1  12
TORSDOF 14
ENDMDL
MODEL 3
REMARK VINA RESULT:    -4.580      3.273      7.068
REMARK INTER + INTRA:          -9.526
REMARK INTER:                  -8.120
REMARK INTRA:                  -1.405
REMARK UNBOUND:                -1.198
REMARK SMILES CCCCCCCCCCCCCC[C@@H](C)C(=O)[O-]
REMARK SMILES IDX 9 1 10 2 11 3 12 4 13 5 14 6 15 7 16 8 17 9 18 10 19 11 8 12
REMARK SMILES IDX 7 13 6 14 5 15 4 16 3 17 2 18 1 19
REMARK H PARENT
REMARK Flexibility Score: inf
ROOT
ATOM      1  C   UNL     1     -12.757   5.464 -40.498  1.00  0.00     0.000 C 
ENDROOT
BRANCH   1   2
ATOM      2  C   UNL     1     -12.962   3.950 -40.323  1.00  0.00     0.000 C 
BRANCH   2   3
ATOM      3  C   UNL     1     -12.361   3.136 -41.481  1.00  0.00     0.000 C 
BRANCH   3   4
ATOM      4  C   UNL     1     -10.973   2.556 -41.152  1.00  0.00     0.000 C 
BRANCH   4   5
ATOM      5  C   UNL     1     -10.982   1.233 -40.361  1.00  0.00     0.001 C 
BRANCH   5   6
ATOM      6  C   UNL     1     -11.955   0.192 -40.944  1.00  0.00     0.009 C 
BRANCH   6   7
ATOM      7  C   UNL     1     -11.912  -1.153 -40.185  1.00  0.00     0.032 C 
ATOM      8  C   UNL     1     -11.163  -1.045 -38.851  1.00  0.00     0.014 C 
BRANCH   7   9
ATOM      9  C   UNL     1     -13.313  -1.639 -39.933  1.00  0.00     0.044 C 
ATOM     10  O   UNL     1     -13.511  -2.657 -39.218  1.00  0.00    -0.550 OA
ATOM     11  O   UNL     1     -14.398  -0.966 -40.481  1.00  0.00    -0.550 OA
ENDBRANCH   7   9
ENDBRANCH   6   7
ENDBRANCH   5   6
ENDBRANCH   4   5
ENDBRANCH   3   4
ENDBRANCH   2   3
ENDBRANCH   1   2
BRANCH   1  12
ATOM     12  C   UNL     1     -13.320   5.984 -41.835  1.00  0.00     0.000 C 
BRANCH  12  13
ATOM     13  C   UNL     1     -13.967   7.373 -41.704  1.00  0.00    -0.000 C 
BRANCH  13  14
ATOM     14  C   UNL     1     -15.263   7.503 -42.523  1.00  0.00    -0.000 C 
BRANCH  14  15
ATOM     15  C   UNL     1     -15.824   6.138 -42.959  1.00  0.00    -0.000 C 
BRANCH  15  16
ATOM     16  C   UNL     1     -17.154   5.798 -42.266  1.00  0.00    -0.000 C 
BRANCH  16  17
ATOM     17  C   UNL     1     -16.983   5.477 -40.770  1.00  0.00    -0.000 C 
BRANCH  17  18
ATOM     18  C   UNL     1     -16.632   4.012 -40.456  1.00  0.00    -0.003 C 
ATOM     19  C   UNL     1     -17.785   3.047 -40.732  1.00  0.00     0.004 C 
ENDBRANCH  17  18
ENDBRANCH  16  17
ENDBRANCH  15  16
ENDBRANCH  14  15
ENDBRANCH  13  14
ENDBRANCH  12  13
ENDBRANCH   1  12
TORSDOF 14
ENDMDL
MODEL 4
REMARK VINA RESULT:    -4.571      5.000      7.660
REMARK INTER + INTRA:          -9.511
REMARK INTER:                  -7.164
REMARK INTRA:                  -2.347
REMARK UNBOUND:                -1.198
REMARK SMILES CCCCCCCCCCCCCC[C@@H](C)C(=O)[O-]
REMARK SMILES IDX 9 1 10 2 11 3 12 4 13 5 14 6 15 7 16 8 17 9 18 10 19 11 8 12
REMARK SMILES IDX 7 13 6 14 5 15 4 16 3 17 2 18 1 19
REMARK H PARENT
REMARK Flexibility Score: inf
ROOT
ATOM      1  C   UNL     1      -7.782  -1.542 -35.787  1.00  0.00     0.000 C 
ENDROOT
BRANCH   1   2
ATOM      2  C   UNL     1      -8.586  -2.810 -36.116  1.00  0.00     0.000 C 
BRANCH   2   3
ATOM      3  C   UNL     1      -8.721  -3.047 -37.629  1.00  0.00     0.000 C 
BRANCH   3   4
ATOM      4  C   UNL     1      -8.398  -1.794 -38.465  1.00  0.00     0.000 C 
BRANCH   4   5
ATOM      5  C   UNL     1      -9.561  -1.253 -39.319  1.00  0.00     0.001 C 
BRANCH   5   6
ATOM      6  C   UNL     1     -10.870  -2.037 -39.117  1.00  0.00     0.009 C 
BRANCH   6   7
ATOM      7  C   UNL     1     -12.125  -1.189 -39.422  1.00  0.00     0.032 C 
ATOM      8  C   UNL     1     -11.968  -0.354 -40.700  1.00  0.00     0.014 C 
BRANCH   7   9
ATOM      9  C   UNL     1     -13.325  -2.086 -39.558  1.00  0.00     0.044 C 
ATOM     10  O   UNL     1     -13.274  -3.277 -39.151  1.00  0.00    -0.550 OA
ATOM     11  O   UNL     1     -14.498  -1.607 -40.128  1.00  0.00    -0.550 OA
ENDBRANCH   7   9
ENDBRANCH   6   7
ENDBRANCH   5   6
ENDBRANCH   4   5
ENDBRANCH   3   4
ENDBRANCH   2   3
ENDBRANCH   1   2
BRANCH   1  12
ATOM     12  C   UNL     1      -8.654  -0.437 -35.161  1.00  0.00     0.000 C 
BRANCH  12  13
ATOM     13  C   UNL     1     -10.151  -0.786 -35.176  1.00  0.00    -0.000 C 
BRANCH  13  14
ATOM     14  C   UNL     1     -11.011   0.319 -35.815  1.00  0.00    -0.000 C 
BRANCH  14  15
ATOM     15  C   UNL     1     -10.675   1.717 -35.270  1.00  0.00    -0.000 C 
BRANCH  15  16
ATOM     16  C   UNL     1     -10.313   2.714 -36.384  1.00  0.00    -0.000 C 
BRANCH  16  17
ATOM     17  C   UNL     1      -9.919   2.021 -37.701  1.00  0.00    -0.000 C 
BRANCH  17  18
ATOM     18  C   UNL     1     -10.463   2.692 -38.975  1.00  0.00    -0.003 C 
ATOM     19  C   UNL     1      -9.620   2.396 -40.215  1.00  0.00     0.004 C 
ENDBRANCH  17  18
ENDBRANCH  16  17
ENDBRANCH  15  16
ENDBRANCH  14  15
ENDBRANCH  13  14
ENDBRANCH  12  13
ENDBRANCH   1  12
TORSDOF 14
ENDMDL
MODEL 5
REMARK VINA RESULT:    -4.512      5.305      7.696
REMARK INTER + INTRA:          -9.402
REMARK INTER:                  -7.420
REMARK INTRA:                  -1.982
REMARK UNBOUND:                -1.198
REMARK SMILES CCCCCCCCCCCCCC[C@@H](C)C(=O)[O-]
REMARK SMILES IDX 9 1 10 2 11 3 12 4 13 5 14 6 15 7 16 8 17 9 18 10 19 11 8 12
REMARK SMILES IDX 7 13 6 14 5 15 4 16 3 17 2 18 1 19
REMARK H PARENT
REMARK Flexibility Score: inf
ROOT
ATOM      1  C   UNL     1      -9.777   2.507 -36.664  1.00  0.00     0.000 C 
ENDROOT
BRANCH   1   2
ATOM      2  C   UNL     1     -10.617   1.800 -35.587  1.00  0.00     0.000 C 
BRANCH   2   3
ATOM      3  C   UNL     1     -10.398   0.278 -35.574  1.00  0.00     0.000 C 
BRANCH   3   4
ATOM      4  C   UNL     1     -10.541  -0.362 -36.968  1.00  0.00     0.000 C 
BRANCH   4   5
ATOM      5  C   UNL     1      -9.385  -1.288 -37.391  1.00  0.00     0.001 C 
BRANCH   5   6
ATOM      6  C   UNL     1      -8.657  -0.801 -38.657  1.00  0.00     0.009 C 
BRANCH   6   7
ATOM      7  C   UNL     1      -8.399  -1.939 -39.670  1.00  0.00     0.032 C 
ATOM      8  C   UNL     1      -9.550  -2.952 -39.714  1.00  0.00     0.014 C 
BRANCH   7   9
ATOM      9  C   UNL     1      -8.192  -1.360 -41.043  1.00  0.00     0.044 C 
ATOM     10  O   UNL     1      -8.666  -1.942 -42.054  1.00  0.00    -0.550 OA
ATOM     11  O   UNL     1      -7.481  -0.177 -41.205  1.00  0.00    -0.550 OA
ENDBRANCH   7   9
ENDBRANCH   6   7
ENDBRANCH   5   6
ENDBRANCH   4   5
ENDBRANCH   3   4
ENDBRANCH   2   3
ENDBRANCH   1   2
BRANCH   1  12
ATOM     12  C   UNL     1     -10.621   3.445 -37.547  1.00  0.00     0.000 C 
BRANCH  12  13
ATOM     13  C   UNL     1     -10.337   3.260 -39.047  1.00  0.00    -0.000 C 
BRANCH  13  14
ATOM     14  C   UNL     1     -11.621   3.246 -39.896  1.00  0.00    -0.000 C 
BRANCH  14  15
ATOM     15  C   UNL     1     -11.544   2.248 -41.064  1.00  0.00    -0.000 C 
BRANCH  15  16
ATOM     16  C   UNL     1     -11.076   0.853 -40.618  1.00  0.00    -0.000 C 
BRANCH  16  17
ATOM     17  C   UNL     1     -12.089  -0.255 -40.961  1.00  0.00    -0.000 C 
BRANCH  17  18
ATOM     18  C   UNL     1     -12.548  -1.108 -39.765  1.00  0.00    -0.003 C 
ATOM     19  C   UNL     1     -13.931  -1.726 -39.966  1.00  0.00     0.004 C 
ENDBRANCH  17  18
ENDBRANCH  16  17
ENDBRANCH  15  16
ENDBRANCH  14  15
ENDBRANCH  13  14
ENDBRANCH  12  13
ENDBRANCH   1  12
TORSDOF 14
ENDMDL
MODEL 6
REMARK VINA RESULT:    -4.497      1.976      2.952
REMARK INTER + INTRA:          -9.375
REMARK INTER:                  -8.185
REMARK INTRA:                  -1.189
REMARK UNBOUND:                -1.198
REMARK SMILES CCCCCCCCCCCCCC[C@@H](C)C(=O)[O-]
REMARK SMILES IDX 9 1 10 2 11 3 12 4 13 5 14 6 15 7 16 8 17 9 18 10 19 11 8 12
REMARK SMILES IDX 7 13 6 14 5 15 4 16 3 17 2 18 1 19
REMARK H PARENT
REMARK Flexibility Score: inf
ROOT
ATOM      1  C   UNL     1     -11.956   1.894 -41.052  1.00  0.00     0.000 C 
ENDROOT
BRANCH   1   2
ATOM      2  C   UNL     1     -12.035   3.332 -41.592  1.00  0.00     0.000 C 
BRANCH   2   3
ATOM      3  C   UNL     1     -12.690   4.301 -40.592  1.00  0.00     0.000 C 
BRANCH   3   4
ATOM      4  C   UNL     1     -14.213   4.426 -40.788  1.00  0.00     0.000 C 
BRANCH   4   5
ATOM      5  C   UNL     1     -14.655   5.143 -42.079  1.00  0.00     0.001 C 
BRANCH   5   6
ATOM      6  C   UNL     1     -16.182   5.313 -42.179  1.00  0.00     0.009 C 
BRANCH   6   7
ATOM      7  C   UNL     1     -16.898   5.059 -40.834  1.00  0.00     0.032 C 
ATOM      8  C   UNL     1     -17.807   6.226 -40.427  1.00  0.00     0.014 C 
BRANCH   7   9
ATOM      9  C   UNL     1     -17.715   3.799 -40.923  1.00  0.00     0.044 C 
ATOM     10  O   UNL     1     -17.331   2.753 -40.337  1.00  0.00    -0.550 OA
ATOM     11  O   UNL     1     -18.900   3.782 -41.648  1.00  0.00    -0.550 OA
ENDBRANCH   7   9
ENDBRANCH   6   7
ENDBRANCH   5   6
ENDBRANCH   4   5
ENDBRANCH   3   4
ENDBRANCH   2   3
ENDBRANCH   1   2
BRANCH   1  12
ATOM     12  C   UNL     1     -10.611   1.217 -41.378  1.00  0.00     0.000 C 
BRANCH  12  13
ATOM     13  C   UNL     1     -10.696  -0.318 -41.336  1.00  0.00    -0.000 C 
BRANCH  13  14
ATOM     14  C   UNL     1     -11.912  -0.822 -40.538  1.00  0.00    -0.000 C 
BRANCH  14  15
ATOM     15  C   UNL     1     -11.506  -1.625 -39.291  1.00  0.00    -0.000 C 
BRANCH  15  16
ATOM     16  C   UNL     1     -10.826  -0.752 -38.222  1.00  0.00    -0.000 C 
BRANCH  16  17
ATOM     17  C   UNL     1      -9.449  -1.294 -37.796  1.00  0.00    -0.000 C 
BRANCH  17  18
ATOM     18  C   UNL     1      -8.866  -2.382 -38.715  1.00  0.00    -0.003 C 
ATOM     19  C   UNL     1      -7.801  -1.849 -39.674  1.00  0.00     0.004 C 
ENDBRANCH  17  18
ENDBRANCH  16  17
ENDBRANCH  15  16
ENDBRANCH  14  15
ENDBRANCH  13  14
ENDBRANCH  12  13
ENDBRANCH   1  12
TORSDOF 14
ENDMDL
MODEL 7
REMARK VINA RESULT:    -4.491      1.583      2.279
REMARK INTER + INTRA:          -9.364
REMARK INTER:                  -7.995
REMARK INTRA:                  -1.369
REMARK UNBOUND:                -1.198
REMARK SMILES CCCCCCCCCCCCCC[C@@H](C)C(=O)[O-]
REMARK SMILES IDX 9 1 10 2 11 3 12 4 13 5 14 6 15 7 16 8 17 9 18 10 19 11 8 12
REMARK SMILES IDX 7 13 6 14 5 15 4 16 3 17 2 18 1 19
REMARK H PARENT
REMARK Flexibility Score: inf
ROOT
ATOM      1  C   UNL     1     -12.784   3.756 -40.714  1.00  0.00     0.000 C 
ENDROOT
BRANCH   1   2
ATOM      2  C   UNL     1     -12.598   4.989 -41.614  1.00  0.00     0.000 C 
BRANCH   2   3
ATOM      3  C   UNL     1     -12.732   4.652 -43.109  1.00  0.00     0.000 C 
BRANCH   3   4
ATOM      4  C   UNL     1     -14.099   5.051 -43.694  1.00  0.00     0.000 C 
BRANCH   4   5
ATOM      5  C   UNL     1     -15.071   5.721 -42.703  1.00  0.00     0.001 C 
BRANCH   5   6
ATOM      6  C   UNL     1     -16.383   4.937 -42.525  1.00  0.00     0.009 C 
BRANCH   6   7
ATOM      7  C   UNL     1     -16.738   4.702 -41.039  1.00  0.00     0.032 C 
ATOM      8  C   UNL     1     -17.276   5.969 -40.362  1.00  0.00     0.014 C 
BRANCH   7   9
ATOM      9  C   UNL     1     -17.762   3.605 -40.929  1.00  0.00     0.044 C 
ATOM     10  O   UNL     1     -17.489   2.545 -40.307  1.00  0.00    -0.550 OA
ATOM     11  O   UNL     1     -19.017   3.756 -41.507  1.00  0.00    -0.550 OA
ENDBRANCH   7   9
ENDBRANCH   6   7
ENDBRANCH   5   6
ENDBRANCH   4   5
ENDBRANCH   3   4
ENDBRANCH   2   3
ENDBRANCH   1   2
BRANCH   1  12
ATOM     12  C   UNL     1     -12.122   2.494 -41.299  1.00  0.00     0.000 C 
BRANCH  12  13
ATOM     13  C   UNL     1     -10.607   2.449 -41.044  1.00  0.00    -0.000 C 
BRANCH  13  14
ATOM     14  C   UNL     1     -10.261   2.179 -39.569  1.00  0.00    -0.000 C 
BRANCH  14  15
ATOM     15  C   UNL     1     -10.252   0.679 -39.231  1.00  0.00    -0.000 C 
BRANCH  15  16
ATOM     16  C   UNL     1      -9.969  -0.202 -40.460  1.00  0.00    -0.000 C 
BRANCH  16  17
ATOM     17  C   UNL     1     -10.994  -1.337 -40.631  1.00  0.00    -0.000 C 
BRANCH  17  18
ATOM     18  C   UNL     1     -12.458  -0.934 -40.377  1.00  0.00    -0.003 C 
ATOM     19  C   UNL     1     -13.187  -1.889 -39.433  1.00  0.00     0.004 C 
ENDBRANCH  17  18
ENDBRANCH  16  17
ENDBRANCH  15  16
ENDBRANCH  14  15
ENDBRANCH  13  14
ENDBRANCH  12  13
ENDBRANCH   1  12
TORSDOF 14
ENDMDL
MODEL 8
REMARK VINA RESULT:    -4.415      3.917      6.993
REMARK INTER + INTRA:          -9.226
REMARK INTER:                  -7.264
REMARK INTRA:                  -1.961
REMARK UNBOUND:                -1.198
REMARK SMILES CCCCCCCCCCCCCC[C@@H](C)C(=O)[O-]
REMARK SMILES IDX 9 1 10 2 11 3 12 4 13 5 14 6 15 7 16 8 17 9 18 10 19 11 8 12
REMARK SMILES IDX 7 13 6 14 5 15 4 16 3 17 2 18 1 19
REMARK H PARENT
REMARK Flexibility Score: inf
ROOT
ATOM      1  C   UNL     1     -10.409   1.838 -35.159  1.00  0.00     0.000 C 
ENDROOT
BRANCH   1   2
ATOM      2  C   UNL     1     -10.950   0.448 -35.536  1.00  0.00     0.000 C 
BRANCH   2   3
ATOM      3  C   UNL     1      -9.858  -0.634 -35.511  1.00  0.00     0.000 C 
BRANCH   3   4
ATOM      4  C   UNL     1      -9.497  -1.156 -36.915  1.00  0.00     0.000 C 
BRANCH   4   5
ATOM      5  C   UNL     1     -10.489  -0.782 -38.033  1.00  0.00     0.001 C 
BRANCH   5   6
ATOM      6  C   UNL     1     -10.425  -1.737 -39.238  1.00  0.00     0.009 C 
BRANCH   6   7
ATOM      7  C   UNL     1     -11.702  -1.686 -40.106  1.00  0.00     0.032 C 
ATOM      8  C   UNL     1     -12.977  -1.901 -39.280  1.00  0.00     0.014 C 
BRANCH   7   9
ATOM      9  C   UNL     1     -11.784  -0.361 -40.813  1.00  0.00     0.044 C 
ATOM     10  O   UNL     1     -12.851   0.306 -40.786  1.00  0.00    -0.550 OA
ATOM     11  O   UNL     1     -10.682   0.138 -41.496  1.00  0.00    -0.550 OA
ENDBRANCH   7   9
ENDBRANCH   6   7
ENDBRANCH   5   6
ENDBRANCH   4   5
ENDBRANCH   3   4
ENDBRANCH   2   3
ENDBRANCH   1   2
BRANCH   1  12
ATOM     12  C   UNL     1     -10.276   2.769 -36.380  1.00  0.00     0.000 C 
BRANCH  12  13
ATOM     13  C   UNL     1      -8.943   2.581 -37.124  1.00  0.00    -0.000 C 
BRANCH  13  14
ATOM     14  C   UNL     1      -9.104   2.644 -38.653  1.00  0.00    -0.000 C 
BRANCH  14  15
ATOM     15  C   UNL     1     -10.576   2.741 -39.087  1.00  0.00    -0.000 C 
BRANCH  15  16
ATOM     16  C   UNL     1     -10.783   3.713 -40.261  1.00  0.00    -0.000 C 
BRANCH  16  17
ATOM     17  C   UNL     1     -12.239   3.746 -40.761  1.00  0.00    -0.000 C 
BRANCH  17  18
ATOM     18  C   UNL     1     -12.404   3.650 -42.288  1.00  0.00    -0.003 C 
ATOM     19  C   UNL     1     -11.071   3.664 -43.036  1.00  0.00     0.004 C 
ENDBRANCH  17  18
ENDBRANCH  16  17
ENDBRANCH  15  16
ENDBRANCH  14  15
ENDBRANCH  13  14
ENDBRANCH  12  13
ENDBRANCH   1  12
TORSDOF 14
ENDMDL
MODEL 9
REMARK VINA RESULT:    -4.393      3.542      7.123
REMARK INTER + INTRA:          -9.185
REMARK INTER:                  -7.104
REMARK INTRA:                  -2.081
REMARK UNBOUND:                -1.198
REMARK SMILES CCCCCCCCCCCCCC[C@@H](C)C(=O)[O-]
REMARK SMILES IDX 9 1 10 2 11 3 12 4 13 5 14 6 15 7 16 8 17 9 18 10 19 11 8 12
REMARK SMILES IDX 7 13 6 14 5 15 4 16 3 17 2 18 1 19
REMARK H PARENT
REMARK Flexibility Score: inf
ROOT
ATOM      1  C   UNL     1     -16.898   6.368 -45.065  1.00  0.00     0.000 C 
ENDROOT
BRANCH   1   2
ATOM      2  C   UNL     1     -16.167   5.050 -44.759  1.00  0.00     0.000 C 
BRANCH   2   3
ATOM      3  C   UNL     1     -14.809   4.950 -45.474  1.00  0.00     0.000 C 
BRANCH   3   4
ATOM      4  C   UNL     1     -13.614   5.014 -44.504  1.00  0.00     0.000 C 
BRANCH   4   5
ATOM      5  C   UNL     1     -13.975   4.958 -43.007  1.00  0.00     0.001 C 
BRANCH   5   6
ATOM      6  C   UNL     1     -12.773   5.237 -42.088  1.00  0.00     0.009 C 
BRANCH   6   7
ATOM      7  C   UNL     1     -12.868   4.488 -40.740  1.00  0.00     0.032 C 
ATOM      8  C   UNL     1     -12.324   3.056 -40.828  1.00  0.00     0.014 C 
BRANCH   7   9
ATOM      9  C   UNL     1     -12.111   5.245 -39.683  1.00  0.00     0.044 C 
ATOM     10  O   UNL     1     -11.722   4.658 -38.640  1.00  0.00    -0.550 OA
ATOM     11  O   UNL     1     -11.832   6.596 -39.853  1.00  0.00    -0.550 OA
ENDBRANCH   7   9
ENDBRANCH   6   7
ENDBRANCH   5   6
ENDBRANCH   4   5
ENDBRANCH   3   4
ENDBRANCH   2   3
ENDBRANCH   1   2
BRANCH   1  12
ATOM     12  C   UNL     1     -16.083   7.605 -44.643  1.00  0.00     0.000 C 
BRANCH  12  13
ATOM     13  C   UNL     1     -16.704   8.342 -43.444  1.00  0.00    -0.000 C 
BRANCH  13  14
ATOM     14  C   UNL     1     -16.468   7.610 -42.111  1.00  0.00    -0.000 C 
BRANCH  14  15
ATOM     15  C   UNL     1     -17.749   7.492 -41.269  1.00  0.00    -0.000 C 
BRANCH  15  16
ATOM     16  C   UNL     1     -17.661   6.378 -40.212  1.00  0.00    -0.000 C 
BRANCH  16  17
ATOM     17  C   UNL     1     -16.519   5.382 -40.488  1.00  0.00    -0.000 C 
BRANCH  17  18
ATOM     18  C   UNL     1     -16.963   3.919 -40.670  1.00  0.00    -0.003 C 
ATOM     19  C   UNL     1     -18.070   3.754 -41.710  1.00  0.00     0.004 C 
ENDBRANCH  17  18
ENDBRANCH  16  17
ENDBRANCH  15  16
ENDBRANCH  14  15
ENDBRANCH  13  14
ENDBRANCH  12  13
ENDBRANCH   1  12
TORSDOF 14
ENDMDL
