MODEL 1
REMARK VINA RESULT:    -5.059      0.000      0.000
REMARK INTER + INTRA:         -16.105
REMARK INTER:                 -13.340
REMARK INTRA:                  -2.764
REMARK UNBOUND:                -2.764
REMARK SMILES CCCCCCCCCCCCCCCCCCCCCCCCCCCCCC(=O)[O-]
REMARK SMILES IDX 16 1 17 2 18 3 19 4 20 5 21 6 22 7 23 8 24 9 25 10 26 11
REMARK SMILES IDX 27 12 28 13 29 14 30 15 31 16 32 17 15 18 14 19 13 20 12 21
REMARK SMILES IDX 11 22 10 23 9 24 8 25 7 26 6 27 5 28 4 29 3 30 2 31 1 32
REMARK H PARENT
REMARK Flexibility Score: inf
ROOT
ATOM      1  C   UNL     1      66.054  29.451  26.240  1.00  0.00     0.000 C 
ENDROOT
BRANCH   1   2
ATOM      2  C   UNL     1      66.404  30.196  27.540  1.00  0.00     0.000 C 
BRANCH   2   3
ATOM      3  C   UNL     1      65.195  30.333  28.490  1.00  0.00     0.000 C 
BRANCH   3   4
ATOM      4  C   UNL     1      63.829  30.357  27.777  1.00  0.00     0.000 C 
BRANCH   4   5
ATOM      5  C   UNL     1      62.597  30.415  28.700  1.00  0.00     0.000 C 
BRANCH   5   6
ATOM      6  C   UNL     1      61.528  29.341  28.427  1.00  0.00     0.000 C 
BRANCH   6   7
ATOM      7  C   UNL     1      62.068  27.907  28.555  1.00  0.00     0.000 C 
BRANCH   7   8
ATOM      8  C   UNL     1      62.058  27.144  27.216  1.00  0.00     0.000 C 
BRANCH   8   9
ATOM      9  C   UNL     1      60.728  27.200  26.438  1.00  0.00     0.000 C 
BRANCH   9  10
ATOM     10  C   UNL     1      60.892  27.727  25.001  1.00  0.00     0.000 C 
BRANCH  10  11
ATOM     11  C   UNL     1      61.597  29.092  24.945  1.00  0.00     0.000 C 
BRANCH  11  12
ATOM     12  C   UNL     1      62.935  29.044  24.187  1.00  0.00     0.000 C 
BRANCH  12  13
ATOM     13  C   UNL     1      62.948  27.983  23.076  1.00  0.00     0.006 C 
BRANCH  13  14
ATOM     14  C   UNL     1      64.217  27.118  23.097  1.00  0.00     0.053 C 
BRANCH  14  15
ATOM     15  C   UNL     1      64.087  26.016  24.103  1.00  0.00     0.041 C 
ATOM     16  O   UNL     1      63.305  25.050  23.888  1.00  0.00    -0.550 OA
ATOM     17  O   UNL     1      64.808  26.068  25.290  1.00  0.00    -0.550 OA
ENDBRANCH  14  15
ENDBRANCH  13  14
ENDBRANCH  12  13
ENDBRANCH  11  12
ENDBRANCH  10  11
ENDBRANCH   9  10
ENDBRANCH   8   9
ENDBRANCH   7   8
ENDBRANCH   6   7
ENDBRANCH   5   6
ENDBRANCH   4   5
ENDBRANCH   3   4
ENDBRANCH   2   3
ENDBRANCH   1   2
BRANCH   1  18
ATOM     18  C   UNL     1      66.886  29.924  25.034  1.00  0.00     0.000 C 
BRANCH  18  19
ATOM     19  C   UNL     1      66.066  30.469  23.847  1.00  0.00     0.000 C 
BRANCH  19  20
ATOM     20  C   UNL     1      66.874  31.248  22.790  1.00  0.00     0.000 C 
BRANCH  20  21
ATOM     21  C   UNL     1      66.092  32.352  22.047  1.00  0.00     0.000 C 
BRANCH  21  22
ATOM     22  C   UNL     1      66.883  33.079  20.943  1.00  0.00     0.000 C 
BRANCH  22  23
ATOM     23  C   UNL     1      66.229  34.405  20.518  1.00  0.00     0.000 C 
BRANCH  23  24
ATOM     24  C   UNL     1      64.791  34.225  20.000  1.00  0.00    -0.000 C 
BRANCH  24  25
ATOM     25  C   UNL     1      64.668  33.825  18.515  1.00  0.00    -0.000 C 
BRANCH  25  26
ATOM     26  C   UNL     1      63.625  34.619  17.707  1.00  0.00    -0.000 C 
BRANCH  26  27
ATOM     27  C   UNL     1      63.371  34.017  16.315  1.00  0.00    -0.000 C 
BRANCH  27  28
ATOM     28  C   UNL     1      61.894  33.648  16.096  1.00  0.00    -0.000 C 
BRANCH  28  29
ATOM     29  C   UNL     1      61.707  32.634  14.955  1.00  0.00    -0.000 C 
BRANCH  29  30
ATOM     30  C   UNL     1      60.355  32.790  14.240  1.00  0.00    -0.000 C 
BRANCH  30  31
ATOM     31  C   UNL     1      60.430  32.441  12.746  1.00  0.00    -0.003 C 
ATOM     32  C   UNL     1      59.988  31.002  12.494  1.00  0.00     0.004 C 
ENDBRANCH  30  31
ENDBRANCH  29  30
ENDBRANCH  28  29
ENDBRANCH  27  28
ENDBRANCH  26  27
ENDBRANCH  25  26
ENDBRANCH  24  25
ENDBRANCH  23  24
ENDBRANCH  22  23
ENDBRANCH  21  22
ENDBRANCH  20  21
ENDBRANCH  19  20
ENDBRANCH  18  19
ENDBRANCH   1  18
TORSDOF 28
ENDMDL
MODEL 2
REMARK VINA RESULT:    -4.970      4.161     10.986
REMARK INTER + INTRA:         -15.869
REMARK INTER:                 -13.191
REMARK INTRA:                  -2.678
REMARK UNBOUND:                -2.764
REMARK SMILES CCCCCCCCCCCCCCCCCCCCCCCCCCCCCC(=O)[O-]
REMARK SMILES IDX 16 1 17 2 18 3 19 4 20 5 21 6 22 7 23 8 24 9 25 10 26 11
REMARK SMILES IDX 27 12 28 13 29 14 30 15 31 16 32 17 15 18 14 19 13 20 12 21
REMARK SMILES IDX 11 22 10 23 9 24 8 25 7 26 6 27 5 28 4 29 3 30 2 31 1 32
REMARK H PARENT
REMARK Flexibility Score: inf
ROOT
ATOM      1  C   UNL     1      64.632  33.439  21.613  1.00  0.00     0.000 C 
ENDROOT
BRANCH   1   2
ATOM      2  C   UNL     1      63.912  34.129  20.441  1.00  0.00     0.000 C 
BRANCH   2   3
ATOM      3  C   UNL     1      64.681  33.995  19.109  1.00  0.00     0.000 C 
BRANCH   3   4
ATOM      4  C   UNL     1      63.779  33.823  17.872  1.00  0.00     0.000 C 
BRANCH   4   5
ATOM      5  C   UNL     1      62.264  33.865  18.142  1.00  0.00     0.000 C 
BRANCH   5   6
ATOM      6  C   UNL     1      61.375  33.627  16.907  1.00  0.00     0.000 C 
BRANCH   6   7
ATOM      7  C   UNL     1      62.174  33.548  15.595  1.00  0.00     0.000 C 
BRANCH   7   8
ATOM      8  C   UNL     1      61.460  32.721  14.510  1.00  0.00     0.000 C 
BRANCH   8   9
ATOM      9  C   UNL     1      60.774  31.434  15.010  1.00  0.00     0.000 C 
BRANCH   9  10
ATOM     10  C   UNL     1      61.671  30.189  14.897  1.00  0.00     0.000 C 
BRANCH  10  11
ATOM     11  C   UNL     1      61.029  29.066  14.066  1.00  0.00     0.000 C 
BRANCH  11  12
ATOM     12  C   UNL     1      61.922  28.595  12.905  1.00  0.00     0.000 C 
BRANCH  12  13
ATOM     13  C   UNL     1      62.063  29.653  11.800  1.00  0.00     0.006 C 
BRANCH  13  14
ATOM     14  C   UNL     1      62.203  29.034  10.401  1.00  0.00     0.053 C 
BRANCH  14  15
ATOM     15  C   UNL     1      60.859  28.688   9.840  1.00  0.00     0.041 C 
ATOM     16  O   UNL     1      59.850  29.385  10.135  1.00  0.00    -0.550 OA
ATOM     17  O   UNL     1      60.713  27.582   9.012  1.00  0.00    -0.550 OA
ENDBRANCH  14  15
ENDBRANCH  13  14
ENDBRANCH  12  13
ENDBRANCH  11  12
ENDBRANCH  10  11
ENDBRANCH   9  10
ENDBRANCH   8   9
ENDBRANCH   7   8
ENDBRANCH   6   7
ENDBRANCH   5   6
ENDBRANCH   4   5
ENDBRANCH   3   4
ENDBRANCH   2   3
ENDBRANCH   1   2
BRANCH   1  18
ATOM     18  C   UNL     1      66.081  33.040  21.276  1.00  0.00     0.000 C 
BRANCH  18  19
ATOM     19  C   UNL     1      66.696  31.969  22.199  1.00  0.00     0.000 C 
BRANCH  19  20
ATOM     20  C   UNL     1      65.697  31.233  23.114  1.00  0.00     0.000 C 
BRANCH  20  21
ATOM     21  C   UNL     1      65.862  29.700  23.170  1.00  0.00     0.000 C 
BRANCH  21  22
ATOM     22  C   UNL     1      66.968  29.198  24.116  1.00  0.00     0.000 C 
BRANCH  22  23
ATOM     23  C   UNL     1      66.844  29.779  25.536  1.00  0.00     0.000 C 
BRANCH  23  24
ATOM     24  C   UNL     1      65.579  29.303  26.271  1.00  0.00    -0.000 C 
BRANCH  24  25
ATOM     25  C   UNL     1      64.577  30.413  26.650  1.00  0.00    -0.000 C 
BRANCH  25  26
ATOM     26  C   UNL     1      63.132  30.182  26.174  1.00  0.00    -0.000 C 
BRANCH  26  27
ATOM     27  C   UNL     1      62.376  29.163  27.045  1.00  0.00    -0.000 C 
BRANCH  27  28
ATOM     28  C   UNL     1      61.888  27.950  26.237  1.00  0.00    -0.000 C 
BRANCH  28  29
ATOM     29  C   UNL     1      62.830  26.740  26.370  1.00  0.00    -0.000 C 
BRANCH  29  30
ATOM     30  C   UNL     1      63.360  26.251  25.013  1.00  0.00    -0.000 C 
BRANCH  30  31
ATOM     31  C   UNL     1      64.892  26.148  24.977  1.00  0.00    -0.003 C 
ATOM     32  C   UNL     1      65.388  25.801  23.576  1.00  0.00     0.004 C 
ENDBRANCH  30  31
ENDBRANCH  29  30
ENDBRANCH  28  29
ENDBRANCH  27  28
ENDBRANCH  26  27
ENDBRANCH  25  26
ENDBRANCH  24  25
ENDBRANCH  23  24
ENDBRANCH  22  23
ENDBRANCH  21  22
ENDBRANCH  20  21
ENDBRANCH  19  20
ENDBRANCH  18  19
ENDBRANCH   1  18
TORSDOF 28
ENDMDL
MODEL 3
REMARK VINA RESULT:    -4.940      2.436      7.944
REMARK INTER + INTRA:         -15.790
REMARK INTER:                 -12.364
REMARK INTRA:                  -3.426
REMARK UNBOUND:                -2.764
REMARK SMILES CCCCCCCCCCCCCCCCCCCCCCCCCCCCCC(=O)[O-]
REMARK SMILES IDX 16 1 17 2 18 3 19 4 20 5 21 6 22 7 23 8 24 9 25 10 26 11
REMARK SMILES IDX 27 12 28 13 29 14 30 15 31 16 32 17 15 18 14 19 13 20 12 21
REMARK SMILES IDX 11 22 10 23 9 24 8 25 7 26 6 27 5 28 4 29 3 30 2 31 1 32
REMARK H PARENT
REMARK Flexibility Score: inf
ROOT
ATOM      1  C   UNL     1      61.135  33.126  16.824  1.00  0.00     0.000 C 
ENDROOT
BRANCH   1   2
ATOM      2  C   UNL     1      61.517  34.263  17.787  1.00  0.00     0.000 C 
BRANCH   2   3
ATOM      3  C   UNL     1      62.471  33.798  18.907  1.00  0.00     0.000 C 
BRANCH   3   4
ATOM      4  C   UNL     1      63.960  33.798  18.511  1.00  0.00     0.000 C 
BRANCH   4   5
ATOM      5  C   UNL     1      64.912  34.500  19.497  1.00  0.00     0.000 C 
BRANCH   5   6
ATOM      6  C   UNL     1      64.905  33.930  20.928  1.00  0.00     0.000 C 
BRANCH   6   7
ATOM      7  C   UNL     1      66.090  32.991  21.208  1.00  0.00     0.000 C 
BRANCH   7   8
ATOM      8  C   UNL     1      65.840  32.056  22.406  1.00  0.00     0.000 C 
BRANCH   8   9
ATOM      9  C   UNL     1      64.384  32.007  22.909  1.00  0.00     0.000 C 
BRANCH   9  10
ATOM     10  C   UNL     1      64.143  30.903  23.954  1.00  0.00     0.000 C 
BRANCH  10  11
ATOM     11  C   UNL     1      64.554  29.509  23.452  1.00  0.00     0.000 C 
BRANCH  11  12
ATOM     12  C   UNL     1      63.349  28.608  23.131  1.00  0.00     0.000 C 
BRANCH  12  13
ATOM     13  C   UNL     1      62.259  28.669  24.213  1.00  0.00     0.006 C 
BRANCH  13  14
ATOM     14  C   UNL     1      62.589  27.800  25.436  1.00  0.00     0.053 C 
BRANCH  14  15
ATOM     15  C   UNL     1      61.339  27.221  26.023  1.00  0.00     0.041 C 
ATOM     16  O   UNL     1      60.294  27.127  25.323  1.00  0.00    -0.550 OA
ATOM     17  O   UNL     1      61.319  26.808  27.350  1.00  0.00    -0.550 OA
ENDBRANCH  14  15
ENDBRANCH  13  14
ENDBRANCH  12  13
ENDBRANCH  11  12
ENDBRANCH  10  11
ENDBRANCH   9  10
ENDBRANCH   8   9
ENDBRANCH   7   8
ENDBRANCH   6   7
ENDBRANCH   5   6
ENDBRANCH   4   5
ENDBRANCH   3   4
ENDBRANCH   2   3
ENDBRANCH   1   2
BRANCH   1  18
ATOM     18  C   UNL     1      61.428  33.463  15.351  1.00  0.00     0.000 C 
BRANCH  18  19
ATOM     19  C   UNL     1      62.921  33.459  14.963  1.00  0.00     0.000 C 
BRANCH  19  20
ATOM     20  C   UNL     1      63.619  32.086  15.037  1.00  0.00     0.000 C 
BRANCH  20  21
ATOM     21  C   UNL     1      63.690  31.312  13.704  1.00  0.00     0.000 C 
BRANCH  21  22
ATOM     22  C   UNL     1      63.647  32.188  12.439  1.00  0.00     0.000 C 
BRANCH  22  23
ATOM     23  C   UNL     1      63.581  31.359  11.144  1.00  0.00     0.000 C 
BRANCH  23  24
ATOM     24  C   UNL     1      63.666  29.843  11.396  1.00  0.00    -0.000 C 
BRANCH  24  25
ATOM     25  C   UNL     1      63.057  28.954  10.293  1.00  0.00    -0.000 C 
BRANCH  25  26
ATOM     26  C   UNL     1      62.288  29.709   9.193  1.00  0.00    -0.000 C 
BRANCH  26  27
ATOM     27  C   UNL     1      60.772  29.459   9.251  1.00  0.00    -0.000 C 
BRANCH  27  28
ATOM     28  C   UNL     1      60.402  28.316  10.212  1.00  0.00    -0.000 C 
BRANCH  28  29
ATOM     29  C   UNL     1      59.582  28.807  11.418  1.00  0.00    -0.000 C 
BRANCH  29  30
ATOM     30  C   UNL     1      60.339  28.659  12.748  1.00  0.00    -0.000 C 
BRANCH  30  31
ATOM     31  C   UNL     1      60.458  29.985  13.513  1.00  0.00    -0.003 C 
ATOM     32  C   UNL     1      60.049  31.166  12.637  1.00  0.00     0.004 C 
ENDBRANCH  30  31
ENDBRANCH  29  30
ENDBRANCH  28  29
ENDBRANCH  27  28
ENDBRANCH  26  27
ENDBRANCH  25  26
ENDBRANCH  24  25
ENDBRANCH  23  24
ENDBRANCH  22  23
ENDBRANCH  21  22
ENDBRANCH  20  21
ENDBRANCH  19  20
ENDBRANCH  18  19
ENDBRANCH   1  18
TORSDOF 28
ENDMDL
MODEL 4
REMARK VINA RESULT:    -4.851      1.702      2.479
REMARK INTER + INTRA:         -15.555
REMARK INTER:                 -12.257
REMARK INTRA:                  -3.297
REMARK UNBOUND:                -2.764
REMARK SMILES CCCCCCCCCCCCCCCCCCCCCCCCCCCCCC(=O)[O-]
REMARK SMILES IDX 16 1 17 2 18 3 19 4 20 5 21 6 22 7 23 8 24 9 25 10 26 11
REMARK SMILES IDX 27 12 28 13 29 14 30 15 31 16 32 17 15 18 14 19 13 20 12 21
REMARK SMILES IDX 11 22 10 23 9 24 8 25 7 26 6 27 5 28 4 29 3 30 2 31 1 32
REMARK H PARENT
REMARK Flexibility Score: inf
ROOT
ATOM      1  C   UNL     1      65.637  30.052  24.276  1.00  0.00     0.000 C 
ENDROOT
BRANCH   1   2
ATOM      2  C   UNL     1      65.483  29.771  25.780  1.00  0.00     0.000 C 
BRANCH   2   3
ATOM      3  C   UNL     1      64.258  30.483  26.395  1.00  0.00     0.000 C 
BRANCH   3   4
ATOM      4  C   UNL     1      63.803  29.905  27.749  1.00  0.00     0.000 C 
BRANCH   4   5
ATOM      5  C   UNL     1      62.285  29.918  28.002  1.00  0.00     0.000 C 
BRANCH   5   6
ATOM      6  C   UNL     1      61.697  28.590  28.515  1.00  0.00     0.000 C 
BRANCH   6   7
ATOM      7  C   UNL     1      61.943  27.413  27.556  1.00  0.00     0.000 C 
BRANCH   7   8
ATOM      8  C   UNL     1      60.738  27.127  26.641  1.00  0.00     0.000 C 
BRANCH   8   9
ATOM      9  C   UNL     1      60.827  27.737  25.228  1.00  0.00     0.000 C 
BRANCH   9  10
ATOM     10  C   UNL     1      62.274  28.009  24.778  1.00  0.00     0.000 C 
BRANCH  10  11
ATOM     11  C   UNL     1      62.939  26.778  24.140  1.00  0.00     0.000 C 
BRANCH  11  12
ATOM     12  C   UNL     1      64.244  26.370  24.846  1.00  0.00     0.000 C 
BRANCH  12  13
ATOM     13  C   UNL     1      65.286  25.792  23.875  1.00  0.00     0.006 C 
BRANCH  13  14
ATOM     14  C   UNL     1      65.752  26.815  22.828  1.00  0.00     0.053 C 
BRANCH  14  15
ATOM     15  C   UNL     1      66.106  26.132  21.544  1.00  0.00     0.041 C 
ATOM     16  O   UNL     1      66.378  24.901  21.534  1.00  0.00    -0.550 OA
ATOM     17  O   UNL     1      66.164  26.860  20.361  1.00  0.00    -0.550 OA
ENDBRANCH  14  15
ENDBRANCH  13  14
ENDBRANCH  12  13
ENDBRANCH  11  12
ENDBRANCH  10  11
ENDBRANCH   9  10
ENDBRANCH   8   9
ENDBRANCH   7   8
ENDBRANCH   6   7
ENDBRANCH   5   6
ENDBRANCH   4   5
ENDBRANCH   3   4
ENDBRANCH   2   3
ENDBRANCH   1   2
BRANCH   1  18
ATOM     18  C   UNL     1      64.441  30.820  23.683  1.00  0.00     0.000 C 
BRANCH  18  19
ATOM     19  C   UNL     1      64.813  31.997  22.758  1.00  0.00     0.000 C 
BRANCH  19  20
ATOM     20  C   UNL     1      63.763  33.123  22.668  1.00  0.00     0.000 C 
BRANCH  20  21
ATOM     21  C   UNL     1      63.519  33.682  21.251  1.00  0.00     0.000 C 
BRANCH  21  22
ATOM     22  C   UNL     1      64.789  33.898  20.407  1.00  0.00     0.000 C 
BRANCH  22  23
ATOM     23  C   UNL     1      64.508  33.887  18.895  1.00  0.00     0.000 C 
BRANCH  23  24
ATOM     24  C   UNL     1      63.007  33.972  18.563  1.00  0.00    -0.000 C 
BRANCH  24  25
ATOM     25  C   UNL     1      62.649  33.797  17.073  1.00  0.00    -0.000 C 
BRANCH  25  26
ATOM     26  C   UNL     1      63.718  33.091  16.220  1.00  0.00    -0.000 C 
BRANCH  26  27
ATOM     27  C   UNL     1      64.040  33.851  14.923  1.00  0.00    -0.000 C 
BRANCH  27  28
ATOM     28  C   UNL     1      63.906  32.963  13.674  1.00  0.00    -0.000 C 
BRANCH  28  29
ATOM     29  C   UNL     1      62.763  31.941  13.803  1.00  0.00    -0.000 C 
BRANCH  29  30
ATOM     30  C   UNL     1      61.791  31.988  12.613  1.00  0.00    -0.000 C 
BRANCH  30  31
ATOM     31  C   UNL     1      60.387  32.463  13.013  1.00  0.00    -0.003 C 
ATOM     32  C   UNL     1      60.268  32.617  14.527  1.00  0.00     0.004 C 
ENDBRANCH  30  31
ENDBRANCH  29  30
ENDBRANCH  28  29
ENDBRANCH  27  28
ENDBRANCH  26  27
ENDBRANCH  25  26
ENDBRANCH  24  25
ENDBRANCH  23  24
ENDBRANCH  22  23
ENDBRANCH  21  22
ENDBRANCH  20  21
ENDBRANCH  19  20
ENDBRANCH  18  19
ENDBRANCH   1  18
TORSDOF 28
ENDMDL
MODEL 5
REMARK VINA RESULT:    -4.809      7.846     11.986
REMARK INTER + INTRA:         -15.445
REMARK INTER:                 -11.156
REMARK INTRA:                  -4.289
REMARK UNBOUND:                -2.764
REMARK SMILES CCCCCCCCCCCCCCCCCCCCCCCCCCCCCC(=O)[O-]
REMARK SMILES IDX 16 1 17 2 18 3 19 4 20 5 21 6 22 7 23 8 24 9 25 10 26 11
REMARK SMILES IDX 27 12 28 13 29 14 30 15 31 16 32 17 15 18 14 19 13 20 12 21
REMARK SMILES IDX 11 22 10 23 9 24 8 25 7 26 6 27 5 28 4 29 3 30 2 31 1 32
REMARK H PARENT
REMARK Flexibility Score: inf
ROOT
ATOM      1  C   UNL     1      59.107  28.361  11.721  1.00  0.00     0.000 C 
ENDROOT
BRANCH   1   2
ATOM      2  C   UNL     1      59.771  27.750  12.967  1.00  0.00     0.000 C 
BRANCH   2   3
ATOM      3  C   UNL     1      60.822  28.687  13.599  1.00  0.00     0.000 C 
BRANCH   3   4
ATOM      4  C   UNL     1      62.282  28.252  13.365  1.00  0.00     0.000 C 
BRANCH   4   5
ATOM      5  C   UNL     1      63.344  29.349  13.565  1.00  0.00     0.000 C 
BRANCH   5   6
ATOM      6  C   UNL     1      63.109  30.639  12.758  1.00  0.00     0.000 C 
BRANCH   6   7
ATOM      7  C   UNL     1      63.703  31.888  13.432  1.00  0.00     0.000 C 
BRANCH   7   8
ATOM      8  C   UNL     1      62.717  33.071  13.470  1.00  0.00     0.000 C 
BRANCH   8   9
ATOM      9  C   UNL     1      61.231  32.694  13.309  1.00  0.00     0.000 C 
BRANCH   9  10
ATOM     10  C   UNL     1      60.505  32.516  14.654  1.00  0.00     0.000 C 
BRANCH  10  11
ATOM     11  C   UNL     1      60.581  33.769  15.541  1.00  0.00     0.000 C 
BRANCH  11  12
ATOM     12  C   UNL     1      61.383  33.541  16.834  1.00  0.00     0.000 C 
BRANCH  12  13
ATOM     13  C   UNL     1      62.853  33.966  16.702  1.00  0.00     0.006 C 
BRANCH  13  14
ATOM     14  C   UNL     1      63.721  33.470  17.867  1.00  0.00     0.053 C 
BRANCH  14  15
ATOM     15  C   UNL     1      64.626  34.560  18.352  1.00  0.00     0.041 C 
ATOM     16  O   UNL     1      64.268  35.766  18.270  1.00  0.00    -0.550 OA
ATOM     17  O   UNL     1      65.878  34.247  18.870  1.00  0.00    -0.550 OA
ENDBRANCH  14  15
ENDBRANCH  13  14
ENDBRANCH  12  13
ENDBRANCH  11  12
ENDBRANCH  10  11
ENDBRANCH   9  10
ENDBRANCH   8   9
ENDBRANCH   7   8
ENDBRANCH   6   7
ENDBRANCH   5   6
ENDBRANCH   4   5
ENDBRANCH   3   4
ENDBRANCH   2   3
ENDBRANCH   1   2
BRANCH   1  18
ATOM     18  C   UNL     1      60.008  29.379  10.999  1.00  0.00     0.000 C 
BRANCH  18  19
ATOM     19  C   UNL     1      60.968  28.776   9.953  1.00  0.00     0.000 C 
BRANCH  19  20
ATOM     20  C   UNL     1      62.106  29.707   9.487  1.00  0.00     0.000 C 
BRANCH  20  21
ATOM     21  C   UNL     1      63.349  28.992   8.917  1.00  0.00     0.000 C 
BRANCH  21  22
ATOM     22  C   UNL     1      64.650  29.813   8.962  1.00  0.00     0.000 C 
BRANCH  22  23
ATOM     23  C   UNL     1      64.431  31.247   9.477  1.00  0.00     0.000 C 
BRANCH  23  24
ATOM     24  C   UNL     1      65.749  31.983   9.779  1.00  0.00    -0.000 C 
BRANCH  24  25
ATOM     25  C   UNL     1      65.650  33.113  10.825  1.00  0.00    -0.000 C 
BRANCH  25  26
ATOM     26  C   UNL     1      66.668  34.255  10.654  1.00  0.00    -0.000 C 
BRANCH  26  27
ATOM     27  C   UNL     1      66.313  35.496  11.490  1.00  0.00    -0.000 C 
BRANCH  27  28
ATOM     28  C   UNL     1      67.070  35.538  12.828  1.00  0.00    -0.000 C 
BRANCH  28  29
ATOM     29  C   UNL     1      66.214  36.120  13.966  1.00  0.00    -0.000 C 
BRANCH  29  30
ATOM     30  C   UNL     1      65.918  35.092  15.070  1.00  0.00    -0.000 C 
BRANCH  30  31
ATOM     31  C   UNL     1      67.008  34.018  15.188  1.00  0.00    -0.003 C 
ATOM     32  C   UNL     1      66.428  32.696  15.685  1.00  0.00     0.004 C 
ENDBRANCH  30  31
ENDBRANCH  29  30
ENDBRANCH  28  29
ENDBRANCH  27  28
ENDBRANCH  26  27
ENDBRANCH  25  26
ENDBRANCH  24  25
ENDBRANCH  23  24
ENDBRANCH  22  23
ENDBRANCH  21  22
ENDBRANCH  20  21
ENDBRANCH  19  20
ENDBRANCH  18  19
ENDBRANCH   1  18
TORSDOF 28
ENDMDL
MODEL 6
REMARK VINA RESULT:    -4.796      3.428     10.769
REMARK INTER + INTRA:         -15.410
REMARK INTER:                 -13.094
REMARK INTRA:                  -2.316
REMARK UNBOUND:                -2.764
REMARK SMILES CCCCCCCCCCCCCCCCCCCCCCCCCCCCCC(=O)[O-]
REMARK SMILES IDX 16 1 17 2 18 3 19 4 20 5 21 6 22 7 23 8 24 9 25 10 26 11
REMARK SMILES IDX 27 12 28 13 29 14 30 15 31 16 32 17 15 18 14 19 13 20 12 21
REMARK SMILES IDX 11 22 10 23 9 24 8 25 7 26 6 27 5 28 4 29 3 30 2 31 1 32
REMARK H PARENT
REMARK Flexibility Score: inf
ROOT
ATOM      1  C   UNL     1      66.936  30.944  22.070  1.00  0.00     0.000 C 
ENDROOT
BRANCH   1   2
ATOM      2  C   UNL     1      66.343  32.358  22.199  1.00  0.00     0.000 C 
BRANCH   2   3
ATOM      3  C   UNL     1      66.462  33.173  20.893  1.00  0.00     0.000 C 
BRANCH   3   4
ATOM      4  C   UNL     1      65.161  33.881  20.468  1.00  0.00     0.000 C 
BRANCH   4   5
ATOM      5  C   UNL     1      65.340  35.118  19.569  1.00  0.00     0.000 C 
BRANCH   5   6
ATOM      6  C   UNL     1      65.124  34.867  18.065  1.00  0.00     0.000 C 
BRANCH   6   7
ATOM      7  C   UNL     1      64.593  33.456  17.759  1.00  0.00     0.000 C 
BRANCH   7   8
ATOM      8  C   UNL     1      63.674  33.419  16.524  1.00  0.00     0.000 C 
BRANCH   8   9
ATOM      9  C   UNL     1      62.253  33.974  16.745  1.00  0.00     0.000 C 
BRANCH   9  10
ATOM     10  C   UNL     1      61.150  33.030  16.235  1.00  0.00     0.000 C 
BRANCH  10  11
ATOM     11  C   UNL     1      60.773  33.295  14.768  1.00  0.00     0.000 C 
BRANCH  11  12
ATOM     12  C   UNL     1      59.705  32.322  14.239  1.00  0.00     0.000 C 
BRANCH  12  13
ATOM     13  C   UNL     1      60.219  31.450  13.082  1.00  0.00     0.006 C 
BRANCH  13  14
ATOM     14  C   UNL     1      60.495  30.001  13.510  1.00  0.00     0.053 C 
BRANCH  14  15
ATOM     15  C   UNL     1      59.933  29.040  12.509  1.00  0.00     0.041 C 
ATOM     16  O   UNL     1      59.572  29.447  11.372  1.00  0.00    -0.550 OA
ATOM     17  O   UNL     1      59.782  27.699  12.841  1.00  0.00    -0.550 OA
ENDBRANCH  14  15
ENDBRANCH  13  14
ENDBRANCH  12  13
ENDBRANCH  11  12
ENDBRANCH  10  11
ENDBRANCH   9  10
ENDBRANCH   8   9
ENDBRANCH   7   8
ENDBRANCH   6   7
ENDBRANCH   5   6
ENDBRANCH   4   5
ENDBRANCH   3   4
ENDBRANCH   2   3
ENDBRANCH   1   2
BRANCH   1  18
ATOM     18  C   UNL     1      67.054  30.217  23.422  1.00  0.00     0.000 C 
BRANCH  18  19
ATOM     19  C   UNL     1      65.804  29.419  23.847  1.00  0.00     0.000 C 
BRANCH  19  20
ATOM     20  C   UNL     1      65.163  28.558  22.740  1.00  0.00     0.000 C 
BRANCH  20  21
ATOM     21  C   UNL     1      66.022  27.375  22.246  1.00  0.00     0.000 C 
BRANCH  21  22
ATOM     22  C   UNL     1      65.498  25.981  22.637  1.00  0.00     0.000 C 
BRANCH  22  23
ATOM     23  C   UNL     1      65.215  25.853  24.144  1.00  0.00     0.000 C 
BRANCH  23  24
ATOM     24  C   UNL     1      63.719  25.679  24.461  1.00  0.00    -0.000 C 
BRANCH  24  25
ATOM     25  C   UNL     1      63.137  26.685  25.473  1.00  0.00    -0.000 C 
BRANCH  25  26
ATOM     26  C   UNL     1      62.014  27.587  24.929  1.00  0.00    -0.000 C 
BRANCH  26  27
ATOM     27  C   UNL     1      60.918  27.866  25.972  1.00  0.00    -0.000 C 
BRANCH  27  28
ATOM     28  C   UNL     1      61.282  27.323  27.364  1.00  0.00    -0.000 C 
BRANCH  28  29
ATOM     29  C   UNL     1      61.083  28.372  28.471  1.00  0.00    -0.000 C 
BRANCH  29  30
ATOM     30  C   UNL     1      62.399  29.048  28.889  1.00  0.00    -0.000 C 
BRANCH  30  31
ATOM     31  C   UNL     1      62.650  30.368  28.147  1.00  0.00    -0.003 C 
ATOM     32  C   UNL     1      63.698  30.194  27.052  1.00  0.00     0.004 C 
ENDBRANCH  30  31
ENDBRANCH  29  30
ENDBRANCH  28  29
ENDBRANCH  27  28
ENDBRANCH  26  27
ENDBRANCH  25  26
ENDBRANCH  24  25
ENDBRANCH  23  24
ENDBRANCH  22  23
ENDBRANCH  21  22
ENDBRANCH  20  21
ENDBRANCH  19  20
ENDBRANCH  18  19
ENDBRANCH   1  18
TORSDOF 28
ENDMDL
MODEL 7
REMARK VINA RESULT:    -4.783      1.533      2.779
REMARK INTER + INTRA:         -15.376
REMARK INTER:                 -12.922
REMARK INTRA:                  -2.454
REMARK UNBOUND:                -2.764
REMARK SMILES CCCCCCCCCCCCCCCCCCCCCCCCCCCCCC(=O)[O-]
REMARK SMILES IDX 16 1 17 2 18 3 19 4 20 5 21 6 22 7 23 8 24 9 25 10 26 11
REMARK SMILES IDX 27 12 28 13 29 14 30 15 31 16 32 17 15 18 14 19 13 20 12 21
REMARK SMILES IDX 11 22 10 23 9 24 8 25 7 26 6 27 5 28 4 29 3 30 2 31 1 32
REMARK H PARENT
REMARK Flexibility Score: inf
ROOT
ATOM      1  C   UNL     1      66.044  30.526  23.659  1.00  0.00     0.000 C 
ENDROOT
BRANCH   1   2
ATOM      2  C   UNL     1      66.861  30.062  24.877  1.00  0.00     0.000 C 
BRANCH   2   3
ATOM      3  C   UNL     1      66.009  29.282  25.901  1.00  0.00     0.000 C 
BRANCH   3   4
ATOM      4  C   UNL     1      64.696  29.984  26.298  1.00  0.00     0.000 C 
BRANCH   4   5
ATOM      5  C   UNL     1      64.220  29.738  27.742  1.00  0.00     0.000 C 
BRANCH   5   6
ATOM      6  C   UNL     1      62.847  30.345  28.088  1.00  0.00     0.000 C 
BRANCH   6   7
ATOM      7  C   UNL     1      61.772  29.282  28.367  1.00  0.00     0.000 C 
BRANCH   7   8
ATOM      8  C   UNL     1      62.245  27.853  28.038  1.00  0.00     0.000 C 
BRANCH   8   9
ATOM      9  C   UNL     1      61.493  27.163  26.882  1.00  0.00     0.000 C 
BRANCH   9  10
ATOM     10  C   UNL     1      62.051  27.530  25.495  1.00  0.00     0.000 C 
BRANCH  10  11
ATOM     11  C   UNL     1      62.826  26.375  24.841  1.00  0.00     0.000 C 
BRANCH  11  12
ATOM     12  C   UNL     1      64.259  26.233  25.382  1.00  0.00     0.000 C 
BRANCH  12  13
ATOM     13  C   UNL     1      65.282  25.928  24.277  1.00  0.00     0.006 C 
BRANCH  13  14
ATOM     14  C   UNL     1      65.208  26.923  23.110  1.00  0.00     0.053 C 
BRANCH  14  15
ATOM     15  C   UNL     1      65.939  26.392  21.916  1.00  0.00     0.041 C 
ATOM     16  O   UNL     1      66.118  27.124  20.905  1.00  0.00    -0.550 OA
ATOM     17  O   UNL     1      66.399  25.080  21.908  1.00  0.00    -0.550 OA
ENDBRANCH  14  15
ENDBRANCH  13  14
ENDBRANCH  12  13
ENDBRANCH  11  12
ENDBRANCH  10  11
ENDBRANCH   9  10
ENDBRANCH   8   9
ENDBRANCH   7   8
ENDBRANCH   6   7
ENDBRANCH   5   6
ENDBRANCH   4   5
ENDBRANCH   3   4
ENDBRANCH   2   3
ENDBRANCH   1   2
BRANCH   1  18
ATOM     18  C   UNL     1      66.925  30.920  22.459  1.00  0.00     0.000 C 
BRANCH  18  19
ATOM     19  C   UNL     1      66.804  32.391  22.014  1.00  0.00     0.000 C 
BRANCH  19  20
ATOM     20  C   UNL     1      66.815  32.622  20.489  1.00  0.00     0.000 C 
BRANCH  20  21
ATOM     21  C   UNL     1      65.917  33.774  19.992  1.00  0.00     0.000 C 
BRANCH  21  22
ATOM     22  C   UNL     1      65.250  33.536  18.625  1.00  0.00     0.000 C 
BRANCH  22  23
ATOM     23  C   UNL     1      63.762  33.928  18.613  1.00  0.00     0.000 C 
BRANCH  23  24
ATOM     24  C   UNL     1      63.247  34.284  17.207  1.00  0.00    -0.000 C 
BRANCH  24  25
ATOM     25  C   UNL     1      62.231  33.293  16.604  1.00  0.00    -0.000 C 
BRANCH  25  26
ATOM     26  C   UNL     1      61.903  33.514  15.116  1.00  0.00    -0.000 C 
BRANCH  26  27
ATOM     27  C   UNL     1      60.390  33.525  14.838  1.00  0.00    -0.000 C 
BRANCH  27  28
ATOM     28  C   UNL     1      59.915  32.245  14.130  1.00  0.00    -0.000 C 
BRANCH  28  29
ATOM     29  C   UNL     1      60.520  32.096  12.723  1.00  0.00    -0.000 C 
BRANCH  29  30
ATOM     30  C   UNL     1      61.560  30.967  12.642  1.00  0.00    -0.000 C 
BRANCH  30  31
ATOM     31  C   UNL     1      61.265  29.817  13.615  1.00  0.00    -0.003 C 
ATOM     32  C   UNL     1      61.874  28.508  13.123  1.00  0.00     0.004 C 
ENDBRANCH  30  31
ENDBRANCH  29  30
ENDBRANCH  28  29
ENDBRANCH  27  28
ENDBRANCH  26  27
ENDBRANCH  25  26
ENDBRANCH  24  25
ENDBRANCH  23  24
ENDBRANCH  22  23
ENDBRANCH  21  22
ENDBRANCH  20  21
ENDBRANCH  19  20
ENDBRANCH  18  19
ENDBRANCH   1  18
TORSDOF 28
ENDMDL
MODEL 8
REMARK VINA RESULT:    -4.770      1.487      2.532
REMARK INTER + INTRA:         -15.342
REMARK INTER:                 -11.925
REMARK INTRA:                  -3.417
REMARK UNBOUND:                -2.764
REMARK SMILES CCCCCCCCCCCCCCCCCCCCCCCCCCCCCC(=O)[O-]
REMARK SMILES IDX 16 1 17 2 18 3 19 4 20 5 21 6 22 7 23 8 24 9 25 10 26 11
REMARK SMILES IDX 27 12 28 13 29 14 30 15 31 16 32 17 15 18 14 19 13 20 12 21
REMARK SMILES IDX 11 22 10 23 9 24 8 25 7 26 6 27 5 28 4 29 3 30 2 31 1 32
REMARK H PARENT
REMARK Flexibility Score: inf
ROOT
ATOM      1  C   UNL     1      65.148  31.275  23.134  1.00  0.00     0.000 C 
ENDROOT
BRANCH   1   2
ATOM      2  C   UNL     1      64.805  30.158  24.135  1.00  0.00     0.000 C 
BRANCH   2   3
ATOM      3  C   UNL     1      66.012  29.754  25.010  1.00  0.00     0.000 C 
BRANCH   3   4
ATOM      4  C   UNL     1      65.652  29.424  26.471  1.00  0.00     0.000 C 
BRANCH   4   5
ATOM      5  C   UNL     1      64.592  30.335  27.118  1.00  0.00     0.000 C 
BRANCH   5   6
ATOM      6  C   UNL     1      63.768  29.680  28.242  1.00  0.00     0.000 C 
BRANCH   6   7
ATOM      7  C   UNL     1      62.279  30.063  28.199  1.00  0.00     0.000 C 
BRANCH   7   8
ATOM      8  C   UNL     1      61.346  28.854  28.397  1.00  0.00     0.000 C 
BRANCH   8   9
ATOM      9  C   UNL     1      61.716  27.599  27.582  1.00  0.00     0.000 C 
BRANCH   9  10
ATOM     10  C   UNL     1      61.433  27.751  26.076  1.00  0.00     0.000 C 
BRANCH  10  11
ATOM     11  C   UNL     1      62.666  27.458  25.207  1.00  0.00     0.000 C 
BRANCH  11  12
ATOM     12  C   UNL     1      63.561  26.350  25.790  1.00  0.00     0.000 C 
BRANCH  12  13
ATOM     13  C   UNL     1      64.860  26.157  24.993  1.00  0.00     0.006 C 
BRANCH  13  14
ATOM     14  C   UNL     1      64.607  25.687  23.553  1.00  0.00     0.053 C 
BRANCH  14  15
ATOM     15  C   UNL     1      65.809  25.939  22.696  1.00  0.00     0.041 C 
ATOM     16  O   UNL     1      66.350  24.990  22.067  1.00  0.00    -0.550 OA
ATOM     17  O   UNL     1      66.349  27.217  22.613  1.00  0.00    -0.550 OA
ENDBRANCH  14  15
ENDBRANCH  13  14
ENDBRANCH  12  13
ENDBRANCH  11  12
ENDBRANCH  10  11
ENDBRANCH   9  10
ENDBRANCH   8   9
ENDBRANCH   7   8
ENDBRANCH   6   7
ENDBRANCH   5   6
ENDBRANCH   4   5
ENDBRANCH   3   4
ENDBRANCH   2   3
ENDBRANCH   1   2
BRANCH   1  18
ATOM     18  C   UNL     1      66.643  31.314  22.767  1.00  0.00     0.000 C 
BRANCH  18  19
ATOM     19  C   UNL     1      67.096  32.574  22.001  1.00  0.00     0.000 C 
BRANCH  19  20
ATOM     20  C   UNL     1      66.097  33.104  20.953  1.00  0.00     0.000 C 
BRANCH  20  21
ATOM     21  C   UNL     1      66.402  34.515  20.408  1.00  0.00     0.000 C 
BRANCH  21  22
ATOM     22  C   UNL     1      66.797  34.567  18.921  1.00  0.00     0.000 C 
BRANCH  22  23
ATOM     23  C   UNL     1      66.640  33.208  18.216  1.00  0.00     0.000 C 
BRANCH  23  24
ATOM     24  C   UNL     1      65.323  33.090  17.429  1.00  0.00    -0.000 C 
BRANCH  24  25
ATOM     25  C   UNL     1      64.852  34.381  16.729  1.00  0.00    -0.000 C 
BRANCH  25  26
ATOM     26  C   UNL     1      63.560  34.999  17.294  1.00  0.00    -0.000 C 
BRANCH  26  27
ATOM     27  C   UNL     1      62.566  33.939  17.797  1.00  0.00    -0.000 C 
BRANCH  27  28
ATOM     28  C   UNL     1      61.219  34.001  17.058  1.00  0.00    -0.000 C 
BRANCH  28  29
ATOM     29  C   UNL     1      61.059  32.861  16.037  1.00  0.00    -0.000 C 
BRANCH  29  30
ATOM     30  C   UNL     1      60.732  33.373  14.625  1.00  0.00    -0.000 C 
BRANCH  30  31
ATOM     31  C   UNL     1      61.435  32.566  13.524  1.00  0.00    -0.003 C 
ATOM     32  C   UNL     1      62.950  32.740  13.595  1.00  0.00     0.004 C 
ENDBRANCH  30  31
ENDBRANCH  29  30
ENDBRANCH  28  29
ENDBRANCH  27  28
ENDBRANCH  26  27
ENDBRANCH  25  26
ENDBRANCH  24  25
ENDBRANCH  23  24
ENDBRANCH  22  23
ENDBRANCH  21  22
ENDBRANCH  20  21
ENDBRANCH  19  20
ENDBRANCH  18  19
ENDBRANCH   1  18
TORSDOF 28
ENDMDL
MODEL 9
REMARK VINA RESULT:    -4.711      1.631      4.451
REMARK INTER + INTRA:         -15.186
REMARK INTER:                 -12.364
REMARK INTRA:                  -2.823
REMARK UNBOUND:                -2.764
REMARK SMILES CCCCCCCCCCCCCCCCCCCCCCCCCCCCCC(=O)[O-]
REMARK SMILES IDX 16 1 17 2 18 3 19 4 20 5 21 6 22 7 23 8 24 9 25 10 26 11
REMARK SMILES IDX 27 12 28 13 29 14 30 15 31 16 32 17 15 18 14 19 13 20 12 21
REMARK SMILES IDX 11 22 10 23 9 24 8 25 7 26 6 27 5 28 4 29 3 30 2 31 1 32
REMARK H PARENT
REMARK Flexibility Score: inf
ROOT
ATOM      1  C   UNL     1      66.388  32.803  21.065  1.00  0.00     0.000 C 
ENDROOT
BRANCH   1   2
ATOM      2  C   UNL     1      66.805  32.077  22.356  1.00  0.00     0.000 C 
BRANCH   2   3
ATOM      3  C   UNL     1      66.296  30.620  22.409  1.00  0.00     0.000 C 
BRANCH   3   4
ATOM      4  C   UNL     1      65.477  30.282  23.669  1.00  0.00     0.000 C 
BRANCH   4   5
ATOM      5  C   UNL     1      66.125  29.272  24.634  1.00  0.00     0.000 C 
BRANCH   5   6
ATOM      6  C   UNL     1      65.405  29.105  25.984  1.00  0.00     0.000 C 
BRANCH   6   7
ATOM      7  C   UNL     1      64.265  30.117  26.189  1.00  0.00     0.000 C 
BRANCH   7   8
ATOM      8  C   UNL     1      63.681  30.078  27.614  1.00  0.00     0.000 C 
BRANCH   8   9
ATOM      9  C   UNL     1      62.202  29.653  27.705  1.00  0.00     0.000 C 
BRANCH   9  10
ATOM     10  C   UNL     1      62.013  28.255  28.320  1.00  0.00     0.000 C 
BRANCH  10  11
ATOM     11  C   UNL     1      61.837  27.158  27.258  1.00  0.00     0.000 C 
BRANCH  11  12
ATOM     12  C   UNL     1      61.226  27.684  25.948  1.00  0.00     0.000 C 
BRANCH  12  13
ATOM     13  C   UNL     1      62.155  27.489  24.740  1.00  0.00     0.006 C 
BRANCH  13  14
ATOM     14  C   UNL     1      63.133  26.320  24.928  1.00  0.00     0.053 C 
BRANCH  14  15
ATOM     15  C   UNL     1      64.109  26.261  23.794  1.00  0.00     0.041 C 
ATOM     16  O   UNL     1      65.191  25.625  23.920  1.00  0.00    -0.550 OA
ATOM     17  O   UNL     1      63.838  26.929  22.606  1.00  0.00    -0.550 OA
ENDBRANCH  14  15
ENDBRANCH  13  14
ENDBRANCH  12  13
ENDBRANCH  11  12
ENDBRANCH  10  11
ENDBRANCH   9  10
ENDBRANCH   8   9
ENDBRANCH   7   8
ENDBRANCH   6   7
ENDBRANCH   5   6
ENDBRANCH   4   5
ENDBRANCH   3   4
ENDBRANCH   2   3
ENDBRANCH   1   2
BRANCH   1  18
ATOM     18  C   UNL     1      65.037  33.531  21.196  1.00  0.00     0.000 C 
BRANCH  18  19
ATOM     19  C   UNL     1      64.514  34.178  19.897  1.00  0.00     0.000 C 
BRANCH  19  20
ATOM     20  C   UNL     1      65.122  33.624  18.593  1.00  0.00     0.000 C 
BRANCH  20  21
ATOM     21  C   UNL     1      64.136  33.486  17.414  1.00  0.00     0.000 C 
BRANCH  21  22
ATOM     22  C   UNL     1      62.871  34.359  17.517  1.00  0.00     0.000 C 
BRANCH  22  23
ATOM     23  C   UNL     1      61.647  33.715  16.844  1.00  0.00     0.000 C 
BRANCH  23  24
ATOM     24  C   UNL     1      61.906  33.321  15.379  1.00  0.00    -0.000 C 
BRANCH  24  25
ATOM     25  C   UNL     1      61.649  31.839  15.037  1.00  0.00    -0.000 C 
BRANCH  25  26
ATOM     26  C   UNL     1      62.912  30.974  14.880  1.00  0.00    -0.000 C 
BRANCH  26  27
ATOM     27  C   UNL     1      63.338  30.806  13.411  1.00  0.00    -0.000 C 
BRANCH  27  28
ATOM     28  C   UNL     1      63.522  29.331  13.019  1.00  0.00    -0.000 C 
BRANCH  28  29
ATOM     29  C   UNL     1      62.190  28.561  13.000  1.00  0.00    -0.000 C 
BRANCH  29  30
ATOM     30  C   UNL     1      61.164  29.175  12.034  1.00  0.00    -0.000 C 
BRANCH  30  31
ATOM     31  C   UNL     1      59.746  29.214  12.621  1.00  0.00    -0.003 C 
ATOM     32  C   UNL     1      59.250  27.811  12.958  1.00  0.00     0.004 C 
ENDBRANCH  30  31
ENDBRANCH  29  30
ENDBRANCH  28  29
ENDBRANCH  27  28
ENDBRANCH  26  27
ENDBRANCH  25  26
ENDBRANCH  24  25
ENDBRANCH  23  24
ENDBRANCH  22  23
ENDBRANCH  21  22
ENDBRANCH  20  21
ENDBRANCH  19  20
ENDBRANCH  18  19
ENDBRANCH   1  18
TORSDOF 28
ENDMDL
