MODEL 1
REMARK VINA RESULT:    67.644      0.000      0.000
REMARK INTER + INTRA:         101.431
REMARK INTER:                  99.279
REMARK INTRA:                   2.151
REMARK UNBOUND:                 2.151
REMARK SMILES O=c1c(O[C@@H]2O[C@@H](CO)[C@H](O)[C@H](O)[C@H]2O)c(-c2ccc(O)c(O)c2)oc2cc(O)cc(O)c12
REMARK SMILES IDX 4 1 3 2 16 3 25 4 2 5 26 6 1 7 33 8 27 9 31 10 28 11 30 12
REMARK SMILES IDX 17 13 18 14 19 15 20 16 24 17 22 18 21 19 23 21 32 23 29 25
REMARK SMILES IDX 5 27 14 28 6 29 12 30 7 31 10 32 15 33 13 35 8 37 9 38 11 40
REMARK H PARENT 21 20 23 22 32 24 29 26 15 34 13 36 9 39 11 41
REMARK Flexibility Score: inf
ROOT
ATOM      1  O   UNL     1      20.009  40.981   9.749  1.00  0.00    -0.454 OA
ENDROOT
BRANCH   1   2
ATOM      2  C   UNL     1      19.719  41.706   8.588  1.00  0.00     0.214 A 
ATOM      3  C   UNL     1      18.394  41.902   8.147  1.00  0.00     0.180 A 
ATOM      4  O   UNL     1      18.168  42.526   6.994  1.00  0.00    -0.452 OA
ATOM      5  C   UNL     1      20.769  42.242   7.837  1.00  0.00     0.239 A 
ATOM      6  C   UNL     1      19.137  43.023   6.233  1.00  0.00     0.146 A 
ATOM      7  O   UNL     1      21.953  42.099   8.245  1.00  0.00    -0.285 OA
ATOM      8  C   UNL     1      20.491  42.914   6.629  1.00  0.00     0.111 A 
ATOM      9  C   UNL     1      18.802  43.663   5.037  1.00  0.00     0.094 A 
ATOM     10  C   UNL     1      21.497  43.468   5.802  1.00  0.00     0.134 A 
ATOM     11  C   UNL     1      19.801  44.206   4.222  1.00  0.00     0.123 A 
ATOM     12  C   UNL     1      21.141  44.109   4.607  1.00  0.00     0.093 A 
BRANCH   3  13
ATOM     13  C   UNL     1      17.227  41.445   8.934  1.00  0.00     0.025 A 
ATOM     14  C   UNL     1      17.157  40.136   9.433  1.00  0.00     0.016 A 
ATOM     15  C   UNL     1      16.049  39.723  10.174  1.00  0.00     0.051 A 
ATOM     16  C   UNL     1      15.002  40.609  10.446  1.00  0.00     0.157 A 
ATOM     17  C   UNL     1      16.190  42.345   9.226  1.00  0.00     0.062 A 
ATOM     18  C   UNL     1      15.075  41.940   9.971  1.00  0.00     0.158 A 
BRANCH  16  19
ATOM     19  O   UNL     1      13.919  40.131  11.188  1.00  0.00    -0.504 OA
ATOM     20  H   UNL     1      12.963  40.420  11.042  1.00  0.00     0.293 HD
ENDBRANCH  16  19
BRANCH  18  21
ATOM     21  O   UNL     1      14.076  42.884  10.213  1.00  0.00    -0.504 OA
ATOM     22  H   UNL     1      13.737  43.124  11.133  1.00  0.00     0.293 HD
ENDBRANCH  18  21
ENDBRANCH   3  13
BRANCH  10  23
ATOM     23  O   UNL     1      22.844  43.385   6.157  1.00  0.00    -0.507 OA
ATOM     24  H   UNL     1      23.573  43.269   5.462  1.00  0.00     0.293 HD
ENDBRANCH  10  23
BRANCH  11  25
ATOM     25  O   UNL     1      19.474  44.846   3.029  1.00  0.00    -0.508 OA
ATOM     26  H   UNL     1      19.980  45.664   2.710  1.00  0.00     0.293 HD
ENDBRANCH  11  25
ENDBRANCH   1   2
BRANCH   1  27
ATOM     27  C   UNL     1      19.151  40.973  10.895  1.00  0.00     0.339 C 
ATOM     28  C   UNL     1      19.867  40.331  12.103  1.00  0.00     0.214 C 
ATOM     29  O   UNL     1      18.695  42.282  11.194  1.00  0.00    -0.332 OA
ATOM     30  C   UNL     1      20.994  41.237  12.636  1.00  0.00     0.180 C 
ATOM     31  C   UNL     1      19.769  43.159  11.493  1.00  0.00     0.179 C 
ATOM     32  C   UNL     1      20.500  42.694  12.783  1.00  0.00     0.177 C 
BRANCH  28  33
ATOM     33  O   UNL     1      18.953  40.011  13.125  1.00  0.00    -0.384 OA
ATOM     34  H   UNL     1      18.080  40.425  12.901  1.00  0.00     0.211 HD
ENDBRANCH  28  33
BRANCH  30  35
ATOM     35  O   UNL     1      22.086  41.176  11.750  1.00  0.00    -0.387 OA
ATOM     36  H   UNL     1      21.762  40.748  10.914  1.00  0.00     0.211 HD
ENDBRANCH  30  35
BRANCH  31  37
ATOM     37  C   UNL     1      19.182  44.571  11.657  1.00  0.00     0.191 C 
BRANCH  37  38
ATOM     38  O   UNL     1      19.522  45.125  12.901  1.00  0.00    -0.394 OA
ATOM     39  H   UNL     1      20.468  45.419  12.831  1.00  0.00     0.210 HD
ENDBRANCH  37  38
ENDBRANCH  31  37
BRANCH  32  40
ATOM     40  O   UNL     1      21.565  43.547  13.125  1.00  0.00    -0.387 OA
ATOM     41  H   UNL     1      22.105  43.098  13.826  1.00  0.00     0.211 HD
ENDBRANCH  32  40
ENDBRANCH   1  27
TORSDOF 12
ENDMDL
