MODEL 1
REMARK VINA RESULT:    -3.805      0.000      0.000
REMARK INTER + INTRA:          -4.828
REMARK INTER:                  -4.695
REMARK INTRA:                  -0.133
REMARK UNBOUND:                -0.133
REMARK SMILES CCCCCC(=O)[O-]
REMARK SMILES IDX 4 1 5 2 6 3 7 4 8 5 3 6 2 7 1 8
REMARK H PARENT
REMARK Flexibility Score: inf
ROOT
ATOM      1  C   UNL     1      15.807 -38.446  28.761  1.00  0.00     0.006 C 
ENDROOT
BRANCH   1   2
ATOM      2  C   UNL     1      16.016 -38.749  27.272  1.00  0.00     0.053 C 
BRANCH   2   3
ATOM      3  C   UNL     1      17.189 -38.004  26.711  1.00  0.00     0.041 C 
ATOM      4  O   UNL     1      18.122 -38.628  26.141  1.00  0.00    -0.550 OA
ATOM      5  O   UNL     1      17.233 -36.617  26.788  1.00  0.00    -0.550 OA
ENDBRANCH   2   3
ENDBRANCH   1   2
BRANCH   1   6
ATOM      6  C   UNL     1      16.864 -39.120  29.646  1.00  0.00     0.000 C 
BRANCH   6   7
ATOM      7  C   UNL     1      17.841 -38.086  30.219  1.00  0.00    -0.003 C 
ATOM      8  C   UNL     1      19.152 -38.741  30.643  1.00  0.00     0.004 C 
ENDBRANCH   6   7
ENDBRANCH   1   6
TORSDOF 4
ENDMDL
MODEL 2
REMARK VINA RESULT:    -3.799      2.394      3.729
REMARK INTER + INTRA:          -4.821
REMARK INTER:                  -4.657
REMARK INTRA:                  -0.164
REMARK UNBOUND:                -0.133
REMARK SMILES CCCCCC(=O)[O-]
REMARK SMILES IDX 4 1 5 2 6 3 7 4 8 5 3 6 2 7 1 8
REMARK H PARENT
REMARK Flexibility Score: inf
ROOT
ATOM      1  C   UNL     1      16.756 -38.092  29.456  1.00  0.00     0.006 C 
ENDROOT
BRANCH   1   2
ATOM      2  C   UNL     1      17.598 -38.996  30.366  1.00  0.00     0.053 C 
BRANCH   2   3
ATOM      3  C   UNL     1      19.051 -38.630  30.325  1.00  0.00     0.041 C 
ATOM      4  O   UNL     1      19.613 -38.392  29.224  1.00  0.00    -0.550 OA
ATOM      5  O   UNL     1      19.774 -38.521  31.506  1.00  0.00    -0.550 OA
ENDBRANCH   2   3
ENDBRANCH   1   2
BRANCH   1   6
ATOM      6  C   UNL     1      15.594 -38.849  28.799  1.00  0.00     0.000 C 
BRANCH   6   7
ATOM      7  C   UNL     1      15.707 -38.808  27.270  1.00  0.00    -0.003 C 
ATOM      8  C   UNL     1      16.884 -37.946  26.826  1.00  0.00     0.004 C 
ENDBRANCH   6   7
ENDBRANCH   1   6
TORSDOF 4
ENDMDL
MODEL 3
REMARK VINA RESULT:    -3.529      1.027      1.326
REMARK INTER + INTRA:          -4.487
REMARK INTER:                  -4.291
REMARK INTRA:                  -0.196
REMARK UNBOUND:                -0.133
REMARK SMILES CCCCCC(=O)[O-]
REMARK SMILES IDX 4 1 5 2 6 3 7 4 8 5 3 6 2 7 1 8
REMARK H PARENT
REMARK Flexibility Score: inf
ROOT
ATOM      1  C   UNL     1      16.002 -38.815  27.348  1.00  0.00     0.006 C 
ENDROOT
BRANCH   1   2
ATOM      2  C   UNL     1      16.594 -37.461  26.935  1.00  0.00     0.053 C 
BRANCH   2   3
ATOM      3  C   UNL     1      17.799 -37.623  26.059  1.00  0.00     0.041 C 
ATOM      4  O   UNL     1      18.673 -38.485  26.338  1.00  0.00    -0.550 OA
ATOM      5  O   UNL     1      17.939 -36.845  24.917  1.00  0.00    -0.550 OA
ENDBRANCH   2   3
ENDBRANCH   1   2
BRANCH   1   6
ATOM      6  C   UNL     1      16.066 -39.040  28.865  1.00  0.00     0.000 C 
BRANCH   6   7
ATOM      7  C   UNL     1      16.765 -37.867  29.564  1.00  0.00    -0.003 C 
ATOM      8  C   UNL     1      18.073 -38.310  30.212  1.00  0.00     0.004 C 
ENDBRANCH   6   7
ENDBRANCH   1   6
TORSDOF 4
ENDMDL
MODEL 4
REMARK VINA RESULT:    -3.487      9.975     10.786
REMARK INTER + INTRA:          -4.435
REMARK INTER:                  -4.368
REMARK INTRA:                  -0.067
REMARK UNBOUND:                -0.133
REMARK SMILES CCCCCC(=O)[O-]
REMARK SMILES IDX 4 1 5 2 6 3 7 4 8 5 3 6 2 7 1 8
REMARK H PARENT
REMARK Flexibility Score: inf
ROOT
ATOM      1  C   UNL     1      12.515 -30.182  23.000  1.00  0.00     0.006 C 
ENDROOT
BRANCH   1   2
ATOM      2  C   UNL     1      13.119 -31.567  22.728  1.00  0.00     0.053 C 
BRANCH   2   3
ATOM      3  C   UNL     1      13.815 -31.620  21.402  1.00  0.00     0.041 C 
ATOM      4  O   UNL     1      14.903 -31.009  21.233  1.00  0.00    -0.550 OA
ATOM      5  O   UNL     1      13.280 -32.373  20.364  1.00  0.00    -0.550 OA
ENDBRANCH   2   3
ENDBRANCH   1   2
BRANCH   1   6
ATOM      6  C   UNL     1      13.077 -29.545  24.278  1.00  0.00     0.000 C 
BRANCH   6   7
ATOM      7  C   UNL     1      12.275 -28.297  24.667  1.00  0.00    -0.003 C 
ATOM      8  C   UNL     1      13.183 -27.215  25.244  1.00  0.00     0.004 C 
ENDBRANCH   6   7
ENDBRANCH   1   6
TORSDOF 4
ENDMDL
MODEL 5
REMARK VINA RESULT:    -3.476     13.742     15.080
REMARK INTER + INTRA:          -4.422
REMARK INTER:                  -4.244
REMARK INTRA:                  -0.178
REMARK UNBOUND:                -0.133
REMARK SMILES CCCCCC(=O)[O-]
REMARK SMILES IDX 4 1 5 2 6 3 7 4 8 5 3 6 2 7 1 8
REMARK H PARENT
REMARK Flexibility Score: inf
ROOT
ATOM      1  C   UNL     1      20.696 -26.001  20.178  1.00  0.00     0.006 C 
ENDROOT
BRANCH   1   2
ATOM      2  C   UNL     1      22.055 -25.434  20.610  1.00  0.00     0.053 C 
BRANCH   2   3
ATOM      3  C   UNL     1      23.123 -25.717  19.598  1.00  0.00     0.041 C 
ATOM      4  O   UNL     1      23.646 -24.774  18.948  1.00  0.00    -0.550 OA
ATOM      5  O   UNL     1      23.565 -27.020  19.397  1.00  0.00    -0.550 OA
ENDBRANCH   2   3
ENDBRANCH   1   2
BRANCH   1   6
ATOM      6  C   UNL     1      20.039 -26.841  21.282  1.00  0.00     0.000 C 
BRANCH   6   7
ATOM      7  C   UNL     1      19.796 -28.279  20.807  1.00  0.00    -0.003 C 
ATOM      8  C   UNL     1      21.071 -29.111  20.890  1.00  0.00     0.004 C 
ENDBRANCH   6   7
ENDBRANCH   1   6
TORSDOF 4
ENDMDL
MODEL 6
REMARK VINA RESULT:    -3.413     10.562     11.135
REMARK INTER + INTRA:          -4.344
REMARK INTER:                  -4.200
REMARK INTRA:                  -0.144
REMARK UNBOUND:                -0.133
REMARK SMILES CCCCCC(=O)[O-]
REMARK SMILES IDX 4 1 5 2 6 3 7 4 8 5 3 6 2 7 1 8
REMARK H PARENT
REMARK Flexibility Score: inf
ROOT
ATOM      1  C   UNL     1      14.586 -29.803  23.458  1.00  0.00     0.006 C 
ENDROOT
BRANCH   1   2
ATOM      2  C   UNL     1      13.322 -30.107  24.274  1.00  0.00     0.053 C 
BRANCH   2   3
ATOM      3  C   UNL     1      12.451 -28.898  24.425  1.00  0.00     0.041 C 
ATOM      4  O   UNL     1      11.401 -28.785  23.739  1.00  0.00    -0.550 OA
ATOM      5  O   UNL     1      12.781 -27.912  25.347  1.00  0.00    -0.550 OA
ENDBRANCH   2   3
ENDBRANCH   1   2
BRANCH   1   6
ATOM      6  C   UNL     1      14.655 -30.627  22.165  1.00  0.00     0.000 C 
BRANCH   6   7
ATOM      7  C   UNL     1      13.432 -31.543  22.032  1.00  0.00    -0.003 C 
ATOM      8  C   UNL     1      13.324 -32.118  20.623  1.00  0.00     0.004 C 
ENDBRANCH   6   7
ENDBRANCH   1   6
TORSDOF 4
ENDMDL
MODEL 7
REMARK VINA RESULT:    -3.388     14.292     15.649
REMARK INTER + INTRA:          -4.313
REMARK INTER:                  -4.194
REMARK INTRA:                  -0.119
REMARK UNBOUND:                -0.133
REMARK SMILES CCCCCC(=O)[O-]
REMARK SMILES IDX 4 1 5 2 6 3 7 4 8 5 3 6 2 7 1 8
REMARK H PARENT
REMARK Flexibility Score: inf
ROOT
ATOM      1  C   UNL     1      22.105 -26.540  20.458  1.00  0.00     0.006 C 
ENDROOT
BRANCH   1   2
ATOM      2  C   UNL     1      22.814 -25.464  19.625  1.00  0.00     0.053 C 
BRANCH   2   3
ATOM      3  C   UNL     1      23.559 -24.492  20.488  1.00  0.00     0.041 C 
ATOM      4  O   UNL     1      24.480 -23.788  19.999  1.00  0.00    -0.550 OA
ATOM      5  O   UNL     1      23.212 -24.341  21.825  1.00  0.00    -0.550 OA
ENDBRANCH   2   3
ENDBRANCH   1   2
BRANCH   1   6
ATOM      6  C   UNL     1      20.576 -26.444  20.351  1.00  0.00     0.000 C 
BRANCH   6   7
ATOM      7  C   UNL     1      19.912 -27.756  20.786  1.00  0.00    -0.003 C 
ATOM      8  C   UNL     1      20.934 -28.882  20.897  1.00  0.00     0.004 C 
ENDBRANCH   6   7
ENDBRANCH   1   6
TORSDOF 4
ENDMDL
MODEL 8
REMARK VINA RESULT:    -3.334     15.373     16.568
REMARK INTER + INTRA:          -4.247
REMARK INTER:                  -4.104
REMARK INTRA:                  -0.143
REMARK UNBOUND:                -0.133
REMARK SMILES CCCCCC(=O)[O-]
REMARK SMILES IDX 4 1 5 2 6 3 7 4 8 5 3 6 2 7 1 8
REMARK H PARENT
REMARK Flexibility Score: inf
ROOT
ATOM      1  C   UNL     1      23.613 -24.787  19.303  1.00  0.00     0.006 C 
ENDROOT
BRANCH   1   2
ATOM      2  C   UNL     1      22.474 -25.472  20.072  1.00  0.00     0.053 C 
BRANCH   2   3
ATOM      3  C   UNL     1      22.688 -26.950  20.184  1.00  0.00     0.041 C 
ATOM      4  O   UNL     1      23.759 -27.468  19.773  1.00  0.00    -0.550 OA
ATOM      5  O   UNL     1      21.718 -27.751  20.775  1.00  0.00    -0.550 OA
ENDBRANCH   2   3
ENDBRANCH   1   2
BRANCH   1   6
ATOM      6  C   UNL     1      24.306 -23.701  20.137  1.00  0.00     0.000 C 
BRANCH   6   7
ATOM      7  C   UNL     1      23.708 -23.625  21.546  1.00  0.00    -0.003 C 
ATOM      8  C   UNL     1      24.316 -22.476  22.344  1.00  0.00     0.004 C 
ENDBRANCH   6   7
ENDBRANCH   1   6
TORSDOF 4
ENDMDL
MODEL 9
REMARK VINA RESULT:    -3.315      9.209      9.916
REMARK INTER + INTRA:          -4.223
REMARK INTER:                  -4.047
REMARK INTRA:                  -0.176
REMARK UNBOUND:                -0.133
REMARK SMILES CCCCCC(=O)[O-]
REMARK SMILES IDX 4 1 5 2 6 3 7 4 8 5 3 6 2 7 1 8
REMARK H PARENT
REMARK Flexibility Score: inf
ROOT
ATOM      1  C   UNL     1      14.961 -30.678  21.664  1.00  0.00     0.006 C 
ENDROOT
BRANCH   1   2
ATOM      2  C   UNL     1      13.812 -31.672  21.447  1.00  0.00     0.053 C 
BRANCH   2   3
ATOM      3  C   UNL     1      14.314 -33.069  21.245  1.00  0.00     0.041 C 
ATOM      4  O   UNL     1      14.810 -33.709  22.209  1.00  0.00    -0.550 OA
ATOM      5  O   UNL     1      14.204 -33.675  20.000  1.00  0.00    -0.550 OA
ENDBRANCH   2   3
ENDBRANCH   1   2
BRANCH   1   6
ATOM      6  C   UNL     1      14.933 -30.053  23.066  1.00  0.00     0.000 C 
BRANCH   6   7
ATOM      7  C   UNL     1      13.714 -30.539  23.859  1.00  0.00    -0.003 C 
ATOM      8  C   UNL     1      12.916 -29.366  24.418  1.00  0.00     0.004 C 
ENDBRANCH   6   7
ENDBRANCH   1   6
TORSDOF 4
ENDMDL
