MODEL 1
REMARK VINA RESULT:    -2.446      0.000      0.000
REMARK INTER + INTRA:          -3.139
REMARK INTER:                  -2.874
REMARK INTRA:                  -0.265
REMARK UNBOUND:                -0.265
REMARK SMILES O=c1cc(-c2ccc(O)c(O)c2)oc2cc(O)cc(O)c12
REMARK SMILES IDX 4 1 3 2 2 3 1 4 21 5 19 6 18 7 16 8 15 9 14 10 13 11 5 12
REMARK SMILES IDX 6 13 7 14 8 15 12 16 10 17 9 18 11 20 20 22 17 24
REMARK H PARENT 9 19 11 21 20 23 17 25
REMARK Flexibility Score: inf
ROOT
ATOM      1  C   UNL     1      16.095  -4.675  26.039  1.00  0.00     0.138 A 
ATOM      2  C   UNL     1      15.182  -3.629  26.239  1.00  0.00     0.100 A 
ATOM      3  C   UNL     1      15.573  -2.500  26.960  1.00  0.00     0.197 A 
ATOM      4  O   UNL     1      14.749  -1.556  27.073  1.00  0.00    -0.289 OA
ATOM      5  C   UNL     1      16.874  -2.434  27.514  1.00  0.00     0.107 A 
ATOM      6  C   UNL     1      17.371  -1.348  28.296  1.00  0.00     0.134 A 
ATOM      7  C   UNL     1      18.710  -1.351  28.708  1.00  0.00     0.093 A 
ATOM      8  C   UNL     1      19.551  -2.424  28.418  1.00  0.00     0.123 A 
ATOM      9  C   UNL     1      19.062  -3.514  27.697  1.00  0.00     0.094 A 
ATOM     10  C   UNL     1      17.741  -3.525  27.242  1.00  0.00     0.146 A 
ATOM     11  O   UNL     1      17.320  -4.575  26.544  1.00  0.00    -0.456 OA
ENDROOT
BRANCH   1  12
ATOM     12  C   UNL     1      15.732  -5.900  25.283  1.00  0.00     0.021 A 
ATOM     13  C   UNL     1      15.604  -7.121  25.967  1.00  0.00     0.016 A 
ATOM     14  C   UNL     1      15.271  -8.290  25.279  1.00  0.00     0.051 A 
ATOM     15  C   UNL     1      15.069  -8.262  23.893  1.00  0.00     0.157 A 
ATOM     16  C   UNL     1      15.541  -5.881  23.887  1.00  0.00     0.062 A 
ATOM     17  C   UNL     1      15.209  -7.052  23.195  1.00  0.00     0.158 A 
BRANCH  15  18
ATOM     18  O   UNL     1      14.735  -9.429  23.209  1.00  0.00    -0.504 OA
ATOM     19  H   UNL     1      15.228  -9.710  22.368  1.00  0.00     0.293 HD
ENDBRANCH  15  18
BRANCH  17  20
ATOM     20  O   UNL     1      15.027  -6.992  21.813  1.00  0.00    -0.504 OA
ATOM     21  H   UNL     1      15.698  -7.386  21.164  1.00  0.00     0.293 HD
ENDBRANCH  17  20
ENDBRANCH   1  12
BRANCH   6  22
ATOM     22  O   UNL     1      16.596  -0.261  28.712  1.00  0.00    -0.507 OA
ATOM     23  H   UNL     1      16.708   0.687  28.390  1.00  0.00     0.293 HD
ENDBRANCH   6  22
BRANCH   8  24
ATOM     24  O   UNL     1      20.873  -2.399  28.858  1.00  0.00    -0.508 OA
ATOM     25  H   UNL     1      21.430  -3.245  28.913  1.00  0.00     0.293 HD
ENDBRANCH   8  24
TORSDOF 5
ENDMDL
MODEL 2
REMARK VINA RESULT:    -1.954      1.358      2.783
REMARK INTER + INTRA:          -2.561
REMARK INTER:                  -2.268
REMARK INTRA:                  -0.293
REMARK UNBOUND:                -0.265
REMARK SMILES O=c1cc(-c2ccc(O)c(O)c2)oc2cc(O)cc(O)c12
REMARK SMILES IDX 4 1 3 2 2 3 1 4 21 5 19 6 18 7 16 8 15 9 14 10 13 11 5 12
REMARK SMILES IDX 6 13 7 14 8 15 12 16 10 17 9 18 11 20 20 22 17 24
REMARK H PARENT 9 19 11 21 20 23 17 25
REMARK Flexibility Score: inf
ROOT
ATOM      1  C   UNL     1      16.128  -4.550  26.194  1.00  0.00     0.138 A 
ATOM      2  C   UNL     1      17.122  -4.591  27.182  1.00  0.00     0.100 A 
ATOM      3  C   UNL     1      17.440  -3.432  27.891  1.00  0.00     0.197 A 
ATOM      4  O   UNL     1      18.297  -3.516  28.808  1.00  0.00    -0.289 OA
ATOM      5  C   UNL     1      16.783  -2.216  27.584  1.00  0.00     0.107 A 
ATOM      6  C   UNL     1      17.048  -0.965  28.217  1.00  0.00     0.134 A 
ATOM      7  C   UNL     1      16.263   0.150  27.898  1.00  0.00     0.093 A 
ATOM      8  C   UNL     1      15.264   0.075  26.929  1.00  0.00     0.123 A 
ATOM      9  C   UNL     1      15.029  -1.131  26.268  1.00  0.00     0.094 A 
ATOM     10  C   UNL     1      15.771  -2.270  26.588  1.00  0.00     0.146 A 
ATOM     11  O   UNL     1      15.503  -3.403  25.947  1.00  0.00    -0.456 OA
ENDROOT
BRANCH   1  12
ATOM     12  C   UNL     1      15.751  -5.751  25.408  1.00  0.00     0.021 A 
ATOM     13  C   UNL     1      15.590  -6.983  26.063  1.00  0.00     0.016 A 
ATOM     14  C   UNL     1      15.243  -8.130  25.346  1.00  0.00     0.051 A 
ATOM     15  C   UNL     1      15.058  -8.069  23.959  1.00  0.00     0.157 A 
ATOM     16  C   UNL     1      15.577  -5.698  24.010  1.00  0.00     0.062 A 
ATOM     17  C   UNL     1      15.231  -6.847  23.289  1.00  0.00     0.158 A 
BRANCH  15  18
ATOM     18  O   UNL     1      14.710  -9.215  23.246  1.00  0.00    -0.504 OA
ATOM     19  H   UNL     1      14.541  -9.186  22.246  1.00  0.00     0.293 HD
ENDBRANCH  15  18
BRANCH  17  20
ATOM     20  O   UNL     1      15.066  -6.754  21.907  1.00  0.00    -0.504 OA
ATOM     21  H   UNL     1      14.941  -5.865  21.438  1.00  0.00     0.293 HD
ENDBRANCH  17  20
ENDBRANCH   1  12
BRANCH   6  22
ATOM     22  O   UNL     1      18.076  -0.757  29.143  1.00  0.00    -0.507 OA
ATOM     23  H   UNL     1      18.512  -1.479  29.695  1.00  0.00     0.293 HD
ENDBRANCH   6  22
BRANCH   8  24
ATOM     24  O   UNL     1      14.514   1.209  26.626  1.00  0.00    -0.508 OA
ATOM     25  H   UNL     1      13.969   1.273  25.774  1.00  0.00     0.293 HD
ENDBRANCH   8  24
TORSDOF 5
ENDMDL
MODEL 3
REMARK VINA RESULT:    -0.366      4.716      8.382
REMARK INTER + INTRA:          -0.695
REMARK INTER:                  -0.431
REMARK INTRA:                  -0.264
REMARK UNBOUND:                -0.265
REMARK SMILES O=c1cc(-c2ccc(O)c(O)c2)oc2cc(O)cc(O)c12
REMARK SMILES IDX 4 1 3 2 2 3 1 4 21 5 19 6 18 7 16 8 15 9 14 10 13 11 5 12
REMARK SMILES IDX 6 13 7 14 8 15 12 16 10 17 9 18 11 20 20 22 17 24
REMARK H PARENT 9 19 11 21 20 23 17 25
REMARK Flexibility Score: inf
ROOT
ATOM      1  C   UNL     1      14.279  -9.574  26.837  1.00  0.00     0.138 A 
ATOM      2  C   UNL     1      15.171 -10.557  27.291  1.00  0.00     0.100 A 
ATOM      3  C   UNL     1      14.769 -11.447  28.286  1.00  0.00     0.197 A 
ATOM      4  O   UNL     1      15.572 -12.351  28.631  1.00  0.00    -0.289 OA
ATOM      5  C   UNL     1      13.478 -11.331  28.857  1.00  0.00     0.107 A 
ATOM      6  C   UNL     1      12.972 -12.160  29.902  1.00  0.00     0.134 A 
ATOM      7  C   UNL     1      11.642 -12.013  30.317  1.00  0.00     0.093 A 
ATOM      8  C   UNL     1      10.821 -11.029  29.768  1.00  0.00     0.123 A 
ATOM      9  C   UNL     1      11.321 -10.180  28.780  1.00  0.00     0.094 A 
ATOM     10  C   UNL     1      12.631 -10.324  28.320  1.00  0.00     0.146 A 
ATOM     11  O   UNL     1      13.062  -9.505  27.367  1.00  0.00    -0.456 OA
ENDROOT
BRANCH   1  12
ATOM     12  C   UNL     1      14.655  -8.599  25.782  1.00  0.00     0.021 A 
ATOM     13  C   UNL     1      14.875  -7.256  26.130  1.00  0.00     0.016 A 
ATOM     14  C   UNL     1      15.222  -6.317  25.157  1.00  0.00     0.051 A 
ATOM     15  C   UNL     1      15.347  -6.701  23.816  1.00  0.00     0.157 A 
ATOM     16  C   UNL     1      14.769  -8.977  24.430  1.00  0.00     0.062 A 
ATOM     17  C   UNL     1      15.115  -8.037  23.451  1.00  0.00     0.158 A 
BRANCH  15  18
ATOM     18  O   UNL     1      15.695  -5.762  22.846  1.00  0.00    -0.504 OA
ATOM     19  H   UNL     1      15.661  -4.766  23.036  1.00  0.00     0.293 HD
ENDBRANCH  15  18
BRANCH  17  20
ATOM     20  O   UNL     1      15.219  -8.450  22.123  1.00  0.00    -0.504 OA
ATOM     21  H   UNL     1      15.629  -7.861  21.407  1.00  0.00     0.293 HD
ENDBRANCH  17  20
ENDBRANCH   1  12
BRANCH   6  22
ATOM     22  O   UNL     1      13.730 -13.122  30.577  1.00  0.00    -0.507 OA
ATOM     23  H   UNL     1      13.755 -14.104  30.349  1.00  0.00     0.293 HD
ENDBRANCH   6  22
BRANCH   8  24
ATOM     24  O   UNL     1       9.507 -10.902  30.217  1.00  0.00    -0.508 OA
ATOM     25  H   UNL     1       9.039 -11.656  30.706  1.00  0.00     0.293 HD
ENDBRANCH   8  24
TORSDOF 5
ENDMDL
MODEL 4
REMARK VINA RESULT:    -0.165      3.069      4.752
REMARK INTER + INTRA:          -0.459
REMARK INTER:                  -0.180
REMARK INTRA:                  -0.279
REMARK UNBOUND:                -0.265
REMARK SMILES O=c1cc(-c2ccc(O)c(O)c2)oc2cc(O)cc(O)c12
REMARK SMILES IDX 4 1 3 2 2 3 1 4 21 5 19 6 18 7 16 8 15 9 14 10 13 11 5 12
REMARK SMILES IDX 6 13 7 14 8 15 12 16 10 17 9 18 11 20 20 22 17 24
REMARK H PARENT 9 19 11 21 20 23 17 25
REMARK Flexibility Score: inf
ROOT
ATOM      1  C   UNL     1      15.935  -1.779  26.916  1.00  0.00     0.138 A 
ATOM      2  C   UNL     1      16.018  -1.226  28.202  1.00  0.00     0.100 A 
ATOM      3  C   UNL     1      15.748   0.129  28.390  1.00  0.00     0.197 A 
ATOM      4  O   UNL     1      15.776   0.582  29.563  1.00  0.00    -0.289 OA
ATOM      5  C   UNL     1      15.427   0.945  27.277  1.00  0.00     0.107 A 
ATOM      6  C   UNL     1      15.165   2.346  27.343  1.00  0.00     0.134 A 
ATOM      7  C   UNL     1      14.761   3.028  26.188  1.00  0.00     0.093 A 
ATOM      8  C   UNL     1      14.667   2.373  24.961  1.00  0.00     0.123 A 
ATOM      9  C   UNL     1      14.968   1.013  24.875  1.00  0.00     0.094 A 
ATOM     10  C   UNL     1      15.340   0.298  26.015  1.00  0.00     0.146 A 
ATOM     11  O   UNL     1      15.602  -0.999  25.893  1.00  0.00    -0.456 OA
ENDROOT
BRANCH   1  12
ATOM     12  C   UNL     1      16.215  -3.214  26.658  1.00  0.00     0.021 A 
ATOM     13  C   UNL     1      17.478  -3.740  26.980  1.00  0.00     0.016 A 
ATOM     14  C   UNL     1      17.770  -5.085  26.741  1.00  0.00     0.051 A 
ATOM     15  C   UNL     1      16.808  -5.926  26.169  1.00  0.00     0.157 A 
ATOM     16  C   UNL     1      15.256  -4.062  26.070  1.00  0.00     0.062 A 
ATOM     17  C   UNL     1      15.547  -5.411  25.828  1.00  0.00     0.158 A 
BRANCH  15  18
ATOM     18  O   UNL     1      17.101  -7.269  25.932  1.00  0.00    -0.504 OA
ATOM     19  H   UNL     1      17.091  -7.953  26.681  1.00  0.00     0.293 HD
ENDBRANCH  15  18
BRANCH  17  20
ATOM     20  O   UNL     1      14.571  -6.219  25.245  1.00  0.00    -0.504 OA
ATOM     21  H   UNL     1      14.794  -7.115  24.827  1.00  0.00     0.293 HD
ENDBRANCH  17  20
ENDBRANCH   1  12
BRANCH   6  22
ATOM     22  O   UNL     1      15.307   3.117  28.501  1.00  0.00    -0.507 OA
ATOM     23  H   UNL     1      16.146   3.605  28.773  1.00  0.00     0.293 HD
ENDBRANCH   6  22
BRANCH   8  24
ATOM     24  O   UNL     1      14.277   3.087  23.829  1.00  0.00    -0.508 OA
ATOM     25  H   UNL     1      14.341   4.098  23.792  1.00  0.00     0.293 HD
ENDBRANCH   8  24
TORSDOF 5
ENDMDL
MODEL 5
REMARK VINA RESULT:     0.018      4.715      8.185
REMARK INTER + INTRA:          -0.243
REMARK INTER:                   0.051
REMARK INTRA:                  -0.294
REMARK UNBOUND:                -0.265
REMARK SMILES O=c1cc(-c2ccc(O)c(O)c2)oc2cc(O)cc(O)c12
REMARK SMILES IDX 4 1 3 2 2 3 1 4 21 5 19 6 18 7 16 8 15 9 14 10 13 11 5 12
REMARK SMILES IDX 6 13 7 14 8 15 12 16 10 17 9 18 11 20 20 22 17 24
REMARK H PARENT 9 19 11 21 20 23 17 25
REMARK Flexibility Score: inf
ROOT
ATOM      1  C   UNL     1      14.216  -9.577  26.975  1.00  0.00     0.138 A 
ATOM      2  C   UNL     1      13.259  -9.235  27.942  1.00  0.00     0.100 A 
ATOM      3  C   UNL     1      12.937 -10.147  28.947  1.00  0.00     0.197 A 
ATOM      4  O   UNL     1      12.117  -9.789  29.831  1.00  0.00    -0.289 OA
ATOM      5  C   UNL     1      13.551 -11.423  28.965  1.00  0.00     0.107 A 
ATOM      6  C   UNL     1      13.276 -12.445  29.921  1.00  0.00     0.134 A 
ATOM      7  C   UNL     1      14.020 -13.632  29.895  1.00  0.00     0.093 A 
ATOM      8  C   UNL     1      14.985 -13.857  28.914  1.00  0.00     0.123 A 
ATOM      9  C   UNL     1      15.227 -12.884  27.944  1.00  0.00     0.094 A 
ATOM     10  C   UNL     1      14.527 -11.676  27.964  1.00  0.00     0.146 A 
ATOM     11  O   UNL     1      14.801 -10.769  27.032  1.00  0.00    -0.456 OA
ENDROOT
BRANCH   1  12
ATOM     12  C   UNL     1      14.595  -8.647  25.882  1.00  0.00     0.021 A 
ATOM     13  C   UNL     1      14.793  -7.286  26.170  1.00  0.00     0.016 A 
ATOM     14  C   UNL     1      15.144  -6.389  25.159  1.00  0.00     0.051 A 
ATOM     15  C   UNL     1      15.294  -6.834  23.839  1.00  0.00     0.157 A 
ATOM     16  C   UNL     1      14.735  -9.086  24.550  1.00  0.00     0.062 A 
ATOM     17  C   UNL     1      15.084  -8.189  23.534  1.00  0.00     0.158 A 
BRANCH  15  18
ATOM     18  O   UNL     1      15.645  -5.937  22.832  1.00  0.00    -0.504 OA
ATOM     19  H   UNL     1      15.543  -6.174  21.851  1.00  0.00     0.293 HD
ENDBRANCH  15  18
BRANCH  17  20
ATOM     20  O   UNL     1      15.214  -8.661  22.228  1.00  0.00    -0.504 OA
ATOM     21  H   UNL     1      16.080  -8.578  21.710  1.00  0.00     0.293 HD
ENDBRANCH  17  20
ENDBRANCH   1  12
BRANCH   6  22
ATOM     22  O   UNL     1      12.278 -12.359  30.896  1.00  0.00    -0.507 OA
ATOM     23  H   UNL     1      11.379 -12.814  30.847  1.00  0.00     0.293 HD
ENDBRANCH   6  22
BRANCH   8  24
ATOM     24  O   UNL     1      15.694 -15.057  28.910  1.00  0.00    -0.508 OA
ATOM     25  H   UNL     1      16.307 -15.313  29.676  1.00  0.00     0.293 HD
ENDBRANCH   8  24
TORSDOF 5
ENDMDL
MODEL 6
REMARK VINA RESULT:     0.393      8.619     10.072
REMARK INTER + INTRA:           0.197
REMARK INTER:                   0.473
REMARK INTRA:                  -0.276
REMARK UNBOUND:                -0.265
REMARK SMILES O=c1cc(-c2ccc(O)c(O)c2)oc2cc(O)cc(O)c12
REMARK SMILES IDX 4 1 3 2 2 3 1 4 21 5 19 6 18 7 16 8 15 9 14 10 13 11 5 12
REMARK SMILES IDX 6 13 7 14 8 15 12 16 10 17 9 18 11 20 20 22 17 24
REMARK H PARENT 9 19 11 21 20 23 17 25
REMARK Flexibility Score: inf
ROOT
ATOM      1  C   UNL     1      13.212 -13.212  28.302  1.00  0.00     0.138 A 
ATOM      2  C   UNL     1      11.897 -13.129  27.824  1.00  0.00     0.100 A 
ATOM      3  C   UNL     1      11.040 -12.149  28.327  1.00  0.00     0.197 A 
ATOM      4  O   UNL     1       9.885 -12.065  27.837  1.00  0.00    -0.289 OA
ATOM      5  C   UNL     1      11.493 -11.270  29.340  1.00  0.00     0.107 A 
ATOM      6  C   UNL     1      10.698 -10.255  29.952  1.00  0.00     0.134 A 
ATOM      7  C   UNL     1      11.286  -9.381  30.876  1.00  0.00     0.093 A 
ATOM      8  C   UNL     1      12.621  -9.522  31.253  1.00  0.00     0.123 A 
ATOM      9  C   UNL     1      13.394 -10.543  30.697  1.00  0.00     0.094 A 
ATOM     10  C   UNL     1      12.847 -11.408  29.748  1.00  0.00     0.146 A 
ATOM     11  O   UNL     1      13.623 -12.356  29.232  1.00  0.00    -0.456 OA
ENDROOT
BRANCH   1  12
ATOM     12  C   UNL     1      14.165 -14.236  27.805  1.00  0.00     0.021 A 
ATOM     13  C   UNL     1      14.508 -14.257  26.442  1.00  0.00     0.016 A 
ATOM     14  C   UNL     1      15.397 -15.213  25.947  1.00  0.00     0.051 A 
ATOM     15  C   UNL     1      15.953 -16.172  26.803  1.00  0.00     0.157 A 
ATOM     16  C   UNL     1      14.718 -15.211  28.658  1.00  0.00     0.062 A 
ATOM     17  C   UNL     1      15.608 -16.173  28.164  1.00  0.00     0.158 A 
BRANCH  15  18
ATOM     18  O   UNL     1      16.841 -17.125  26.306  1.00  0.00    -0.504 OA
ATOM     19  H   UNL     1      17.708 -17.343  26.787  1.00  0.00     0.293 HD
ENDBRANCH  15  18
BRANCH  17  20
ATOM     20  O   UNL     1      16.135 -17.121  29.040  1.00  0.00    -0.504 OA
ATOM     21  H   UNL     1      15.858 -18.095  29.010  1.00  0.00     0.293 HD
ENDBRANCH  17  20
ENDBRANCH   1  12
BRANCH   6  22
ATOM     22  O   UNL     1       9.333 -10.075  29.710  1.00  0.00    -0.507 OA
ATOM     23  H   UNL     1       8.921  -9.921  28.802  1.00  0.00     0.293 HD
ENDBRANCH   6  22
BRANCH   8  24
ATOM     24  O   UNL     1      13.168  -8.644  32.186  1.00  0.00    -0.508 OA
ATOM     25  H   UNL     1      12.637  -7.862  32.553  1.00  0.00     0.293 HD
ENDBRANCH   8  24
TORSDOF 5
ENDMDL
