MODEL 1
REMARK VINA RESULT:    -3.158      0.000      0.000
REMARK INTER + INTRA:          -8.251
REMARK INTER:                  -5.927
REMARK INTRA:                  -2.324
REMARK UNBOUND:                -2.324
REMARK SMILES O=C([O-])CCCCCCCCCCCCCCC(=O)[O-]
REMARK SMILES IDX 10 1 9 2 8 3 7 4 6 5 5 6 4 7 2 8 1 9 3 10 11 11 12 12 13 13
REMARK SMILES IDX 14 14 15 15 16 16 17 17 18 18 19 19 20 20
REMARK H PARENT
REMARK Flexibility Score: inf
ROOT
ATOM      1  C   UNL     1      -9.309   0.978  11.800  1.00  0.00     0.000 C 
ENDROOT
BRANCH   1   2
ATOM      2  C   UNL     1      -9.948  -0.404  11.981  1.00  0.00     0.000 C 
BRANCH   2   3
ATOM      3  C   UNL     1      -8.899  -1.518  11.848  1.00  0.00     0.000 C 
BRANCH   3   4
ATOM      4  C   UNL     1      -9.033  -2.312  10.537  1.00  0.00     0.000 C 
BRANCH   4   5
ATOM      5  C   UNL     1      -7.778  -2.307   9.638  1.00  0.00     0.000 C 
BRANCH   5   6
ATOM      6  C   UNL     1      -8.014  -1.834   8.192  1.00  0.00     0.006 C 
BRANCH   6   7
ATOM      7  C   UNL     1      -8.778  -0.506   8.118  1.00  0.00     0.053 C 
BRANCH   7   8
ATOM      8  C   UNL     1      -8.007   0.494   7.315  1.00  0.00     0.041 C 
ATOM      9  O   UNL     1      -8.603   1.251   6.505  1.00  0.00    -0.550 OA
ATOM     10  O   UNL     1      -6.623   0.557   7.426  1.00  0.00    -0.550 OA
ENDBRANCH   7   8
ENDBRANCH   6   7
ENDBRANCH   5   6
ENDBRANCH   4   5
ENDBRANCH   3   4
ENDBRANCH   2   3
ENDBRANCH   1   2
BRANCH   1  11
ATOM     11  C   UNL     1      -7.796   0.922  12.062  1.00  0.00     0.000 C 
BRANCH  11  12
ATOM     12  C   UNL     1      -6.965   1.335  10.837  1.00  0.00     0.000 C 
BRANCH  12  13
ATOM     13  C   UNL     1      -5.480   0.956  10.974  1.00  0.00     0.000 C 
BRANCH  13  14
ATOM     14  C   UNL     1      -5.284  -0.428  11.614  1.00  0.00     0.000 C 
BRANCH  14  15
ATOM     15  C   UNL     1      -4.141  -1.222  10.961  1.00  0.00     0.000 C 
BRANCH  15  16
ATOM     16  C   UNL     1      -3.944  -0.879   9.472  1.00  0.00     0.006 C 
BRANCH  16  17
ATOM     17  C   UNL     1      -2.509  -0.455   9.113  1.00  0.00     0.053 C 
BRANCH  17  18
ATOM     18  C   UNL     1      -2.453   0.895   8.463  1.00  0.00     0.041 C 
ATOM     19  O   UNL     1      -3.515   1.467   8.100  1.00  0.00    -0.550 OA
ATOM     20  O   UNL     1      -1.235   1.538   8.289  1.00  0.00    -0.550 OA
ENDBRANCH  17  18
ENDBRANCH  16  17
ENDBRANCH  15  16
ENDBRANCH  14  15
ENDBRANCH  13  14
ENDBRANCH  12  13
ENDBRANCH  11  12
ENDBRANCH   1  11
TORSDOF 15
ENDMDL
MODEL 2
REMARK VINA RESULT:    -3.130     14.233     16.328
REMARK INTER + INTRA:          -8.200
REMARK INTER:                  -6.363
REMARK INTRA:                  -1.837
REMARK UNBOUND:                -2.324
REMARK SMILES O=C([O-])CCCCCCCCCCCCCCC(=O)[O-]
REMARK SMILES IDX 10 1 9 2 8 3 7 4 6 5 5 6 4 7 2 8 1 9 3 10 11 11 12 12 13 13
REMARK SMILES IDX 14 14 15 15 16 16 17 17 18 18 19 19 20 20
REMARK H PARENT
REMARK Flexibility Score: inf
ROOT
ATOM      1  C   UNL     1      -0.736  -1.205  -2.298  1.00  0.00     0.000 C 
ENDROOT
BRANCH   1   2
ATOM      2  C   UNL     1      -2.201  -1.359  -2.726  1.00  0.00     0.000 C 
BRANCH   2   3
ATOM      3  C   UNL     1      -2.416  -0.831  -4.152  1.00  0.00     0.000 C 
BRANCH   3   4
ATOM      4  C   UNL     1      -3.117  -1.850  -5.068  1.00  0.00     0.000 C 
BRANCH   4   5
ATOM      5  C   UNL     1      -2.515  -3.271  -5.047  1.00  0.00     0.000 C 
BRANCH   5   6
ATOM      6  C   UNL     1      -3.353  -4.323  -4.298  1.00  0.00     0.006 C 
BRANCH   6   7
ATOM      7  C   UNL     1      -2.503  -5.235  -3.405  1.00  0.00     0.053 C 
BRANCH   7   8
ATOM      8  C   UNL     1      -2.712  -6.670  -3.775  1.00  0.00     0.041 C 
ATOM      9  O   UNL     1      -1.765  -7.493  -3.682  1.00  0.00    -0.550 OA
ATOM     10  O   UNL     1      -3.942  -7.087  -4.271  1.00  0.00    -0.550 OA
ENDBRANCH   7   8
ENDBRANCH   6   7
ENDBRANCH   5   6
ENDBRANCH   4   5
ENDBRANCH   3   4
ENDBRANCH   2   3
ENDBRANCH   1   2
BRANCH   1  11
ATOM     11  C   UNL     1      -0.077  -2.577  -2.090  1.00  0.00     0.000 C 
BRANCH  11  12
ATOM     12  C   UNL     1       0.625  -3.097  -3.354  1.00  0.00     0.000 C 
BRANCH  12  13
ATOM     13  C   UNL     1       1.197  -1.963  -4.222  1.00  0.00     0.000 C 
BRANCH  13  14
ATOM     14  C   UNL     1       0.827  -2.115  -5.708  1.00  0.00     0.000 C 
BRANCH  14  15
ATOM     15  C   UNL     1       1.881  -1.499  -6.642  1.00  0.00     0.000 C 
BRANCH  15  16
ATOM     16  C   UNL     1       3.312  -1.981  -6.338  1.00  0.00     0.006 C 
BRANCH  16  17
ATOM     17  C   UNL     1       4.406  -1.212  -7.099  1.00  0.00     0.053 C 
BRANCH  17  18
ATOM     18  C   UNL     1       4.441   0.243  -6.742  1.00  0.00     0.041 C 
ATOM     19  O   UNL     1       4.057   1.108  -7.573  1.00  0.00    -0.550 OA
ATOM     20  O   UNL     1       4.864   0.644  -5.482  1.00  0.00    -0.550 OA
ENDBRANCH  17  18
ENDBRANCH  16  17
ENDBRANCH  15  16
ENDBRANCH  14  15
ENDBRANCH  13  14
ENDBRANCH  12  13
ENDBRANCH  11  12
ENDBRANCH   1  11
TORSDOF 15
ENDMDL
MODEL 3
REMARK VINA RESULT:    -3.080      1.264      2.360
REMARK INTER + INTRA:          -8.105
REMARK INTER:                  -5.831
REMARK INTRA:                  -2.275
REMARK UNBOUND:                -2.324
REMARK SMILES O=C([O-])CCCCCCCCCCCCCCC(=O)[O-]
REMARK SMILES IDX 10 1 9 2 8 3 7 4 6 5 5 6 4 7 2 8 1 9 3 10 11 11 12 12 13 13
REMARK SMILES IDX 14 14 15 15 16 16 17 17 18 18 19 19 20 20
REMARK H PARENT
REMARK Flexibility Score: inf
ROOT
ATOM      1  C   UNL     1      -8.885  -2.055  11.850  1.00  0.00     0.000 C 
ENDROOT
BRANCH   1   2
ATOM      2  C   UNL     1      -8.950  -2.456  10.371  1.00  0.00     0.000 C 
BRANCH   2   3
ATOM      3  C   UNL     1      -7.541  -2.613   9.781  1.00  0.00     0.000 C 
BRANCH   3   4
ATOM      4  C   UNL     1      -7.383  -1.919   8.416  1.00  0.00     0.000 C 
BRANCH   4   5
ATOM      5  C   UNL     1      -8.646  -1.199   7.899  1.00  0.00     0.000 C 
BRANCH   5   6
ATOM      6  C   UNL     1      -8.437   0.271   7.489  1.00  0.00     0.006 C 
BRANCH   6   7
ATOM      7  C   UNL     1      -8.820   0.541   6.028  1.00  0.00     0.053 C 
BRANCH   7   8
ATOM      8  C   UNL     1      -7.763   0.019   5.108  1.00  0.00     0.041 C 
ATOM      9  O   UNL     1      -8.085  -0.593   4.055  1.00  0.00    -0.550 OA
ATOM     10  O   UNL     1      -6.421   0.163   5.436  1.00  0.00    -0.550 OA
ENDBRANCH   7   8
ENDBRANCH   6   7
ENDBRANCH   5   6
ENDBRANCH   4   5
ENDBRANCH   3   4
ENDBRANCH   2   3
ENDBRANCH   1   2
BRANCH   1  11
ATOM     11  C   UNL     1      -9.700  -0.779  12.110  1.00  0.00     0.000 C 
BRANCH  11  12
ATOM     12  C   UNL     1      -9.327   0.368  11.158  1.00  0.00     0.000 C 
BRANCH  12  13
ATOM     13  C   UNL     1      -8.121   1.183  11.657  1.00  0.00     0.000 C 
BRANCH  13  14
ATOM     14  C   UNL     1      -6.967   1.207  10.640  1.00  0.00     0.000 C 
BRANCH  14  15
ATOM     15  C   UNL     1      -5.689   0.549  11.185  1.00  0.00     0.000 C 
BRANCH  15  16
ATOM     16  C   UNL     1      -4.432   0.909  10.373  1.00  0.00     0.006 C 
BRANCH  16  17
ATOM     17  C   UNL     1      -4.405   0.299   8.960  1.00  0.00     0.053 C 
BRANCH  17  18
ATOM     18  C   UNL     1      -3.355   0.916   8.086  1.00  0.00     0.041 C 
ATOM     19  O   UNL     1      -3.523   0.975   6.840  1.00  0.00    -0.550 OA
ATOM     20  O   UNL     1      -2.206   1.458   8.649  1.00  0.00    -0.550 OA
ENDBRANCH  17  18
ENDBRANCH  16  17
ENDBRANCH  15  16
ENDBRANCH  14  15
ENDBRANCH  13  14
ENDBRANCH  12  13
ENDBRANCH  11  12
ENDBRANCH   1  11
TORSDOF 15
ENDMDL
MODEL 4
REMARK VINA RESULT:    -3.070      1.411      2.912
REMARK INTER + INTRA:          -8.087
REMARK INTER:                  -5.925
REMARK INTRA:                  -2.162
REMARK UNBOUND:                -2.324
REMARK SMILES O=C([O-])CCCCCCCCCCCCCCC(=O)[O-]
REMARK SMILES IDX 10 1 9 2 8 3 7 4 6 5 5 6 4 7 2 8 1 9 3 10 11 11 12 12 13 13
REMARK SMILES IDX 14 14 15 15 16 16 17 17 18 18 19 19 20 20
REMARK H PARENT
REMARK Flexibility Score: inf
ROOT
ATOM      1  C   UNL     1      -7.901  -2.918  11.246  1.00  0.00     0.000 C 
ENDROOT
BRANCH   1   2
ATOM      2  C   UNL     1      -7.778  -3.973  10.140  1.00  0.00     0.000 C 
BRANCH   2   3
ATOM      3  C   UNL     1      -8.931  -3.852   9.133  1.00  0.00     0.000 C 
BRANCH   3   4
ATOM      4  C   UNL     1      -8.448  -3.546   7.704  1.00  0.00     0.000 C 
BRANCH   4   5
ATOM      5  C   UNL     1      -7.088  -2.824   7.614  1.00  0.00     0.000 C 
BRANCH   5   6
ATOM      6  C   UNL     1      -7.151  -1.293   7.769  1.00  0.00     0.006 C 
BRANCH   6   7
ATOM      7  C   UNL     1      -8.570  -0.736   7.599  1.00  0.00     0.053 C 
BRANCH   7   8
ATOM      8  C   UNL     1      -8.552   0.471   6.715  1.00  0.00     0.041 C 
ATOM      9  O   UNL     1      -8.169   1.582   7.166  1.00  0.00    -0.550 OA
ATOM     10  O   UNL     1      -9.007   0.380   5.405  1.00  0.00    -0.550 OA
ENDBRANCH   7   8
ENDBRANCH   6   7
ENDBRANCH   5   6
ENDBRANCH   4   5
ENDBRANCH   3   4
ENDBRANCH   2   3
ENDBRANCH   1   2
BRANCH   1  11
ATOM     11  C   UNL     1      -9.370  -2.533  11.479  1.00  0.00     0.000 C 
BRANCH  11  12
ATOM     12  C   UNL     1      -9.605  -1.016  11.411  1.00  0.00     0.000 C 
BRANCH  12  13
ATOM     13  C   UNL     1      -8.363  -0.206  11.819  1.00  0.00     0.000 C 
BRANCH  13  14
ATOM     14  C   UNL     1      -8.143   1.025  10.923  1.00  0.00     0.000 C 
BRANCH  14  15
ATOM     15  C   UNL     1      -6.696   1.130  10.413  1.00  0.00     0.000 C 
BRANCH  15  16
ATOM     16  C   UNL     1      -5.711   0.255  11.210  1.00  0.00     0.006 C 
BRANCH  16  17
ATOM     17  C   UNL     1      -4.355   0.047  10.514  1.00  0.00     0.053 C 
BRANCH  17  18
ATOM     18  C   UNL     1      -4.067   1.100   9.487  1.00  0.00     0.041 C 
ATOM     19  O   UNL     1      -3.651   2.234   9.843  1.00  0.00    -0.550 OA
ATOM     20  O   UNL     1      -4.223   0.820   8.135  1.00  0.00    -0.550 OA
ENDBRANCH  17  18
ENDBRANCH  16  17
ENDBRANCH  15  16
ENDBRANCH  14  15
ENDBRANCH  13  14
ENDBRANCH  12  13
ENDBRANCH  11  12
ENDBRANCH   1  11
TORSDOF 15
ENDMDL
MODEL 5
REMARK VINA RESULT:    -3.054      9.341     12.508
REMARK INTER + INTRA:          -8.056
REMARK INTER:                  -7.241
REMARK INTRA:                  -0.815
REMARK UNBOUND:                -2.324
REMARK SMILES O=C([O-])CCCCCCCCCCCCCCC(=O)[O-]
REMARK SMILES IDX 10 1 9 2 8 3 7 4 6 5 5 6 4 7 2 8 1 9 3 10 11 11 12 12 13 13
REMARK SMILES IDX 14 14 15 15 16 16 17 17 18 18 19 19 20 20
REMARK H PARENT
REMARK Flexibility Score: inf
ROOT
ATOM      1  C   UNL     1       1.538  10.125   6.505  1.00  0.00     0.000 C 
ENDROOT
BRANCH   1   2
ATOM      2  C   UNL     1       2.719   9.300   7.029  1.00  0.00     0.000 C 
BRANCH   2   3
ATOM      3  C   UNL     1       2.469   7.797   6.838  1.00  0.00     0.000 C 
BRANCH   3   4
ATOM      4  C   UNL     1       3.322   7.186   5.711  1.00  0.00     0.000 C 
BRANCH   4   5
ATOM      5  C   UNL     1       3.362   5.644   5.684  1.00  0.00     0.000 C 
BRANCH   5   6
ATOM      6  C   UNL     1       1.987   4.958   5.596  1.00  0.00     0.006 C 
BRANCH   6   7
ATOM      7  C   UNL     1       2.070   3.436   5.769  1.00  0.00     0.053 C 
BRANCH   7   8
ATOM      8  C   UNL     1       1.713   3.050   7.169  1.00  0.00     0.041 C 
ATOM      9  O   UNL     1       2.610   2.696   7.978  1.00  0.00    -0.550 OA
ATOM     10  O   UNL     1       0.382   3.033   7.568  1.00  0.00    -0.550 OA
ENDBRANCH   7   8
ENDBRANCH   6   7
ENDBRANCH   5   6
ENDBRANCH   4   5
ENDBRANCH   3   4
ENDBRANCH   2   3
ENDBRANCH   1   2
BRANCH   1  11
ATOM     11  C   UNL     1       1.303   9.860   5.010  1.00  0.00     0.000 C 
BRANCH  11  12
ATOM     12  C   UNL     1      -0.137   9.418   4.704  1.00  0.00     0.000 C 
BRANCH  12  13
ATOM     13  C   UNL     1      -1.169  10.075   5.638  1.00  0.00     0.000 C 
BRANCH  13  14
ATOM     14  C   UNL     1      -2.608   9.935   5.115  1.00  0.00     0.000 C 
BRANCH  14  15
ATOM     15  C   UNL     1      -2.809   8.660   4.279  1.00  0.00     0.000 C 
BRANCH  15  16
ATOM     16  C   UNL     1      -4.253   8.128   4.328  1.00  0.00     0.006 C 
BRANCH  16  17
ATOM     17  C   UNL     1      -4.812   7.710   2.957  1.00  0.00     0.053 C 
BRANCH  17  18
ATOM     18  C   UNL     1      -4.368   8.619   1.852  1.00  0.00     0.041 C 
ATOM     19  O   UNL     1      -4.764   9.814   1.818  1.00  0.00    -0.550 OA
ATOM     20  O   UNL     1      -3.490   8.161   0.878  1.00  0.00    -0.550 OA
ENDBRANCH  17  18
ENDBRANCH  16  17
ENDBRANCH  15  16
ENDBRANCH  14  15
ENDBRANCH  13  14
ENDBRANCH  12  13
ENDBRANCH  11  12
ENDBRANCH   1  11
TORSDOF 15
ENDMDL
MODEL 6
REMARK VINA RESULT:    -3.028     10.460     11.578
REMARK INTER + INTRA:          -8.008
REMARK INTER:                  -6.937
REMARK INTRA:                  -1.071
REMARK UNBOUND:                -2.324
REMARK SMILES O=C([O-])CCCCCCCCCCCCCCC(=O)[O-]
REMARK SMILES IDX 10 1 9 2 8 3 7 4 6 5 5 6 4 7 2 8 1 9 3 10 11 11 12 12 13 13
REMARK SMILES IDX 14 14 15 15 16 16 17 17 18 18 19 19 20 20
REMARK H PARENT
REMARK Flexibility Score: inf
ROOT
ATOM      1  C   UNL     1      -2.390  10.116   4.332  1.00  0.00     0.000 C 
ENDROOT
BRANCH   1   2
ATOM      2  C   UNL     1      -3.841   9.676   4.563  1.00  0.00     0.000 C 
BRANCH   2   3
ATOM      3  C   UNL     1      -4.066   8.240   4.067  1.00  0.00     0.000 C 
BRANCH   3   4
ATOM      4  C   UNL     1      -5.270   8.118   3.115  1.00  0.00     0.000 C 
BRANCH   4   5
ATOM      5  C   UNL     1      -6.105   9.405   2.949  1.00  0.00     0.000 C 
BRANCH   5   6
ATOM      6  C   UNL     1      -7.548   9.187   2.459  1.00  0.00     0.006 C 
BRANCH   6   7
ATOM      7  C   UNL     1      -7.710   7.902   1.636  1.00  0.00     0.053 C 
BRANCH   7   8
ATOM      8  C   UNL     1      -9.014   7.242   1.951  1.00  0.00     0.041 C 
ATOM      9  O   UNL     1      -9.728   7.668   2.897  1.00  0.00    -0.550 OA
ATOM     10  O   UNL     1      -9.420   6.124   1.232  1.00  0.00    -0.550 OA
ENDBRANCH   7   8
ENDBRANCH   6   7
ENDBRANCH   5   6
ENDBRANCH   4   5
ENDBRANCH   3   4
ENDBRANCH   2   3
ENDBRANCH   1   2
BRANCH   1  11
ATOM     11  C   UNL     1      -1.905   9.698   2.935  1.00  0.00     0.000 C 
BRANCH  11  12
ATOM     12  C   UNL     1      -0.423   9.292   2.918  1.00  0.00     0.000 C 
BRANCH  12  13
ATOM     13  C   UNL     1       0.006   8.562   4.203  1.00  0.00     0.000 C 
BRANCH  13  14
ATOM     14  C   UNL     1       1.296   9.143   4.807  1.00  0.00     0.000 C 
BRANCH  14  15
ATOM     15  C   UNL     1       1.408   8.880   6.318  1.00  0.00     0.000 C 
BRANCH  15  16
ATOM     16  C   UNL     1       2.769   8.285   6.726  1.00  0.00     0.006 C 
BRANCH  16  17
ATOM     17  C   UNL     1       3.569   7.692   5.553  1.00  0.00     0.053 C 
BRANCH  17  18
ATOM     18  C   UNL     1       3.514   6.195   5.517  1.00  0.00     0.041 C 
ATOM     19  O   UNL     1       4.400   5.543   4.904  1.00  0.00    -0.550 OA
ATOM     20  O   UNL     1       2.506   5.515   6.189  1.00  0.00    -0.550 OA
ENDBRANCH  17  18
ENDBRANCH  16  17
ENDBRANCH  15  16
ENDBRANCH  14  15
ENDBRANCH  13  14
ENDBRANCH  12  13
ENDBRANCH  11  12
ENDBRANCH   1  11
TORSDOF 15
ENDMDL
MODEL 7
REMARK VINA RESULT:    -2.975      2.728      4.766
REMARK INTER + INTRA:          -7.909
REMARK INTER:                  -5.420
REMARK INTRA:                  -2.489
REMARK UNBOUND:                -2.324
REMARK SMILES O=C([O-])CCCCCCCCCCCCCCC(=O)[O-]
REMARK SMILES IDX 10 1 9 2 8 3 7 4 6 5 5 6 4 7 2 8 1 9 3 10 11 11 12 12 13 13
REMARK SMILES IDX 14 14 15 15 16 16 17 17 18 18 19 19 20 20
REMARK H PARENT
REMARK Flexibility Score: inf
ROOT
ATOM      1  C   UNL     1      -5.319  -0.823  11.574  1.00  0.00     0.000 C 
ENDROOT
BRANCH   1   2
ATOM      2  C   UNL     1      -5.274  -1.603  10.255  1.00  0.00     0.000 C 
BRANCH   2   3
ATOM      3  C   UNL     1      -6.383  -2.665  10.205  1.00  0.00     0.000 C 
BRANCH   3   4
ATOM      4  C   UNL     1      -7.007  -2.944  11.584  1.00  0.00     0.000 C 
BRANCH   4   5
ATOM      5  C   UNL     1      -8.480  -3.402  11.554  1.00  0.00     0.000 C 
BRANCH   5   6
ATOM      6  C   UNL     1      -9.135  -3.401  10.162  1.00  0.00     0.006 C 
BRANCH   6   7
ATOM      7  C   UNL     1      -9.438  -4.814   9.646  1.00  0.00     0.053 C 
BRANCH   7   8
ATOM      8  C   UNL     1      -8.984  -4.959   8.228  1.00  0.00     0.041 C 
ATOM      9  O   UNL     1      -9.020  -6.083   7.663  1.00  0.00    -0.550 OA
ATOM     10  O   UNL     1      -8.474  -3.861   7.545  1.00  0.00    -0.550 OA
ENDBRANCH   7   8
ENDBRANCH   6   7
ENDBRANCH   5   6
ENDBRANCH   4   5
ENDBRANCH   3   4
ENDBRANCH   2   3
ENDBRANCH   1   2
BRANCH   1  11
ATOM     11  C   UNL     1      -5.148   0.684  11.328  1.00  0.00     0.000 C 
BRANCH  11  12
ATOM     12  C   UNL     1      -6.490   1.430  11.254  1.00  0.00     0.000 C 
BRANCH  12  13
ATOM     13  C   UNL     1      -7.661   0.597  11.804  1.00  0.00     0.000 C 
BRANCH  13  14
ATOM     14  C   UNL     1      -8.721   0.294  10.731  1.00  0.00     0.000 C 
BRANCH  14  15
ATOM     15  C   UNL     1      -8.238   0.640   9.313  1.00  0.00     0.000 C 
BRANCH  15  16
ATOM     16  C   UNL     1      -8.639  -0.415   8.266  1.00  0.00     0.006 C 
BRANCH  16  17
ATOM     17  C   UNL     1      -7.710  -0.464   7.041  1.00  0.00     0.053 C 
BRANCH  17  18
ATOM     18  C   UNL     1      -8.326   0.158   5.825  1.00  0.00     0.041 C 
ATOM     19  O   UNL     1      -8.660   1.372   5.835  1.00  0.00    -0.550 OA
ATOM     20  O   UNL     1      -8.500  -0.590   4.667  1.00  0.00    -0.550 OA
ENDBRANCH  17  18
ENDBRANCH  16  17
ENDBRANCH  15  16
ENDBRANCH  14  15
ENDBRANCH  13  14
ENDBRANCH  12  13
ENDBRANCH  11  12
ENDBRANCH   1  11
TORSDOF 15
ENDMDL
MODEL 8
REMARK VINA RESULT:    -2.949      8.986     11.172
REMARK INTER + INTRA:          -7.859
REMARK INTER:                  -6.325
REMARK INTRA:                  -1.534
REMARK UNBOUND:                -2.324
REMARK SMILES O=C([O-])CCCCCCCCCCCCCCC(=O)[O-]
REMARK SMILES IDX 10 1 9 2 8 3 7 4 6 5 5 6 4 7 2 8 1 9 3 10 11 11 12 12 13 13
REMARK SMILES IDX 14 14 15 15 16 16 17 17 18 18 19 19 20 20
REMARK H PARENT
REMARK Flexibility Score: inf
ROOT
ATOM      1  C   UNL     1      -0.371   8.278   3.706  1.00  0.00     0.000 C 
ENDROOT
BRANCH   1   2
ATOM      2  C   UNL     1      -1.411   9.304   3.240  1.00  0.00     0.000 C 
BRANCH   2   3
ATOM      3  C   UNL     1      -2.162   9.909   4.436  1.00  0.00     0.000 C 
BRANCH   3   4
ATOM      4  C   UNL     1      -3.517   9.227   4.698  1.00  0.00     0.000 C 
BRANCH   4   5
ATOM      5  C   UNL     1      -4.517   9.286   3.524  1.00  0.00     0.000 C 
BRANCH   5   6
ATOM      6  C   UNL     1      -4.971   7.917   2.986  1.00  0.00     0.006 C 
BRANCH   6   7
ATOM      7  C   UNL     1      -4.124   6.756   3.521  1.00  0.00     0.053 C 
BRANCH   7   8
ATOM      8  C   UNL     1      -4.571   5.462   2.917  1.00  0.00     0.041 C 
ATOM      9  O   UNL     1      -4.075   4.374   3.310  1.00  0.00    -0.550 OA
ATOM     10  O   UNL     1      -5.502   5.462   1.885  1.00  0.00    -0.550 OA
ENDBRANCH   7   8
ENDBRANCH   6   7
ENDBRANCH   5   6
ENDBRANCH   4   5
ENDBRANCH   3   4
ENDBRANCH   2   3
ENDBRANCH   1   2
BRANCH   1  11
ATOM     11  C   UNL     1       0.321   8.744   4.996  1.00  0.00     0.000 C 
BRANCH  11  12
ATOM     12  C   UNL     1       1.622   9.516   4.728  1.00  0.00     0.000 C 
BRANCH  12  13
ATOM     13  C   UNL     1       2.813   8.967   5.533  1.00  0.00     0.000 C 
BRANCH  13  14
ATOM     14  C   UNL     1       2.436   7.737   6.375  1.00  0.00     0.000 C 
BRANCH  14  15
ATOM     15  C   UNL     1       3.230   6.483   5.972  1.00  0.00     0.000 C 
BRANCH  15  16
ATOM     16  C   UNL     1       2.582   5.706   4.811  1.00  0.00     0.006 C 
BRANCH  16  17
ATOM     17  C   UNL     1       1.376   4.847   5.230  1.00  0.00     0.053 C 
BRANCH  17  18
ATOM     18  C   UNL     1       1.765   3.701   6.115  1.00  0.00     0.041 C 
ATOM     19  O   UNL     1       2.766   2.993   5.829  1.00  0.00    -0.550 OA
ATOM     20  O   UNL     1       1.044   3.435   7.272  1.00  0.00    -0.550 OA
ENDBRANCH  17  18
ENDBRANCH  16  17
ENDBRANCH  15  16
ENDBRANCH  14  15
ENDBRANCH  13  14
ENDBRANCH  12  13
ENDBRANCH  11  12
ENDBRANCH   1  11
TORSDOF 15
ENDMDL
MODEL 9
REMARK VINA RESULT:    -2.922      2.623      4.130
REMARK INTER + INTRA:          -7.809
REMARK INTER:                  -5.733
REMARK INTRA:                  -2.075
REMARK UNBOUND:                -2.324
REMARK SMILES O=C([O-])CCCCCCCCCCCCCCC(=O)[O-]
REMARK SMILES IDX 10 1 9 2 8 3 7 4 6 5 5 6 4 7 2 8 1 9 3 10 11 11 12 12 13 13
REMARK SMILES IDX 14 14 15 15 16 16 17 17 18 18 19 19 20 20
REMARK H PARENT
REMARK Flexibility Score: inf
ROOT
ATOM      1  C   UNL     1      -7.363  -1.372   8.713  1.00  0.00     0.000 C 
ENDROOT
BRANCH   1   2
ATOM      2  C   UNL     1      -7.056  -0.134   7.862  1.00  0.00     0.000 C 
BRANCH   2   3
ATOM      3  C   UNL     1      -8.320   0.711   7.643  1.00  0.00     0.000 C 
BRANCH   3   4
ATOM      4  C   UNL     1      -8.747   0.775   6.165  1.00  0.00     0.000 C 
BRANCH   4   5
ATOM      5  C   UNL     1      -7.882  -0.058   5.197  1.00  0.00     0.000 C 
BRANCH   5   6
ATOM      6  C   UNL     1      -8.606  -1.240   4.527  1.00  0.00     0.006 C 
BRANCH   6   7
ATOM      7  C   UNL     1      -8.447  -2.553   5.305  1.00  0.00     0.053 C 
BRANCH   7   8
ATOM      8  C   UNL     1      -8.992  -3.697   4.511  1.00  0.00     0.041 C 
ATOM      9  O   UNL     1      -9.895  -3.503   3.655  1.00  0.00    -0.550 OA
ATOM     10  O   UNL     1      -8.538  -4.989   4.750  1.00  0.00    -0.550 OA
ENDBRANCH   7   8
ENDBRANCH   6   7
ENDBRANCH   5   6
ENDBRANCH   4   5
ENDBRANCH   3   4
ENDBRANCH   2   3
ENDBRANCH   1   2
BRANCH   1  11
ATOM     11  C   UNL     1      -8.785  -1.304   9.289  1.00  0.00     0.000 C 
BRANCH  11  12
ATOM     12  C   UNL     1      -8.800  -1.094  10.812  1.00  0.00     0.000 C 
BRANCH  12  13
ATOM     13  C   UNL     1      -9.339   0.291  11.212  1.00  0.00     0.000 C 
BRANCH  13  14
ATOM     14  C   UNL     1      -8.239   1.213  11.764  1.00  0.00     0.000 C 
BRANCH  14  15
ATOM     15  C   UNL     1      -6.895   0.486  11.939  1.00  0.00     0.000 C 
BRANCH  15  16
ATOM     16  C   UNL     1      -5.722   1.216  11.259  1.00  0.00     0.006 C 
BRANCH  16  17
ATOM     17  C   UNL     1      -4.637   0.276  10.706  1.00  0.00     0.053 C 
BRANCH  17  18
ATOM     18  C   UNL     1      -3.716   0.963   9.743  1.00  0.00     0.041 C 
ATOM     19  O   UNL     1      -3.028   0.287   8.934  1.00  0.00    -0.550 OA
ATOM     20  O   UNL     1      -3.641   2.349   9.714  1.00  0.00    -0.550 OA
ENDBRANCH  17  18
ENDBRANCH  16  17
ENDBRANCH  15  16
ENDBRANCH  14  15
ENDBRANCH  13  14
ENDBRANCH  12  13
ENDBRANCH  11  12
ENDBRANCH   1  11
TORSDOF 15
ENDMDL
