MODEL 1
REMARK VINA RESULT:    -3.833      0.000      0.000
REMARK INTER + INTRA:          -8.514
REMARK INTER:                  -6.971
REMARK INTRA:                  -1.543
REMARK UNBOUND:                -1.543
REMARK SMILES CCCCCCCCCCCCCC[C@H](C)C(=O)[O-]
REMARK SMILES IDX 9 1 10 2 11 3 12 4 13 5 14 6 15 7 16 8 17 9 18 10 19 11 8 12
REMARK SMILES IDX 7 13 6 14 5 15 4 16 3 17 2 18 1 19
REMARK H PARENT
REMARK Flexibility Score: inf
ROOT
ATOM      1  C   UNL     1     -94.067 147.206 236.672  1.00  0.00     0.000 C 
ENDROOT
BRANCH   1   2
ATOM      2  C   UNL     1     -95.366 147.919 236.242  1.00  0.00     0.000 C 
BRANCH   2   3
ATOM      3  C   UNL     1     -95.328 149.455 236.349  1.00  0.00     0.000 C 
BRANCH   3   4
ATOM      4  C   UNL     1     -96.364 150.189 235.476  1.00  0.00     0.000 C 
BRANCH   4   5
ATOM      5  C   UNL     1     -95.813 150.633 234.103  1.00  0.00     0.001 C 
BRANCH   5   6
ATOM      6  C   UNL     1     -95.909 152.158 233.901  1.00  0.00     0.009 C 
BRANCH   6   7
ATOM      7  C   UNL     1     -97.321 152.663 233.529  1.00  0.00     0.032 C 
ATOM      8  C   UNL     1     -97.411 153.165 232.080  1.00  0.00     0.014 C 
BRANCH   7   9
ATOM      9  C   UNL     1     -97.819 153.689 234.515  1.00  0.00     0.044 C 
ATOM     10  O   UNL     1     -97.187 154.761 234.710  1.00  0.00    -0.550 OA
ATOM     11  O   UNL     1     -98.961 153.426 235.260  1.00  0.00    -0.550 OA
ENDBRANCH   7   9
ENDBRANCH   6   7
ENDBRANCH   5   6
ENDBRANCH   4   5
ENDBRANCH   3   4
ENDBRANCH   2   3
ENDBRANCH   1   2
BRANCH   1  12
ATOM     12  C   UNL     1     -93.556 147.571 238.081  1.00  0.00     0.000 C 
BRANCH  12  13
ATOM     13  C   UNL     1     -94.304 146.888 239.245  1.00  0.00    -0.000 C 
BRANCH  13  14
ATOM     14  C   UNL     1     -95.135 147.834 240.129  1.00  0.00    -0.000 C 
BRANCH  14  15
ATOM     15  C   UNL     1     -94.740 149.309 239.960  1.00  0.00    -0.000 C 
BRANCH  15  16
ATOM     16  C   UNL     1     -95.968 150.221 240.060  1.00  0.00    -0.000 C 
BRANCH  16  17
ATOM     17  C   UNL     1     -97.234 149.493 239.591  1.00  0.00    -0.000 C 
BRANCH  17  18
ATOM     18  C   UNL     1     -98.481 150.059 240.279  1.00  0.00    -0.003 C 
ATOM     19  C   UNL     1     -98.247 150.255 241.773  1.00  0.00     0.004 C 
ENDBRANCH  17  18
ENDBRANCH  16  17
ENDBRANCH  15  16
ENDBRANCH  14  15
ENDBRANCH  13  14
ENDBRANCH  12  13
ENDBRANCH   1  12
TORSDOF 14
ENDMDL
MODEL 2
REMARK VINA RESULT:    -3.830      1.748      4.034
REMARK INTER + INTRA:          -8.508
REMARK INTER:                  -6.168
REMARK INTRA:                  -2.340
REMARK UNBOUND:                -1.543
REMARK SMILES CCCCCCCCCCCCCC[C@H](C)C(=O)[O-]
REMARK SMILES IDX 9 1 10 2 11 3 12 4 13 5 14 6 15 7 16 8 17 9 18 10 19 11 8 12
REMARK SMILES IDX 7 13 6 14 5 15 4 16 3 17 2 18 1 19
REMARK H PARENT
REMARK Flexibility Score: inf
ROOT
ATOM      1  C   UNL     1     -96.581 150.381 240.338  1.00  0.00     0.000 C 
ENDROOT
BRANCH   1   2
ATOM      2  C   UNL     1     -98.009 150.955 240.236  1.00  0.00     0.000 C 
BRANCH   2   3
ATOM      3  C   UNL     1     -99.084 149.947 239.788  1.00  0.00     0.000 C 
BRANCH   3   4
ATOM      4  C   UNL     1    -100.020 150.452 238.674  1.00  0.00     0.000 C 
BRANCH   4   5
ATOM      5  C   UNL     1     -99.538 151.761 238.008  1.00  0.00     0.001 C 
BRANCH   5   6
ATOM      6  C   UNL     1     -99.782 151.764 236.485  1.00  0.00     0.009 C 
BRANCH   6   7
ATOM      7  C   UNL     1     -99.509 153.122 235.801  1.00  0.00     0.032 C 
ATOM      8  C   UNL     1    -100.761 153.717 235.138  1.00  0.00     0.014 C 
BRANCH   7   9
ATOM      9  C   UNL     1     -98.349 153.034 234.842  1.00  0.00     0.044 C 
ATOM     10  O   UNL     1     -98.089 151.961 234.235  1.00  0.00    -0.550 OA
ATOM     11  O   UNL     1     -97.521 154.135 234.664  1.00  0.00    -0.550 OA
ENDBRANCH   7   9
ENDBRANCH   6   7
ENDBRANCH   5   6
ENDBRANCH   4   5
ENDBRANCH   3   4
ENDBRANCH   2   3
ENDBRANCH   1   2
BRANCH   1  12
ATOM     12  C   UNL     1     -96.504 148.855 240.551  1.00  0.00     0.000 C 
BRANCH  12  13
ATOM     13  C   UNL     1     -95.161 148.207 240.154  1.00  0.00    -0.000 C 
BRANCH  13  14
ATOM     14  C   UNL     1     -94.312 149.023 239.164  1.00  0.00    -0.000 C 
BRANCH  14  15
ATOM     15  C   UNL     1     -93.798 148.183 237.985  1.00  0.00    -0.000 C 
BRANCH  15  16
ATOM     16  C   UNL     1     -94.771 148.244 236.802  1.00  0.00    -0.000 C 
BRANCH  16  17
ATOM     17  C   UNL     1     -95.441 149.620 236.710  1.00  0.00    -0.000 C 
BRANCH  17  18
ATOM     18  C   UNL     1     -96.955 149.484 236.517  1.00  0.00    -0.003 C 
ATOM     19  C   UNL     1     -97.447 148.108 236.957  1.00  0.00     0.004 C 
ENDBRANCH  17  18
ENDBRANCH  16  17
ENDBRANCH  15  16
ENDBRANCH  14  15
ENDBRANCH  13  14
ENDBRANCH  12  13
ENDBRANCH   1  12
TORSDOF 14
ENDMDL
MODEL 3
REMARK VINA RESULT:    -3.816      2.233      4.470
REMARK INTER + INTRA:          -8.482
REMARK INTER:                  -6.182
REMARK INTRA:                  -2.300
REMARK UNBOUND:                -1.543
REMARK SMILES CCCCCCCCCCCCCC[C@H](C)C(=O)[O-]
REMARK SMILES IDX 9 1 10 2 11 3 12 4 13 5 14 6 15 7 16 8 17 9 18 10 19 11 8 12
REMARK SMILES IDX 7 13 6 14 5 15 4 16 3 17 2 18 1 19
REMARK H PARENT
REMARK Flexibility Score: inf
ROOT
ATOM      1  C   UNL     1     -96.611 148.746 240.475  1.00  0.00     0.000 C 
ENDROOT
BRANCH   1   2
ATOM      2  C   UNL     1     -95.202 148.157 240.257  1.00  0.00     0.000 C 
BRANCH   2   3
ATOM      3  C   UNL     1     -94.314 148.944 239.275  1.00  0.00     0.000 C 
BRANCH   3   4
ATOM      4  C   UNL     1     -93.793 148.126 238.078  1.00  0.00     0.000 C 
BRANCH   4   5
ATOM      5  C   UNL     1     -94.601 148.344 236.780  1.00  0.00     0.001 C 
BRANCH   5   6
ATOM      6  C   UNL     1     -95.380 149.674 236.794  1.00  0.00     0.009 C 
BRANCH   6   7
ATOM      7  C   UNL     1     -96.908 149.518 236.635  1.00  0.00     0.032 C 
ATOM      8  C   UNL     1     -97.388 148.078 236.879  1.00  0.00     0.014 C 
BRANCH   7   9
ATOM      9  C   UNL     1     -97.385 150.055 235.310  1.00  0.00     0.044 C 
ATOM     10  O   UNL     1     -96.790 149.760 234.239  1.00  0.00    -0.550 OA
ATOM     11  O   UNL     1     -98.462 150.932 235.272  1.00  0.00    -0.550 OA
ENDBRANCH   7   9
ENDBRANCH   6   7
ENDBRANCH   5   6
ENDBRANCH   4   5
ENDBRANCH   3   4
ENDBRANCH   2   3
ENDBRANCH   1   2
BRANCH   1  12
ATOM     12  C   UNL     1     -96.703 150.281 240.359  1.00  0.00     0.000 C 
BRANCH  12  13
ATOM     13  C   UNL     1     -98.088 150.824 239.952  1.00  0.00    -0.000 C 
BRANCH  13  14
ATOM     14  C   UNL     1     -99.246 149.820 240.086  1.00  0.00    -0.000 C 
BRANCH  14  15
ATOM     15  C   UNL     1    -100.077 150.033 241.360  1.00  0.00    -0.000 C 
BRANCH  15  16
ATOM     16  C   UNL     1     -99.914 148.854 242.326  1.00  0.00    -0.000 C 
BRANCH  16  17
ATOM     17  C   UNL     1     -99.196 149.288 243.609  1.00  0.00    -0.000 C 
BRANCH  17  18
ATOM     18  C   UNL     1     -98.728 150.744 243.513  1.00  0.00    -0.003 C 
ATOM     19  C   UNL     1     -99.162 151.545 244.736  1.00  0.00     0.004 C 
ENDBRANCH  17  18
ENDBRANCH  16  17
ENDBRANCH  15  16
ENDBRANCH  14  15
ENDBRANCH  13  14
ENDBRANCH  12  13
ENDBRANCH   1  12
TORSDOF 14
ENDMDL
MODEL 4
REMARK VINA RESULT:    -3.808      1.372      2.294
REMARK INTER + INTRA:          -8.468
REMARK INTER:                  -6.693
REMARK INTRA:                  -1.775
REMARK UNBOUND:                -1.543
REMARK SMILES CCCCCCCCCCCCCC[C@H](C)C(=O)[O-]
REMARK SMILES IDX 9 1 10 2 11 3 12 4 13 5 14 6 15 7 16 8 17 9 18 10 19 11 8 12
REMARK SMILES IDX 7 13 6 14 5 15 4 16 3 17 2 18 1 19
REMARK H PARENT
REMARK Flexibility Score: inf
ROOT
ATOM      1  C   UNL     1     -96.313 148.972 236.627  1.00  0.00     0.000 C 
ENDROOT
BRANCH   1   2
ATOM      2  C   UNL     1     -96.916 149.790 235.467  1.00  0.00     0.000 C 
BRANCH   2   3
ATOM      3  C   UNL     1     -96.220 149.598 234.107  1.00  0.00     0.000 C 
BRANCH   3   4
ATOM      4  C   UNL     1     -95.864 150.905 233.373  1.00  0.00     0.000 C 
BRANCH   4   5
ATOM      5  C   UNL     1     -95.987 152.165 234.259  1.00  0.00     0.001 C 
BRANCH   5   6
ATOM      6  C   UNL     1     -96.926 153.222 233.644  1.00  0.00     0.009 C 
BRANCH   6   7
ATOM      7  C   UNL     1     -97.972 153.791 234.627  1.00  0.00     0.032 C 
ATOM      8  C   UNL     1     -99.131 152.817 234.893  1.00  0.00     0.014 C 
BRANCH   7   9
ATOM      9  C   UNL     1     -98.463 155.147 234.189  1.00  0.00     0.044 C 
ATOM     10  O   UNL     1     -99.523 155.269 233.518  1.00  0.00    -0.550 OA
ATOM     11  O   UNL     1     -97.708 156.277 234.480  1.00  0.00    -0.550 OA
ENDBRANCH   7   9
ENDBRANCH   6   7
ENDBRANCH   5   6
ENDBRANCH   4   5
ENDBRANCH   3   4
ENDBRANCH   2   3
ENDBRANCH   1   2
BRANCH   1  12
ATOM     12  C   UNL     1     -95.013 149.546 237.225  1.00  0.00     0.000 C 
BRANCH  12  13
ATOM     13  C   UNL     1     -94.405 148.724 238.381  1.00  0.00    -0.000 C 
BRANCH  13  14
ATOM     14  C   UNL     1     -95.217 148.740 239.687  1.00  0.00    -0.000 C 
BRANCH  14  15
ATOM     15  C   UNL     1     -95.626 150.156 240.119  1.00  0.00    -0.000 C 
BRANCH  15  16
ATOM     16  C   UNL     1     -97.000 150.148 240.798  1.00  0.00    -0.000 C 
BRANCH  16  17
ATOM     17  C   UNL     1     -98.022 150.950 239.984  1.00  0.00    -0.000 C 
BRANCH  17  18
ATOM     18  C   UNL     1     -98.922 150.021 239.161  1.00  0.00    -0.003 C 
ATOM     19  C   UNL     1     -99.565 150.765 237.995  1.00  0.00     0.004 C 
ENDBRANCH  17  18
ENDBRANCH  16  17
ENDBRANCH  15  16
ENDBRANCH  14  15
ENDBRANCH  13  14
ENDBRANCH  12  13
ENDBRANCH   1  12
TORSDOF 14
ENDMDL
MODEL 5
REMARK VINA RESULT:    -3.763      2.877      6.845
REMARK INTER + INTRA:          -8.386
REMARK INTER:                  -6.951
REMARK INTRA:                  -1.436
REMARK UNBOUND:                -1.543
REMARK SMILES CCCCCCCCCCCCCC[C@H](C)C(=O)[O-]
REMARK SMILES IDX 9 1 10 2 11 3 12 4 13 5 14 6 15 7 16 8 17 9 18 10 19 11 8 12
REMARK SMILES IDX 7 13 6 14 5 15 4 16 3 17 2 18 1 19
REMARK H PARENT
REMARK Flexibility Score: inf
ROOT
ATOM      1  C   UNL     1     -96.877 149.368 236.439  1.00  0.00     0.000 C 
ENDROOT
BRANCH   1   2
ATOM      2  C   UNL     1     -95.384 148.989 236.527  1.00  0.00     0.000 C 
BRANCH   2   3
ATOM      3  C   UNL     1     -94.656 149.506 237.782  1.00  0.00     0.000 C 
BRANCH   3   4
ATOM      4  C   UNL     1     -94.367 148.434 238.850  1.00  0.00     0.000 C 
BRANCH   4   5
ATOM      5  C   UNL     1     -95.274 148.542 240.096  1.00  0.00     0.001 C 
BRANCH   5   6
ATOM      6  C   UNL     1     -96.064 149.865 240.130  1.00  0.00     0.009 C 
BRANCH   6   7
ATOM      7  C   UNL     1     -97.587 149.692 240.317  1.00  0.00     0.032 C 
ATOM      8  C   UNL     1     -98.402 150.792 239.618  1.00  0.00     0.014 C 
BRANCH   7   9
ATOM      9  C   UNL     1     -97.954 149.555 241.773  1.00  0.00     0.044 C 
ATOM     10  O   UNL     1     -97.824 148.456 242.375  1.00  0.00    -0.550 OA
ATOM     11  O   UNL     1     -98.494 150.642 242.449  1.00  0.00    -0.550 OA
ENDBRANCH   7   9
ENDBRANCH   6   7
ENDBRANCH   5   6
ENDBRANCH   4   5
ENDBRANCH   3   4
ENDBRANCH   2   3
ENDBRANCH   1   2
BRANCH   1  12
ATOM     12  C   UNL     1     -97.305 150.038 235.118  1.00  0.00     0.000 C 
BRANCH  12  13
ATOM     13  C   UNL     1     -96.580 149.522 233.858  1.00  0.00    -0.000 C 
BRANCH  13  14
ATOM     14  C   UNL     1     -95.404 150.393 233.381  1.00  0.00    -0.000 C 
BRANCH  14  15
ATOM     15  C   UNL     1     -95.667 151.896 233.552  1.00  0.00    -0.000 C 
BRANCH  15  16
ATOM     16  C   UNL     1     -96.477 152.449 232.373  1.00  0.00    -0.000 C 
BRANCH  16  17
ATOM     17  C   UNL     1     -97.485 153.504 232.843  1.00  0.00    -0.000 C 
BRANCH  17  18
ATOM     18  C   UNL     1     -97.254 153.870 234.313  1.00  0.00    -0.003 C 
ATOM     19  C   UNL     1     -97.867 155.225 234.648  1.00  0.00     0.004 C 
ENDBRANCH  17  18
ENDBRANCH  16  17
ENDBRANCH  15  16
ENDBRANCH  14  15
ENDBRANCH  13  14
ENDBRANCH  12  13
ENDBRANCH   1  12
TORSDOF 14
ENDMDL
MODEL 6
REMARK VINA RESULT:    -3.759      1.890      3.022
REMARK INTER + INTRA:          -8.379
REMARK INTER:                  -5.693
REMARK INTRA:                  -2.685
REMARK UNBOUND:                -1.543
REMARK SMILES CCCCCCCCCCCCCC[C@H](C)C(=O)[O-]
REMARK SMILES IDX 9 1 10 2 11 3 12 4 13 5 14 6 15 7 16 8 17 9 18 10 19 11 8 12
REMARK SMILES IDX 7 13 6 14 5 15 4 16 3 17 2 18 1 19
REMARK H PARENT
REMARK Flexibility Score: inf
ROOT
ATOM      1  C   UNL     1     -94.695 149.217 239.645  1.00  0.00     0.000 C 
ENDROOT
BRANCH   1   2
ATOM      2  C   UNL     1     -94.219 149.125 238.181  1.00  0.00     0.000 C 
BRANCH   2   3
ATOM      3  C   UNL     1     -95.280 148.623 237.183  1.00  0.00     0.000 C 
BRANCH   3   4
ATOM      4  C   UNL     1     -95.683 149.643 236.102  1.00  0.00     0.000 C 
BRANCH   4   5
ATOM      5  C   UNL     1     -96.440 149.015 234.910  1.00  0.00     0.001 C 
BRANCH   5   6
ATOM      6  C   UNL     1     -97.328 150.040 234.177  1.00  0.00     0.009 C 
BRANCH   6   7
ATOM      7  C   UNL     1     -97.381 151.430 234.847  1.00  0.00     0.032 C 
ATOM      8  C   UNL     1     -98.817 151.897 235.135  1.00  0.00     0.014 C 
BRANCH   7   9
ATOM      9  C   UNL     1     -96.600 152.453 234.063  1.00  0.00     0.044 C 
ATOM     10  O   UNL     1     -96.888 153.678 234.127  1.00  0.00    -0.550 OA
ATOM     11  O   UNL     1     -95.584 152.036 233.213  1.00  0.00    -0.550 OA
ENDBRANCH   7   9
ENDBRANCH   6   7
ENDBRANCH   5   6
ENDBRANCH   4   5
ENDBRANCH   3   4
ENDBRANCH   2   3
ENDBRANCH   1   2
BRANCH   1  12
ATOM     12  C   UNL     1     -95.741 148.162 240.060  1.00  0.00     0.000 C 
BRANCH  12  13
ATOM     13  C   UNL     1     -97.014 148.729 240.722  1.00  0.00    -0.000 C 
BRANCH  13  14
ATOM     14  C   UNL     1     -97.111 150.264 240.737  1.00  0.00    -0.000 C 
BRANCH  14  15
ATOM     15  C   UNL     1     -98.347 150.792 239.994  1.00  0.00    -0.000 C 
BRANCH  15  16
ATOM     16  C   UNL     1     -98.344 150.335 238.530  1.00  0.00    -0.000 C 
BRANCH  16  17
ATOM     17  C   UNL     1     -99.728 149.829 238.107  1.00  0.00    -0.000 C 
BRANCH  17  18
ATOM     18  C   UNL     1     -99.611 148.713 237.064  1.00  0.00    -0.003 C 
ATOM     19  C   UNL     1     -98.757 147.560 237.582  1.00  0.00     0.004 C 
ENDBRANCH  17  18
ENDBRANCH  16  17
ENDBRANCH  15  16
ENDBRANCH  14  15
ENDBRANCH  13  14
ENDBRANCH  12  13
ENDBRANCH   1  12
TORSDOF 14
ENDMDL
MODEL 7
REMARK VINA RESULT:    -3.744      2.978      6.675
REMARK INTER + INTRA:          -8.353
REMARK INTER:                  -6.087
REMARK INTRA:                  -2.265
REMARK UNBOUND:                -1.543
REMARK SMILES CCCCCCCCCCCCCC[C@H](C)C(=O)[O-]
REMARK SMILES IDX 9 1 10 2 11 3 12 4 13 5 14 6 15 7 16 8 17 9 18 10 19 11 8 12
REMARK SMILES IDX 7 13 6 14 5 15 4 16 3 17 2 18 1 19
REMARK H PARENT
REMARK Flexibility Score: inf
ROOT
ATOM      1  C   UNL     1     -95.223 149.528 236.770  1.00  0.00     0.000 C 
ENDROOT
BRANCH   1   2
ATOM      2  C   UNL     1     -94.254 149.110 237.894  1.00  0.00     0.000 C 
BRANCH   2   3
ATOM      3  C   UNL     1     -94.039 147.591 238.034  1.00  0.00     0.000 C 
BRANCH   3   4
ATOM      4  C   UNL     1     -94.529 146.988 239.364  1.00  0.00     0.000 C 
BRANCH   4   5
ATOM      5  C   UNL     1     -95.099 148.037 240.346  1.00  0.00     0.001 C 
BRANCH   5   6
ATOM      6  C   UNL     1     -96.594 147.808 240.640  1.00  0.00     0.009 C 
BRANCH   6   7
ATOM      7  C   UNL     1     -97.449 149.094 240.625  1.00  0.00     0.032 C 
ATOM      8  C   UNL     1     -96.615 150.361 240.379  1.00  0.00     0.014 C 
BRANCH   7   9
ATOM      9  C   UNL     1     -98.299 149.208 241.865  1.00  0.00     0.044 C 
ATOM     10  O   UNL     1     -98.921 148.211 242.320  1.00  0.00    -0.550 OA
ATOM     11  O   UNL     1     -98.444 150.443 242.485  1.00  0.00    -0.550 OA
ENDBRANCH   7   9
ENDBRANCH   6   7
ENDBRANCH   5   6
ENDBRANCH   4   5
ENDBRANCH   3   4
ENDBRANCH   2   3
ENDBRANCH   1   2
BRANCH   1  12
ATOM     12  C   UNL     1     -96.029 148.375 236.138  1.00  0.00     0.000 C 
BRANCH  12  13
ATOM     13  C   UNL     1     -97.520 148.681 235.886  1.00  0.00    -0.000 C 
BRANCH  13  14
ATOM     14  C   UNL     1     -98.081 149.877 236.674  1.00  0.00    -0.000 C 
BRANCH  14  15
ATOM     15  C   UNL     1     -98.646 150.979 235.765  1.00  0.00    -0.000 C 
BRANCH  15  16
ATOM     16  C   UNL     1     -97.934 150.989 234.407  1.00  0.00    -0.000 C 
BRANCH  16  17
ATOM     17  C   UNL     1     -96.984 152.186 234.292  1.00  0.00    -0.000 C 
BRANCH  17  18
ATOM     18  C   UNL     1     -95.697 151.799 233.555  1.00  0.00    -0.003 C 
ATOM     19  C   UNL     1     -95.784 150.381 232.999  1.00  0.00     0.004 C 
ENDBRANCH  17  18
ENDBRANCH  16  17
ENDBRANCH  15  16
ENDBRANCH  14  15
ENDBRANCH  13  14
ENDBRANCH  12  13
ENDBRANCH   1  12
TORSDOF 14
ENDMDL
MODEL 8
REMARK VINA RESULT:    -3.688      1.445      2.163
REMARK INTER + INTRA:          -8.250
REMARK INTER:                  -6.378
REMARK INTRA:                  -1.872
REMARK UNBOUND:                -1.543
REMARK SMILES CCCCCCCCCCCCCC[C@H](C)C(=O)[O-]
REMARK SMILES IDX 9 1 10 2 11 3 12 4 13 5 14 6 15 7 16 8 17 9 18 10 19 11 8 12
REMARK SMILES IDX 7 13 6 14 5 15 4 16 3 17 2 18 1 19
REMARK H PARENT
REMARK Flexibility Score: inf
ROOT
ATOM      1  C   UNL     1     -94.980 149.556 237.151  1.00  0.00     0.000 C 
ENDROOT
BRANCH   1   2
ATOM      2  C   UNL     1     -96.013 148.928 236.192  1.00  0.00     0.000 C 
BRANCH   2   3
ATOM      3  C   UNL     1     -97.476 149.019 236.664  1.00  0.00     0.000 C 
BRANCH   3   4
ATOM      4  C   UNL     1     -98.511 149.169 235.533  1.00  0.00     0.000 C 
BRANCH   4   5
ATOM      5  C   UNL     1     -98.010 150.019 234.344  1.00  0.00     0.001 C 
BRANCH   5   6
ATOM      6  C   UNL     1     -98.231 151.527 234.570  1.00  0.00     0.009 C 
BRANCH   6   7
ATOM      7  C   UNL     1     -97.282 152.438 233.760  1.00  0.00     0.032 C 
ATOM      8  C   UNL     1     -95.802 152.213 234.107  1.00  0.00     0.014 C 
BRANCH   7   9
ATOM      9  C   UNL     1     -97.675 153.889 233.876  1.00  0.00     0.044 C 
ATOM     10  O   UNL     1     -98.343 154.454 232.969  1.00  0.00    -0.550 OA
ATOM     11  O   UNL     1     -97.250 154.629 234.971  1.00  0.00    -0.550 OA
ENDBRANCH   7   9
ENDBRANCH   6   7
ENDBRANCH   5   6
ENDBRANCH   4   5
ENDBRANCH   3   4
ENDBRANCH   2   3
ENDBRANCH   1   2
BRANCH   1  12
ATOM     12  C   UNL     1     -94.256 148.557 238.076  1.00  0.00     0.000 C 
BRANCH  12  13
ATOM     13  C   UNL     1     -94.551 148.727 239.581  1.00  0.00    -0.000 C 
BRANCH  13  14
ATOM     14  C   UNL     1     -95.683 149.714 239.914  1.00  0.00    -0.000 C 
BRANCH  14  15
ATOM     15  C   UNL     1     -96.848 149.054 240.666  1.00  0.00    -0.000 C 
BRANCH  15  16
ATOM     16  C   UNL     1     -97.822 150.109 241.205  1.00  0.00    -0.000 C 
BRANCH  16  17
ATOM     17  C   UNL     1     -98.203 151.116 240.113  1.00  0.00    -0.000 C 
BRANCH  17  18
ATOM     18  C   UNL     1     -99.461 150.665 239.363  1.00  0.00    -0.003 C 
ATOM     19  C   UNL     1     -99.712 151.532 238.134  1.00  0.00     0.004 C 
ENDBRANCH  17  18
ENDBRANCH  16  17
ENDBRANCH  15  16
ENDBRANCH  14  15
ENDBRANCH  13  14
ENDBRANCH  12  13
ENDBRANCH   1  12
TORSDOF 14
ENDMDL
MODEL 9
REMARK VINA RESULT:    -3.662      2.457      6.079
REMARK INTER + INTRA:          -8.203
REMARK INTER:                  -6.100
REMARK INTRA:                  -2.104
REMARK UNBOUND:                -1.543
REMARK SMILES CCCCCCCCCCCCCC[C@H](C)C(=O)[O-]
REMARK SMILES IDX 9 1 10 2 11 3 12 4 13 5 14 6 15 7 16 8 17 9 18 10 19 11 8 12
REMARK SMILES IDX 7 13 6 14 5 15 4 16 3 17 2 18 1 19
REMARK H PARENT
REMARK Flexibility Score: inf
ROOT
ATOM      1  C   UNL     1     -95.349 149.634 237.412  1.00  0.00     0.000 C 
ENDROOT
BRANCH   1   2
ATOM      2  C   UNL     1     -94.926 148.593 238.469  1.00  0.00     0.000 C 
BRANCH   2   3
ATOM      3  C   UNL     1     -95.246 148.980 239.925  1.00  0.00     0.000 C 
BRANCH   3   4
ATOM      4  C   UNL     1     -96.086 150.261 240.084  1.00  0.00     0.000 C 
BRANCH   4   5
ATOM      5  C   UNL     1     -97.292 150.097 241.036  1.00  0.00     0.001 C 
BRANCH   5   6
ATOM      6  C   UNL     1     -98.614 150.555 240.389  1.00  0.00     0.009 C 
BRANCH   6   7
ATOM      7  C   UNL     1     -98.686 150.331 238.862  1.00  0.00     0.032 C 
ATOM      8  C   UNL     1     -99.467 151.436 238.134  1.00  0.00     0.014 C 
BRANCH   7   9
ATOM      9  C   UNL     1     -99.208 148.957 238.529  1.00  0.00     0.044 C 
ATOM     10  O   UNL     1     -98.452 147.949 238.560  1.00  0.00    -0.550 OA
ATOM     11  O   UNL     1    -100.529 148.804 238.128  1.00  0.00    -0.550 OA
ENDBRANCH   7   9
ENDBRANCH   6   7
ENDBRANCH   5   6
ENDBRANCH   4   5
ENDBRANCH   3   4
ENDBRANCH   2   3
ENDBRANCH   1   2
BRANCH   1  12
ATOM     12  C   UNL     1     -95.981 149.048 236.134  1.00  0.00     0.000 C 
BRANCH  12  13
ATOM     13  C   UNL     1     -97.159 149.859 235.556  1.00  0.00    -0.000 C 
BRANCH  13  14
ATOM     14  C   UNL     1     -97.097 150.105 234.038  1.00  0.00    -0.000 C 
BRANCH  14  15
ATOM     15  C   UNL     1     -95.719 150.592 233.568  1.00  0.00    -0.000 C 
BRANCH  15  16
ATOM     16  C   UNL     1     -95.622 152.120 233.644  1.00  0.00    -0.000 C 
BRANCH  16  17
ATOM     17  C   UNL     1     -96.957 152.776 233.273  1.00  0.00    -0.000 C 
BRANCH  17  18
ATOM     18  C   UNL     1     -97.330 153.872 234.277  1.00  0.00    -0.003 C 
ATOM     19  C   UNL     1     -98.643 153.550 234.984  1.00  0.00     0.004 C 
ENDBRANCH  17  18
ENDBRANCH  16  17
ENDBRANCH  15  16
ENDBRANCH  14  15
ENDBRANCH  13  14
ENDBRANCH  12  13
ENDBRANCH   1  12
TORSDOF 14
ENDMDL
