MODEL 1
REMARK VINA RESULT:    -4.717      0.000      0.000
REMARK INTER + INTRA:         -16.048
REMARK INTER:                 -11.887
REMARK INTRA:                  -4.161
REMARK UNBOUND:                -4.161
REMARK SMILES CCCCCCCCCCCCCCCCCCCCCCCCCCCC(=O)[O-]
REMARK SMILES IDX 15 1 16 2 17 3 18 4 19 5 20 6 21 7 22 8 23 9 24 10 25 11
REMARK SMILES IDX 26 12 27 13 28 14 29 15 30 16 14 17 13 18 12 19 11 20 10 21
REMARK SMILES IDX 9 22 8 23 7 24 6 25 5 26 4 27 3 28 2 29 1 30
REMARK H PARENT
REMARK Flexibility Score: inf
ROOT
ATOM      1  C   UNL     1      13.464  33.901  67.053  1.00  0.00     0.000 C 
ENDROOT
BRANCH   1   2
ATOM      2  C   UNL     1      14.329  32.635  67.003  1.00  0.00     0.000 C 
BRANCH   2   3
ATOM      3  C   UNL     1      15.056  32.412  68.335  1.00  0.00     0.000 C 
BRANCH   3   4
ATOM      4  C   UNL     1      14.933  30.953  68.791  1.00  0.00     0.000 C 
BRANCH   4   5
ATOM      5  C   UNL     1      14.930  30.854  70.323  1.00  0.00     0.000 C 
BRANCH   5   6
ATOM      6  C   UNL     1      15.440  29.495  70.841  1.00  0.00     0.000 C 
BRANCH   6   7
ATOM      7  C   UNL     1      16.776  29.541  71.607  1.00  0.00     0.000 C 
BRANCH   7   8
ATOM      8  C   UNL     1      17.464  30.914  71.530  1.00  0.00     0.000 C 
BRANCH   8   9
ATOM      9  C   UNL     1      18.764  30.888  70.704  1.00  0.00     0.000 C 
BRANCH   9  10
ATOM     10  C   UNL     1      18.577  31.034  69.182  1.00  0.00     0.000 C 
BRANCH  10  11
ATOM     11  C   UNL     1      19.590  30.255  68.323  1.00  0.00     0.000 C 
BRANCH  11  12
ATOM     12  C   UNL     1      19.328  30.365  66.805  1.00  0.00     0.006 C 
BRANCH  12  13
ATOM     13  C   UNL     1      17.845  30.592  66.482  1.00  0.00     0.053 C 
BRANCH  13  14
ATOM     14  C   UNL     1      17.654  30.787  65.010  1.00  0.00     0.041 C 
ATOM     15  O   UNL     1      16.527  30.586  64.485  1.00  0.00    -0.550 OA
ATOM     16  O   UNL     1      18.732  31.144  64.209  1.00  0.00    -0.550 OA
ENDBRANCH  13  14
ENDBRANCH  12  13
ENDBRANCH  11  12
ENDBRANCH  10  11
ENDBRANCH   9  10
ENDBRANCH   8   9
ENDBRANCH   7   8
ENDBRANCH   6   7
ENDBRANCH   5   6
ENDBRANCH   4   5
ENDBRANCH   3   4
ENDBRANCH   2   3
ENDBRANCH   1   2
BRANCH   1  17
ATOM     17  C   UNL     1      14.145  35.001  67.880  1.00  0.00     0.000 C 
BRANCH  17  18
ATOM     18  C   UNL     1      14.649  36.176  67.023  1.00  0.00     0.000 C 
BRANCH  18  19
ATOM     19  C   UNL     1      16.180  36.306  66.919  1.00  0.00     0.000 C 
BRANCH  19  20
ATOM     20  C   UNL     1      16.799  35.338  65.897  1.00  0.00     0.000 C 
BRANCH  20  21
ATOM     21  C   UNL     1      17.702  34.274  66.548  1.00  0.00     0.000 C 
BRANCH  21  22
ATOM     22  C   UNL     1      19.160  34.247  66.051  1.00  0.00    -0.000 C 
BRANCH  22  23
ATOM     23  C   UNL     1      20.155  33.782  67.127  1.00  0.00    -0.000 C 
BRANCH  23  24
ATOM     24  C   UNL     1      21.256  34.819  67.418  1.00  0.00    -0.000 C 
BRANCH  24  25
ATOM     25  C   UNL     1      22.157  35.175  66.221  1.00  0.00    -0.000 C 
BRANCH  25  26
ATOM     26  C   UNL     1      22.949  36.476  66.431  1.00  0.00    -0.000 C 
BRANCH  26  27
ATOM     27  C   UNL     1      22.077  37.544  67.107  1.00  0.00    -0.000 C 
BRANCH  27  28
ATOM     28  C   UNL     1      22.015  38.854  66.305  1.00  0.00    -0.000 C 
BRANCH  28  29
ATOM     29  C   UNL     1      20.618  39.128  65.728  1.00  0.00    -0.003 C 
ATOM     30  C   UNL     1      19.795  37.846  65.647  1.00  0.00     0.004 C 
ENDBRANCH  28  29
ENDBRANCH  27  28
ENDBRANCH  26  27
ENDBRANCH  25  26
ENDBRANCH  24  25
ENDBRANCH  23  24
ENDBRANCH  22  23
ENDBRANCH  21  22
ENDBRANCH  20  21
ENDBRANCH  19  20
ENDBRANCH  18  19
ENDBRANCH  17  18
ENDBRANCH   1  17
TORSDOF 26
ENDMDL
MODEL 2
REMARK VINA RESULT:    -4.601      2.547      6.672
REMARK INTER + INTRA:         -15.756
REMARK INTER:                 -11.420
REMARK INTRA:                  -4.336
REMARK UNBOUND:                -4.161
REMARK SMILES CCCCCCCCCCCCCCCCCCCCCCCCCCCC(=O)[O-]
REMARK SMILES IDX 15 1 16 2 17 3 18 4 19 5 20 6 21 7 22 8 23 9 24 10 25 11
REMARK SMILES IDX 26 12 27 13 28 14 29 15 30 16 14 17 13 18 12 19 11 20 10 21
REMARK SMILES IDX 9 22 8 23 7 24 6 25 5 26 4 27 3 28 2 29 1 30
REMARK H PARENT
REMARK Flexibility Score: inf
ROOT
ATOM      1  C   UNL     1      14.069  29.116  67.753  1.00  0.00     0.000 C 
ENDROOT
BRANCH   1   2
ATOM      2  C   UNL     1      13.153  30.336  67.910  1.00  0.00     0.000 C 
BRANCH   2   3
ATOM      3  C   UNL     1      12.778  30.922  66.543  1.00  0.00     0.000 C 
BRANCH   3   4
ATOM      4  C   UNL     1      12.946  32.446  66.533  1.00  0.00     0.000 C 
BRANCH   4   5
ATOM      5  C   UNL     1      13.053  32.998  67.963  1.00  0.00     0.000 C 
BRANCH   5   6
ATOM      6  C   UNL     1      14.075  34.144  68.093  1.00  0.00     0.000 C 
BRANCH   6   7
ATOM      7  C   UNL     1      15.314  34.026  67.186  1.00  0.00     0.000 C 
BRANCH   7   8
ATOM      8  C   UNL     1      15.961  35.386  66.874  1.00  0.00     0.000 C 
BRANCH   8   9
ATOM      9  C   UNL     1      17.179  35.272  65.938  1.00  0.00     0.000 C 
BRANCH   9  10
ATOM     10  C   UNL     1      18.323  34.382  66.456  1.00  0.00     0.000 C 
BRANCH  10  11
ATOM     11  C   UNL     1      19.727  34.766  65.954  1.00  0.00     0.000 C 
BRANCH  11  12
ATOM     12  C   UNL     1      20.869  34.278  66.872  1.00  0.00     0.006 C 
BRANCH  12  13
ATOM     13  C   UNL     1      21.620  35.439  67.538  1.00  0.00     0.053 C 
BRANCH  13  14
ATOM     14  C   UNL     1      22.595  36.050  66.581  1.00  0.00     0.041 C 
ATOM     15  O   UNL     1      23.033  35.380  65.608  1.00  0.00    -0.550 OA
ATOM     16  O   UNL     1      23.057  37.344  66.788  1.00  0.00    -0.550 OA
ENDBRANCH  13  14
ENDBRANCH  12  13
ENDBRANCH  11  12
ENDBRANCH  10  11
ENDBRANCH   9  10
ENDBRANCH   8   9
ENDBRANCH   7   8
ENDBRANCH   6   7
ENDBRANCH   5   6
ENDBRANCH   4   5
ENDBRANCH   3   4
ENDBRANCH   2   3
ENDBRANCH   1   2
BRANCH   1  17
ATOM     17  C   UNL     1      15.066  29.022  68.917  1.00  0.00     0.000 C 
BRANCH  17  18
ATOM     18  C   UNL     1      14.948  30.195  69.907  1.00  0.00     0.000 C 
BRANCH  18  19
ATOM     19  C   UNL     1      16.274  30.899  70.253  1.00  0.00     0.000 C 
BRANCH  19  20
ATOM     20  C   UNL     1      17.107  31.259  69.012  1.00  0.00     0.000 C 
BRANCH  20  21
ATOM     21  C   UNL     1      18.624  31.241  69.280  1.00  0.00     0.000 C 
BRANCH  21  22
ATOM     22  C   UNL     1      19.517  31.138  68.029  1.00  0.00    -0.000 C 
BRANCH  22  23
ATOM     23  C   UNL     1      18.935  30.211  66.949  1.00  0.00    -0.000 C 
BRANCH  23  24
ATOM     24  C   UNL     1      19.104  30.767  65.523  1.00  0.00    -0.000 C 
BRANCH  24  25
ATOM     25  C   UNL     1      17.808  31.251  64.847  1.00  0.00    -0.000 C 
BRANCH  25  26
ATOM     26  C   UNL     1      16.557  30.512  65.347  1.00  0.00    -0.000 C 
BRANCH  26  27
ATOM     27  C   UNL     1      15.610  30.188  64.181  1.00  0.00    -0.000 C 
BRANCH  27  28
ATOM     28  C   UNL     1      16.336  30.126  62.828  1.00  0.00    -0.000 C 
BRANCH  28  29
ATOM     29  C   UNL     1      15.423  29.650  61.689  1.00  0.00    -0.003 C 
ATOM     30  C   UNL     1      15.248  28.134  61.722  1.00  0.00     0.004 C 
ENDBRANCH  28  29
ENDBRANCH  27  28
ENDBRANCH  26  27
ENDBRANCH  25  26
ENDBRANCH  24  25
ENDBRANCH  23  24
ENDBRANCH  22  23
ENDBRANCH  21  22
ENDBRANCH  20  21
ENDBRANCH  19  20
ENDBRANCH  18  19
ENDBRANCH  17  18
ENDBRANCH   1  17
TORSDOF 26
ENDMDL
MODEL 3
REMARK VINA RESULT:    -4.474      2.460      6.685
REMARK INTER + INTRA:         -15.437
REMARK INTER:                 -10.898
REMARK INTRA:                  -4.539
REMARK UNBOUND:                -4.161
REMARK SMILES CCCCCCCCCCCCCCCCCCCCCCCCCCCC(=O)[O-]
REMARK SMILES IDX 15 1 16 2 17 3 18 4 19 5 20 6 21 7 22 8 23 9 24 10 25 11
REMARK SMILES IDX 26 12 27 13 28 14 29 15 30 16 14 17 13 18 12 19 11 20 10 21
REMARK SMILES IDX 9 22 8 23 7 24 6 25 5 26 4 27 3 28 2 29 1 30
REMARK H PARENT
REMARK Flexibility Score: inf
ROOT
ATOM      1  C   UNL     1      13.706  34.647  67.757  1.00  0.00     0.000 C 
ENDROOT
BRANCH   1   2
ATOM      2  C   UNL     1      14.973  34.233  67.000  1.00  0.00     0.000 C 
BRANCH   2   3
ATOM      3  C   UNL     1      15.583  32.961  67.601  1.00  0.00     0.000 C 
BRANCH   3   4
ATOM      4  C   UNL     1      15.579  31.814  66.583  1.00  0.00     0.000 C 
BRANCH   4   5
ATOM      5  C   UNL     1      16.955  31.136  66.513  1.00  0.00     0.000 C 
BRANCH   5   6
ATOM      6  C   UNL     1      17.276  30.565  65.118  1.00  0.00     0.000 C 
BRANCH   6   7
ATOM      7  C   UNL     1      18.646  30.968  64.540  1.00  0.00     0.000 C 
BRANCH   7   8
ATOM      8  C   UNL     1      18.929  32.474  64.664  1.00  0.00     0.000 C 
BRANCH   8   9
ATOM      9  C   UNL     1      19.732  32.832  65.929  1.00  0.00     0.000 C 
BRANCH   9  10
ATOM     10  C   UNL     1      19.306  34.135  66.630  1.00  0.00     0.000 C 
BRANCH  10  11
ATOM     11  C   UNL     1      18.247  34.963  65.879  1.00  0.00     0.000 C 
BRANCH  11  12
ATOM     12  C   UNL     1      18.685  36.417  65.595  1.00  0.00     0.006 C 
BRANCH  12  13
ATOM     13  C   UNL     1      20.156  36.512  65.170  1.00  0.00     0.053 C 
BRANCH  13  14
ATOM     14  C   UNL     1      20.920  37.381  66.121  1.00  0.00     0.041 C 
ATOM     15  O   UNL     1      21.680  36.864  66.982  1.00  0.00    -0.550 OA
ATOM     16  O   UNL     1      20.756  38.761  66.087  1.00  0.00    -0.550 OA
ENDBRANCH  13  14
ENDBRANCH  12  13
ENDBRANCH  11  12
ENDBRANCH  10  11
ENDBRANCH   9  10
ENDBRANCH   8   9
ENDBRANCH   7   8
ENDBRANCH   6   7
ENDBRANCH   5   6
ENDBRANCH   4   5
ENDBRANCH   3   4
ENDBRANCH   2   3
ENDBRANCH   1   2
BRANCH   1  17
ATOM     17  C   UNL     1      12.992  33.422  68.348  1.00  0.00     0.000 C 
BRANCH  17  18
ATOM     18  C   UNL     1      11.906  32.851  67.418  1.00  0.00     0.000 C 
BRANCH  18  19
ATOM     19  C   UNL     1      12.080  31.369  67.036  1.00  0.00     0.000 C 
BRANCH  19  20
ATOM     20  C   UNL     1      12.277  30.451  68.254  1.00  0.00     0.000 C 
BRANCH  20  21
ATOM     21  C   UNL     1      13.383  29.401  68.043  1.00  0.00     0.000 C 
BRANCH  21  22
ATOM     22  C   UNL     1      14.486  29.375  69.117  1.00  0.00    -0.000 C 
BRANCH  22  23
ATOM     23  C   UNL     1      14.479  30.621  70.017  1.00  0.00    -0.000 C 
BRANCH  23  24
ATOM     24  C   UNL     1      15.832  30.873  70.709  1.00  0.00    -0.000 C 
BRANCH  24  25
ATOM     25  C   UNL     1      16.636  29.608  71.062  1.00  0.00    -0.000 C 
BRANCH  25  26
ATOM     26  C   UNL     1      18.085  29.655  70.553  1.00  0.00    -0.000 C 
BRANCH  26  27
ATOM     27  C   UNL     1      18.393  31.012  69.902  1.00  0.00    -0.000 C 
BRANCH  27  28
ATOM     28  C   UNL     1      19.704  31.002  69.101  1.00  0.00    -0.000 C 
BRANCH  28  29
ATOM     29  C   UNL     1      20.062  29.606  68.570  1.00  0.00    -0.003 C 
ATOM     30  C   UNL     1      21.473  29.203  68.988  1.00  0.00     0.004 C 
ENDBRANCH  28  29
ENDBRANCH  27  28
ENDBRANCH  26  27
ENDBRANCH  25  26
ENDBRANCH  24  25
ENDBRANCH  23  24
ENDBRANCH  22  23
ENDBRANCH  21  22
ENDBRANCH  20  21
ENDBRANCH  19  20
ENDBRANCH  18  19
ENDBRANCH  17  18
ENDBRANCH   1  17
TORSDOF 26
ENDMDL
MODEL 4
REMARK VINA RESULT:    -4.449      4.674      8.066
REMARK INTER + INTRA:         -15.372
REMARK INTER:                 -10.566
REMARK INTRA:                  -4.806
REMARK UNBOUND:                -4.161
REMARK SMILES CCCCCCCCCCCCCCCCCCCCCCCCCCCC(=O)[O-]
REMARK SMILES IDX 15 1 16 2 17 3 18 4 19 5 20 6 21 7 22 8 23 9 24 10 25 11
REMARK SMILES IDX 26 12 27 13 28 14 29 15 30 16 14 17 13 18 12 19 11 20 10 21
REMARK SMILES IDX 9 22 8 23 7 24 6 25 5 26 4 27 3 28 2 29 1 30
REMARK H PARENT
REMARK Flexibility Score: inf
ROOT
ATOM      1  C   UNL     1      13.865  32.657  66.487  1.00  0.00     0.000 C 
ENDROOT
BRANCH   1   2
ATOM      2  C   UNL     1      12.373  32.364  66.684  1.00  0.00     0.000 C 
BRANCH   2   3
ATOM      3  C   UNL     1      11.967  32.542  68.152  1.00  0.00     0.000 C 
BRANCH   3   4
ATOM      4  C   UNL     1      11.257  31.290  68.682  1.00  0.00     0.000 C 
BRANCH   4   5
ATOM      5  C   UNL     1      11.466  30.097  67.738  1.00  0.00     0.000 C 
BRANCH   5   6
ATOM      6  C   UNL     1      10.660  28.851  68.152  1.00  0.00     0.000 C 
BRANCH   6   7
ATOM      7  C   UNL     1       9.235  29.130  68.665  1.00  0.00     0.000 C 
BRANCH   7   8
ATOM      8  C   UNL     1       8.144  28.541  67.755  1.00  0.00     0.000 C 
BRANCH   8   9
ATOM      9  C   UNL     1       7.457  29.603  66.877  1.00  0.00     0.000 C 
BRANCH   9  10
ATOM     10  C   UNL     1       8.204  29.964  65.579  1.00  0.00     0.000 C 
BRANCH  10  11
ATOM     11  C   UNL     1       8.840  31.367  65.562  1.00  0.00     0.000 C 
BRANCH  11  12
ATOM     12  C   UNL     1       8.334  32.290  66.691  1.00  0.00     0.006 C 
BRANCH  12  13
ATOM     13  C   UNL     1       8.392  33.774  66.303  1.00  0.00     0.053 C 
BRANCH  13  14
ATOM     14  C   UNL     1       7.089  34.446  66.607  1.00  0.00     0.041 C 
ATOM     15  O   UNL     1       6.073  34.208  65.901  1.00  0.00    -0.550 OA
ATOM     16  O   UNL     1       7.008  35.372  67.640  1.00  0.00    -0.550 OA
ENDBRANCH  13  14
ENDBRANCH  12  13
ENDBRANCH  11  12
ENDBRANCH  10  11
ENDBRANCH   9  10
ENDBRANCH   8   9
ENDBRANCH   7   8
ENDBRANCH   6   7
ENDBRANCH   5   6
ENDBRANCH   4   5
ENDBRANCH   3   4
ENDBRANCH   2   3
ENDBRANCH   1   2
BRANCH   1  17
ATOM     17  C   UNL     1      14.512  33.128  67.797  1.00  0.00     0.000 C 
BRANCH  17  18
ATOM     18  C   UNL     1      15.639  32.197  68.282  1.00  0.00     0.000 C 
BRANCH  18  19
ATOM     19  C   UNL     1      15.622  30.777  67.684  1.00  0.00     0.000 C 
BRANCH  19  20
ATOM     20  C   UNL     1      14.999  29.734  68.627  1.00  0.00     0.000 C 
BRANCH  20  21
ATOM     21  C   UNL     1      14.780  30.269  70.055  1.00  0.00     0.000 C 
BRANCH  21  22
ATOM     22  C   UNL     1      15.145  29.296  71.191  1.00  0.00    -0.000 C 
BRANCH  22  23
ATOM     23  C   UNL     1      16.582  29.482  71.705  1.00  0.00    -0.000 C 
BRANCH  23  24
ATOM     24  C   UNL     1      17.157  30.876  71.394  1.00  0.00    -0.000 C 
BRANCH  24  25
ATOM     25  C   UNL     1      18.583  30.886  70.812  1.00  0.00    -0.000 C 
BRANCH  25  26
ATOM     26  C   UNL     1      18.729  30.004  69.562  1.00  0.00    -0.000 C 
BRANCH  26  27
ATOM     27  C   UNL     1      19.634  30.677  68.520  1.00  0.00    -0.000 C 
BRANCH  27  28
ATOM     28  C   UNL     1      19.279  30.277  67.079  1.00  0.00    -0.000 C 
BRANCH  28  29
ATOM     29  C   UNL     1      19.191  31.484  66.134  1.00  0.00    -0.003 C 
ATOM     30  C   UNL     1      18.583  31.089  64.792  1.00  0.00     0.004 C 
ENDBRANCH  28  29
ENDBRANCH  27  28
ENDBRANCH  26  27
ENDBRANCH  25  26
ENDBRANCH  24  25
ENDBRANCH  23  24
ENDBRANCH  22  23
ENDBRANCH  21  22
ENDBRANCH  20  21
ENDBRANCH  19  20
ENDBRANCH  18  19
ENDBRANCH  17  18
ENDBRANCH   1  17
TORSDOF 26
ENDMDL
MODEL 5
REMARK VINA RESULT:    -4.368      2.181      6.412
REMARK INTER + INTRA:         -15.168
REMARK INTER:                 -10.727
REMARK INTRA:                  -4.441
REMARK UNBOUND:                -4.161
REMARK SMILES CCCCCCCCCCCCCCCCCCCCCCCCCCCC(=O)[O-]
REMARK SMILES IDX 15 1 16 2 17 3 18 4 19 5 20 6 21 7 22 8 23 9 24 10 25 11
REMARK SMILES IDX 26 12 27 13 28 14 29 15 30 16 14 17 13 18 12 19 11 20 10 21
REMARK SMILES IDX 9 22 8 23 7 24 6 25 5 26 4 27 3 28 2 29 1 30
REMARK H PARENT
REMARK Flexibility Score: inf
ROOT
ATOM      1  C   UNL     1      13.802  28.854  67.901  1.00  0.00     0.000 C 
ENDROOT
BRANCH   1   2
ATOM      2  C   UNL     1      12.701  29.920  67.957  1.00  0.00     0.000 C 
BRANCH   2   3
ATOM      3  C   UNL     1      12.517  30.594  66.592  1.00  0.00     0.000 C 
BRANCH   3   4
ATOM      4  C   UNL     1      12.114  32.065  66.754  1.00  0.00     0.000 C 
BRANCH   4   5
ATOM      5  C   UNL     1      12.186  32.496  68.226  1.00  0.00     0.000 C 
BRANCH   5   6
ATOM      6  C   UNL     1      13.299  33.527  68.499  1.00  0.00     0.000 C 
BRANCH   6   7
ATOM      7  C   UNL     1      13.677  34.420  67.302  1.00  0.00     0.000 C 
BRANCH   7   8
ATOM      8  C   UNL     1      13.964  35.876  67.707  1.00  0.00     0.000 C 
BRANCH   8   9
ATOM      9  C   UNL     1      15.092  36.518  66.877  1.00  0.00     0.000 C 
BRANCH   9  10
ATOM     10  C   UNL     1      16.318  35.620  66.632  1.00  0.00     0.000 C 
BRANCH  10  11
ATOM     11  C   UNL     1      17.357  36.190  65.648  1.00  0.00     0.000 C 
BRANCH  11  12
ATOM     12  C   UNL     1      18.682  35.398  65.619  1.00  0.00     0.006 C 
BRANCH  12  13
ATOM     13  C   UNL     1      19.908  36.312  65.497  1.00  0.00     0.053 C 
BRANCH  13  14
ATOM     14  C   UNL     1      21.101  35.678  66.142  1.00  0.00     0.041 C 
ATOM     15  O   UNL     1      21.169  34.426  66.257  1.00  0.00    -0.550 OA
ATOM     16  O   UNL     1      22.117  36.473  66.660  1.00  0.00    -0.550 OA
ENDBRANCH  13  14
ENDBRANCH  12  13
ENDBRANCH  11  12
ENDBRANCH  10  11
ENDBRANCH   9  10
ENDBRANCH   8   9
ENDBRANCH   7   8
ENDBRANCH   6   7
ENDBRANCH   5   6
ENDBRANCH   4   5
ENDBRANCH   3   4
ENDBRANCH   2   3
ENDBRANCH   1   2
BRANCH   1  17
ATOM     17  C   UNL     1      14.848  29.085  69.002  1.00  0.00     0.000 C 
BRANCH  17  18
ATOM     18  C   UNL     1      14.497  30.262  69.930  1.00  0.00     0.000 C 
BRANCH  18  19
ATOM     19  C   UNL     1      15.492  30.514  71.078  1.00  0.00     0.000 C 
BRANCH  19  20
ATOM     20  C   UNL     1      16.873  30.980  70.587  1.00  0.00     0.000 C 
BRANCH  20  21
ATOM     21  C   UNL     1      17.996  29.976  70.910  1.00  0.00     0.000 C 
BRANCH  21  22
ATOM     22  C   UNL     1      19.391  30.346  70.370  1.00  0.00    -0.000 C 
BRANCH  22  23
ATOM     23  C   UNL     1      19.455  30.370  68.834  1.00  0.00    -0.000 C 
BRANCH  23  24
ATOM     24  C   UNL     1      19.450  31.796  68.253  1.00  0.00    -0.000 C 
BRANCH  24  25
ATOM     25  C   UNL     1      18.555  32.000  67.016  1.00  0.00    -0.000 C 
BRANCH  25  26
ATOM     26  C   UNL     1      17.153  32.522  67.368  1.00  0.00    -0.000 C 
BRANCH  26  27
ATOM     27  C   UNL     1      16.067  31.672  66.693  1.00  0.00    -0.000 C 
BRANCH  27  28
ATOM     28  C   UNL     1      16.644  30.475  65.922  1.00  0.00    -0.000 C 
BRANCH  28  29
ATOM     29  C   UNL     1      16.418  30.582  64.407  1.00  0.00    -0.003 C 
ATOM     30  C   UNL     1      15.265  29.690  63.958  1.00  0.00     0.004 C 
ENDBRANCH  28  29
ENDBRANCH  27  28
ENDBRANCH  26  27
ENDBRANCH  25  26
ENDBRANCH  24  25
ENDBRANCH  23  24
ENDBRANCH  22  23
ENDBRANCH  21  22
ENDBRANCH  20  21
ENDBRANCH  19  20
ENDBRANCH  18  19
ENDBRANCH  17  18
ENDBRANCH   1  17
TORSDOF 26
ENDMDL
MODEL 6
REMARK VINA RESULT:    -4.290      2.634      6.689
REMARK INTER + INTRA:         -14.972
REMARK INTER:                 -11.143
REMARK INTRA:                  -3.830
REMARK UNBOUND:                -4.161
REMARK SMILES CCCCCCCCCCCCCCCCCCCCCCCCCCCC(=O)[O-]
REMARK SMILES IDX 15 1 16 2 17 3 18 4 19 5 20 6 21 7 22 8 23 9 24 10 25 11
REMARK SMILES IDX 26 12 27 13 28 14 29 15 30 16 14 17 13 18 12 19 11 20 10 21
REMARK SMILES IDX 9 22 8 23 7 24 6 25 5 26 4 27 3 28 2 29 1 30
REMARK H PARENT
REMARK Flexibility Score: inf
ROOT
ATOM      1  C   UNL     1      14.711  29.961  68.778  1.00  0.00     0.000 C 
ENDROOT
BRANCH   1   2
ATOM      2  C   UNL     1      14.930  30.567  70.170  1.00  0.00     0.000 C 
BRANCH   2   3
ATOM      3  C   UNL     1      15.298  29.483  71.190  1.00  0.00     0.000 C 
BRANCH   3   4
ATOM      4  C   UNL     1      16.789  29.543  71.543  1.00  0.00     0.000 C 
BRANCH   4   5
ATOM      5  C   UNL     1      17.368  30.936  71.255  1.00  0.00     0.000 C 
BRANCH   5   6
ATOM      6  C   UNL     1      18.557  30.905  70.276  1.00  0.00     0.000 C 
BRANCH   6   7
ATOM      7  C   UNL     1      18.437  29.885  69.127  1.00  0.00     0.000 C 
BRANCH   7   8
ATOM      8  C   UNL     1      18.863  30.462  67.766  1.00  0.00     0.000 C 
BRANCH   8   9
ATOM      9  C   UNL     1      17.670  30.950  66.922  1.00  0.00     0.000 C 
BRANCH   9  10
ATOM     10  C   UNL     1      17.643  32.464  66.639  1.00  0.00     0.000 C 
BRANCH  10  11
ATOM     11  C   UNL     1      18.835  32.995  65.821  1.00  0.00     0.000 C 
BRANCH  11  12
ATOM     12  C   UNL     1      19.339  34.378  66.289  1.00  0.00     0.006 C 
BRANCH  12  13
ATOM     13  C   UNL     1      20.543  34.272  67.235  1.00  0.00     0.053 C 
BRANCH  13  14
ATOM     14  C   UNL     1      21.583  35.286  66.874  1.00  0.00     0.041 C 
ATOM     15  O   UNL     1      21.743  36.312  67.587  1.00  0.00    -0.550 OA
ATOM     16  O   UNL     1      22.346  35.122  65.723  1.00  0.00    -0.550 OA
ENDBRANCH  13  14
ENDBRANCH  12  13
ENDBRANCH  11  12
ENDBRANCH  10  11
ENDBRANCH   9  10
ENDBRANCH   8   9
ENDBRANCH   7   8
ENDBRANCH   6   7
ENDBRANCH   5   6
ENDBRANCH   4   5
ENDBRANCH   3   4
ENDBRANCH   2   3
ENDBRANCH   1   2
BRANCH   1  17
ATOM     17  C   UNL     1      13.992  28.608  68.873  1.00  0.00     0.000 C 
BRANCH  17  18
ATOM     18  C   UNL     1      12.953  28.397  67.757  1.00  0.00     0.000 C 
BRANCH  18  19
ATOM     19  C   UNL     1      11.561  27.939  68.232  1.00  0.00     0.000 C 
BRANCH  19  20
ATOM     20  C   UNL     1      10.452  28.957  67.918  1.00  0.00     0.000 C 
BRANCH  20  21
ATOM     21  C   UNL     1      10.904  30.417  68.115  1.00  0.00     0.000 C 
BRANCH  21  22
ATOM     22  C   UNL     1      10.111  31.469  67.316  1.00  0.00    -0.000 C 
BRANCH  22  23
ATOM     23  C   UNL     1      10.875  31.995  66.090  1.00  0.00    -0.000 C 
BRANCH  23  24
ATOM     24  C   UNL     1      12.336  31.512  66.038  1.00  0.00    -0.000 C 
BRANCH  24  25
ATOM     25  C   UNL     1      13.399  32.604  66.263  1.00  0.00    -0.000 C 
BRANCH  25  26
ATOM     26  C   UNL     1      13.589  32.962  67.746  1.00  0.00    -0.000 C 
BRANCH  26  27
ATOM     27  C   UNL     1      14.485  34.200  67.900  1.00  0.00    -0.000 C 
BRANCH  27  28
ATOM     28  C   UNL     1      13.784  35.497  67.466  1.00  0.00    -0.000 C 
BRANCH  28  29
ATOM     29  C   UNL     1      14.755  36.679  67.335  1.00  0.00    -0.003 C 
ATOM     30  C   UNL     1      16.138  36.208  66.893  1.00  0.00     0.004 C 
ENDBRANCH  28  29
ENDBRANCH  27  28
ENDBRANCH  26  27
ENDBRANCH  25  26
ENDBRANCH  24  25
ENDBRANCH  23  24
ENDBRANCH  22  23
ENDBRANCH  21  22
ENDBRANCH  20  21
ENDBRANCH  19  20
ENDBRANCH  18  19
ENDBRANCH  17  18
ENDBRANCH   1  17
TORSDOF 26
ENDMDL
MODEL 7
REMARK VINA RESULT:    -4.278      7.968     11.636
REMARK INTER + INTRA:         -14.942
REMARK INTER:                  -9.436
REMARK INTRA:                  -5.506
REMARK UNBOUND:                -4.161
REMARK SMILES CCCCCCCCCCCCCCCCCCCCCCCCCCCC(=O)[O-]
REMARK SMILES IDX 15 1 16 2 17 3 18 4 19 5 20 6 21 7 22 8 23 9 24 10 25 11
REMARK SMILES IDX 26 12 27 13 28 14 29 15 30 16 14 17 13 18 12 19 11 20 10 21
REMARK SMILES IDX 9 22 8 23 7 24 6 25 5 26 4 27 3 28 2 29 1 30
REMARK H PARENT
REMARK Flexibility Score: inf
ROOT
ATOM      1  C   UNL     1      13.773  43.689  61.162  1.00  0.00     0.000 C 
ENDROOT
BRANCH   1   2
ATOM      2  C   UNL     1      15.034  42.893  60.804  1.00  0.00     0.000 C 
BRANCH   2   3
ATOM      3  C   UNL     1      16.019  43.753  60.004  1.00  0.00     0.000 C 
BRANCH   3   4
ATOM      4  C   UNL     1      17.445  43.606  60.548  1.00  0.00     0.000 C 
BRANCH   4   5
ATOM      5  C   UNL     1      17.458  42.786  61.846  1.00  0.00     0.000 C 
BRANCH   5   6
ATOM      6  C   UNL     1      18.810  42.095  62.110  1.00  0.00     0.000 C 
BRANCH   6   7
ATOM      7  C   UNL     1      19.876  42.297  61.017  1.00  0.00     0.000 C 
BRANCH   7   8
ATOM      8  C   UNL     1      21.001  41.249  61.076  1.00  0.00     0.000 C 
BRANCH   8   9
ATOM      9  C   UNL     1      22.338  41.831  61.574  1.00  0.00     0.000 C 
BRANCH   9  10
ATOM     10  C   UNL     1      22.376  42.200  63.069  1.00  0.00     0.000 C 
BRANCH  10  11
ATOM     11  C   UNL     1      22.077  41.039  64.035  1.00  0.00     0.000 C 
BRANCH  11  12
ATOM     12  C   UNL     1      20.835  41.275  64.922  1.00  0.00     0.006 C 
BRANCH  12  13
ATOM     13  C   UNL     1      21.087  40.911  66.391  1.00  0.00     0.053 C 
BRANCH  13  14
ATOM     14  C   UNL     1      20.824  39.455  66.622  1.00  0.00     0.041 C 
ATOM     15  O   UNL     1      21.259  38.890  67.660  1.00  0.00    -0.550 OA
ATOM     16  O   UNL     1      20.139  38.712  65.669  1.00  0.00    -0.550 OA
ENDBRANCH  13  14
ENDBRANCH  12  13
ENDBRANCH  11  12
ENDBRANCH  10  11
ENDBRANCH   9  10
ENDBRANCH   8   9
ENDBRANCH   7   8
ENDBRANCH   6   7
ENDBRANCH   5   6
ENDBRANCH   4   5
ENDBRANCH   3   4
ENDBRANCH   2   3
ENDBRANCH   1   2
BRANCH   1  17
ATOM     17  C   UNL     1      14.103  44.841  62.121  1.00  0.00     0.000 C 
BRANCH  17  18
ATOM     18  C   UNL     1      14.430  44.364  63.548  1.00  0.00     0.000 C 
BRANCH  18  19
ATOM     19  C   UNL     1      15.679  45.002  64.185  1.00  0.00     0.000 C 
BRANCH  19  20
ATOM     20  C   UNL     1      16.374  46.017  63.263  1.00  0.00     0.000 C 
BRANCH  20  21
ATOM     21  C   UNL     1      17.796  46.379  63.730  1.00  0.00     0.000 C 
BRANCH  21  22
ATOM     22  C   UNL     1      18.829  46.595  62.608  1.00  0.00    -0.000 C 
BRANCH  22  23
ATOM     23  C   UNL     1      20.005  45.607  62.674  1.00  0.00    -0.000 C 
BRANCH  23  24
ATOM     24  C   UNL     1      20.087  44.857  64.016  1.00  0.00    -0.000 C 
BRANCH  24  25
ATOM     25  C   UNL     1      21.310  45.198  64.888  1.00  0.00    -0.000 C 
BRANCH  25  26
ATOM     26  C   UNL     1      21.153  44.745  66.347  1.00  0.00    -0.000 C 
BRANCH  26  27
ATOM     27  C   UNL     1      19.786  45.163  66.907  1.00  0.00    -0.000 C 
BRANCH  27  28
ATOM     28  C   UNL     1      19.058  44.011  67.618  1.00  0.00    -0.000 C 
BRANCH  28  29
ATOM     29  C   UNL     1      18.042  43.303  66.709  1.00  0.00    -0.003 C 
ATOM     30  C   UNL     1      16.662  43.259  67.357  1.00  0.00     0.004 C 
ENDBRANCH  28  29
ENDBRANCH  27  28
ENDBRANCH  26  27
ENDBRANCH  25  26
ENDBRANCH  24  25
ENDBRANCH  23  24
ENDBRANCH  22  23
ENDBRANCH  21  22
ENDBRANCH  20  21
ENDBRANCH  19  20
ENDBRANCH  18  19
ENDBRANCH  17  18
ENDBRANCH   1  17
TORSDOF 26
ENDMDL
MODEL 8
REMARK VINA RESULT:    -4.184      4.244      7.500
REMARK INTER + INTRA:         -14.706
REMARK INTER:                 -10.779
REMARK INTRA:                  -3.927
REMARK UNBOUND:                -4.161
REMARK SMILES CCCCCCCCCCCCCCCCCCCCCCCCCCCC(=O)[O-]
REMARK SMILES IDX 15 1 16 2 17 3 18 4 19 5 20 6 21 7 22 8 23 9 24 10 25 11
REMARK SMILES IDX 26 12 27 13 28 14 29 15 30 16 14 17 13 18 12 19 11 20 10 21
REMARK SMILES IDX 9 22 8 23 7 24 6 25 5 26 4 27 3 28 2 29 1 30
REMARK H PARENT
REMARK Flexibility Score: inf
ROOT
ATOM      1  C   UNL     1      15.205  32.097  68.162  1.00  0.00     0.000 C 
ENDROOT
BRANCH   1   2
ATOM      2  C   UNL     1      14.267  32.913  67.265  1.00  0.00     0.000 C 
BRANCH   2   3
ATOM      3  C   UNL     1      13.734  32.061  66.106  1.00  0.00     0.000 C 
BRANCH   3   4
ATOM      4  C   UNL     1      12.203  31.995  66.131  1.00  0.00     0.000 C 
BRANCH   4   5
ATOM      5  C   UNL     1      11.652  32.485  67.478  1.00  0.00     0.000 C 
BRANCH   5   6
ATOM      6  C   UNL     1      11.163  31.337  68.383  1.00  0.00     0.000 C 
BRANCH   6   7
ATOM      7  C   UNL     1      11.211  29.933  67.750  1.00  0.00     0.000 C 
BRANCH   7   8
ATOM      8  C   UNL     1       9.831  29.256  67.687  1.00  0.00     0.000 C 
BRANCH   8   9
ATOM      9  C   UNL     1       9.428  28.847  66.258  1.00  0.00     0.000 C 
BRANCH   9  10
ATOM     10  C   UNL     1       8.593  29.888  65.489  1.00  0.00     0.000 C 
BRANCH  10  11
ATOM     11  C   UNL     1       7.431  30.510  66.287  1.00  0.00     0.000 C 
BRANCH  11  12
ATOM     12  C   UNL     1       7.069  31.942  65.839  1.00  0.00     0.006 C 
BRANCH  12  13
ATOM     13  C   UNL     1       8.164  32.959  66.189  1.00  0.00     0.053 C 
BRANCH  13  14
ATOM     14  C   UNL     1       7.624  34.353  66.125  1.00  0.00     0.041 C 
ATOM     15  O   UNL     1       7.363  34.981  67.186  1.00  0.00    -0.550 OA
ATOM     16  O   UNL     1       7.364  34.944  64.894  1.00  0.00    -0.550 OA
ENDBRANCH  13  14
ENDBRANCH  12  13
ENDBRANCH  11  12
ENDBRANCH  10  11
ENDBRANCH   9  10
ENDBRANCH   8   9
ENDBRANCH   7   8
ENDBRANCH   6   7
ENDBRANCH   5   6
ENDBRANCH   4   5
ENDBRANCH   3   4
ENDBRANCH   2   3
ENDBRANCH   1   2
BRANCH   1  17
ATOM     17  C   UNL     1      14.871  30.600  68.091  1.00  0.00     0.000 C 
BRANCH  17  18
ATOM     18  C   UNL     1      15.363  29.813  69.320  1.00  0.00     0.000 C 
BRANCH  18  19
ATOM     19  C   UNL     1      15.499  30.634  70.616  1.00  0.00     0.000 C 
BRANCH  19  20
ATOM     20  C   UNL     1      16.754  30.274  71.428  1.00  0.00     0.000 C 
BRANCH  20  21
ATOM     21  C   UNL     1      17.948  31.201  71.132  1.00  0.00     0.000 C 
BRANCH  21  22
ATOM     22  C   UNL     1      19.235  30.496  70.664  1.00  0.00    -0.000 C 
BRANCH  22  23
ATOM     23  C   UNL     1      19.123  29.920  69.243  1.00  0.00    -0.000 C 
BRANCH  23  24
ATOM     24  C   UNL     1      18.899  31.003  68.171  1.00  0.00    -0.000 C 
BRANCH  24  25
ATOM     25  C   UNL     1      18.445  30.483  66.794  1.00  0.00    -0.000 C 
BRANCH  25  26
ATOM     26  C   UNL     1      19.335  30.975  65.642  1.00  0.00    -0.000 C 
BRANCH  26  27
ATOM     27  C   UNL     1      18.643  32.100  64.858  1.00  0.00    -0.000 C 
BRANCH  27  28
ATOM     28  C   UNL     1      18.940  33.494  65.434  1.00  0.00    -0.000 C 
BRANCH  28  29
ATOM     29  C   UNL     1      17.777  34.049  66.269  1.00  0.00    -0.003 C 
ATOM     30  C   UNL     1      17.493  35.506  65.916  1.00  0.00     0.004 C 
ENDBRANCH  28  29
ENDBRANCH  27  28
ENDBRANCH  26  27
ENDBRANCH  25  26
ENDBRANCH  24  25
ENDBRANCH  23  24
ENDBRANCH  22  23
ENDBRANCH  21  22
ENDBRANCH  20  21
ENDBRANCH  19  20
ENDBRANCH  18  19
ENDBRANCH  17  18
ENDBRANCH   1  17
TORSDOF 26
ENDMDL
MODEL 9
REMARK VINA RESULT:    -4.174      8.260     12.157
REMARK INTER + INTRA:         -14.679
REMARK INTER:                  -9.717
REMARK INTRA:                  -4.962
REMARK UNBOUND:                -4.161
REMARK SMILES CCCCCCCCCCCCCCCCCCCCCCCCCCCC(=O)[O-]
REMARK SMILES IDX 15 1 16 2 17 3 18 4 19 5 20 6 21 7 22 8 23 9 24 10 25 11
REMARK SMILES IDX 26 12 27 13 28 14 29 15 30 16 14 17 13 18 12 19 11 20 10 21
REMARK SMILES IDX 9 22 8 23 7 24 6 25 5 26 4 27 3 28 2 29 1 30
REMARK H PARENT
REMARK Flexibility Score: inf
ROOT
ATOM      1  C   UNL     1      14.153  44.503  61.630  1.00  0.00     0.000 C 
ENDROOT
BRANCH   1   2
ATOM      2  C   UNL     1      14.091  44.363  63.155  1.00  0.00     0.000 C 
BRANCH   2   3
ATOM      3  C   UNL     1      15.357  44.926  63.812  1.00  0.00     0.000 C 
BRANCH   3   4
ATOM      4  C   UNL     1      16.014  45.986  62.920  1.00  0.00     0.000 C 
BRANCH   4   5
ATOM      5  C   UNL     1      17.239  46.603  63.610  1.00  0.00     0.000 C 
BRANCH   5   6
ATOM      6  C   UNL     1      18.553  46.354  62.844  1.00  0.00     0.000 C 
BRANCH   6   7
ATOM      7  C   UNL     1      19.811  46.214  63.723  1.00  0.00     0.000 C 
BRANCH   7   8
ATOM      8  C   UNL     1      20.139  44.753  64.071  1.00  0.00     0.000 C 
BRANCH   8   9
ATOM      9  C   UNL     1      19.711  44.365  65.499  1.00  0.00     0.000 C 
BRANCH   9  10
ATOM     10  C   UNL     1      18.457  43.476  65.589  1.00  0.00     0.000 C 
BRANCH  10  11
ATOM     11  C   UNL     1      17.315  44.043  66.452  1.00  0.00     0.000 C 
BRANCH  11  12
ATOM     12  C   UNL     1      16.983  43.177  67.687  1.00  0.00     0.006 C 
BRANCH  12  13
ATOM     13  C   UNL     1      18.232  42.818  68.503  1.00  0.00     0.053 C 
BRANCH  13  14
ATOM     14  C   UNL     1      18.657  43.979  69.347  1.00  0.00     0.041 C 
ATOM     15  O   UNL     1      19.659  44.669  69.018  1.00  0.00    -0.550 OA
ATOM     16  O   UNL     1      17.977  44.272  70.523  1.00  0.00    -0.550 OA
ENDBRANCH  13  14
ENDBRANCH  12  13
ENDBRANCH  11  12
ENDBRANCH  10  11
ENDBRANCH   9  10
ENDBRANCH   8   9
ENDBRANCH   7   8
ENDBRANCH   6   7
ENDBRANCH   5   6
ENDBRANCH   4   5
ENDBRANCH   3   4
ENDBRANCH   2   3
ENDBRANCH   1   2
BRANCH   1  17
ATOM     17  C   UNL     1      14.124  43.127  60.948  1.00  0.00     0.000 C 
BRANCH  17  18
ATOM     18  C   UNL     1      15.297  42.912  59.975  1.00  0.00     0.000 C 
BRANCH  18  19
ATOM     19  C   UNL     1      16.316  44.065  59.907  1.00  0.00     0.000 C 
BRANCH  19  20
ATOM     20  C   UNL     1      17.707  43.672  60.432  1.00  0.00     0.000 C 
BRANCH  20  21
ATOM     21  C   UNL     1      17.650  42.884  61.754  1.00  0.00     0.000 C 
BRANCH  21  22
ATOM     22  C   UNL     1      18.928  42.103  62.115  1.00  0.00    -0.000 C 
BRANCH  22  23
ATOM     23  C   UNL     1      19.959  42.075  60.974  1.00  0.00    -0.000 C 
BRANCH  23  24
ATOM     24  C   UNL     1      21.301  41.446  61.391  1.00  0.00    -0.000 C 
BRANCH  24  25
ATOM     25  C   UNL     1      22.003  42.121  62.585  1.00  0.00    -0.000 C 
BRANCH  25  26
ATOM     26  C   UNL     1      22.799  41.133  63.452  1.00  0.00    -0.000 C 
BRANCH  26  27
ATOM     27  C   UNL     1      22.386  41.244  64.927  1.00  0.00    -0.000 C 
BRANCH  27  28
ATOM     28  C   UNL     1      20.933  40.806  65.172  1.00  0.00    -0.000 C 
BRANCH  28  29
ATOM     29  C   UNL     1      20.622  40.592  66.660  1.00  0.00    -0.003 C 
ATOM     30  C   UNL     1      20.694  39.114  67.030  1.00  0.00     0.004 C 
ENDBRANCH  28  29
ENDBRANCH  27  28
ENDBRANCH  26  27
ENDBRANCH  25  26
ENDBRANCH  24  25
ENDBRANCH  23  24
ENDBRANCH  22  23
ENDBRANCH  21  22
ENDBRANCH  20  21
ENDBRANCH  19  20
ENDBRANCH  18  19
ENDBRANCH  17  18
ENDBRANCH   1  17
TORSDOF 26
ENDMDL
