MODEL 1
REMARK VINA RESULT:    -5.406      0.000      0.000
REMARK INTER + INTRA:          -5.810
REMARK INTER:                  -5.722
REMARK INTRA:                  -0.089
REMARK UNBOUND:                -0.089
REMARK SMILES C=C(C)[C@@H]1CC=C(C)C(=O)C1
REMARK SMILES IDX 8 1 7 2 6 3 5 4 4 5 11 6 9 7 10 8 2 9 1 10 3 11
REMARK H PARENT
REMARK Flexibility Score: inf
ROOT
ATOM      1  C   UNL     1     -11.124  -4.242  15.070  1.00  0.00     0.048 C 
ATOM      2  C   UNL     1     -10.597  -5.572  14.609  1.00  0.00    -0.012 C 
ATOM      3  C   UNL     1     -11.125  -6.708  15.099  1.00  0.00    -0.019 C 
ATOM      4  C   UNL     1     -10.647  -8.065  14.658  1.00  0.00     0.036 C 
ATOM      5  C   UNL     1      -9.144  -8.042  14.319  1.00  0.00     0.025 C 
ATOM      6  C   UNL     1      -8.850  -6.952  13.272  1.00  0.00     0.089 C 
ATOM      7  C   UNL     1      -9.415  -5.629  13.712  1.00  0.00     0.158 C 
ATOM      8  O   UNL     1      -8.895  -4.565  13.279  1.00  0.00    -0.295 OA
ENDROOT
BRANCH   5   9
ATOM      9  C   UNL     1      -8.649  -9.408  13.864  1.00  0.00    -0.077 C 
ATOM     10  C   UNL     1      -7.639 -10.032  14.495  1.00  0.00     0.008 C 
ATOM     11  C   UNL     1      -9.292 -10.090  12.684  1.00  0.00     0.039 C 
ENDBRANCH   5   9
TORSDOF 1
ENDMDL
MODEL 2
REMARK VINA RESULT:    -5.325     16.199     17.400
REMARK INTER + INTRA:          -5.725
REMARK INTER:                  -5.632
REMARK INTRA:                  -0.093
REMARK UNBOUND:                -0.089
REMARK SMILES C=C(C)[C@@H]1CC=C(C)C(=O)C1
REMARK SMILES IDX 8 1 7 2 6 3 5 4 4 5 11 6 9 7 10 8 2 9 1 10 3 11
REMARK H PARENT
REMARK Flexibility Score: inf
ROOT
ATOM      1  C   UNL     1       2.743   6.013   9.442  1.00  0.00     0.048 C 
ATOM      2  C   UNL     1       3.014   5.312  10.743  1.00  0.00    -0.012 C 
ATOM      3  C   UNL     1       4.266   5.261  11.229  1.00  0.00    -0.019 C 
ATOM      4  C   UNL     1       4.589   4.587  12.536  1.00  0.00     0.036 C 
ATOM      5  C   UNL     1       3.656   3.387  12.788  1.00  0.00     0.025 C 
ATOM      6  C   UNL     1       2.183   3.830  12.708  1.00  0.00     0.089 C 
ATOM      7  C   UNL     1       1.922   4.571  11.425  1.00  0.00     0.158 C 
ATOM      8  O   UNL     1       0.753   4.586  10.953  1.00  0.00    -0.295 OA
ENDROOT
BRANCH   5   9
ATOM      9  C   UNL     1       3.967   2.701  14.112  1.00  0.00    -0.077 C 
ATOM     10  C   UNL     1       3.937   3.377  15.273  1.00  0.00     0.008 C 
ATOM     11  C   UNL     1       4.315   1.235  14.139  1.00  0.00     0.039 C 
ENDBRANCH   5   9
TORSDOF 1
ENDMDL
MODEL 3
REMARK VINA RESULT:    -5.187      2.186      4.139
REMARK INTER + INTRA:          -5.579
REMARK INTER:                  -5.483
REMARK INTRA:                  -0.096
REMARK UNBOUND:                -0.089
REMARK SMILES C=C(C)[C@@H]1CC=C(C)C(=O)C1
REMARK SMILES IDX 8 1 7 2 6 3 5 4 4 5 11 6 9 7 10 8 2 9 1 10 3 11
REMARK H PARENT
REMARK Flexibility Score: inf
ROOT
ATOM      1  C   UNL     1      -5.504  -8.028  10.925  1.00  0.00     0.048 C 
ATOM      2  C   UNL     1      -6.672  -8.261  11.842  1.00  0.00    -0.012 C 
ATOM      3  C   UNL     1      -7.470  -9.327  11.653  1.00  0.00    -0.019 C 
ATOM      4  C   UNL     1      -8.642  -9.615  12.552  1.00  0.00     0.036 C 
ATOM      5  C   UNL     1      -9.272  -8.312  13.080  1.00  0.00     0.025 C 
ATOM      6  C   UNL     1      -8.204  -7.446  13.774  1.00  0.00     0.089 C 
ATOM      7  C   UNL     1      -7.015  -7.249  12.874  1.00  0.00     0.158 C 
ATOM      8  O   UNL     1      -6.290  -6.231  13.029  1.00  0.00    -0.295 OA
ENDROOT
BRANCH   5   9
ATOM      9  C   UNL     1     -10.454  -8.591  13.999  1.00  0.00    -0.077 C 
ATOM     10  C   UNL     1     -11.125  -9.755  13.942  1.00  0.00     0.008 C 
ATOM     11  C   UNL     1     -10.894  -7.554  15.000  1.00  0.00     0.039 C 
ENDBRANCH   5   9
TORSDOF 1
ENDMDL
MODEL 4
REMARK VINA RESULT:    -5.158      2.637      3.392
REMARK INTER + INTRA:          -5.548
REMARK INTER:                  -5.455
REMARK INTRA:                  -0.093
REMARK UNBOUND:                -0.089
REMARK SMILES C=C(C)[C@@H]1CC=C(C)C(=O)C1
REMARK SMILES IDX 8 1 7 2 6 3 5 4 4 5 11 6 9 7 10 8 2 9 1 10 3 11
REMARK H PARENT
REMARK Flexibility Score: inf
ROOT
ATOM      1  C   UNL     1     -11.088  -7.359  15.106  1.00  0.00     0.048 C 
ATOM      2  C   UNL     1      -9.928  -7.891  14.312  1.00  0.00    -0.012 C 
ATOM      3  C   UNL     1      -8.812  -7.154  14.179  1.00  0.00    -0.019 C 
ATOM      4  C   UNL     1      -7.616  -7.647  13.409  1.00  0.00     0.036 C 
ATOM      5  C   UNL     1      -8.044  -8.546  12.234  1.00  0.00     0.025 C 
ATOM      6  C   UNL     1      -8.928  -9.701  12.740  1.00  0.00     0.089 C 
ATOM      7  C   UNL     1     -10.065  -9.172  13.572  1.00  0.00     0.158 C 
ATOM      8  O   UNL     1     -11.124  -9.849  13.665  1.00  0.00    -0.295 OA
ENDROOT
BRANCH   5   9
ATOM      9  C   UNL     1      -6.842  -9.059  11.451  1.00  0.00    -0.077 C 
ATOM     10  C   UNL     1      -5.850  -9.734  12.058  1.00  0.00     0.008 C 
ATOM     11  C   UNL     1      -6.747  -8.816   9.967  1.00  0.00     0.039 C 
ENDBRANCH   5   9
TORSDOF 1
ENDMDL
MODEL 5
REMARK VINA RESULT:    -5.137      2.255      3.930
REMARK INTER + INTRA:          -5.526
REMARK INTER:                  -5.431
REMARK INTRA:                  -0.095
REMARK UNBOUND:                -0.089
REMARK SMILES C=C(C)[C@@H]1CC=C(C)C(=O)C1
REMARK SMILES IDX 8 1 7 2 6 3 5 4 4 5 11 6 9 7 10 8 2 9 1 10 3 11
REMARK H PARENT
REMARK Flexibility Score: inf
ROOT
ATOM      1  C   UNL     1     -11.095 -10.125  13.989  1.00  0.00     0.048 C 
ATOM      2  C   UNL     1     -10.037  -9.141  13.574  1.00  0.00    -0.012 C 
ATOM      3  C   UNL     1      -9.107  -9.499  12.670  1.00  0.00    -0.019 C 
ATOM      4  C   UNL     1      -8.038  -8.547  12.206  1.00  0.00     0.036 C 
ATOM      5  C   UNL     1      -7.631  -7.576  13.332  1.00  0.00     0.025 C 
ATOM      6  C   UNL     1      -8.870  -6.841  13.876  1.00  0.00     0.089 C 
ATOM      7  C   UNL     1      -9.946  -7.823  14.252  1.00  0.00     0.158 C 
ATOM      8  O   UNL     1     -10.795  -7.499  15.125  1.00  0.00    -0.295 OA
ENDROOT
BRANCH   5   9
ATOM      9  C   UNL     1      -6.554  -6.601  12.873  1.00  0.00    -0.077 C 
ATOM     10  C   UNL     1      -5.515  -7.010  12.125  1.00  0.00     0.008 C 
ATOM     11  C   UNL     1      -6.642  -5.146  13.254  1.00  0.00     0.039 C 
ENDBRANCH   5   9
TORSDOF 1
ENDMDL
MODEL 6
REMARK VINA RESULT:    -5.128      1.896      2.587
REMARK INTER + INTRA:          -5.517
REMARK INTER:                  -5.427
REMARK INTRA:                  -0.089
REMARK UNBOUND:                -0.089
REMARK SMILES C=C(C)[C@@H]1CC=C(C)C(=O)C1
REMARK SMILES IDX 8 1 7 2 6 3 5 4 4 5 11 6 9 7 10 8 2 9 1 10 3 11
REMARK H PARENT
REMARK Flexibility Score: inf
ROOT
ATOM      1  C   UNL     1     -11.089  -7.481  15.351  1.00  0.00     0.048 C 
ATOM      2  C   UNL     1     -10.140  -7.890  14.260  1.00  0.00    -0.012 C 
ATOM      3  C   UNL     1      -9.999  -9.191  13.948  1.00  0.00    -0.019 C 
ATOM      4  C   UNL     1      -9.076  -9.653  12.852  1.00  0.00     0.036 C 
ATOM      5  C   UNL     1      -7.844  -8.734  12.738  1.00  0.00     0.025 C 
ATOM      6  C   UNL     1      -8.286  -7.271  12.550  1.00  0.00     0.089 C 
ATOM      7  C   UNL     1      -9.270  -6.873  13.616  1.00  0.00     0.158 C 
ATOM      8  O   UNL     1      -9.375  -5.657  13.932  1.00  0.00    -0.295 OA
ENDROOT
BRANCH   5   9
ATOM      9  C   UNL     1      -6.906  -9.186  11.627  1.00  0.00    -0.077 C 
ATOM     10  C   UNL     1      -5.968 -10.125  11.843  1.00  0.00     0.008 C 
ATOM     11  C   UNL     1      -7.016  -8.580  10.252  1.00  0.00     0.039 C 
ENDBRANCH   5   9
TORSDOF 1
ENDMDL
MODEL 7
REMARK VINA RESULT:    -5.109     15.929     17.183
REMARK INTER + INTRA:          -5.497
REMARK INTER:                  -5.399
REMARK INTRA:                  -0.097
REMARK UNBOUND:                -0.089
REMARK SMILES C=C(C)[C@@H]1CC=C(C)C(=O)C1
REMARK SMILES IDX 8 1 7 2 6 3 5 4 4 5 11 6 9 7 10 8 2 9 1 10 3 11
REMARK H PARENT
REMARK Flexibility Score: inf
ROOT
ATOM      1  C   UNL     1       2.702   6.029   9.950  1.00  0.00     0.048 C 
ATOM      2  C   UNL     1       2.887   5.011  11.040  1.00  0.00    -0.012 C 
ATOM      3  C   UNL     1       1.905   4.134  11.312  1.00  0.00    -0.019 C 
ATOM      4  C   UNL     1       2.046   3.083  12.381  1.00  0.00     0.036 C 
ATOM      5  C   UNL     1       2.920   3.588  13.545  1.00  0.00     0.025 C 
ATOM      6  C   UNL     1       4.284   4.071  13.018  1.00  0.00     0.089 C 
ATOM      7  C   UNL     1       4.100   5.057  11.897  1.00  0.00     0.158 C 
ATOM      8  O   UNL     1       5.006   5.902  11.668  1.00  0.00    -0.295 OA
ENDROOT
BRANCH   5   9
ATOM      9  C   UNL     1       3.078   2.531  14.630  1.00  0.00    -0.077 C 
ATOM     10  C   UNL     1       4.260   2.323  15.235  1.00  0.00     0.008 C 
ATOM     11  C   UNL     1       1.896   1.694  15.047  1.00  0.00     0.039 C 
ENDBRANCH   5   9
TORSDOF 1
ENDMDL
MODEL 8
REMARK VINA RESULT:    -5.039      1.871      2.560
REMARK INTER + INTRA:          -5.422
REMARK INTER:                  -5.327
REMARK INTRA:                  -0.095
REMARK UNBOUND:                -0.089
REMARK SMILES C=C(C)[C@@H]1CC=C(C)C(=O)C1
REMARK SMILES IDX 8 1 7 2 6 3 5 4 4 5 11 6 9 7 10 8 2 9 1 10 3 11
REMARK H PARENT
REMARK Flexibility Score: inf
ROOT
ATOM      1  C   UNL     1     -11.029  -4.695  14.700  1.00  0.00     0.048 C 
ATOM      2  C   UNL     1     -10.035  -5.727  14.245  1.00  0.00    -0.012 C 
ATOM      3  C   UNL     1      -9.068  -5.388  13.374  1.00  0.00    -0.019 C 
ATOM      4  C   UNL     1      -8.038  -6.378  12.901  1.00  0.00     0.036 C 
ATOM      5  C   UNL     1      -8.626  -7.800  12.827  1.00  0.00     0.025 C 
ATOM      6  C   UNL     1      -9.235  -8.197  14.184  1.00  0.00     0.089 C 
ATOM      7  C   UNL     1     -10.198  -7.144  14.661  1.00  0.00     0.158 C 
ATOM      8  O   UNL     1     -11.125  -7.471  15.449  1.00  0.00    -0.295 OA
ENDROOT
BRANCH   5   9
ATOM      9  C   UNL     1      -7.590  -8.813  12.357  1.00  0.00    -0.077 C 
ATOM     10  C   UNL     1      -7.927 -10.089  12.100  1.00  0.00     0.008 C 
ATOM     11  C   UNL     1      -6.154  -8.395  12.170  1.00  0.00     0.039 C 
ENDBRANCH   5   9
TORSDOF 1
ENDMDL
MODEL 9
REMARK VINA RESULT:    -5.022      2.512      4.233
REMARK INTER + INTRA:          -5.404
REMARK INTER:                  -5.307
REMARK INTRA:                  -0.098
REMARK UNBOUND:                -0.089
REMARK SMILES C=C(C)[C@@H]1CC=C(C)C(=O)C1
REMARK SMILES IDX 8 1 7 2 6 3 5 4 4 5 11 6 9 7 10 8 2 9 1 10 3 11
REMARK H PARENT
REMARK Flexibility Score: inf
ROOT
ATOM      1  C   UNL     1      -5.117  -7.329  11.998  1.00  0.00     0.048 C 
ATOM      2  C   UNL     1      -6.539  -7.501  12.455  1.00  0.00    -0.012 C 
ATOM      3  C   UNL     1      -7.106  -6.573  13.246  1.00  0.00    -0.019 C 
ATOM      4  C   UNL     1      -8.531  -6.689  13.717  1.00  0.00     0.036 C 
ATOM      5  C   UNL     1      -8.934  -8.163  13.912  1.00  0.00     0.025 C 
ATOM      6  C   UNL     1      -8.681  -8.961  12.619  1.00  0.00     0.089 C 
ATOM      7  C   UNL     1      -7.271  -8.754  12.137  1.00  0.00     0.158 C 
ATOM      8  O   UNL     1      -6.729  -9.642  11.426  1.00  0.00    -0.295 OA
ENDROOT
BRANCH   5   9
ATOM      9  C   UNL     1     -10.378  -8.294  14.380  1.00  0.00    -0.077 C 
ATOM     10  C   UNL     1     -11.124  -9.363  14.051  1.00  0.00     0.008 C 
ATOM     11  C   UNL     1     -10.997  -7.216  15.231  1.00  0.00     0.039 C 
ENDBRANCH   5   9
TORSDOF 1
ENDMDL
