MODEL 1
REMARK VINA RESULT:    -3.751      0.000      0.000
REMARK INTER + INTRA:          -4.884
REMARK INTER:                  -4.628
REMARK INTRA:                  -0.256
REMARK UNBOUND:                -0.256
REMARK SMILES CCCCCC(=O)[O-]
REMARK SMILES IDX 4 1 5 2 6 3 7 4 8 5 3 6 2 7 1 8
REMARK H PARENT
REMARK Flexibility Score: inf
ROOT
ATOM      1  C   UNL     1     -23.169  -8.325  17.467  1.00  0.00     0.006 C 
ENDROOT
BRANCH   1   2
ATOM      2  C   UNL     1     -22.883  -9.203  16.243  1.00  0.00     0.053 C 
BRANCH   2   3
ATOM      3  C   UNL     1     -22.764  -8.359  15.013  1.00  0.00     0.041 C 
ATOM      4  O   UNL     1     -23.786  -7.824  14.511  1.00  0.00    -0.550 OA
ATOM      5  O   UNL     1     -21.517  -8.123  14.449  1.00  0.00    -0.550 OA
ENDBRANCH   2   3
ENDBRANCH   1   2
BRANCH   1   6
ATOM      6  C   UNL     1     -21.953  -7.486  17.891  1.00  0.00     0.000 C 
BRANCH   6   7
ATOM      7  C   UNL     1     -22.245  -5.978  17.884  1.00  0.00    -0.003 C 
ATOM      8  C   UNL     1     -21.451  -5.270  16.789  1.00  0.00     0.004 C 
ENDBRANCH   6   7
ENDBRANCH   1   6
TORSDOF 4
ENDMDL
MODEL 2
REMARK VINA RESULT:    -3.673      3.673      4.229
REMARK INTER + INTRA:          -4.788
REMARK INTER:                  -4.651
REMARK INTRA:                  -0.136
REMARK UNBOUND:                -0.256
REMARK SMILES CCCCCC(=O)[O-]
REMARK SMILES IDX 4 1 5 2 6 3 7 4 8 5 3 6 2 7 1 8
REMARK H PARENT
REMARK Flexibility Score: inf
ROOT
ATOM      1  C   UNL     1     -19.092  -7.590  15.080  1.00  0.00     0.006 C 
ENDROOT
BRANCH   1   2
ATOM      2  C   UNL     1     -20.332  -7.898  14.231  1.00  0.00     0.053 C 
BRANCH   2   3
ATOM      3  C   UNL     1     -21.453  -6.975  14.592  1.00  0.00     0.041 C 
ATOM      4  O   UNL     1     -22.636  -7.402  14.635  1.00  0.00    -0.550 OA
ATOM      5  O   UNL     1     -21.186  -5.654  14.929  1.00  0.00    -0.550 OA
ENDBRANCH   2   3
ENDBRANCH   1   2
BRANCH   1   6
ATOM      6  C   UNL     1     -17.922  -7.049  14.243  1.00  0.00     0.000 C 
BRANCH   6   7
ATOM      7  C   UNL     1     -17.703  -5.542  14.438  1.00  0.00    -0.003 C 
ATOM      8  C   UNL     1     -16.742  -4.986  13.391  1.00  0.00     0.004 C 
ENDBRANCH   6   7
ENDBRANCH   1   6
TORSDOF 4
ENDMDL
MODEL 3
REMARK VINA RESULT:    -3.628      2.016      2.423
REMARK INTER + INTRA:          -4.732
REMARK INTER:                  -4.563
REMARK INTRA:                  -0.169
REMARK UNBOUND:                -0.256
REMARK SMILES CCCCCC(=O)[O-]
REMARK SMILES IDX 4 1 5 2 6 3 7 4 8 5 3 6 2 7 1 8
REMARK H PARENT
REMARK Flexibility Score: inf
ROOT
ATOM      1  C   UNL     1     -21.446  -8.180  16.799  1.00  0.00     0.006 C 
ENDROOT
BRANCH   1   2
ATOM      2  C   UNL     1     -19.971  -8.488  16.513  1.00  0.00     0.053 C 
BRANCH   2   3
ATOM      3  C   UNL     1     -19.552  -7.873  15.214  1.00  0.00     0.041 C 
ATOM      4  O   UNL     1     -20.297  -7.959  14.204  1.00  0.00    -0.550 OA
ATOM      5  O   UNL     1     -18.361  -7.162  15.134  1.00  0.00    -0.550 OA
ENDBRANCH   2   3
ENDBRANCH   1   2
BRANCH   1   6
ATOM      6  C   UNL     1     -21.638  -7.328  18.064  1.00  0.00     0.000 C 
BRANCH   6   7
ATOM      7  C   UNL     1     -22.335  -5.990  17.774  1.00  0.00    -0.003 C 
ATOM      8  C   UNL     1     -21.446  -5.078  16.934  1.00  0.00     0.004 C 
ENDBRANCH   6   7
ENDBRANCH   1   6
TORSDOF 4
ENDMDL
MODEL 4
REMARK VINA RESULT:    -3.619      0.990      1.442
REMARK INTER + INTRA:          -4.721
REMARK INTER:                  -4.535
REMARK INTRA:                  -0.186
REMARK UNBOUND:                -0.256
REMARK SMILES CCCCCC(=O)[O-]
REMARK SMILES IDX 4 1 5 2 6 3 7 4 8 5 3 6 2 7 1 8
REMARK H PARENT
REMARK Flexibility Score: inf
ROOT
ATOM      1  C   UNL     1     -23.419  -8.721  17.287  1.00  0.00     0.006 C 
ENDROOT
BRANCH   1   2
ATOM      2  C   UNL     1     -22.937  -9.409  16.004  1.00  0.00     0.053 C 
BRANCH   2   3
ATOM      3  C   UNL     1     -22.787  -8.408  14.901  1.00  0.00     0.041 C 
ATOM      4  O   UNL     1     -23.795  -7.800  14.457  1.00  0.00    -0.550 OA
ATOM      5  O   UNL     1     -21.527  -8.111  14.398  1.00  0.00    -0.550 OA
ENDBRANCH   2   3
ENDBRANCH   1   2
BRANCH   1   6
ATOM      6  C   UNL     1     -22.435  -7.653  17.792  1.00  0.00     0.000 C 
BRANCH   6   7
ATOM      7  C   UNL     1     -23.130  -6.331  18.148  1.00  0.00    -0.003 C 
ATOM      8  C   UNL     1     -24.466  -6.582  18.840  1.00  0.00     0.004 C 
ENDBRANCH   6   7
ENDBRANCH   1   6
TORSDOF 4
ENDMDL
MODEL 5
REMARK VINA RESULT:    -3.585      2.570      3.653
REMARK INTER + INTRA:          -4.679
REMARK INTER:                  -4.580
REMARK INTRA:                  -0.099
REMARK UNBOUND:                -0.256
REMARK SMILES CCCCCC(=O)[O-]
REMARK SMILES IDX 4 1 5 2 6 3 7 4 8 5 3 6 2 7 1 8
REMARK H PARENT
REMARK Flexibility Score: inf
ROOT
ATOM      1  C   UNL     1     -21.443  -7.536  17.664  1.00  0.00     0.006 C 
ENDROOT
BRANCH   1   2
ATOM      2  C   UNL     1     -20.953  -8.558  16.631  1.00  0.00     0.053 C 
BRANCH   2   3
ATOM      3  C   UNL     1     -19.460  -8.656  16.663  1.00  0.00     0.041 C 
ATOM      4  O   UNL     1     -18.776  -8.225  15.698  1.00  0.00    -0.550 OA
ATOM      5  O   UNL     1     -18.820  -9.178  17.780  1.00  0.00    -0.550 OA
ENDBRANCH   2   3
ENDBRANCH   1   2
BRANCH   1   6
ATOM      6  C   UNL     1     -22.951  -7.651  17.941  1.00  0.00     0.000 C 
BRANCH   6   7
ATOM      7  C   UNL     1     -23.599  -8.830  17.199  1.00  0.00    -0.003 C 
ATOM      8  C   UNL     1     -25.069  -8.976  17.580  1.00  0.00     0.004 C 
ENDBRANCH   6   7
ENDBRANCH   1   6
TORSDOF 4
ENDMDL
MODEL 6
REMARK VINA RESULT:    -3.558      2.085      3.173
REMARK INTER + INTRA:          -4.646
REMARK INTER:                  -4.485
REMARK INTRA:                  -0.161
REMARK UNBOUND:                -0.256
REMARK SMILES CCCCCC(=O)[O-]
REMARK SMILES IDX 4 1 5 2 6 3 7 4 8 5 3 6 2 7 1 8
REMARK H PARENT
REMARK Flexibility Score: inf
ROOT
ATOM      1  C   UNL     1     -21.317  -5.925  15.446  1.00  0.00     0.006 C 
ENDROOT
BRANCH   1   2
ATOM      2  C   UNL     1     -19.883  -6.116  14.937  1.00  0.00     0.053 C 
BRANCH   2   3
ATOM      3  C   UNL     1     -19.594  -7.570  14.731  1.00  0.00     0.041 C 
ATOM      4  O   UNL     1     -20.079  -8.178  13.742  1.00  0.00    -0.550 OA
ATOM      5  O   UNL     1     -18.747  -8.242  15.604  1.00  0.00    -0.550 OA
ENDBRANCH   2   3
ENDBRANCH   1   2
BRANCH   1   6
ATOM      6  C   UNL     1     -21.372  -5.198  16.800  1.00  0.00     0.000 C 
BRANCH   6   7
ATOM      7  C   UNL     1     -22.134  -5.997  17.868  1.00  0.00    -0.003 C 
ATOM      8  C   UNL     1     -21.770  -7.478  17.809  1.00  0.00     0.004 C 
ENDBRANCH   6   7
ENDBRANCH   1   6
TORSDOF 4
ENDMDL
MODEL 7
REMARK VINA RESULT:    -3.556      2.496      3.019
REMARK INTER + INTRA:          -4.643
REMARK INTER:                  -4.431
REMARK INTRA:                  -0.213
REMARK UNBOUND:                -0.256
REMARK SMILES CCCCCC(=O)[O-]
REMARK SMILES IDX 4 1 5 2 6 3 7 4 8 5 3 6 2 7 1 8
REMARK H PARENT
REMARK Flexibility Score: inf
ROOT
ATOM      1  C   UNL     1     -21.413  -7.518  17.762  1.00  0.00     0.006 C 
ENDROOT
BRANCH   1   2
ATOM      2  C   UNL     1     -20.974  -8.578  16.745  1.00  0.00     0.053 C 
BRANCH   2   3
ATOM      3  C   UNL     1     -19.481  -8.626  16.654  1.00  0.00     0.041 C 
ATOM      4  O   UNL     1     -18.816  -9.280  17.498  1.00  0.00    -0.550 OA
ATOM      5  O   UNL     1     -18.827  -7.989  15.606  1.00  0.00    -0.550 OA
ENDBRANCH   2   3
ENDBRANCH   1   2
BRANCH   1   6
ATOM      6  C   UNL     1     -22.219  -6.378  17.118  1.00  0.00     0.000 C 
BRANCH   6   7
ATOM      7  C   UNL     1     -21.354  -5.148  16.803  1.00  0.00    -0.003 C 
ATOM      8  C   UNL     1     -20.971  -5.110  15.326  1.00  0.00     0.004 C 
ENDBRANCH   6   7
ENDBRANCH   1   6
TORSDOF 4
ENDMDL
MODEL 8
REMARK VINA RESULT:    -3.533      2.185      3.443
REMARK INTER + INTRA:          -4.615
REMARK INTER:                  -4.372
REMARK INTRA:                  -0.243
REMARK UNBOUND:                -0.256
REMARK SMILES CCCCCC(=O)[O-]
REMARK SMILES IDX 4 1 5 2 6 3 7 4 8 5 3 6 2 7 1 8
REMARK H PARENT
REMARK Flexibility Score: inf
ROOT
ATOM      1  C   UNL     1     -21.174  -8.313  16.760  1.00  0.00     0.006 C 
ENDROOT
BRANCH   1   2
ATOM      2  C   UNL     1     -21.416  -7.550  18.069  1.00  0.00     0.053 C 
BRANCH   2   3
ATOM      3  C   UNL     1     -22.188  -6.296  17.806  1.00  0.00     0.041 C 
ATOM      4  O   UNL     1     -23.368  -6.178  18.228  1.00  0.00    -0.550 OA
ATOM      5  O   UNL     1     -21.587  -5.236  17.138  1.00  0.00    -0.550 OA
ENDBRANCH   2   3
ENDBRANCH   1   2
BRANCH   1   6
ATOM      6  C   UNL     1     -22.434  -9.036  16.256  1.00  0.00     0.000 C 
BRANCH   6   7
ATOM      7  C   UNL     1     -22.810  -8.634  14.822  1.00  0.00    -0.003 C 
ATOM      8  C   UNL     1     -23.926  -7.593  14.818  1.00  0.00     0.004 C 
ENDBRANCH   6   7
ENDBRANCH   1   6
TORSDOF 4
ENDMDL
MODEL 9
REMARK VINA RESULT:    -3.478      2.535      3.577
REMARK INTER + INTRA:          -4.548
REMARK INTER:                  -4.303
REMARK INTRA:                  -0.245
REMARK UNBOUND:                -0.256
REMARK SMILES CCCCCC(=O)[O-]
REMARK SMILES IDX 4 1 5 2 6 3 7 4 8 5 3 6 2 7 1 8
REMARK H PARENT
REMARK Flexibility Score: inf
ROOT
ATOM      1  C   UNL     1     -21.366  -7.087  14.821  1.00  0.00     0.006 C 
ENDROOT
BRANCH   1   2
ATOM      2  C   UNL     1     -20.259  -7.909  14.147  1.00  0.00     0.053 C 
BRANCH   2   3
ATOM      3  C   UNL     1     -18.957  -7.710  14.858  1.00  0.00     0.041 C 
ATOM      4  O   UNL     1     -18.708  -8.348  15.913  1.00  0.00    -0.550 OA
ATOM      5  O   UNL     1     -17.999  -6.856  14.327  1.00  0.00    -0.550 OA
ENDBRANCH   2   3
ENDBRANCH   1   2
BRANCH   1   6
ATOM      6  C   UNL     1     -22.507  -7.963  15.362  1.00  0.00     0.000 C 
BRANCH   6   7
ATOM      7  C   UNL     1     -22.193  -8.555  16.744  1.00  0.00    -0.003 C 
ATOM      8  C   UNL     1     -21.755  -7.467  17.720  1.00  0.00     0.004 C 
ENDBRANCH   6   7
ENDBRANCH   1   6
TORSDOF 4
ENDMDL
