MODEL 1
REMARK VINA RESULT:    -5.493      0.000      0.000
REMARK INTER + INTRA:          -7.706
REMARK INTER:                  -7.420
REMARK INTRA:                  -0.286
REMARK UNBOUND:                -0.286
REMARK SMILES CCCCCCCC(=O)[O-]
REMARK SMILES IDX 5 1 6 2 7 3 8 4 9 5 10 6 4 7 3 8 2 9 1 10
REMARK H PARENT
REMARK Flexibility Score: inf
ROOT
ATOM      1  C   UNL     1      -5.141   6.680   4.312  1.00  0.00     0.000 C 
ENDROOT
BRANCH   1   2
ATOM      2  C   UNL     1      -3.988   5.700   4.581  1.00  0.00     0.006 C 
BRANCH   2   3
ATOM      3  C   UNL     1      -4.433   4.575   5.519  1.00  0.00     0.053 C 
BRANCH   3   4
ATOM      4  C   UNL     1      -3.345   3.561   5.677  1.00  0.00     0.041 C 
ATOM      5  O   UNL     1      -2.991   2.853   4.698  1.00  0.00    -0.550 OA
ATOM      6  O   UNL     1      -2.754   3.363   6.919  1.00  0.00    -0.550 OA
ENDBRANCH   3   4
ENDBRANCH   2   3
ENDBRANCH   1   2
BRANCH   1   7
ATOM      7  C   UNL     1      -6.464   5.966   3.989  1.00  0.00     0.000 C 
BRANCH   7   8
ATOM      8  C   UNL     1      -6.783   5.966   2.484  1.00  0.00    -0.000 C 
BRANCH   8   9
ATOM      9  C   UNL     1      -5.920   6.969   1.701  1.00  0.00    -0.003 C 
ATOM     10  C   UNL     1      -5.847   6.651   0.208  1.00  0.00     0.004 C 
ENDBRANCH   8   9
ENDBRANCH   7   8
ENDBRANCH   1   7
TORSDOF 6
ENDMDL
MODEL 2
REMARK VINA RESULT:    -5.484      1.131      1.655
REMARK INTER + INTRA:          -7.693
REMARK INTER:                  -7.488
REMARK INTRA:                  -0.205
REMARK UNBOUND:                -0.286
REMARK SMILES CCCCCCCC(=O)[O-]
REMARK SMILES IDX 5 1 6 2 7 3 8 4 9 5 10 6 4 7 3 8 2 9 1 10
REMARK H PARENT
REMARK Flexibility Score: inf
ROOT
ATOM      1  C   UNL     1      -5.838   6.029   3.940  1.00  0.00     0.000 C 
ENDROOT
BRANCH   1   2
ATOM      2  C   UNL     1      -4.484   5.751   4.611  1.00  0.00     0.006 C 
BRANCH   2   3
ATOM      3  C   UNL     1      -4.568   4.528   5.528  1.00  0.00     0.053 C 
BRANCH   3   4
ATOM      4  C   UNL     1      -3.240   3.846   5.616  1.00  0.00     0.041 C 
ATOM      5  O   UNL     1      -2.553   3.657   4.578  1.00  0.00    -0.550 OA
ATOM      6  O   UNL     1      -2.782   3.372   6.839  1.00  0.00    -0.550 OA
ENDBRANCH   3   4
ENDBRANCH   2   3
ENDBRANCH   1   2
BRANCH   1   7
ATOM      7  C   UNL     1      -5.693   6.723   2.575  1.00  0.00     0.000 C 
BRANCH   7   8
ATOM      8  C   UNL     1      -6.858   6.401   1.622  1.00  0.00    -0.000 C 
BRANCH   8   9
ATOM      9  C   UNL     1      -8.094   5.870   2.365  1.00  0.00    -0.003 C 
ATOM     10  C   UNL     1      -9.367   5.932   1.520  1.00  0.00     0.004 C 
ENDBRANCH   8   9
ENDBRANCH   7   8
ENDBRANCH   1   7
TORSDOF 6
ENDMDL
MODEL 3
REMARK VINA RESULT:    -5.421      2.315      2.978
REMARK INTER + INTRA:          -7.608
REMARK INTER:                  -7.349
REMARK INTRA:                  -0.259
REMARK UNBOUND:                -0.286
REMARK SMILES CCCCCCCC(=O)[O-]
REMARK SMILES IDX 5 1 6 2 7 3 8 4 9 5 10 6 4 7 3 8 2 9 1 10
REMARK H PARENT
REMARK Flexibility Score: inf
ROOT
ATOM      1  C   UNL     1      -6.756   6.344   2.237  1.00  0.00     0.000 C 
ENDROOT
BRANCH   1   2
ATOM      2  C   UNL     1      -5.447   6.722   2.950  1.00  0.00     0.006 C 
BRANCH   2   3
ATOM      3  C   UNL     1      -5.472   6.273   4.414  1.00  0.00     0.053 C 
BRANCH   3   4
ATOM      4  C   UNL     1      -4.155   5.683   4.805  1.00  0.00     0.041 C 
ATOM      5  O   UNL     1      -4.108   4.698   5.588  1.00  0.00    -0.550 OA
ATOM      6  O   UNL     1      -2.974   6.254   4.346  1.00  0.00    -0.550 OA
ENDBRANCH   3   4
ENDBRANCH   2   3
ENDBRANCH   1   2
BRANCH   1   7
ATOM      7  C   UNL     1      -7.763   5.654   3.172  1.00  0.00     0.000 C 
BRANCH   7   8
ATOM      8  C   UNL     1      -9.196   5.674   2.613  1.00  0.00    -0.000 C 
BRANCH   8   9
ATOM      9  C   UNL     1      -9.237   5.993   1.110  1.00  0.00    -0.003 C 
ATOM     10  C   UNL     1     -10.660   6.154   0.575  1.00  0.00     0.004 C 
ENDBRANCH   8   9
ENDBRANCH   7   8
ENDBRANCH   1   7
TORSDOF 6
ENDMDL
MODEL 4
REMARK VINA RESULT:    -5.129      4.057      5.690
REMARK INTER + INTRA:          -7.214
REMARK INTER:                  -6.946
REMARK INTRA:                  -0.269
REMARK UNBOUND:                -0.286
REMARK SMILES CCCCCCCC(=O)[O-]
REMARK SMILES IDX 5 1 6 2 7 3 8 4 9 5 10 6 4 7 3 8 2 9 1 10
REMARK H PARENT
REMARK Flexibility Score: inf
ROOT
ATOM      1  C   UNL     1      -6.561   6.399   2.017  1.00  0.00     0.000 C 
ENDROOT
BRANCH   1   2
ATOM      2  C   UNL     1      -7.726   5.567   2.575  1.00  0.00     0.006 C 
BRANCH   2   3
ATOM      3  C   UNL     1      -9.046   5.951   1.900  1.00  0.00     0.053 C 
BRANCH   3   4
ATOM      4  C   UNL     1     -10.204   5.634   2.791  1.00  0.00     0.041 C 
ATOM      5  O   UNL     1     -10.379   4.460   3.210  1.00  0.00    -0.550 OA
ATOM      6  O   UNL     1     -11.120   6.625   3.121  1.00  0.00    -0.550 OA
ENDBRANCH   3   4
ENDBRANCH   2   3
ENDBRANCH   1   2
BRANCH   1   7
ATOM      7  C   UNL     1      -5.501   6.726   3.083  1.00  0.00     0.000 C 
BRANCH   7   8
ATOM      8  C   UNL     1      -5.829   6.104   4.451  1.00  0.00    -0.000 C 
BRANCH   8   9
ATOM      9  C   UNL     1      -4.661   5.281   5.018  1.00  0.00    -0.003 C 
ATOM     10  C   UNL     1      -3.305   5.713   4.461  1.00  0.00     0.004 C 
ENDBRANCH   8   9
ENDBRANCH   7   8
ENDBRANCH   1   7
TORSDOF 6
ENDMDL
MODEL 5
REMARK VINA RESULT:    -5.052      1.637      2.703
REMARK INTER + INTRA:          -7.110
REMARK INTER:                  -6.943
REMARK INTRA:                  -0.167
REMARK UNBOUND:                -0.286
REMARK SMILES CCCCCCCC(=O)[O-]
REMARK SMILES IDX 5 1 6 2 7 3 8 4 9 5 10 6 4 7 3 8 2 9 1 10
REMARK H PARENT
REMARK Flexibility Score: inf
ROOT
ATOM      1  C   UNL     1      -3.343   4.280   4.831  1.00  0.00     0.000 C 
ENDROOT
BRANCH   1   2
ATOM      2  C   UNL     1      -2.974   3.023   5.635  1.00  0.00     0.006 C 
BRANCH   2   3
ATOM      3  C   UNL     1      -3.366   3.179   7.106  1.00  0.00     0.053 C 
BRANCH   3   4
ATOM      4  C   UNL     1      -2.600   2.219   7.959  1.00  0.00     0.041 C 
ATOM      5  O   UNL     1      -2.706   0.978   7.769  1.00  0.00    -0.550 OA
ATOM      6  O   UNL     1      -1.806   2.690   8.997  1.00  0.00    -0.550 OA
ENDBRANCH   3   4
ENDBRANCH   2   3
ENDBRANCH   1   2
BRANCH   1   7
ATOM      7  C   UNL     1      -4.644   4.939   5.322  1.00  0.00     0.000 C 
BRANCH   7   8
ATOM      8  C   UNL     1      -5.054   6.148   4.465  1.00  0.00    -0.000 C 
BRANCH   8   9
ATOM      9  C   UNL     1      -6.334   5.888   3.656  1.00  0.00    -0.003 C 
ATOM     10  C   UNL     1      -6.286   6.498   2.255  1.00  0.00     0.004 C 
ENDBRANCH   8   9
ENDBRANCH   7   8
ENDBRANCH   1   7
TORSDOF 6
ENDMDL
MODEL 6
REMARK VINA RESULT:    -5.006     10.293     11.450
REMARK INTER + INTRA:          -7.048
REMARK INTER:                  -6.781
REMARK INTRA:                  -0.267
REMARK UNBOUND:                -0.286
REMARK SMILES CCCCCCCC(=O)[O-]
REMARK SMILES IDX 5 1 6 2 7 3 8 4 9 5 10 6 4 7 3 8 2 9 1 10
REMARK H PARENT
REMARK Flexibility Score: inf
ROOT
ATOM      1  C   UNL     1      -3.176  -2.140  -3.415  1.00  0.00     0.000 C 
ENDROOT
BRANCH   1   2
ATOM      2  C   UNL     1      -1.752  -2.703  -3.545  1.00  0.00     0.006 C 
BRANCH   2   3
ATOM      3  C   UNL     1      -1.076  -2.194  -4.821  1.00  0.00     0.053 C 
BRANCH   3   4
ATOM      4  C   UNL     1      -0.311  -3.294  -5.485  1.00  0.00     0.041 C 
ATOM      5  O   UNL     1      -0.287  -4.446  -4.977  1.00  0.00    -0.550 OA
ATOM      6  O   UNL     1       0.418  -3.036  -6.639  1.00  0.00    -0.550 OA
ENDBRANCH   3   4
ENDBRANCH   2   3
ENDBRANCH   1   2
BRANCH   1   7
ATOM      7  C   UNL     1      -3.284  -0.681  -3.891  1.00  0.00     0.000 C 
BRANCH   7   8
ATOM      8  C   UNL     1      -3.618   0.290  -2.747  1.00  0.00    -0.000 C 
BRANCH   8   9
ATOM      9  C   UNL     1      -4.822  -0.176  -1.913  1.00  0.00    -0.003 C 
ATOM     10  C   UNL     1      -4.725   0.239  -0.445  1.00  0.00     0.004 C 
ENDBRANCH   8   9
ENDBRANCH   7   8
ENDBRANCH   1   7
TORSDOF 6
ENDMDL
MODEL 7
REMARK VINA RESULT:    -4.979      2.442      4.021
REMARK INTER + INTRA:          -7.011
REMARK INTER:                  -6.878
REMARK INTRA:                  -0.133
REMARK UNBOUND:                -0.286
REMARK SMILES CCCCCCCC(=O)[O-]
REMARK SMILES IDX 5 1 6 2 7 3 8 4 9 5 10 6 4 7 3 8 2 9 1 10
REMARK H PARENT
REMARK Flexibility Score: inf
ROOT
ATOM      1  C   UNL     1      -3.209   2.841   5.766  1.00  0.00     0.000 C 
ENDROOT
BRANCH   1   2
ATOM      2  C   UNL     1      -3.049   2.964   7.290  1.00  0.00     0.006 C 
BRANCH   2   3
ATOM      3  C   UNL     1      -2.500   1.666   7.889  1.00  0.00     0.053 C 
BRANCH   3   4
ATOM      4  C   UNL     1      -1.873   1.927   9.221  1.00  0.00     0.041 C 
ATOM      5  O   UNL     1      -0.646   2.198   9.302  1.00  0.00    -0.550 OA
ATOM      6  O   UNL     1      -2.632   1.820  10.380  1.00  0.00    -0.550 OA
ENDBRANCH   3   4
ENDBRANCH   2   3
ENDBRANCH   1   2
BRANCH   1   7
ATOM      7  C   UNL     1      -3.398   4.203   5.077  1.00  0.00     0.000 C 
BRANCH   7   8
ATOM      8  C   UNL     1      -4.763   4.839   5.389  1.00  0.00    -0.000 C 
BRANCH   8   9
ATOM      9  C   UNL     1      -5.077   6.035   4.477  1.00  0.00    -0.003 C 
ATOM     10  C   UNL     1      -6.240   5.766   3.523  1.00  0.00     0.004 C 
ENDBRANCH   8   9
ENDBRANCH   7   8
ENDBRANCH   1   7
TORSDOF 6
ENDMDL
MODEL 8
REMARK VINA RESULT:    -4.890      2.934      4.729
REMARK INTER + INTRA:          -6.891
REMARK INTER:                  -6.643
REMARK INTRA:                  -0.248
REMARK UNBOUND:                -0.286
REMARK SMILES CCCCCCCC(=O)[O-]
REMARK SMILES IDX 5 1 6 2 7 3 8 4 9 5 10 6 4 7 3 8 2 9 1 10
REMARK H PARENT
REMARK Flexibility Score: inf
ROOT
ATOM      1  C   UNL     1      -3.629   3.419   7.427  1.00  0.00     0.000 C 
ENDROOT
BRANCH   1   2
ATOM      2  C   UNL     1      -2.816   2.798   8.574  1.00  0.00     0.006 C 
BRANCH   2   3
ATOM      3  C   UNL     1      -2.409   1.360   8.240  1.00  0.00     0.053 C 
BRANCH   3   4
ATOM      4  C   UNL     1      -1.157   0.986   8.968  1.00  0.00     0.041 C 
ATOM      5  O   UNL     1      -0.141   1.727   8.904  1.00  0.00    -0.550 OA
ATOM      6  O   UNL     1      -1.095  -0.206   9.678  1.00  0.00    -0.550 OA
ENDBRANCH   3   4
ENDBRANCH   2   3
ENDBRANCH   1   2
BRANCH   1   7
ATOM      7  C   UNL     1      -3.023   3.127   6.044  1.00  0.00     0.000 C 
BRANCH   7   8
ATOM      8  C   UNL     1      -3.790   3.820   4.904  1.00  0.00    -0.000 C 
BRANCH   8   9
ATOM      9  C   UNL     1      -4.776   4.880   5.420  1.00  0.00    -0.003 C 
ATOM     10  C   UNL     1      -5.550   5.568   4.296  1.00  0.00     0.004 C 
ENDBRANCH   8   9
ENDBRANCH   7   8
ENDBRANCH   1   7
TORSDOF 6
ENDMDL
MODEL 9
REMARK VINA RESULT:    -4.868      2.798      3.948
REMARK INTER + INTRA:          -6.861
REMARK INTER:                  -6.590
REMARK INTRA:                  -0.271
REMARK UNBOUND:                -0.286
REMARK SMILES CCCCCCCC(=O)[O-]
REMARK SMILES IDX 5 1 6 2 7 3 8 4 9 5 10 6 4 7 3 8 2 9 1 10
REMARK H PARENT
REMARK Flexibility Score: inf
ROOT
ATOM      1  C   UNL     1      -3.506   3.041   5.062  1.00  0.00     0.000 C 
ENDROOT
BRANCH   1   2
ATOM      2  C   UNL     1      -3.300   2.219   3.779  1.00  0.00     0.006 C 
BRANCH   2   3
ATOM      3  C   UNL     1      -4.619   1.598   3.310  1.00  0.00     0.053 C 
BRANCH   3   4
ATOM      4  C   UNL     1      -4.368   0.305   2.602  1.00  0.00     0.041 C 
ATOM      5  O   UNL     1      -4.554   0.215   1.360  1.00  0.00    -0.550 OA
ATOM      6  O   UNL     1      -3.976  -0.817   3.322  1.00  0.00    -0.550 OA
ENDBRANCH   3   4
ENDBRANCH   2   3
ENDBRANCH   1   2
BRANCH   1   7
ATOM      7  C   UNL     1      -3.492   4.557   4.805  1.00  0.00     0.000 C 
BRANCH   7   8
ATOM      8  C   UNL     1      -4.855   5.215   5.081  1.00  0.00    -0.000 C 
BRANCH   8   9
ATOM      9  C   UNL     1      -5.246   6.232   3.997  1.00  0.00    -0.003 C 
ATOM     10  C   UNL     1      -6.481   5.807   3.202  1.00  0.00     0.004 C 
ENDBRANCH   8   9
ENDBRANCH   7   8
ENDBRANCH   1   7
TORSDOF 6
ENDMDL
