MODEL 1
REMARK VINA RESULT:    -4.356      0.000      0.000
REMARK INTER + INTRA:          -5.383
REMARK INTER:                  -5.120
REMARK INTRA:                  -0.263
REMARK UNBOUND:                -0.263
REMARK SMILES O=c1cc(-c2ccc(O)c(O)c2)oc2cc(O)cc(O)c12
REMARK SMILES IDX 4 1 3 2 2 3 1 4 21 5 19 6 18 7 16 8 15 9 14 10 13 11 5 12
REMARK SMILES IDX 6 13 7 14 8 15 12 16 10 17 9 18 11 20 20 22 17 24
REMARK H PARENT 9 19 11 21 20 23 17 25
REMARK Flexibility Score: inf
ROOT
ATOM      1  C   UNL     1      18.768  34.985  44.797  1.00  0.00     0.138 A 
ATOM      2  C   UNL     1      17.651  34.846  45.632  1.00  0.00     0.100 A 
ATOM      3  C   UNL     1      16.374  34.779  45.073  1.00  0.00     0.197 A 
ATOM      4  O   UNL     1      15.389  34.711  45.852  1.00  0.00    -0.289 OA
ATOM      5  C   UNL     1      16.219  34.817  43.667  1.00  0.00     0.107 A 
ATOM      6  C   UNL     1      14.970  34.723  42.983  1.00  0.00     0.134 A 
ATOM      7  C   UNL     1      14.933  34.872  41.590  1.00  0.00     0.093 A 
ATOM      8  C   UNL     1      16.105  35.053  40.852  1.00  0.00     0.123 A 
ATOM      9  C   UNL     1      17.334  35.095  41.507  1.00  0.00     0.094 A 
ATOM     10  C   UNL     1      17.402  34.985  42.897  1.00  0.00     0.146 A 
ATOM     11  O   UNL     1      18.593  35.049  43.481  1.00  0.00    -0.456 OA
ENDROOT
BRANCH   1  12
ATOM     12  C   UNL     1      20.149  35.058  45.338  1.00  0.00     0.021 A 
ATOM     13  C   UNL     1      20.937  33.894  45.377  1.00  0.00     0.016 A 
ATOM     14  C   UNL     1      22.242  33.936  45.875  1.00  0.00     0.051 A 
ATOM     15  C   UNL     1      22.785  35.143  46.333  1.00  0.00     0.157 A 
ATOM     16  C   UNL     1      20.706  36.272  45.788  1.00  0.00     0.062 A 
ATOM     17  C   UNL     1      22.017  36.313  46.286  1.00  0.00     0.158 A 
BRANCH  15  18
ATOM     18  O   UNL     1      24.085  35.188  46.831  1.00  0.00    -0.504 OA
ATOM     19  H   UNL     1      24.489  36.050  47.181  1.00  0.00     0.293 HD
ENDBRANCH  15  18
BRANCH  17  20
ATOM     20  O   UNL     1      22.565  37.514  46.733  1.00  0.00    -0.504 OA
ATOM     21  H   UNL     1      22.216  38.409  46.408  1.00  0.00     0.293 HD
ENDBRANCH  17  20
ENDBRANCH   1  12
BRANCH   6  22
ATOM     22  O   UNL     1      13.749  34.465  43.612  1.00  0.00    -0.507 OA
ATOM     23  H   UNL     1      13.478  33.580  44.011  1.00  0.00     0.293 HD
ENDBRANCH   6  22
BRANCH   8  24
ATOM     24  O   UNL     1      16.060  35.183  39.466  1.00  0.00    -0.508 OA
ATOM     25  H   UNL     1      16.875  35.465  38.934  1.00  0.00     0.293 HD
ENDBRANCH   8  24
TORSDOF 5
ENDMDL
MODEL 2
REMARK VINA RESULT:    -4.213      1.968      7.134
REMARK INTER + INTRA:          -5.215
REMARK INTER:                  -4.898
REMARK INTRA:                  -0.316
REMARK UNBOUND:                -0.263
REMARK SMILES O=c1cc(-c2ccc(O)c(O)c2)oc2cc(O)cc(O)c12
REMARK SMILES IDX 4 1 3 2 2 3 1 4 21 5 19 6 18 7 16 8 15 9 14 10 13 11 5 12
REMARK SMILES IDX 6 13 7 14 8 15 12 16 10 17 9 18 11 20 20 22 17 24
REMARK H PARENT 9 19 11 21 20 23 17 25
REMARK Flexibility Score: inf
ROOT
ATOM      1  C   UNL     1      19.135  34.909  43.907  1.00  0.00     0.138 A 
ATOM      2  C   UNL     1      18.935  36.093  44.628  1.00  0.00     0.100 A 
ATOM      3  C   UNL     1      19.936  36.559  45.482  1.00  0.00     0.197 A 
ATOM      4  O   UNL     1      19.704  37.595  46.158  1.00  0.00    -0.289 OA
ATOM      5  C   UNL     1      21.159  35.853  45.585  1.00  0.00     0.107 A 
ATOM      6  C   UNL     1      22.264  36.252  46.395  1.00  0.00     0.134 A 
ATOM      7  C   UNL     1      23.385  35.418  46.492  1.00  0.00     0.093 A 
ATOM      8  C   UNL     1      23.466  34.230  45.762  1.00  0.00     0.123 A 
ATOM      9  C   UNL     1      22.414  33.858  44.928  1.00  0.00     0.094 A 
ATOM     10  C   UNL     1      21.267  34.649  44.837  1.00  0.00     0.146 A 
ATOM     11  O   UNL     1      20.280  34.247  44.045  1.00  0.00    -0.456 OA
ENDROOT
BRANCH   1  12
ATOM     12  C   UNL     1      18.106  34.368  42.984  1.00  0.00     0.021 A 
ATOM     13  C   UNL     1      16.987  35.157  42.660  1.00  0.00     0.016 A 
ATOM     14  C   UNL     1      16.006  34.675  41.788  1.00  0.00     0.051 A 
ATOM     15  C   UNL     1      16.132  33.403  41.218  1.00  0.00     0.157 A 
ATOM     16  C   UNL     1      18.232  33.094  42.396  1.00  0.00     0.062 A 
ATOM     17  C   UNL     1      17.247  32.612  41.519  1.00  0.00     0.158 A 
BRANCH  15  18
ATOM     18  O   UNL     1      15.156  32.919  40.349  1.00  0.00    -0.504 OA
ATOM     19  H   UNL     1      14.846  33.456  39.547  1.00  0.00     0.293 HD
ENDBRANCH  15  18
BRANCH  17  20
ATOM     20  O   UNL     1      17.374  31.351  40.941  1.00  0.00    -0.504 OA
ATOM     21  H   UNL     1      18.242  31.047  40.514  1.00  0.00     0.293 HD
ENDBRANCH  17  20
ENDBRANCH   1  12
BRANCH   6  22
ATOM     22  O   UNL     1      22.322  37.456  47.104  1.00  0.00    -0.507 OA
ATOM     23  H   UNL     1      21.534  37.916  47.530  1.00  0.00     0.293 HD
ENDBRANCH   6  22
BRANCH   8  24
ATOM     24  O   UNL     1      24.593  33.415  45.851  1.00  0.00    -0.508 OA
ATOM     25  H   UNL     1      25.247  33.331  45.082  1.00  0.00     0.293 HD
ENDBRANCH   8  24
TORSDOF 5
ENDMDL
MODEL 3
REMARK VINA RESULT:    -4.180      1.492      7.222
REMARK INTER + INTRA:          -5.176
REMARK INTER:                  -4.912
REMARK INTRA:                  -0.263
REMARK UNBOUND:                -0.263
REMARK SMILES O=c1cc(-c2ccc(O)c(O)c2)oc2cc(O)cc(O)c12
REMARK SMILES IDX 4 1 3 2 2 3 1 4 21 5 19 6 18 7 16 8 15 9 14 10 13 11 5 12
REMARK SMILES IDX 6 13 7 14 8 15 12 16 10 17 9 18 11 20 20 22 17 24
REMARK H PARENT 9 19 11 21 20 23 17 25
REMARK Flexibility Score: inf
ROOT
ATOM      1  C   UNL     1      18.749  34.595  43.408  1.00  0.00     0.138 A 
ATOM      2  C   UNL     1      19.511  33.433  43.227  1.00  0.00     0.100 A 
ATOM      3  C   UNL     1      20.732  33.298  43.888  1.00  0.00     0.197 A 
ATOM      4  O   UNL     1      21.419  32.268  43.660  1.00  0.00    -0.289 OA
ATOM      5  C   UNL     1      21.175  34.318  44.764  1.00  0.00     0.107 A 
ATOM      6  C   UNL     1      22.386  34.274  45.518  1.00  0.00     0.134 A 
ATOM      7  C   UNL     1      22.767  35.389  46.276  1.00  0.00     0.093 A 
ATOM      8  C   UNL     1      21.953  36.521  46.354  1.00  0.00     0.123 A 
ATOM      9  C   UNL     1      20.744  36.552  45.662  1.00  0.00     0.094 A 
ATOM     10  C   UNL     1      20.353  35.472  44.870  1.00  0.00     0.146 A 
ATOM     11  O   UNL     1      19.201  35.552  44.212  1.00  0.00    -0.456 OA
ENDROOT
BRANCH   1  12
ATOM     12  C   UNL     1      17.441  34.790  42.732  1.00  0.00     0.021 A 
ATOM     13  C   UNL     1      16.256  34.695  43.482  1.00  0.00     0.016 A 
ATOM     14  C   UNL     1      15.012  34.881  42.872  1.00  0.00     0.051 A 
ATOM     15  C   UNL     1      14.933  35.174  41.505  1.00  0.00     0.157 A 
ATOM     16  C   UNL     1      17.354  35.098  41.360  1.00  0.00     0.062 A 
ATOM     17  C   UNL     1      16.105  35.286  40.749  1.00  0.00     0.158 A 
BRANCH  15  18
ATOM     18  O   UNL     1      13.695  35.358  40.893  1.00  0.00    -0.504 OA
ATOM     19  H   UNL     1      12.989  34.630  40.892  1.00  0.00     0.293 HD
ENDBRANCH  15  18
BRANCH  17  20
ATOM     20  O   UNL     1      16.023  35.588  39.391  1.00  0.00    -0.504 OA
ATOM     21  H   UNL     1      16.660  36.245  38.953  1.00  0.00     0.293 HD
ENDBRANCH  17  20
ENDBRANCH   1  12
BRANCH   6  22
ATOM     22  O   UNL     1      23.235  33.165  45.575  1.00  0.00    -0.507 OA
ATOM     23  H   UNL     1      24.233  33.205  45.703  1.00  0.00     0.293 HD
ENDBRANCH   6  22
BRANCH   8  24
ATOM     24  O   UNL     1      22.332  37.618  47.125  1.00  0.00    -0.508 OA
ATOM     25  H   UNL     1      21.689  38.056  47.774  1.00  0.00     0.293 HD
ENDBRANCH   8  24
TORSDOF 5
ENDMDL
MODEL 4
REMARK VINA RESULT:    -4.171      1.226      1.917
REMARK INTER + INTRA:          -5.165
REMARK INTER:                  -4.895
REMARK INTRA:                  -0.270
REMARK UNBOUND:                -0.263
REMARK SMILES O=c1cc(-c2ccc(O)c(O)c2)oc2cc(O)cc(O)c12
REMARK SMILES IDX 4 1 3 2 2 3 1 4 21 5 19 6 18 7 16 8 15 9 14 10 13 11 5 12
REMARK SMILES IDX 6 13 7 14 8 15 12 16 10 17 9 18 11 20 20 22 17 24
REMARK H PARENT 9 19 11 21 20 23 17 25
REMARK Flexibility Score: inf
ROOT
ATOM      1  C   UNL     1      17.850  35.347  44.150  1.00  0.00     0.138 A 
ATOM      2  C   UNL     1      16.799  34.800  44.897  1.00  0.00     0.100 A 
ATOM      3  C   UNL     1      15.662  34.322  44.242  1.00  0.00     0.197 A 
ATOM      4  O   UNL     1      14.712  33.889  44.944  1.00  0.00    -0.289 OA
ATOM      5  C   UNL     1      15.596  34.360  42.829  1.00  0.00     0.107 A 
ATOM      6  C   UNL     1      14.504  33.871  42.052  1.00  0.00     0.134 A 
ATOM      7  C   UNL     1      14.508  34.054  40.663  1.00  0.00     0.093 A 
ATOM      8  C   UNL     1      15.592  34.655  40.018  1.00  0.00     0.123 A 
ATOM      9  C   UNL     1      16.685  35.090  40.763  1.00  0.00     0.094 A 
ATOM     10  C   UNL     1      16.695  34.954  42.152  1.00  0.00     0.146 A 
ATOM     11  O   UNL     1      17.751  35.400  42.825  1.00  0.00    -0.456 OA
ENDROOT
BRANCH   1  12
ATOM     12  C   UNL     1      19.083  35.868  44.794  1.00  0.00     0.021 A 
ATOM     13  C   UNL     1      19.009  37.021  45.595  1.00  0.00     0.016 A 
ATOM     14  C   UNL     1      20.152  37.529  46.218  1.00  0.00     0.051 A 
ATOM     15  C   UNL     1      21.386  36.887  46.060  1.00  0.00     0.157 A 
ATOM     16  C   UNL     1      20.326  35.220  44.650  1.00  0.00     0.062 A 
ATOM     17  C   UNL     1      21.473  35.729  45.277  1.00  0.00     0.158 A 
BRANCH  15  18
ATOM     18  O   UNL     1      22.528  37.390  46.678  1.00  0.00    -0.504 OA
ATOM     19  H   UNL     1      23.312  37.742  46.140  1.00  0.00     0.293 HD
ENDBRANCH  15  18
BRANCH  17  20
ATOM     20  O   UNL     1      22.701  35.087  45.131  1.00  0.00    -0.504 OA
ATOM     21  H   UNL     1      23.046  34.435  45.826  1.00  0.00     0.293 HD
ENDBRANCH  17  20
ENDBRANCH   1  12
BRANCH   6  22
ATOM     22  O   UNL     1      13.408  33.184  42.584  1.00  0.00    -0.507 OA
ATOM     23  H   UNL     1      12.735  33.574  43.225  1.00  0.00     0.293 HD
ENDBRANCH   6  22
BRANCH   8  24
ATOM     24  O   UNL     1      15.595  34.817  38.634  1.00  0.00    -0.508 OA
ATOM     25  H   UNL     1      16.237  35.454  38.177  1.00  0.00     0.293 HD
ENDBRANCH   8  24
TORSDOF 5
ENDMDL
MODEL 5
REMARK VINA RESULT:    -4.157      1.815      7.019
REMARK INTER + INTRA:          -5.149
REMARK INTER:                  -4.858
REMARK INTRA:                  -0.291
REMARK UNBOUND:                -0.263
REMARK SMILES O=c1cc(-c2ccc(O)c(O)c2)oc2cc(O)cc(O)c12
REMARK SMILES IDX 4 1 3 2 2 3 1 4 21 5 19 6 18 7 16 8 15 9 14 10 13 11 5 12
REMARK SMILES IDX 6 13 7 14 8 15 12 16 10 17 9 18 11 20 20 22 17 24
REMARK H PARENT 9 19 11 21 20 23 17 25
REMARK Flexibility Score: inf
ROOT
ATOM      1  C   UNL     1      19.086  34.860  43.878  1.00  0.00     0.138 A 
ATOM      2  C   UNL     1      18.861  35.999  44.662  1.00  0.00     0.100 A 
ATOM      3  C   UNL     1      19.868  36.466  45.508  1.00  0.00     0.197 A 
ATOM      4  O   UNL     1      19.615  37.458  46.240  1.00  0.00    -0.289 OA
ATOM      5  C   UNL     1      21.120  35.807  45.542  1.00  0.00     0.107 A 
ATOM      6  C   UNL     1      22.232  36.212  46.339  1.00  0.00     0.134 A 
ATOM      7  C   UNL     1      23.388  35.421  46.363  1.00  0.00     0.093 A 
ATOM      8  C   UNL     1      23.494  34.274  45.574  1.00  0.00     0.123 A 
ATOM      9  C   UNL     1      22.433  33.898  44.754  1.00  0.00     0.094 A 
ATOM     10  C   UNL     1      21.254  34.645  44.734  1.00  0.00     0.146 A 
ATOM     11  O   UNL     1      20.259  34.240  43.951  1.00  0.00    -0.456 OA
ENDROOT
BRANCH   1  12
ATOM     12  C   UNL     1      18.051  34.322  42.960  1.00  0.00     0.021 A 
ATOM     13  C   UNL     1      18.104  32.970  42.575  1.00  0.00     0.016 A 
ATOM     14  C   UNL     1      17.139  32.436  41.717  1.00  0.00     0.051 A 
ATOM     15  C   UNL     1      16.099  33.241  41.237  1.00  0.00     0.157 A 
ATOM     16  C   UNL     1      16.994  35.122  42.482  1.00  0.00     0.062 A 
ATOM     17  C   UNL     1      16.024  34.585  41.622  1.00  0.00     0.158 A 
BRANCH  15  18
ATOM     18  O   UNL     1      15.136  32.713  40.380  1.00  0.00    -0.504 OA
ATOM     19  H   UNL     1      15.251  31.803  39.948  1.00  0.00     0.293 HD
ENDBRANCH  15  18
BRANCH  17  20
ATOM     20  O   UNL     1      14.981  35.380  41.150  1.00  0.00    -0.504 OA
ATOM     21  H   UNL     1      14.719  35.386  40.171  1.00  0.00     0.293 HD
ENDBRANCH  17  20
ENDBRANCH   1  12
BRANCH   6  22
ATOM     22  O   UNL     1      22.264  37.382  47.102  1.00  0.00    -0.507 OA
ATOM     23  H   UNL     1      21.997  37.450  48.072  1.00  0.00     0.293 HD
ENDBRANCH   6  22
BRANCH   8  24
ATOM     24  O   UNL     1      24.655  33.503  45.592  1.00  0.00    -0.508 OA
ATOM     25  H   UNL     1      25.493  33.819  46.066  1.00  0.00     0.293 HD
ENDBRANCH   8  24
TORSDOF 5
ENDMDL
MODEL 6
REMARK VINA RESULT:    -4.100      3.753      7.299
REMARK INTER + INTRA:          -5.082
REMARK INTER:                  -4.817
REMARK INTRA:                  -0.265
REMARK UNBOUND:                -0.263
REMARK SMILES O=c1cc(-c2ccc(O)c(O)c2)oc2cc(O)cc(O)c12
REMARK SMILES IDX 4 1 3 2 2 3 1 4 21 5 19 6 18 7 16 8 15 9 14 10 13 11 5 12
REMARK SMILES IDX 6 13 7 14 8 15 12 16 10 17 9 18 11 20 20 22 17 24
REMARK H PARENT 9 19 11 21 20 23 17 25
REMARK Flexibility Score: inf
ROOT
ATOM      1  C   UNL     1      21.441  34.086  42.667  1.00  0.00     0.138 A 
ATOM      2  C   UNL     1      22.696  33.669  43.130  1.00  0.00     0.100 A 
ATOM      3  C   UNL     1      23.174  34.142  44.353  1.00  0.00     0.197 A 
ATOM      4  O   UNL     1      24.327  33.793  44.714  1.00  0.00    -0.289 OA
ATOM      5  C   UNL     1      22.373  35.010  45.133  1.00  0.00     0.107 A 
ATOM      6  C   UNL     1      22.740  35.529  46.410  1.00  0.00     0.134 A 
ATOM      7  C   UNL     1      21.906  36.460  47.043  1.00  0.00     0.093 A 
ATOM      8  C   UNL     1      20.691  36.845  46.472  1.00  0.00     0.123 A 
ATOM      9  C   UNL     1      20.300  36.305  45.249  1.00  0.00     0.094 A 
ATOM     10  C   UNL     1      21.125  35.402  44.577  1.00  0.00     0.146 A 
ATOM     11  O   UNL     1      20.722  34.927  43.403  1.00  0.00    -0.456 OA
ENDROOT
BRANCH   1  12
ATOM     12  C   UNL     1      20.884  33.612  41.375  1.00  0.00     0.021 A 
ATOM     13  C   UNL     1      20.191  32.390  41.329  1.00  0.00     0.016 A 
ATOM     14  C   UNL     1      19.651  31.924  40.127  1.00  0.00     0.051 A 
ATOM     15  C   UNL     1      19.784  32.676  38.954  1.00  0.00     0.157 A 
ATOM     16  C   UNL     1      21.003  34.370  40.193  1.00  0.00     0.062 A 
ATOM     17  C   UNL     1      20.458  33.902  38.987  1.00  0.00     0.158 A 
BRANCH  15  18
ATOM     18  O   UNL     1      19.248  32.214  37.754  1.00  0.00    -0.504 OA
ATOM     19  H   UNL     1      19.838  31.983  36.963  1.00  0.00     0.293 HD
ENDBRANCH  15  18
BRANCH  17  20
ATOM     20  O   UNL     1      20.580  34.653  37.820  1.00  0.00    -0.504 OA
ATOM     21  H   UNL     1      20.007  35.473  37.653  1.00  0.00     0.293 HD
ENDBRANCH  17  20
ENDBRANCH   1  12
BRANCH   6  22
ATOM     22  O   UNL     1      23.891  35.152  47.108  1.00  0.00    -0.507 OA
ATOM     23  H   UNL     1      24.637  34.586  46.734  1.00  0.00     0.293 HD
ENDBRANCH   6  22
BRANCH   8  24
ATOM     24  O   UNL     1      19.860  37.758  47.117  1.00  0.00    -0.508 OA
ATOM     25  H   UNL     1      19.941  37.938  48.111  1.00  0.00     0.293 HD
ENDBRANCH   8  24
TORSDOF 5
ENDMDL
MODEL 7
REMARK VINA RESULT:    -3.943      1.612      3.344
REMARK INTER + INTRA:          -4.898
REMARK INTER:                  -4.627
REMARK INTRA:                  -0.271
REMARK UNBOUND:                -0.263
REMARK SMILES O=c1cc(-c2ccc(O)c(O)c2)oc2cc(O)cc(O)c12
REMARK SMILES IDX 4 1 3 2 2 3 1 4 21 5 19 6 18 7 16 8 15 9 14 10 13 11 5 12
REMARK SMILES IDX 6 13 7 14 8 15 12 16 10 17 9 18 11 20 20 22 17 24
REMARK H PARENT 9 19 11 21 20 23 17 25
REMARK Flexibility Score: inf
ROOT
ATOM      1  C   UNL     1      17.833  35.344  44.171  1.00  0.00     0.138 A 
ATOM      2  C   UNL     1      17.743  35.113  42.792  1.00  0.00     0.100 A 
ATOM      3  C   UNL     1      16.555  34.622  42.250  1.00  0.00     0.197 A 
ATOM      4  O   UNL     1      16.524  34.372  41.017  1.00  0.00    -0.289 OA
ATOM      5  C   UNL     1      15.439  34.394  43.091  1.00  0.00     0.107 A 
ATOM      6  C   UNL     1      14.166  33.927  42.645  1.00  0.00     0.134 A 
ATOM      7  C   UNL     1      13.167  33.645  43.586  1.00  0.00     0.093 A 
ATOM      8  C   UNL     1      13.375  33.869  44.949  1.00  0.00     0.123 A 
ATOM      9  C   UNL     1      14.597  34.373  45.388  1.00  0.00     0.094 A 
ATOM     10  C   UNL     1      15.625  34.631  44.480  1.00  0.00     0.146 A 
ATOM     11  O   UNL     1      16.781  35.093  44.944  1.00  0.00    -0.456 OA
ENDROOT
BRANCH   1  12
ATOM     12  C   UNL     1      19.071  35.869  44.801  1.00  0.00     0.021 A 
ATOM     13  C   UNL     1      19.003  37.024  45.600  1.00  0.00     0.016 A 
ATOM     14  C   UNL     1      20.153  37.535  46.209  1.00  0.00     0.051 A 
ATOM     15  C   UNL     1      21.386  36.895  46.038  1.00  0.00     0.157 A 
ATOM     16  C   UNL     1      20.314  35.223  44.643  1.00  0.00     0.062 A 
ATOM     17  C   UNL     1      21.467  35.737  45.257  1.00  0.00     0.158 A 
BRANCH  15  18
ATOM     18  O   UNL     1      22.534  37.403  46.643  1.00  0.00    -0.504 OA
ATOM     19  H   UNL     1      23.420  36.911  46.597  1.00  0.00     0.293 HD
ENDBRANCH  15  18
BRANCH  17  20
ATOM     20  O   UNL     1      22.695  35.097  45.098  1.00  0.00    -0.504 OA
ATOM     21  H   UNL     1      23.568  35.612  45.114  1.00  0.00     0.293 HD
ENDBRANCH  17  20
ENDBRANCH   1  12
BRANCH   6  22
ATOM     22  O   UNL     1      13.824  33.745  41.303  1.00  0.00    -0.507 OA
ATOM     23  H   UNL     1      14.398  33.282  40.615  1.00  0.00     0.293 HD
ENDBRANCH   6  22
BRANCH   8  24
ATOM     24  O   UNL     1      12.369  33.602  45.876  1.00  0.00    -0.508 OA
ATOM     25  H   UNL     1      11.725  32.830  45.750  1.00  0.00     0.293 HD
ENDBRANCH   8  24
TORSDOF 5
ENDMDL
MODEL 8
REMARK VINA RESULT:    -3.884      1.949      2.458
REMARK INTER + INTRA:          -4.828
REMARK INTER:                  -4.548
REMARK INTRA:                  -0.280
REMARK UNBOUND:                -0.263
REMARK SMILES O=c1cc(-c2ccc(O)c(O)c2)oc2cc(O)cc(O)c12
REMARK SMILES IDX 4 1 3 2 2 3 1 4 21 5 19 6 18 7 16 8 15 9 14 10 13 11 5 12
REMARK SMILES IDX 6 13 7 14 8 15 12 16 10 17 9 18 11 20 20 22 17 24
REMARK H PARENT 9 19 11 21 20 23 17 25
REMARK Flexibility Score: inf
ROOT
ATOM      1  C   UNL     1      19.572  34.636  43.356  1.00  0.00     0.138 A 
ATOM      2  C   UNL     1      18.238  34.981  43.607  1.00  0.00     0.100 A 
ATOM      3  C   UNL     1      17.264  34.724  42.641  1.00  0.00     0.197 A 
ATOM      4  O   UNL     1      16.085  35.097  42.874  1.00  0.00    -0.289 OA
ATOM      5  C   UNL     1      17.624  34.083  41.432  1.00  0.00     0.107 A 
ATOM      6  C   UNL     1      16.712  33.739  40.389  1.00  0.00     0.134 A 
ATOM      7  C   UNL     1      17.202  33.196  39.195  1.00  0.00     0.093 A 
ATOM      8  C   UNL     1      18.563  32.931  39.028  1.00  0.00     0.123 A 
ATOM      9  C   UNL     1      19.455  33.216  40.059  1.00  0.00     0.094 A 
ATOM     10  C   UNL     1      19.003  33.790  41.249  1.00  0.00     0.146 A 
ATOM     11  O   UNL     1      19.890  34.063  42.199  1.00  0.00    -0.456 OA
ENDROOT
BRANCH   1  12
ATOM     12  C   UNL     1      20.648  34.884  44.348  1.00  0.00     0.021 A 
ATOM     13  C   UNL     1      21.635  33.905  44.557  1.00  0.00     0.016 A 
ATOM     14  C   UNL     1      22.662  34.116  45.480  1.00  0.00     0.051 A 
ATOM     15  C   UNL     1      22.727  35.313  46.203  1.00  0.00     0.157 A 
ATOM     16  C   UNL     1      20.727  36.092  45.070  1.00  0.00     0.062 A 
ATOM     17  C   UNL     1      21.760  36.304  45.995  1.00  0.00     0.158 A 
BRANCH  15  18
ATOM     18  O   UNL     1      23.749  35.527  47.125  1.00  0.00    -0.504 OA
ATOM     19  H   UNL     1      24.019  34.813  47.793  1.00  0.00     0.293 HD
ENDBRANCH  15  18
BRANCH  17  20
ATOM     20  O   UNL     1      21.834  37.499  46.709  1.00  0.00    -0.504 OA
ATOM     21  H   UNL     1      21.950  38.391  46.241  1.00  0.00     0.293 HD
ENDBRANCH  17  20
ENDBRANCH   1  12
BRANCH   6  22
ATOM     22  O   UNL     1      15.325  33.887  40.481  1.00  0.00    -0.507 OA
ATOM     23  H   UNL     1      14.688  33.184  40.821  1.00  0.00     0.293 HD
ENDBRANCH   6  22
BRANCH   8  24
ATOM     24  O   UNL     1      19.039  32.375  37.842  1.00  0.00    -0.508 OA
ATOM     25  H   UNL     1      19.222  32.946  37.026  1.00  0.00     0.293 HD
ENDBRANCH   8  24
TORSDOF 5
ENDMDL
MODEL 9
REMARK VINA RESULT:    -3.876      1.707      3.127
REMARK INTER + INTRA:          -4.819
REMARK INTER:                  -4.526
REMARK INTRA:                  -0.293
REMARK UNBOUND:                -0.263
REMARK SMILES O=c1cc(-c2ccc(O)c(O)c2)oc2cc(O)cc(O)c12
REMARK SMILES IDX 4 1 3 2 2 3 1 4 21 5 19 6 18 7 16 8 15 9 14 10 13 11 5 12
REMARK SMILES IDX 6 13 7 14 8 15 12 16 10 17 9 18 11 20 20 22 17 24
REMARK H PARENT 9 19 11 21 20 23 17 25
REMARK Flexibility Score: inf
ROOT
ATOM      1  C   UNL     1      20.517  34.304  43.402  1.00  0.00     0.138 A 
ATOM      2  C   UNL     1      20.734  33.977  42.057  1.00  0.00     0.100 A 
ATOM      3  C   UNL     1      19.656  33.941  41.172  1.00  0.00     0.197 A 
ATOM      4  O   UNL     1      19.875  33.589  39.984  1.00  0.00    -0.289 OA
ATOM      5  C   UNL     1      18.358  34.270  41.630  1.00  0.00     0.107 A 
ATOM      6  C   UNL     1      17.189  34.302  40.812  1.00  0.00     0.134 A 
ATOM      7  C   UNL     1      15.941  34.546  41.401  1.00  0.00     0.093 A 
ATOM      8  C   UNL     1      15.828  34.818  42.766  1.00  0.00     0.123 A 
ATOM      9  C   UNL     1      16.970  34.840  43.563  1.00  0.00     0.094 A 
ATOM     10  C   UNL     1      18.224  34.566  43.014  1.00  0.00     0.146 A 
ATOM     11  O   UNL     1      19.284  34.579  43.815  1.00  0.00    -0.456 OA
ENDROOT
BRANCH   1  12
ATOM     12  C   UNL     1      21.628  34.359  44.386  1.00  0.00     0.021 A 
ATOM     13  C   UNL     1      22.598  33.342  44.389  1.00  0.00     0.016 A 
ATOM     14  C   UNL     1      23.658  33.373  45.299  1.00  0.00     0.051 A 
ATOM     15  C   UNL     1      23.772  34.426  46.215  1.00  0.00     0.157 A 
ATOM     16  C   UNL     1      21.756  35.423  45.301  1.00  0.00     0.062 A 
ATOM     17  C   UNL     1      22.821  35.453  46.214  1.00  0.00     0.158 A 
BRANCH  15  18
ATOM     18  O   UNL     1      24.826  34.459  47.125  1.00  0.00    -0.504 OA
ATOM     19  H   UNL     1      24.671  34.645  48.110  1.00  0.00     0.293 HD
ENDBRANCH  15  18
BRANCH  17  20
ATOM     20  O   UNL     1      22.943  36.506  47.120  1.00  0.00    -0.504 OA
ATOM     21  H   UNL     1      23.798  37.046  47.195  1.00  0.00     0.293 HD
ENDBRANCH  17  20
ENDBRANCH   1  12
BRANCH   6  22
ATOM     22  O   UNL     1      17.197  34.123  39.426  1.00  0.00    -0.507 OA
ATOM     23  H   UNL     1      17.856  34.545  38.791  1.00  0.00     0.293 HD
ENDBRANCH   6  22
BRANCH   8  24
ATOM     24  O   UNL     1      14.585  35.077  43.339  1.00  0.00    -0.508 OA
ATOM     25  H   UNL     1      14.500  35.403  44.295  1.00  0.00     0.293 HD
ENDBRANCH   8  24
TORSDOF 5
ENDMDL
