MODEL 1
REMARK VINA RESULT:    -3.269      0.000      0.000
REMARK INTER + INTRA:          -5.817
REMARK INTER:                  -4.988
REMARK INTRA:                  -0.829
REMARK UNBOUND:                -0.829
REMARK SMILES CCCCCCCCCCC(=O)[O-]
REMARK SMILES IDX 7 1 8 2 9 3 10 4 11 5 12 6 13 7 6 8 5 9 4 10 3 11 2 12 1 13
REMARK H PARENT
REMARK Flexibility Score: inf
ROOT
ATOM      1  C   UNL     1     -13.808  13.530   7.789  1.00  0.00     0.000 C 
ENDROOT
BRANCH   1   2
ATOM      2  C   UNL     1     -14.227  13.237   9.237  1.00  0.00     0.000 C 
BRANCH   2   3
ATOM      3  C   UNL     1     -13.908  14.397  10.192  1.00  0.00     0.006 C 
BRANCH   3   4
ATOM      4  C   UNL     1     -14.678  14.300  11.516  1.00  0.00     0.053 C 
BRANCH   4   5
ATOM      5  C   UNL     1     -13.963  13.395  12.470  1.00  0.00     0.041 C 
ATOM      6  O   UNL     1     -14.523  12.350  12.891  1.00  0.00    -0.550 OA
ATOM      7  O   UNL     1     -12.660  13.682  12.856  1.00  0.00    -0.550 OA
ENDBRANCH   4   5
ENDBRANCH   3   4
ENDBRANCH   2   3
ENDBRANCH   1   2
BRANCH   1   8
ATOM      8  C   UNL     1     -14.857  13.010   6.798  1.00  0.00     0.000 C 
BRANCH   8   9
ATOM      9  C   UNL     1     -16.231  12.878   7.465  1.00  0.00    -0.000 C 
BRANCH   9  10
ATOM     10  C   UNL     1     -16.782  11.453   7.312  1.00  0.00    -0.000 C 
BRANCH  10  11
ATOM     11  C   UNL     1     -15.675  10.411   7.083  1.00  0.00    -0.000 C 
BRANCH  11  12
ATOM     12  C   UNL     1     -15.447   9.512   8.306  1.00  0.00    -0.003 C 
ATOM     13  C   UNL     1     -16.292   9.973   9.491  1.00  0.00     0.004 C 
ENDBRANCH  11  12
ENDBRANCH  10  11
ENDBRANCH   9  10
ENDBRANCH   8   9
ENDBRANCH   1   8
TORSDOF 9
ENDMDL
MODEL 2
REMARK VINA RESULT:    -3.101      3.483      5.157
REMARK INTER + INTRA:          -5.562
REMARK INTER:                  -5.170
REMARK INTRA:                  -0.392
REMARK UNBOUND:                -0.829
REMARK SMILES CCCCCCCCCCC(=O)[O-]
REMARK SMILES IDX 7 1 8 2 9 3 10 4 11 5 12 6 13 7 6 8 5 9 4 10 3 11 2 12 1 13
REMARK H PARENT
REMARK Flexibility Score: inf
ROOT
ATOM      1  C   UNL     1     -15.632   9.336   8.588  1.00  0.00     0.000 C 
ENDROOT
BRANCH   1   2
ATOM      2  C   UNL     1     -15.634  10.331   7.419  1.00  0.00     0.000 C 
BRANCH   2   3
ATOM      3  C   UNL     1     -16.270  11.679   7.790  1.00  0.00     0.006 C 
BRANCH   3   4
ATOM      4  C   UNL     1     -15.575  12.867   7.111  1.00  0.00     0.053 C 
BRANCH   4   5
ATOM      5  C   UNL     1     -14.307  13.210   7.829  1.00  0.00     0.041 C 
ATOM      6  O   UNL     1     -14.244  13.115   9.082  1.00  0.00    -0.550 OA
ATOM      7  O   UNL     1     -13.181  13.586   7.109  1.00  0.00    -0.550 OA
ENDBRANCH   4   5
ENDBRANCH   3   4
ENDBRANCH   2   3
ENDBRANCH   1   2
BRANCH   1   8
ATOM      8  C   UNL     1     -16.851   8.407   8.521  1.00  0.00     0.000 C 
BRANCH   8   9
ATOM      9  C   UNL     1     -16.682   7.206   9.460  1.00  0.00    -0.000 C 
BRANCH   9  10
ATOM     10  C   UNL     1     -15.341   7.274  10.204  1.00  0.00    -0.000 C 
BRANCH  10  11
ATOM     11  C   UNL     1     -15.216   6.204  11.300  1.00  0.00    -0.000 C 
BRANCH  11  12
ATOM     12  C   UNL     1     -13.758   5.924  11.689  1.00  0.00    -0.003 C 
ATOM     13  C   UNL     1     -13.502   4.424  11.817  1.00  0.00     0.004 C 
ENDBRANCH  11  12
ENDBRANCH  10  11
ENDBRANCH   9  10
ENDBRANCH   8   9
ENDBRANCH   1   8
TORSDOF 9
ENDMDL
MODEL 3
REMARK VINA RESULT:    -3.046      1.560      2.241
REMARK INTER + INTRA:          -5.477
REMARK INTER:                  -5.073
REMARK INTRA:                  -0.403
REMARK UNBOUND:                -0.829
REMARK SMILES CCCCCCCCCCC(=O)[O-]
REMARK SMILES IDX 7 1 8 2 9 3 10 4 11 5 12 6 13 7 6 8 5 9 4 10 3 11 2 12 1 13
REMARK H PARENT
REMARK Flexibility Score: inf
ROOT
ATOM      1  C   UNL     1     -15.231  12.672   7.104  1.00  0.00     0.000 C 
ENDROOT
BRANCH   1   2
ATOM      2  C   UNL     1     -14.095  13.290   7.932  1.00  0.00     0.000 C 
BRANCH   2   3
ATOM      3  C   UNL     1     -14.360  13.224   9.444  1.00  0.00     0.006 C 
BRANCH   3   4
ATOM      4  C   UNL     1     -13.780  14.427  10.198  1.00  0.00     0.053 C 
BRANCH   4   5
ATOM      5  C   UNL     1     -13.880  14.214  11.676  1.00  0.00     0.041 C 
ATOM      6  O   UNL     1     -12.911  13.722  12.312  1.00  0.00    -0.550 OA
ATOM      7  O   UNL     1     -15.025  14.603  12.359  1.00  0.00    -0.550 OA
ENDBRANCH   4   5
ENDBRANCH   3   4
ENDBRANCH   2   3
ENDBRANCH   1   2
BRANCH   1   8
ATOM      8  C   UNL     1     -16.096  11.743   7.965  1.00  0.00     0.000 C 
BRANCH   8   9
ATOM      9  C   UNL     1     -16.308  10.390   7.276  1.00  0.00    -0.000 C 
BRANCH   9  10
ATOM     10  C   UNL     1     -16.793   9.332   8.279  1.00  0.00    -0.000 C 
BRANCH  10  11
ATOM     11  C   UNL     1     -15.636   8.553   8.924  1.00  0.00    -0.000 C 
BRANCH  11  12
ATOM     12  C   UNL     1     -16.102   7.258   9.603  1.00  0.00    -0.003 C 
ATOM     13  C   UNL     1     -15.141   6.846  10.716  1.00  0.00     0.004 C 
ENDBRANCH  11  12
ENDBRANCH  10  11
ENDBRANCH   9  10
ENDBRANCH   8   9
ENDBRANCH   1   8
TORSDOF 9
ENDMDL
MODEL 4
REMARK VINA RESULT:    -3.007      2.186      4.494
REMARK INTER + INTRA:          -5.417
REMARK INTER:                  -4.442
REMARK INTRA:                  -0.975
REMARK UNBOUND:                -0.829
REMARK SMILES CCCCCCCCCCC(=O)[O-]
REMARK SMILES IDX 7 1 8 2 9 3 10 4 11 5 12 6 13 7 6 8 5 9 4 10 3 11 2 12 1 13
REMARK H PARENT
REMARK Flexibility Score: inf
ROOT
ATOM      1  C   UNL     1     -14.600  12.876   6.780  1.00  0.00     0.000 C 
ENDROOT
BRANCH   1   2
ATOM      2  C   UNL     1     -16.092  12.902   7.138  1.00  0.00     0.000 C 
BRANCH   2   3
ATOM      3  C   UNL     1     -16.707  11.497   7.220  1.00  0.00     0.006 C 
BRANCH   3   4
ATOM      4  C   UNL     1     -17.035  11.078   8.659  1.00  0.00     0.053 C 
BRANCH   4   5
ATOM      5  C   UNL     1     -16.139   9.961   9.094  1.00  0.00     0.041 C 
ATOM      6  O   UNL     1     -15.206   9.569   8.346  1.00  0.00    -0.550 OA
ATOM      7  O   UNL     1     -16.302   9.388  10.349  1.00  0.00    -0.550 OA
ENDBRANCH   4   5
ENDBRANCH   3   4
ENDBRANCH   2   3
ENDBRANCH   1   2
BRANCH   1   8
ATOM      8  C   UNL     1     -13.772  13.642   7.820  1.00  0.00     0.000 C 
BRANCH   8   9
ATOM      9  C   UNL     1     -14.173  13.246   9.246  1.00  0.00    -0.000 C 
BRANCH   9  10
ATOM     10  C   UNL     1     -13.892  14.388  10.233  1.00  0.00    -0.000 C 
BRANCH  10  11
ATOM     11  C   UNL     1     -14.551  14.162  11.603  1.00  0.00    -0.000 C 
BRANCH  11  12
ATOM     12  C   UNL     1     -15.196  12.775  11.727  1.00  0.00    -0.003 C 
ATOM     13  C   UNL     1     -16.701  12.888  11.954  1.00  0.00     0.004 C 
ENDBRANCH  11  12
ENDBRANCH  10  11
ENDBRANCH   9  10
ENDBRANCH   8   9
ENDBRANCH   1   8
TORSDOF 9
ENDMDL
MODEL 5
REMARK VINA RESULT:    -2.824      2.715      3.943
REMARK INTER + INTRA:          -5.138
REMARK INTER:                  -4.762
REMARK INTRA:                  -0.376
REMARK UNBOUND:                -0.829
REMARK SMILES CCCCCCCCCCC(=O)[O-]
REMARK SMILES IDX 7 1 8 2 9 3 10 4 11 5 12 6 13 7 6 8 5 9 4 10 3 11 2 12 1 13
REMARK H PARENT
REMARK Flexibility Score: inf
ROOT
ATOM      1  C   UNL     1     -16.089  10.570   8.496  1.00  0.00     0.000 C 
ENDROOT
BRANCH   1   2
ATOM      2  C   UNL     1     -15.469  11.695   7.655  1.00  0.00     0.000 C 
BRANCH   2   3
ATOM      3  C   UNL     1     -14.563  12.622   8.480  1.00  0.00     0.006 C 
BRANCH   3   4
ATOM      4  C   UNL     1     -15.048  12.788   9.926  1.00  0.00     0.053 C 
BRANCH   4   5
ATOM      5  C   UNL     1     -14.093  13.639  10.702  1.00  0.00     0.041 C 
ATOM      6  O   UNL     1     -13.694  14.735  10.230  1.00  0.00    -0.550 OA
ATOM      7  O   UNL     1     -13.682  13.245  11.969  1.00  0.00    -0.550 OA
ENDBRANCH   4   5
ENDBRANCH   3   4
ENDBRANCH   2   3
ENDBRANCH   1   2
BRANCH   1   8
ATOM      8  C   UNL     1     -15.230   9.301   8.434  1.00  0.00     0.000 C 
BRANCH   8   9
ATOM      9  C   UNL     1     -16.018   8.077   8.919  1.00  0.00    -0.000 C 
BRANCH   9  10
ATOM     10  C   UNL     1     -15.935   7.940  10.446  1.00  0.00    -0.000 C 
BRANCH  10  11
ATOM     11  C   UNL     1     -15.511   6.531  10.892  1.00  0.00    -0.000 C 
BRANCH  11  12
ATOM     12  C   UNL     1     -14.047   6.472  11.351  1.00  0.00    -0.003 C 
ATOM     13  C   UNL     1     -13.675   5.066  11.816  1.00  0.00     0.004 C 
ENDBRANCH  11  12
ENDBRANCH  10  11
ENDBRANCH   9  10
ENDBRANCH   8   9
ENDBRANCH   1   8
TORSDOF 9
ENDMDL
MODEL 6
REMARK VINA RESULT:    -2.786      2.454      5.001
REMARK INTER + INTRA:          -5.081
REMARK INTER:                  -4.551
REMARK INTRA:                  -0.530
REMARK UNBOUND:                -0.829
REMARK SMILES CCCCCCCCCCC(=O)[O-]
REMARK SMILES IDX 7 1 8 2 9 3 10 4 11 5 12 6 13 7 6 8 5 9 4 10 3 11 2 12 1 13
REMARK H PARENT
REMARK Flexibility Score: inf
ROOT
ATOM      1  C   UNL     1     -15.342  11.340   7.089  1.00  0.00     0.000 C 
ENDROOT
BRANCH   1   2
ATOM      2  C   UNL     1     -16.799  10.887   7.255  1.00  0.00     0.000 C 
BRANCH   2   3
ATOM      3  C   UNL     1     -16.986   9.908   8.424  1.00  0.00     0.006 C 
BRANCH   3   4
ATOM      4  C   UNL     1     -15.734   9.062   8.693  1.00  0.00     0.053 C 
BRANCH   4   5
ATOM      5  C   UNL     1     -15.937   8.198   9.898  1.00  0.00     0.041 C 
ATOM      6  O   UNL     1     -15.255   7.152  10.049  1.00  0.00    -0.550 OA
ATOM      7  O   UNL     1     -16.845   8.575  10.879  1.00  0.00    -0.550 OA
ENDBRANCH   4   5
ENDBRANCH   3   4
ENDBRANCH   2   3
ENDBRANCH   1   2
BRANCH   1   8
ATOM      8  C   UNL     1     -15.220  12.863   7.234  1.00  0.00     0.000 C 
BRANCH   8   9
ATOM      9  C   UNL     1     -14.112  13.236   8.226  1.00  0.00    -0.000 C 
BRANCH   9  10
ATOM     10  C   UNL     1     -14.628  13.189   9.672  1.00  0.00    -0.000 C 
BRANCH  10  11
ATOM     11  C   UNL     1     -14.153  14.387  10.509  1.00  0.00    -0.000 C 
BRANCH  11  12
ATOM     12  C   UNL     1     -13.254  13.969  11.681  1.00  0.00    -0.003 C 
ATOM     13  C   UNL     1     -14.067  13.289  12.781  1.00  0.00     0.004 C 
ENDBRANCH  11  12
ENDBRANCH  10  11
ENDBRANCH   9  10
ENDBRANCH   8   9
ENDBRANCH   1   8
TORSDOF 9
ENDMDL
MODEL 7
REMARK VINA RESULT:    -2.770      2.656      4.311
REMARK INTER + INTRA:          -5.056
REMARK INTER:                  -4.249
REMARK INTRA:                  -0.807
REMARK UNBOUND:                -0.829
REMARK SMILES CCCCCCCCCCC(=O)[O-]
REMARK SMILES IDX 7 1 8 2 9 3 10 4 11 5 12 6 13 7 6 8 5 9 4 10 3 11 2 12 1 13
REMARK H PARENT
REMARK Flexibility Score: inf
ROOT
ATOM      1  C   UNL     1     -14.712  13.978  12.367  1.00  0.00     0.000 C 
ENDROOT
BRANCH   1   2
ATOM      2  C   UNL     1     -15.028  14.464  10.946  1.00  0.00     0.000 C 
BRANCH   2   3
ATOM      3  C   UNL     1     -13.935  14.086   9.934  1.00  0.00     0.006 C 
BRANCH   3   4
ATOM      4  C   UNL     1     -14.316  12.870   9.080  1.00  0.00     0.053 C 
BRANCH   4   5
ATOM      5  C   UNL     1     -14.319  13.232   7.628  1.00  0.00     0.041 C 
ATOM      6  O   UNL     1     -13.257  13.605   7.066  1.00  0.00    -0.550 OA
ATOM      7  O   UNL     1     -15.486  13.111   6.884  1.00  0.00    -0.550 OA
ENDBRANCH   4   5
ENDBRANCH   3   4
ENDBRANCH   2   3
ENDBRANCH   1   2
BRANCH   1   8
ATOM      8  C   UNL     1     -15.849  13.107  12.916  1.00  0.00     0.000 C 
BRANCH   8   9
ATOM      9  C   UNL     1     -15.716  11.657  12.435  1.00  0.00    -0.000 C 
BRANCH   9  10
ATOM     10  C   UNL     1     -16.865  11.285  11.486  1.00  0.00    -0.000 C 
BRANCH  10  11
ATOM     11  C   UNL     1     -16.634   9.943  10.774  1.00  0.00    -0.000 C 
BRANCH  11  12
ATOM     12  C   UNL     1     -16.553  10.089   9.248  1.00  0.00    -0.003 C 
ATOM     13  C   UNL     1     -15.623   9.040   8.645  1.00  0.00     0.004 C 
ENDBRANCH  11  12
ENDBRANCH  10  11
ENDBRANCH   9  10
ENDBRANCH   8   9
ENDBRANCH   1   8
TORSDOF 9
ENDMDL
MODEL 8
REMARK VINA RESULT:    -2.751      3.305      5.565
REMARK INTER + INTRA:          -5.028
REMARK INTER:                  -4.511
REMARK INTRA:                  -0.517
REMARK UNBOUND:                -0.829
REMARK SMILES CCCCCCCCCCC(=O)[O-]
REMARK SMILES IDX 7 1 8 2 9 3 10 4 11 5 12 6 13 7 6 8 5 9 4 10 3 11 2 12 1 13
REMARK H PARENT
REMARK Flexibility Score: inf
ROOT
ATOM      1  C   UNL     1     -15.516   9.225   8.574  1.00  0.00     0.000 C 
ENDROOT
BRANCH   1   2
ATOM      2  C   UNL     1     -16.145   7.957   9.168  1.00  0.00     0.000 C 
BRANCH   2   3
ATOM      3  C   UNL     1     -15.703   7.698  10.616  1.00  0.00     0.006 C 
BRANCH   3   4
ATOM      4  C   UNL     1     -15.381   6.222  10.881  1.00  0.00     0.053 C 
BRANCH   4   5
ATOM      5  C   UNL     1     -14.115   6.098  11.669  1.00  0.00     0.041 C 
ATOM      6  O   UNL     1     -13.344   5.121  11.480  1.00  0.00    -0.550 OA
ATOM      7  O   UNL     1     -13.763   7.086  12.579  1.00  0.00    -0.550 OA
ENDBRANCH   4   5
ENDBRANCH   3   4
ENDBRANCH   2   3
ENDBRANCH   1   2
BRANCH   1   8
ATOM      8  C   UNL     1     -16.471  10.419   8.689  1.00  0.00     0.000 C 
BRANCH   8   9
ATOM      9  C   UNL     1     -15.962  11.436   9.718  1.00  0.00    -0.000 C 
BRANCH   9  10
ATOM     10  C   UNL     1     -15.825  12.832   9.091  1.00  0.00    -0.000 C 
BRANCH  10  11
ATOM     11  C   UNL     1     -14.389  13.373   9.157  1.00  0.00    -0.000 C 
BRANCH  11  12
ATOM     12  C   UNL     1     -13.730  13.471   7.774  1.00  0.00    -0.003 C 
ATOM     13  C   UNL     1     -14.727  13.143   6.666  1.00  0.00     0.004 C 
ENDBRANCH  11  12
ENDBRANCH  10  11
ENDBRANCH   9  10
ENDBRANCH   8   9
ENDBRANCH   1   8
TORSDOF 9
ENDMDL
MODEL 9
REMARK VINA RESULT:    -2.716      2.701      5.019
REMARK INTER + INTRA:          -4.974
REMARK INTER:                  -4.422
REMARK INTRA:                  -0.552
REMARK UNBOUND:                -0.829
REMARK SMILES CCCCCCCCCCC(=O)[O-]
REMARK SMILES IDX 7 1 8 2 9 3 10 4 11 5 12 6 13 7 6 8 5 9 4 10 3 11 2 12 1 13
REMARK H PARENT
REMARK Flexibility Score: inf
ROOT
ATOM      1  C   UNL     1     -15.383   9.579   8.195  1.00  0.00     0.000 C 
ENDROOT
BRANCH   1   2
ATOM      2  C   UNL     1     -16.389   8.615   8.839  1.00  0.00     0.000 C 
BRANCH   2   3
ATOM      3  C   UNL     1     -16.325   8.629  10.374  1.00  0.00     0.006 C 
BRANCH   3   4
ATOM      4  C   UNL     1     -16.300   7.218  10.977  1.00  0.00     0.053 C 
BRANCH   4   5
ATOM      5  C   UNL     1     -14.994   6.967  11.662  1.00  0.00     0.041 C 
ATOM      6  O   UNL     1     -14.121   6.245  11.115  1.00  0.00    -0.550 OA
ATOM      7  O   UNL     1     -14.722   7.570  12.884  1.00  0.00    -0.550 OA
ENDBRANCH   4   5
ENDBRANCH   3   4
ENDBRANCH   2   3
ENDBRANCH   1   2
BRANCH   1   8
ATOM      8  C   UNL     1     -16.075  10.499   7.180  1.00  0.00     0.000 C 
BRANCH   8   9
ATOM      9  C   UNL     1     -16.233  11.918   7.739  1.00  0.00    -0.000 C 
BRANCH   9  10
ATOM     10  C   UNL     1     -15.223  12.878   7.094  1.00  0.00    -0.000 C 
BRANCH  10  11
ATOM     11  C   UNL     1     -14.077  13.258   8.044  1.00  0.00    -0.000 C 
BRANCH  11  12
ATOM     12  C   UNL     1     -14.467  13.129   9.523  1.00  0.00    -0.003 C 
ATOM     13  C   UNL     1     -14.008  14.348  10.319  1.00  0.00     0.004 C 
ENDBRANCH  11  12
ENDBRANCH  10  11
ENDBRANCH   9  10
ENDBRANCH   8   9
ENDBRANCH   1   8
TORSDOF 9
ENDMDL
