MODEL 1
REMARK VINA RESULT:    -3.843      0.000      0.000
REMARK INTER + INTRA:          -3.843
REMARK INTER:                  -3.843
REMARK INTRA:                   0.000
REMARK UNBOUND:                 0.000
REMARK SMILES CC1=CC=CC(C)(C)[C@H]1C
REMARK SMILES IDX 10 1 9 2 2 3 3 4 4 5 5 6 6 7 7 8 8 9 1 10
REMARK H PARENT
REMARK Flexibility Score: inf
ROOT
ATOM      1  C   UNL     1     134.651 138.281 132.875  1.00  0.00     0.013 C 
ATOM      2  C   UNL     1     134.476 139.367 133.962  1.00  0.00     0.021 C 
ATOM      3  C   UNL     1     133.441 138.970 135.025  1.00  0.00    -0.070 C 
ATOM      4  C   UNL     1     133.460 139.576 136.223  1.00  0.00    -0.001 C 
ATOM      5  C   UNL     1     134.499 140.553 136.572  1.00  0.00    -0.004 C 
ATOM      6  C   UNL     1     135.580 140.706 135.808  1.00  0.00    -0.020 C 
ATOM      7  C   UNL     1     135.844 139.800 134.619  1.00  0.00    -0.011 C 
ATOM      8  C   UNL     1     136.714 140.591 133.615  1.00  0.00     0.016 C 
ATOM      9  C   UNL     1     136.642 138.579 135.127  1.00  0.00     0.016 C 
ATOM     10  C   UNL     1     132.295 138.026 134.746  1.00  0.00     0.040 C 
ENDROOT
TORSDOF 0
ENDMDL
MODEL 2
REMARK VINA RESULT:    -3.833      3.827      5.464
REMARK INTER + INTRA:          -3.833
REMARK INTER:                  -3.833
REMARK INTRA:                   0.000
REMARK UNBOUND:                 0.000
REMARK SMILES CC1=CC=CC(C)(C)[C@H]1C
REMARK SMILES IDX 10 1 9 2 2 3 3 4 4 5 5 6 6 7 7 8 8 9 1 10
REMARK H PARENT
REMARK Flexibility Score: inf
ROOT
ATOM      1  C   UNL     1     134.328 134.683 132.875  1.00  0.00     0.013 C 
ATOM      2  C   UNL     1     133.237 134.500 133.956  1.00  0.00     0.021 C 
ATOM      3  C   UNL     1     133.638 133.470 135.023  1.00  0.00    -0.070 C 
ATOM      4  C   UNL     1     133.025 133.486 136.218  1.00  0.00    -0.001 C 
ATOM      5  C   UNL     1     132.037 134.516 136.560  1.00  0.00    -0.004 C 
ATOM      6  C   UNL     1     131.879 135.595 135.793  1.00  0.00    -0.020 C 
ATOM      7  C   UNL     1     132.790 135.865 134.609  1.00  0.00    -0.011 C 
ATOM      8  C   UNL     1     131.996 136.727 133.600  1.00  0.00     0.016 C 
ATOM      9  C   UNL     1     134.001 136.675 135.123  1.00  0.00     0.016 C 
ATOM     10  C   UNL     1     134.593 132.332 134.751  1.00  0.00     0.040 C 
ENDROOT
TORSDOF 0
ENDMDL
MODEL 3
REMARK VINA RESULT:    -3.827      3.795      5.379
REMARK INTER + INTRA:          -3.827
REMARK INTER:                  -3.827
REMARK INTRA:                   0.000
REMARK UNBOUND:                 0.000
REMARK SMILES CC1=CC=CC(C)(C)[C@H]1C
REMARK SMILES IDX 10 1 9 2 2 3 3 4 4 5 5 6 6 7 7 8 8 9 1 10
REMARK H PARENT
REMARK Flexibility Score: inf
ROOT
ATOM      1  C   UNL     1     138.215 138.065 132.876  1.00  0.00     0.013 C 
ATOM      2  C   UNL     1     139.303 138.272 133.954  1.00  0.00     0.021 C 
ATOM      3  C   UNL     1     138.893 139.314 135.007  1.00  0.00    -0.070 C 
ATOM      4  C   UNL     1     139.505 139.320 136.202  1.00  0.00    -0.001 C 
ATOM      5  C   UNL     1     140.502 138.303 136.558  1.00  0.00    -0.004 C 
ATOM      6  C   UNL     1     140.671 137.216 135.807  1.00  0.00    -0.020 C 
ATOM      7  C   UNL     1     139.763 136.921 134.626  1.00  0.00    -0.011 C 
ATOM      8  C   UNL     1     140.565 136.052 133.629  1.00  0.00     0.016 C 
ATOM      9  C   UNL     1     138.559 136.107 135.150  1.00  0.00     0.016 C 
ATOM     10  C   UNL     1     137.927 140.439 134.719  1.00  0.00     0.040 C 
ENDROOT
TORSDOF 0
ENDMDL
MODEL 4
REMARK VINA RESULT:    -3.826      5.872      7.738
REMARK INTER + INTRA:          -3.826
REMARK INTER:                  -3.826
REMARK INTRA:                   0.000
REMARK UNBOUND:                 0.000
REMARK SMILES CC1=CC=CC(C)(C)[C@H]1C
REMARK SMILES IDX 10 1 9 2 2 3 3 4 4 5 5 6 6 7 7 8 8 9 1 10
REMARK H PARENT
REMARK Flexibility Score: inf
ROOT
ATOM      1  C   UNL     1     137.880 134.323 132.875  1.00  0.00     0.013 C 
ATOM      2  C   UNL     1     138.160 133.278 133.980  1.00  0.00     0.021 C 
ATOM      3  C   UNL     1     139.255 133.737 134.955  1.00  0.00    -0.070 C 
ATOM      4  C   UNL     1     139.336 133.170 136.170  1.00  0.00    -0.001 C 
ATOM      5  C   UNL     1     138.352 132.178 136.620  1.00  0.00    -0.004 C 
ATOM      6  C   UNL     1     137.225 131.972 135.939  1.00  0.00    -0.020 C 
ATOM      7  C   UNL     1     136.854 132.832 134.744  1.00  0.00    -0.011 C 
ATOM      8  C   UNL     1     135.939 131.985 133.829  1.00  0.00     0.016 C 
ATOM      9  C   UNL     1     136.058 134.048 135.269  1.00  0.00     0.016 C 
ATOM     10  C   UNL     1     140.351 134.701 134.567  1.00  0.00     0.040 C 
ENDROOT
TORSDOF 0
ENDMDL
MODEL 5
REMARK VINA RESULT:    -3.749      5.940      7.798
REMARK INTER + INTRA:          -3.749
REMARK INTER:                  -3.749
REMARK INTRA:                   0.000
REMARK UNBOUND:                 0.000
REMARK SMILES CC1=CC=CC(C)(C)[C@H]1C
REMARK SMILES IDX 10 1 9 2 2 3 3 4 4 5 5 6 6 7 7 8 8 9 1 10
REMARK H PARENT
REMARK Flexibility Score: inf
ROOT
ATOM      1  C   UNL     1     138.952 136.159 136.933  1.00  0.00     0.013 C 
ATOM      2  C   UNL     1     138.368 134.795 136.496  1.00  0.00     0.021 C 
ATOM      3  C   UNL     1     139.336 134.002 135.605  1.00  0.00    -0.070 C 
ATOM      4  C   UNL     1     139.179 132.675 135.479  1.00  0.00    -0.001 C 
ATOM      5  C   UNL     1     138.153 131.948 136.237  1.00  0.00    -0.004 C 
ATOM      6  C   UNL     1     137.495 132.535 137.237  1.00  0.00    -0.020 C 
ATOM      7  C   UNL     1     137.860 133.930 137.714  1.00  0.00    -0.011 C 
ATOM      8  C   UNL     1     136.593 134.551 138.345  1.00  0.00     0.016 C 
ATOM      9  C   UNL     1     138.948 133.784 138.801  1.00  0.00     0.016 C 
ATOM     10  C   UNL     1     140.381 134.661 134.736  1.00  0.00     0.040 C 
ENDROOT
TORSDOF 0
ENDMDL
MODEL 6
REMARK VINA RESULT:    -3.734      5.103      6.317
REMARK INTER + INTRA:          -3.734
REMARK INTER:                  -3.734
REMARK INTRA:                   0.000
REMARK UNBOUND:                 0.000
REMARK SMILES CC1=CC=CC(C)(C)[C@H]1C
REMARK SMILES IDX 10 1 9 2 2 3 3 4 4 5 5 6 6 7 7 8 8 9 1 10
REMARK H PARENT
REMARK Flexibility Score: inf
ROOT
ATOM      1  C   UNL     1     136.143 133.701 136.909  1.00  0.00     0.013 C 
ATOM      2  C   UNL     1     134.777 134.276 136.467  1.00  0.00     0.021 C 
ATOM      3  C   UNL     1     133.988 133.296 135.585  1.00  0.00    -0.070 C 
ATOM      4  C   UNL     1     132.659 133.447 135.458  1.00  0.00    -0.001 C 
ATOM      5  C   UNL     1     131.929 134.476 136.207  1.00  0.00    -0.004 C 
ATOM      6  C   UNL     1     132.513 135.145 137.201  1.00  0.00    -0.020 C 
ATOM      7  C   UNL     1     133.909 134.790 137.681  1.00  0.00    -0.011 C 
ATOM      8  C   UNL     1     134.525 136.065 138.301  1.00  0.00     0.016 C 
ATOM      9  C   UNL     1     133.769 133.711 138.777  1.00  0.00     0.016 C 
ATOM     10  C   UNL     1     134.650 132.247 134.724  1.00  0.00     0.040 C 
ENDROOT
TORSDOF 0
ENDMDL
MODEL 7
REMARK VINA RESULT:    -3.731      3.257      5.514
REMARK INTER + INTRA:          -3.731
REMARK INTER:                  -3.731
REMARK INTRA:                   0.000
REMARK UNBOUND:                 0.000
REMARK SMILES CC1=CC=CC(C)(C)[C@H]1C
REMARK SMILES IDX 10 1 9 2 2 3 3 4 4 5 5 6 6 7 7 8 8 9 1 10
REMARK H PARENT
REMARK Flexibility Score: inf
ROOT
ATOM      1  C   UNL     1     137.108 138.694 138.007  1.00  0.00     0.013 C 
ATOM      2  C   UNL     1     138.405 138.938 137.202  1.00  0.00     0.021 C 
ATOM      3  C   UNL     1     139.538 137.984 137.613  1.00  0.00    -0.070 C 
ATOM      4  C   UNL     1     140.562 137.776 136.771  1.00  0.00    -0.001 C 
ATOM      5  C   UNL     1     140.588 138.375 135.431  1.00  0.00    -0.004 C 
ATOM      6  C   UNL     1     139.504 138.957 134.919  1.00  0.00    -0.020 C 
ATOM      7  C   UNL     1     138.169 138.919 135.642  1.00  0.00    -0.011 C 
ATOM      8  C   UNL     1     137.360 140.157 135.190  1.00  0.00     0.016 C 
ATOM      9  C   UNL     1     137.429 137.639 135.194  1.00  0.00     0.016 C 
ATOM     10  C   UNL     1     139.637 137.369 138.989  1.00  0.00     0.040 C 
ENDROOT
TORSDOF 0
ENDMDL
MODEL 8
REMARK VINA RESULT:    -3.730      3.270      5.505
REMARK INTER + INTRA:          -3.730
REMARK INTER:                  -3.730
REMARK INTRA:                   0.000
REMARK UNBOUND:                 0.000
REMARK SMILES CC1=CC=CC(C)(C)[C@H]1C
REMARK SMILES IDX 10 1 9 2 2 3 3 4 4 5 5 6 6 7 7 8 8 9 1 10
REMARK H PARENT
REMARK Flexibility Score: inf
ROOT
ATOM      1  C   UNL     1     136.436 138.951 136.918  1.00  0.00     0.013 C 
ATOM      2  C   UNL     1     137.799 138.347 136.509  1.00  0.00     0.021 C 
ATOM      3  C   UNL     1     138.619 139.299 135.623  1.00  0.00    -0.070 C 
ATOM      4  C   UNL     1     139.946 139.125 135.521  1.00  0.00    -0.001 C 
ATOM      5  C   UNL     1     140.648 138.098 136.300  1.00  0.00    -0.004 C 
ATOM      6  C   UNL     1     140.037 137.456 137.295  1.00  0.00    -0.020 C 
ATOM      7  C   UNL     1     138.638 137.841 137.745  1.00  0.00    -0.011 C 
ATOM      8  C   UNL     1     137.992 136.586 138.377  1.00  0.00     0.016 C 
ATOM      9  C   UNL     1     138.778 138.936 138.826  1.00  0.00     0.016 C 
ATOM     10  C   UNL     1     137.987 140.344 134.734  1.00  0.00     0.040 C 
ENDROOT
TORSDOF 0
ENDMDL
MODEL 9
REMARK VINA RESULT:    -3.700      2.036      3.121
REMARK INTER + INTRA:          -3.700
REMARK INTER:                  -3.700
REMARK INTRA:                   0.000
REMARK UNBOUND:                 0.000
REMARK SMILES CC1=CC=CC(C)(C)[C@H]1C
REMARK SMILES IDX 10 1 9 2 2 3 3 4 4 5 5 6 6 7 7 8 8 9 1 10
REMARK H PARENT
REMARK Flexibility Score: inf
ROOT
ATOM      1  C   UNL     1     133.707 136.367 136.900  1.00  0.00     0.013 C 
ATOM      2  C   UNL     1     134.260 137.746 136.470  1.00  0.00     0.021 C 
ATOM      3  C   UNL     1     133.274 138.521 135.583  1.00  0.00    -0.070 C 
ATOM      4  C   UNL     1     133.400 139.852 135.464  1.00  0.00    -0.001 C 
ATOM      5  C   UNL     1     134.409 140.598 136.226  1.00  0.00    -0.004 C 
ATOM      6  C   UNL     1     135.080 140.022 137.223  1.00  0.00    -0.020 C 
ATOM      7  C   UNL     1     134.747 138.617 137.692  1.00  0.00    -0.011 C 
ATOM      8  C   UNL     1     136.028 138.021 138.321  1.00  0.00     0.016 C 
ATOM      9  C   UNL     1     133.656 138.731 138.780  1.00  0.00     0.016 C 
ATOM     10  C   UNL     1     132.244 137.843 134.710  1.00  0.00     0.040 C 
ENDROOT
TORSDOF 0
ENDMDL
