MODEL 1
REMARK VINA RESULT:    -4.489      0.000      0.000
REMARK INTER + INTRA:          -9.970
REMARK INTER:                  -7.900
REMARK INTRA:                  -2.070
REMARK UNBOUND:                -2.070
REMARK SMILES CCCCCCCCCCCCCCC(=O)[O-]
REMARK SMILES IDX 9 1 10 2 11 3 12 4 13 5 14 6 15 7 16 8 17 9 8 10 7 11 6 12
REMARK SMILES IDX 5 13 4 14 3 15 2 16 1 17
REMARK H PARENT
REMARK Flexibility Score: inf
ROOT
ATOM      1  C   UNL     1     -22.727  19.218 -22.020  1.00  0.00     0.000 C 
ENDROOT
BRANCH   1   2
ATOM      2  C   UNL     1     -23.228  20.476 -21.294  1.00  0.00     0.000 C 
BRANCH   2   3
ATOM      3  C   UNL     1     -23.963  21.448 -22.234  1.00  0.00     0.000 C 
BRANCH   3   4
ATOM      4  C   UNL     1     -22.999  22.350 -23.022  1.00  0.00     0.000 C 
BRANCH   4   5
ATOM      5  C   UNL     1     -23.049  22.091 -24.538  1.00  0.00     0.006 C 
BRANCH   5   6
ATOM      6  C   UNL     1     -21.648  21.998 -25.156  1.00  0.00     0.053 C 
BRANCH   6   7
ATOM      7  C   UNL     1     -21.062  23.353 -25.417  1.00  0.00     0.041 C 
ATOM      8  O   UNL     1     -20.195  23.829 -24.637  1.00  0.00    -0.550 OA
ATOM      9  O   UNL     1     -21.496  24.103 -26.503  1.00  0.00    -0.550 OA
ENDBRANCH   6   7
ENDBRANCH   5   6
ENDBRANCH   4   5
ENDBRANCH   3   4
ENDBRANCH   2   3
ENDBRANCH   1   2
BRANCH   1  10
ATOM     10  C   UNL     1     -23.778  18.099 -22.064  1.00  0.00     0.000 C 
BRANCH  10  11
ATOM     11  C   UNL     1     -23.953  17.566 -23.493  1.00  0.00    -0.000 C 
BRANCH  11  12
ATOM     12  C   UNL     1     -23.293  18.467 -24.554  1.00  0.00    -0.000 C 
BRANCH  12  13
ATOM     13  C   UNL     1     -22.194  17.786 -25.394  1.00  0.00    -0.000 C 
BRANCH  13  14
ATOM     14  C   UNL     1     -20.767  18.315 -25.155  1.00  0.00    -0.000 C 
BRANCH  14  15
ATOM     15  C   UNL     1     -19.968  17.569 -24.069  1.00  0.00    -0.000 C 
BRANCH  15  16
ATOM     16  C   UNL     1     -20.489  16.159 -23.737  1.00  0.00    -0.003 C 
ATOM     17  C   UNL     1     -20.661  15.926 -22.236  1.00  0.00     0.004 C 
ENDBRANCH  15  16
ENDBRANCH  14  15
ENDBRANCH  13  14
ENDBRANCH  12  13
ENDBRANCH  11  12
ENDBRANCH  10  11
ENDBRANCH   1  10
TORSDOF 13
ENDMDL
MODEL 2
REMARK VINA RESULT:    -4.338      0.899      1.567
REMARK INTER + INTRA:          -9.706
REMARK INTER:                  -7.778
REMARK INTRA:                  -1.927
REMARK UNBOUND:                -2.070
REMARK SMILES CCCCCCCCCCCCCCC(=O)[O-]
REMARK SMILES IDX 9 1 10 2 11 3 12 4 13 5 14 6 15 7 16 8 17 9 8 10 7 11 6 12
REMARK SMILES IDX 5 13 4 14 3 15 2 16 1 17
REMARK H PARENT
REMARK Flexibility Score: inf
ROOT
ATOM      1  C   UNL     1     -23.968  18.277 -22.143  1.00  0.00     0.000 C 
ENDROOT
BRANCH   1   2
ATOM      2  C   UNL     1     -22.835  19.312 -22.071  1.00  0.00     0.000 C 
BRANCH   2   3
ATOM      3  C   UNL     1     -23.282  20.634 -21.419  1.00  0.00     0.000 C 
BRANCH   3   4
ATOM      4  C   UNL     1     -23.974  21.578 -22.416  1.00  0.00     0.000 C 
BRANCH   4   5
ATOM      5  C   UNL     1     -23.037  22.684 -22.934  1.00  0.00     0.006 C 
BRANCH   5   6
ATOM      6  C   UNL     1     -23.125  22.850 -24.457  1.00  0.00     0.053 C 
BRANCH   6   7
ATOM      7  C   UNL     1     -21.867  22.404 -25.140  1.00  0.00     0.041 C 
ATOM      8  O   UNL     1     -21.444  21.228 -24.982  1.00  0.00    -0.550 OA
ATOM      9  O   UNL     1     -21.148  23.294 -25.925  1.00  0.00    -0.550 OA
ENDBRANCH   6   7
ENDBRANCH   5   6
ENDBRANCH   4   5
ENDBRANCH   3   4
ENDBRANCH   2   3
ENDBRANCH   1   2
BRANCH   1  10
ATOM     10  C   UNL     1     -24.005  17.529 -23.484  1.00  0.00     0.000 C 
BRANCH  10  11
ATOM     11  C   UNL     1     -23.348  18.361 -24.595  1.00  0.00    -0.000 C 
BRANCH  11  12
ATOM     12  C   UNL     1     -22.565  17.501 -25.604  1.00  0.00    -0.000 C 
BRANCH  12  13
ATOM     13  C   UNL     1     -21.052  17.789 -25.670  1.00  0.00    -0.000 C 
BRANCH  13  14
ATOM     14  C   UNL     1     -20.314  17.722 -24.318  1.00  0.00    -0.000 C 
BRANCH  14  15
ATOM     15  C   UNL     1     -20.336  16.343 -23.630  1.00  0.00    -0.000 C 
BRANCH  15  16
ATOM     16  C   UNL     1     -20.661  16.376 -22.126  1.00  0.00    -0.003 C 
ATOM     17  C   UNL     1     -21.654  15.292 -21.707  1.00  0.00     0.004 C 
ENDBRANCH  15  16
ENDBRANCH  14  15
ENDBRANCH  13  14
ENDBRANCH  12  13
ENDBRANCH  11  12
ENDBRANCH  10  11
ENDBRANCH   1  10
TORSDOF 13
ENDMDL
MODEL 3
REMARK VINA RESULT:    -4.264      4.191      7.032
REMARK INTER + INTRA:          -9.576
REMARK INTER:                  -7.787
REMARK INTRA:                  -1.789
REMARK UNBOUND:                -2.070
REMARK SMILES CCCCCCCCCCCCCCC(=O)[O-]
REMARK SMILES IDX 9 1 10 2 11 3 12 4 13 5 14 6 15 7 16 8 17 9 8 10 7 11 6 12
REMARK SMILES IDX 5 13 4 14 3 15 2 16 1 17
REMARK H PARENT
REMARK Flexibility Score: inf
ROOT
ATOM      1  C   UNL     1     -21.840  18.418 -24.857  1.00  0.00     0.000 C 
ENDROOT
BRANCH   1   2
ATOM      2  C   UNL     1     -21.013  17.125 -24.921  1.00  0.00     0.000 C 
BRANCH   2   3
ATOM      3  C   UNL     1     -20.243  16.851 -23.616  1.00  0.00     0.000 C 
BRANCH   3   4
ATOM      4  C   UNL     1     -20.669  15.536 -22.944  1.00  0.00     0.000 C 
BRANCH   4   5
ATOM      5  C   UNL     1     -21.142  15.736 -21.494  1.00  0.00     0.006 C 
BRANCH   5   6
ATOM      6  C   UNL     1     -22.464  15.011 -21.210  1.00  0.00     0.053 C 
BRANCH   6   7
ATOM      7  C   UNL     1     -22.280  13.867 -20.259  1.00  0.00     0.041 C 
ATOM      8  O   UNL     1     -21.186  13.716 -19.654  1.00  0.00    -0.550 OA
ATOM      9  O   UNL     1     -23.306  12.952 -20.063  1.00  0.00    -0.550 OA
ENDBRANCH   6   7
ENDBRANCH   5   6
ENDBRANCH   4   5
ENDBRANCH   3   4
ENDBRANCH   2   3
ENDBRANCH   1   2
BRANCH   1  10
ATOM     10  C   UNL     1     -23.354  18.157 -24.885  1.00  0.00     0.000 C 
BRANCH  10  11
ATOM     11  C   UNL     1     -23.819  17.482 -23.586  1.00  0.00    -0.000 C 
BRANCH  11  12
ATOM     12  C   UNL     1     -24.150  18.492 -22.472  1.00  0.00    -0.000 C 
BRANCH  12  13
ATOM     13  C   UNL     1     -22.942  18.967 -21.641  1.00  0.00    -0.000 C 
BRANCH  13  14
ATOM     14  C   UNL     1     -22.992  20.442 -21.198  1.00  0.00    -0.000 C 
BRANCH  14  15
ATOM     15  C   UNL     1     -23.958  21.333 -22.003  1.00  0.00    -0.000 C 
BRANCH  15  16
ATOM     16  C   UNL     1     -23.276  22.381 -22.900  1.00  0.00    -0.003 C 
ATOM     17  C   UNL     1     -22.860  21.820 -24.259  1.00  0.00     0.004 C 
ENDBRANCH  15  16
ENDBRANCH  14  15
ENDBRANCH  13  14
ENDBRANCH  12  13
ENDBRANCH  11  12
ENDBRANCH  10  11
ENDBRANCH   1  10
TORSDOF 13
ENDMDL
MODEL 4
REMARK VINA RESULT:    -4.260      1.914      4.143
REMARK INTER + INTRA:          -9.567
REMARK INTER:                  -7.707
REMARK INTRA:                  -1.860
REMARK UNBOUND:                -2.070
REMARK SMILES CCCCCCCCCCCCCCC(=O)[O-]
REMARK SMILES IDX 9 1 10 2 11 3 12 4 13 5 14 6 15 7 16 8 17 9 8 10 7 11 6 12
REMARK SMILES IDX 5 13 4 14 3 15 2 16 1 17
REMARK H PARENT
REMARK Flexibility Score: inf
ROOT
ATOM      1  C   UNL     1     -20.245  18.281 -25.015  1.00  0.00     0.000 C 
ENDROOT
BRANCH   1   2
ATOM      2  C   UNL     1     -21.283  18.981 -25.907  1.00  0.00     0.000 C 
BRANCH   2   3
ATOM      3  C   UNL     1     -22.309  19.792 -25.095  1.00  0.00     0.000 C 
BRANCH   3   4
ATOM      4  C   UNL     1     -21.868  21.248 -24.872  1.00  0.00     0.000 C 
BRANCH   4   5
ATOM      5  C   UNL     1     -23.042  22.176 -24.514  1.00  0.00     0.006 C 
BRANCH   5   6
ATOM      6  C   UNL     1     -22.589  23.388 -23.689  1.00  0.00     0.053 C 
BRANCH   6   7
ATOM      7  C   UNL     1     -23.753  24.133 -23.108  1.00  0.00     0.041 C 
ATOM      8  O   UNL     1     -24.911  23.639 -23.160  1.00  0.00    -0.550 OA
ATOM      9  O   UNL     1     -23.564  25.385 -22.538  1.00  0.00    -0.550 OA
ENDBRANCH   6   7
ENDBRANCH   5   6
ENDBRANCH   4   5
ENDBRANCH   3   4
ENDBRANCH   2   3
ENDBRANCH   1   2
BRANCH   1  10
ATOM     10  C   UNL     1     -20.786  16.998 -24.367  1.00  0.00     0.000 C 
BRANCH  10  11
ATOM     11  C   UNL     1     -20.256  16.841 -22.934  1.00  0.00    -0.000 C 
BRANCH  11  12
ATOM     12  C   UNL     1     -21.380  16.756 -21.885  1.00  0.00    -0.000 C 
BRANCH  12  13
ATOM     13  C   UNL     1     -22.804  16.970 -22.437  1.00  0.00    -0.000 C 
BRANCH  13  14
ATOM     14  C   UNL     1     -23.538  18.209 -21.890  1.00  0.00    -0.000 C 
BRANCH  14  15
ATOM     15  C   UNL     1     -22.625  19.384 -21.488  1.00  0.00    -0.000 C 
BRANCH  15  16
ATOM     16  C   UNL     1     -23.363  20.692 -21.155  1.00  0.00    -0.003 C 
ATOM     17  C   UNL     1     -24.856  20.634 -21.481  1.00  0.00     0.004 C 
ENDBRANCH  15  16
ENDBRANCH  14  15
ENDBRANCH  13  14
ENDBRANCH  12  13
ENDBRANCH  11  12
ENDBRANCH  10  11
ENDBRANCH   1  10
TORSDOF 13
ENDMDL
MODEL 5
REMARK VINA RESULT:    -4.184      4.483      7.265
REMARK INTER + INTRA:          -9.434
REMARK INTER:                  -7.710
REMARK INTRA:                  -1.724
REMARK UNBOUND:                -2.070
REMARK SMILES CCCCCCCCCCCCCCC(=O)[O-]
REMARK SMILES IDX 9 1 10 2 11 3 12 4 13 5 14 6 15 7 16 8 17 9 8 10 7 11 6 12
REMARK SMILES IDX 5 13 4 14 3 15 2 16 1 17
REMARK H PARENT
REMARK Flexibility Score: inf
ROOT
ATOM      1  C   UNL     1     -20.336  16.388 -22.530  1.00  0.00     0.000 C 
ENDROOT
BRANCH   1   2
ATOM      2  C   UNL     1     -20.645  15.336 -23.606  1.00  0.00     0.000 C 
BRANCH   2   3
ATOM      3  C   UNL     1     -20.451  13.896 -23.098  1.00  0.00     0.000 C 
BRANCH   3   4
ATOM      4  C   UNL     1     -19.915  13.845 -21.658  1.00  0.00     0.000 C 
BRANCH   4   5
ATOM      5  C   UNL     1     -20.698  12.865 -20.767  1.00  0.00     0.006 C 
BRANCH   5   6
ATOM      6  C   UNL     1     -21.607  13.591 -19.767  1.00  0.00     0.053 C 
BRANCH   6   7
ATOM      7  C   UNL     1     -23.048  13.528 -20.175  1.00  0.00     0.041 C 
ATOM      8  O   UNL     1     -23.570  12.424 -20.486  1.00  0.00    -0.550 OA
ATOM      9  O   UNL     1     -23.806  14.690 -20.242  1.00  0.00    -0.550 OA
ENDBRANCH   6   7
ENDBRANCH   5   6
ENDBRANCH   4   5
ENDBRANCH   3   4
ENDBRANCH   2   3
ENDBRANCH   1   2
BRANCH   1  10
ATOM     10  C   UNL     1     -21.591  17.128 -22.043  1.00  0.00     0.000 C 
BRANCH  10  11
ATOM     11  C   UNL     1     -22.808  16.770 -22.908  1.00  0.00    -0.000 C 
BRANCH  11  12
ATOM     12  C   UNL     1     -23.522  18.008 -23.481  1.00  0.00    -0.000 C 
BRANCH  12  13
ATOM     13  C   UNL     1     -22.758  19.337 -23.311  1.00  0.00    -0.000 C 
BRANCH  13  14
ATOM     14  C   UNL     1     -22.689  20.217 -24.575  1.00  0.00    -0.000 C 
BRANCH  14  15
ATOM     15  C   UNL     1     -21.358  20.142 -25.349  1.00  0.00    -0.000 C 
BRANCH  15  16
ATOM     16  C   UNL     1     -20.680  18.761 -25.338  1.00  0.00    -0.003 C 
ATOM     17  C   UNL     1     -21.002  17.930 -26.580  1.00  0.00     0.004 C 
ENDBRANCH  15  16
ENDBRANCH  14  15
ENDBRANCH  13  14
ENDBRANCH  12  13
ENDBRANCH  11  12
ENDBRANCH  10  11
ENDBRANCH   1  10
TORSDOF 13
ENDMDL
MODEL 6
REMARK VINA RESULT:    -4.163      5.112      7.437
REMARK INTER + INTRA:          -9.398
REMARK INTER:                  -7.759
REMARK INTRA:                  -1.639
REMARK UNBOUND:                -2.070
REMARK SMILES CCCCCCCCCCCCCCC(=O)[O-]
REMARK SMILES IDX 9 1 10 2 11 3 12 4 13 5 14 6 15 7 16 8 17 9 8 10 7 11 6 12
REMARK SMILES IDX 5 13 4 14 3 15 2 16 1 17
REMARK H PARENT
REMARK Flexibility Score: inf
ROOT
ATOM      1  C   UNL     1     -21.419  16.587 -21.809  1.00  0.00     0.000 C 
ENDROOT
BRANCH   1   2
ATOM      2  C   UNL     1     -22.600  15.641 -21.542  1.00  0.00     0.000 C 
BRANCH   2   3
ATOM      3  C   UNL     1     -23.878  16.393 -21.128  1.00  0.00     0.000 C 
BRANCH   3   4
ATOM      4  C   UNL     1     -25.119  15.487 -21.118  1.00  0.00     0.000 C 
BRANCH   4   5
ATOM      5  C   UNL     1     -24.865  14.139 -20.421  1.00  0.00     0.006 C 
BRANCH   5   6
ATOM      6  C   UNL     1     -24.869  14.269 -18.892  1.00  0.00     0.053 C 
BRANCH   6   7
ATOM      7  C   UNL     1     -23.816  13.412 -18.257  1.00  0.00     0.041 C 
ATOM      8  O   UNL     1     -23.954  13.015 -17.069  1.00  0.00    -0.550 OA
ATOM      9  O   UNL     1     -22.670  13.076 -18.965  1.00  0.00    -0.550 OA
ENDBRANCH   6   7
ENDBRANCH   5   6
ENDBRANCH   4   5
ENDBRANCH   3   4
ENDBRANCH   2   3
ENDBRANCH   1   2
BRANCH   1  10
ATOM     10  C   UNL     1     -20.294  15.921 -22.615  1.00  0.00     0.000 C 
BRANCH  10  11
ATOM     11  C   UNL     1     -20.626  15.911 -24.115  1.00  0.00    -0.000 C 
BRANCH  11  12
ATOM     12  C   UNL     1     -20.986  17.307 -24.658  1.00  0.00    -0.000 C 
BRANCH  12  13
ATOM     13  C   UNL     1     -22.384  17.416 -25.299  1.00  0.00    -0.000 C 
BRANCH  13  14
ATOM     14  C   UNL     1     -23.390  18.293 -24.529  1.00  0.00    -0.000 C 
BRANCH  14  15
ATOM     15  C   UNL     1     -22.757  19.344 -23.595  1.00  0.00    -0.000 C 
BRANCH  15  16
ATOM     16  C   UNL     1     -23.661  19.809 -22.439  1.00  0.00    -0.003 C 
ATOM     17  C   UNL     1     -22.872  20.326 -21.236  1.00  0.00     0.004 C 
ENDBRANCH  15  16
ENDBRANCH  14  15
ENDBRANCH  13  14
ENDBRANCH  12  13
ENDBRANCH  11  12
ENDBRANCH  10  11
ENDBRANCH   1  10
TORSDOF 13
ENDMDL
MODEL 7
REMARK VINA RESULT:    -4.143      4.237      6.245
REMARK INTER + INTRA:          -9.361
REMARK INTER:                  -7.694
REMARK INTRA:                  -1.668
REMARK UNBOUND:                -2.070
REMARK SMILES CCCCCCCCCCCCCCC(=O)[O-]
REMARK SMILES IDX 9 1 10 2 11 3 12 4 13 5 14 6 15 7 16 8 17 9 8 10 7 11 6 12
REMARK SMILES IDX 5 13 4 14 3 15 2 16 1 17
REMARK H PARENT
REMARK Flexibility Score: inf
ROOT
ATOM      1  C   UNL     1     -23.287  18.498 -21.796  1.00  0.00     0.000 C 
ENDROOT
BRANCH   1   2
ATOM      2  C   UNL     1     -24.772  18.144 -21.614  1.00  0.00     0.000 C 
BRANCH   2   3
ATOM      3  C   UNL     1     -25.020  16.624 -21.608  1.00  0.00     0.000 C 
BRANCH   3   4
ATOM      4  C   UNL     1     -23.756  15.822 -21.259  1.00  0.00     0.000 C 
BRANCH   4   5
ATOM      5  C   UNL     1     -24.053  14.605 -20.366  1.00  0.00     0.006 C 
BRANCH   5   6
ATOM      6  C   UNL     1     -23.368  13.330 -20.878  1.00  0.00     0.053 C 
BRANCH   6   7
ATOM      7  C   UNL     1     -21.878  13.483 -20.936  1.00  0.00     0.041 C 
ATOM      8  O   UNL     1     -21.245  13.123 -21.964  1.00  0.00    -0.550 OA
ATOM      9  O   UNL     1     -21.187  13.993 -19.845  1.00  0.00    -0.550 OA
ENDBRANCH   6   7
ENDBRANCH   5   6
ENDBRANCH   4   5
ENDBRANCH   3   4
ENDBRANCH   2   3
ENDBRANCH   1   2
BRANCH   1  10
ATOM     10  C   UNL     1     -23.030  20.012 -21.769  1.00  0.00     0.000 C 
BRANCH  10  11
ATOM     11  C   UNL     1     -22.922  20.576 -23.193  1.00  0.00    -0.000 C 
BRANCH  11  12
ATOM     12  C   UNL     1     -22.697  19.483 -24.255  1.00  0.00    -0.000 C 
BRANCH  12  13
ATOM     13  C   UNL     1     -21.368  19.590 -25.029  1.00  0.00    -0.000 C 
BRANCH  13  14
ATOM     14  C   UNL     1     -20.474  18.337 -24.968  1.00  0.00    -0.000 C 
BRANCH  14  15
ATOM     15  C   UNL     1     -21.224  16.994 -25.076  1.00  0.00    -0.000 C 
BRANCH  15  16
ATOM     16  C   UNL     1     -21.181  16.126 -23.807  1.00  0.00    -0.003 C 
ATOM     17  C   UNL     1     -20.217  16.664 -22.749  1.00  0.00     0.004 C 
ENDBRANCH  15  16
ENDBRANCH  14  15
ENDBRANCH  13  14
ENDBRANCH  12  13
ENDBRANCH  11  12
ENDBRANCH  10  11
ENDBRANCH   1  10
TORSDOF 13
ENDMDL
MODEL 8
REMARK VINA RESULT:    -4.124      1.159      2.439
REMARK INTER + INTRA:          -9.329
REMARK INTER:                  -7.705
REMARK INTRA:                  -1.624
REMARK UNBOUND:                -2.070
REMARK SMILES CCCCCCCCCCCCCCC(=O)[O-]
REMARK SMILES IDX 9 1 10 2 11 3 12 4 13 5 14 6 15 7 16 8 17 9 8 10 7 11 6 12
REMARK SMILES IDX 5 13 4 14 3 15 2 16 1 17
REMARK H PARENT
REMARK Flexibility Score: inf
ROOT
ATOM      1  C   UNL     1     -23.213  20.798 -22.399  1.00  0.00     0.000 C 
ENDROOT
BRANCH   1   2
ATOM      2  C   UNL     1     -22.841  20.727 -23.888  1.00  0.00     0.000 C 
BRANCH   2   3
ATOM      3  C   UNL     1     -22.984  22.086 -24.598  1.00  0.00     0.000 C 
BRANCH   3   4
ATOM      4  C   UNL     1     -22.714  23.273 -23.659  1.00  0.00     0.000 C 
BRANCH   4   5
ATOM      5  C   UNL     1     -21.492  24.104 -24.088  1.00  0.00     0.006 C 
BRANCH   5   6
ATOM      6  C   UNL     1     -20.752  23.473 -25.275  1.00  0.00     0.053 C 
BRANCH   6   7
ATOM      7  C   UNL     1     -20.748  24.374 -26.473  1.00  0.00     0.041 C 
ATOM      8  O   UNL     1     -21.836  24.767 -26.974  1.00  0.00    -0.550 OA
ATOM      9  O   UNL     1     -19.546  24.756 -27.054  1.00  0.00    -0.550 OA
ENDBRANCH   6   7
ENDBRANCH   5   6
ENDBRANCH   4   5
ENDBRANCH   3   4
ENDBRANCH   2   3
ENDBRANCH   1   2
BRANCH   1  10
ATOM     10  C   UNL     1     -22.839  19.521 -21.631  1.00  0.00     0.000 C 
BRANCH  10  11
ATOM     11  C   UNL     1     -23.651  18.320 -22.137  1.00  0.00    -0.000 C 
BRANCH  11  12
ATOM     12  C   UNL     1     -22.885  16.989 -22.025  1.00  0.00    -0.000 C 
BRANCH  12  13
ATOM     13  C   UNL     1     -21.349  17.117 -22.052  1.00  0.00    -0.000 C 
BRANCH  13  14
ATOM     14  C   UNL     1     -20.685  16.745 -23.392  1.00  0.00    -0.000 C 
BRANCH  14  15
ATOM     15  C   UNL     1     -20.390  17.935 -24.326  1.00  0.00    -0.000 C 
BRANCH  15  16
ATOM     16  C   UNL     1     -21.032  17.836 -25.721  1.00  0.00    -0.003 C 
ATOM     17  C   UNL     1     -22.531  17.541 -25.667  1.00  0.00     0.004 C 
ENDBRANCH  15  16
ENDBRANCH  14  15
ENDBRANCH  13  14
ENDBRANCH  12  13
ENDBRANCH  11  12
ENDBRANCH  10  11
ENDBRANCH   1  10
TORSDOF 13
ENDMDL
MODEL 9
REMARK VINA RESULT:    -4.120      1.419      2.987
REMARK INTER + INTRA:          -9.322
REMARK INTER:                  -7.462
REMARK INTRA:                  -1.860
REMARK UNBOUND:                -2.070
REMARK SMILES CCCCCCCCCCCCCCC(=O)[O-]
REMARK SMILES IDX 9 1 10 2 11 3 12 4 13 5 14 6 15 7 16 8 17 9 8 10 7 11 6 12
REMARK SMILES IDX 5 13 4 14 3 15 2 16 1 17
REMARK H PARENT
REMARK Flexibility Score: inf
ROOT
ATOM      1  C   UNL     1     -24.361  17.107 -22.460  1.00  0.00     0.000 C 
ENDROOT
BRANCH   1   2
ATOM      2  C   UNL     1     -24.307  18.634 -22.299  1.00  0.00     0.000 C 
BRANCH   2   3
ATOM      3  C   UNL     1     -23.014  19.110 -21.611  1.00  0.00     0.000 C 
BRANCH   3   4
ATOM      4  C   UNL     1     -23.042  20.609 -21.273  1.00  0.00     0.000 C 
BRANCH   4   5
ATOM      5  C   UNL     1     -23.850  21.432 -22.293  1.00  0.00     0.006 C 
BRANCH   5   6
ATOM      6  C   UNL     1     -23.091  22.682 -22.759  1.00  0.00     0.053 C 
BRANCH   6   7
ATOM      7  C   UNL     1     -23.224  22.897 -24.236  1.00  0.00     0.041 C 
ATOM      8  O   UNL     1     -24.338  23.214 -24.732  1.00  0.00    -0.550 OA
ATOM      9  O   UNL     1     -22.126  22.717 -25.068  1.00  0.00    -0.550 OA
ENDBRANCH   6   7
ENDBRANCH   5   6
ENDBRANCH   4   5
ENDBRANCH   3   4
ENDBRANCH   2   3
ENDBRANCH   1   2
BRANCH   1  10
ATOM     10  C   UNL     1     -23.924  16.359 -21.192  1.00  0.00     0.000 C 
BRANCH  10  11
ATOM     11  C   UNL     1     -22.813  15.346 -21.509  1.00  0.00    -0.000 C 
BRANCH  11  12
ATOM     12  C   UNL     1     -21.414  15.988 -21.562  1.00  0.00    -0.000 C 
BRANCH  12  13
ATOM     13  C   UNL     1     -20.613  15.698 -22.846  1.00  0.00    -0.000 C 
BRANCH  13  14
ATOM     14  C   UNL     1     -20.595  16.844 -23.878  1.00  0.00    -0.000 C 
BRANCH  14  15
ATOM     15  C   UNL     1     -21.625  16.712 -25.017  1.00  0.00    -0.000 C 
BRANCH  15  16
ATOM     16  C   UNL     1     -22.328  18.024 -25.407  1.00  0.00    -0.003 C 
ATOM     17  C   UNL     1     -21.538  19.268 -24.999  1.00  0.00     0.004 C 
ENDBRANCH  15  16
ENDBRANCH  14  15
ENDBRANCH  13  14
ENDBRANCH  12  13
ENDBRANCH  11  12
ENDBRANCH  10  11
ENDBRANCH   1  10
TORSDOF 13
ENDMDL
