MODEL 1
REMARK VINA RESULT:    -4.671      0.000      0.000
REMARK INTER + INTRA:          -9.470
REMARK INTER:                  -8.494
REMARK INTRA:                  -0.976
REMARK UNBOUND:                -0.976
REMARK SMILES CCCCCCCCCCCCCC[C@H](C)C(=O)[O-]
REMARK SMILES IDX 9 1 10 2 11 3 12 4 13 5 14 6 15 7 16 8 17 9 18 10 19 11 8 12
REMARK SMILES IDX 7 13 6 14 5 15 4 16 3 17 2 18 1 19
REMARK H PARENT
REMARK Flexibility Score: inf
ROOT
ATOM      1  C   UNL     1      44.190  27.105   2.632  1.00  0.00     0.000 C 
ENDROOT
BRANCH   1   2
ATOM      2  C   UNL     1      44.560  28.596   2.733  1.00  0.00     0.000 C 
BRANCH   2   3
ATOM      3  C   UNL     1      45.583  29.035   1.674  1.00  0.00     0.000 C 
BRANCH   3   4
ATOM      4  C   UNL     1      45.648  28.026   0.521  1.00  0.00     0.000 C 
BRANCH   4   5
ATOM      5  C   UNL     1      45.455  28.722  -0.833  1.00  0.00     0.001 C 
BRANCH   5   6
ATOM      6  C   UNL     1      45.148  27.747  -1.989  1.00  0.00     0.009 C 
BRANCH   6   7
ATOM      7  C   UNL     1      44.550  28.364  -3.279  1.00  0.00     0.032 C 
ATOM      8  C   UNL     1      43.894  29.731  -3.036  1.00  0.00     0.014 C 
BRANCH   7   9
ATOM      9  C   UNL     1      43.631  27.408  -4.000  1.00  0.00     0.044 C 
ATOM     10  O   UNL     1      43.197  27.701  -5.146  1.00  0.00    -0.550 OA
ATOM     11  O   UNL     1      43.230  26.214  -3.411  1.00  0.00    -0.550 OA
ENDBRANCH   7   9
ENDBRANCH   6   7
ENDBRANCH   5   6
ENDBRANCH   4   5
ENDBRANCH   3   4
ENDBRANCH   2   3
ENDBRANCH   1   2
BRANCH   1  12
ATOM     12  C   UNL     1      44.658  26.230   3.809  1.00  0.00     0.000 C 
BRANCH  12  13
ATOM     13  C   UNL     1      46.186  26.064   3.863  1.00  0.00    -0.000 C 
BRANCH  13  14
ATOM     14  C   UNL     1      46.770  26.395   5.246  1.00  0.00    -0.000 C 
BRANCH  14  15
ATOM     15  C   UNL     1      46.046  27.554   5.964  1.00  0.00    -0.000 C 
BRANCH  15  16
ATOM     16  C   UNL     1      45.838  27.268   7.462  1.00  0.00    -0.000 C 
BRANCH  16  17
ATOM     17  C   UNL     1      45.332  28.508   8.231  1.00  0.00    -0.000 C 
BRANCH  17  18
ATOM     18  C   UNL     1      45.028  28.234   9.713  1.00  0.00    -0.003 C 
ATOM     19  C   UNL     1      44.367  29.417  10.417  1.00  0.00     0.004 C 
ENDBRANCH  17  18
ENDBRANCH  16  17
ENDBRANCH  15  16
ENDBRANCH  14  15
ENDBRANCH  13  14
ENDBRANCH  12  13
ENDBRANCH   1  12
TORSDOF 14
ENDMDL
MODEL 2
REMARK VINA RESULT:    -4.537      4.583      9.622
REMARK INTER + INTRA:          -9.226
REMARK INTER:                  -8.016
REMARK INTRA:                  -1.210
REMARK UNBOUND:                -0.976
REMARK SMILES CCCCCCCCCCCCCC[C@H](C)C(=O)[O-]
REMARK SMILES IDX 9 1 10 2 11 3 12 4 13 5 14 6 15 7 16 8 17 9 18 10 19 11 8 12
REMARK SMILES IDX 7 13 6 14 5 15 4 16 3 17 2 18 1 19
REMARK H PARENT
REMARK Flexibility Score: inf
ROOT
ATOM      1  C   UNL     1      44.819  26.122   3.949  1.00  0.00     0.000 C 
ENDROOT
BRANCH   1   2
ATOM      2  C   UNL     1      46.356  26.030   3.951  1.00  0.00     0.000 C 
BRANCH   2   3
ATOM      3  C   UNL     1      47.008  26.889   5.046  1.00  0.00     0.000 C 
BRANCH   3   4
ATOM      4  C   UNL     1      46.025  27.158   6.192  1.00  0.00     0.000 C 
BRANCH   4   5
ATOM      5  C   UNL     1      45.936  28.658   6.502  1.00  0.00     0.001 C 
BRANCH   5   6
ATOM      6  C   UNL     1      46.181  28.997   7.986  1.00  0.00     0.009 C 
BRANCH   6   7
ATOM      7  C   UNL     1      45.077  28.574   8.989  1.00  0.00     0.032 C 
ATOM      8  C   UNL     1      44.584  29.740   9.858  1.00  0.00     0.014 C 
BRANCH   7   9
ATOM      9  C   UNL     1      45.479  27.375   9.813  1.00  0.00     0.044 C 
ATOM     10  O   UNL     1      45.051  26.231   9.505  1.00  0.00    -0.550 OA
ATOM     11  O   UNL     1      46.298  27.512  10.929  1.00  0.00    -0.550 OA
ENDBRANCH   7   9
ENDBRANCH   6   7
ENDBRANCH   5   6
ENDBRANCH   4   5
ENDBRANCH   3   4
ENDBRANCH   2   3
ENDBRANCH   1   2
BRANCH   1  12
ATOM     12  C   UNL     1      44.210  26.914   2.777  1.00  0.00     0.000 C 
BRANCH  12  13
ATOM     13  C   UNL     1      44.340  28.437   2.950  1.00  0.00    -0.000 C 
BRANCH  13  14
ATOM     14  C   UNL     1      45.207  29.085   1.858  1.00  0.00    -0.000 C 
BRANCH  14  15
ATOM     15  C   UNL     1      45.737  28.083   0.810  1.00  0.00    -0.000 C 
BRANCH  15  16
ATOM     16  C   UNL     1      45.708  28.665  -0.614  1.00  0.00    -0.000 C 
BRANCH  16  17
ATOM     17  C   UNL     1      45.302  27.613  -1.669  1.00  0.00    -0.000 C 
BRANCH  17  18
ATOM     18  C   UNL     1      45.293  28.154  -3.109  1.00  0.00    -0.003 C 
ATOM     19  C   UNL     1      43.886  28.433  -3.634  1.00  0.00     0.004 C 
ENDBRANCH  17  18
ENDBRANCH  16  17
ENDBRANCH  15  16
ENDBRANCH  14  15
ENDBRANCH  13  14
ENDBRANCH  12  13
ENDBRANCH   1  12
TORSDOF 14
ENDMDL
MODEL 3
REMARK VINA RESULT:    -4.504      0.801      1.433
REMARK INTER + INTRA:          -9.166
REMARK INTER:                  -7.977
REMARK INTRA:                  -1.189
REMARK UNBOUND:                -0.976
REMARK SMILES CCCCCCCCCCCCCC[C@H](C)C(=O)[O-]
REMARK SMILES IDX 9 1 10 2 11 3 12 4 13 5 14 6 15 7 16 8 17 9 18 10 19 11 8 12
REMARK SMILES IDX 7 13 6 14 5 15 4 16 3 17 2 18 1 19
REMARK H PARENT
REMARK Flexibility Score: inf
ROOT
ATOM      1  C   UNL     1      44.587  28.396   3.100  1.00  0.00     0.000 C 
ENDROOT
BRANCH   1   2
ATOM      2  C   UNL     1      45.158  28.990   1.799  1.00  0.00     0.000 C 
BRANCH   2   3
ATOM      3  C   UNL     1      45.426  27.929   0.720  1.00  0.00     0.000 C 
BRANCH   3   4
ATOM      4  C   UNL     1      46.605  28.338  -0.172  1.00  0.00     0.000 C 
BRANCH   4   5
ATOM      5  C   UNL     1      46.114  28.876  -1.522  1.00  0.00     0.001 C 
BRANCH   5   6
ATOM      6  C   UNL     1      45.259  27.866  -2.314  1.00  0.00     0.009 C 
BRANCH   6   7
ATOM      7  C   UNL     1      44.397  28.438  -3.469  1.00  0.00     0.032 C 
ATOM      8  C   UNL     1      43.532  29.629  -3.032  1.00  0.00     0.014 C 
BRANCH   7   9
ATOM      9  C   UNL     1      43.591  27.370  -4.167  1.00  0.00     0.044 C 
ATOM     10  O   UNL     1      43.258  26.329  -3.542  1.00  0.00    -0.550 OA
ATOM     11  O   UNL     1      43.226  27.503  -5.503  1.00  0.00    -0.550 OA
ENDBRANCH   7   9
ENDBRANCH   6   7
ENDBRANCH   5   6
ENDBRANCH   4   5
ENDBRANCH   3   4
ENDBRANCH   2   3
ENDBRANCH   1   2
BRANCH   1  12
ATOM     12  C   UNL     1      44.153  26.922   3.014  1.00  0.00     0.000 C 
BRANCH  12  13
ATOM     13  C   UNL     1      44.873  26.023   4.034  1.00  0.00    -0.000 C 
BRANCH  13  14
ATOM     14  C   UNL     1      46.404  26.144   3.953  1.00  0.00    -0.000 C 
BRANCH  14  15
ATOM     15  C   UNL     1      47.061  26.592   5.277  1.00  0.00    -0.000 C 
BRANCH  15  16
ATOM     16  C   UNL     1      46.023  26.836   6.386  1.00  0.00    -0.000 C 
BRANCH  16  17
ATOM     17  C   UNL     1      46.080  28.278   6.935  1.00  0.00    -0.000 C 
BRANCH  17  18
ATOM     18  C   UNL     1      45.244  28.487   8.208  1.00  0.00    -0.003 C 
ATOM     19  C   UNL     1      45.433  27.375   9.237  1.00  0.00     0.004 C 
ENDBRANCH  17  18
ENDBRANCH  16  17
ENDBRANCH  15  16
ENDBRANCH  14  15
ENDBRANCH  13  14
ENDBRANCH  12  13
ENDBRANCH   1  12
TORSDOF 14
ENDMDL
MODEL 4
REMARK VINA RESULT:    -4.376      1.553      1.852
REMARK INTER + INTRA:          -8.933
REMARK INTER:                  -7.622
REMARK INTRA:                  -1.311
REMARK UNBOUND:                -0.976
REMARK SMILES CCCCCCCCCCCCCC[C@H](C)C(=O)[O-]
REMARK SMILES IDX 9 1 10 2 11 3 12 4 13 5 14 6 15 7 16 8 17 9 18 10 19 11 8 12
REMARK SMILES IDX 7 13 6 14 5 15 4 16 3 17 2 18 1 19
REMARK H PARENT
REMARK Flexibility Score: inf
ROOT
ATOM      1  C   UNL     1      44.162  26.786   3.116  1.00  0.00     0.000 C 
ENDROOT
BRANCH   1   2
ATOM      2  C   UNL     1      45.052  27.533   2.107  1.00  0.00     0.000 C 
BRANCH   2   3
ATOM      3  C   UNL     1      44.918  29.061   2.201  1.00  0.00     0.000 C 
BRANCH   3   4
ATOM      4  C   UNL     1      46.235  29.752   1.826  1.00  0.00     0.000 C 
BRANCH   4   5
ATOM      5  C   UNL     1      46.567  29.539   0.343  1.00  0.00     0.001 C 
BRANCH   5   6
ATOM      6  C   UNL     1      45.382  29.823  -0.601  1.00  0.00     0.009 C 
BRANCH   6   7
ATOM      7  C   UNL     1      45.402  29.109  -1.978  1.00  0.00     0.032 C 
ATOM      8  C   UNL     1      44.130  29.366  -2.799  1.00  0.00     0.014 C 
BRANCH   7   9
ATOM      9  C   UNL     1      45.718  27.638  -1.856  1.00  0.00     0.044 C 
ATOM     10  O   UNL     1      46.731  27.166  -2.438  1.00  0.00    -0.550 OA
ATOM     11  O   UNL     1      44.894  26.784  -1.131  1.00  0.00    -0.550 OA
ENDBRANCH   7   9
ENDBRANCH   6   7
ENDBRANCH   5   6
ENDBRANCH   4   5
ENDBRANCH   3   4
ENDBRANCH   2   3
ENDBRANCH   1   2
BRANCH   1  12
ATOM     12  C   UNL     1      44.916  25.934   4.154  1.00  0.00     0.000 C 
BRANCH  12  13
ATOM     13  C   UNL     1      46.444  26.050   4.029  1.00  0.00    -0.000 C 
BRANCH  13  14
ATOM     14  C   UNL     1      47.069  26.894   5.153  1.00  0.00    -0.000 C 
BRANCH  14  15
ATOM     15  C   UNL     1      46.056  27.341   6.229  1.00  0.00    -0.000 C 
BRANCH  15  16
ATOM     16  C   UNL     1      46.048  28.868   6.419  1.00  0.00    -0.000 C 
BRANCH  16  17
ATOM     17  C   UNL     1      45.367  29.291   7.738  1.00  0.00    -0.000 C 
BRANCH  17  18
ATOM     18  C   UNL     1      45.313  28.173   8.792  1.00  0.00    -0.003 C 
ATOM     19  C   UNL     1      44.643  28.609  10.094  1.00  0.00     0.004 C 
ENDBRANCH  17  18
ENDBRANCH  16  17
ENDBRANCH  15  16
ENDBRANCH  14  15
ENDBRANCH  13  14
ENDBRANCH  12  13
ENDBRANCH   1  12
TORSDOF 14
ENDMDL
MODEL 5
REMARK VINA RESULT:    -4.347      1.141      1.760
REMARK INTER + INTRA:          -8.880
REMARK INTER:                  -8.026
REMARK INTRA:                  -0.854
REMARK UNBOUND:                -0.976
REMARK SMILES CCCCCCCCCCCCCC[C@H](C)C(=O)[O-]
REMARK SMILES IDX 9 1 10 2 11 3 12 4 13 5 14 6 15 7 16 8 17 9 18 10 19 11 8 12
REMARK SMILES IDX 7 13 6 14 5 15 4 16 3 17 2 18 1 19
REMARK H PARENT
REMARK Flexibility Score: inf
ROOT
ATOM      1  C   UNL     1      45.451  27.963   2.506  1.00  0.00     0.000 C 
ENDROOT
BRANCH   1   2
ATOM      2  C   UNL     1      45.780  27.853   1.006  1.00  0.00     0.000 C 
BRANCH   2   3
ATOM      3  C   UNL     1      45.586  29.176   0.249  1.00  0.00     0.000 C 
BRANCH   3   4
ATOM      4  C   UNL     1      46.144  29.080  -1.177  1.00  0.00     0.000 C 
BRANCH   4   5
ATOM      5  C   UNL     1      45.607  27.836  -1.897  1.00  0.00     0.001 C 
BRANCH   5   6
ATOM      6  C   UNL     1      44.371  28.118  -2.776  1.00  0.00     0.009 C 
BRANCH   6   7
ATOM      7  C   UNL     1      44.314  27.398  -4.148  1.00  0.00     0.032 C 
ATOM      8  C   UNL     1      45.631  27.503  -4.930  1.00  0.00     0.014 C 
BRANCH   7   9
ATOM      9  C   UNL     1      43.124  27.825  -4.971  1.00  0.00     0.044 C 
ATOM     10  O   UNL     1      43.207  27.845  -6.228  1.00  0.00    -0.550 OA
ATOM     11  O   UNL     1      41.937  28.224  -4.366  1.00  0.00    -0.550 OA
ENDBRANCH   7   9
ENDBRANCH   6   7
ENDBRANCH   5   6
ENDBRANCH   4   5
ENDBRANCH   3   4
ENDBRANCH   2   3
ENDBRANCH   1   2
BRANCH   1  12
ATOM     12  C   UNL     1      44.360  27.000   3.011  1.00  0.00     0.000 C 
BRANCH  12  13
ATOM     13  C   UNL     1      44.874  26.017   4.076  1.00  0.00    -0.000 C 
BRANCH  13  14
ATOM     14  C   UNL     1      46.409  25.952   4.133  1.00  0.00    -0.000 C 
BRANCH  14  15
ATOM     15  C   UNL     1      46.996  26.335   5.509  1.00  0.00    -0.000 C 
BRANCH  15  16
ATOM     16  C   UNL     1      46.016  27.179   6.343  1.00  0.00    -0.000 C 
BRANCH  16  17
ATOM     17  C   UNL     1      45.966  26.732   7.820  1.00  0.00    -0.000 C 
BRANCH  17  18
ATOM     18  C   UNL     1      45.275  27.744   8.748  1.00  0.00    -0.003 C 
ATOM     19  C   UNL     1      45.237  29.157   8.170  1.00  0.00     0.004 C 
ENDBRANCH  17  18
ENDBRANCH  16  17
ENDBRANCH  15  16
ENDBRANCH  14  15
ENDBRANCH  13  14
ENDBRANCH  12  13
ENDBRANCH   1  12
TORSDOF 14
ENDMDL
MODEL 6
REMARK VINA RESULT:    -4.316      4.959     10.120
REMARK INTER + INTRA:          -8.825
REMARK INTER:                  -7.957
REMARK INTRA:                  -0.867
REMARK UNBOUND:                -0.976
REMARK SMILES CCCCCCCCCCCCCC[C@H](C)C(=O)[O-]
REMARK SMILES IDX 9 1 10 2 11 3 12 4 13 5 14 6 15 7 16 8 17 9 18 10 19 11 8 12
REMARK SMILES IDX 7 13 6 14 5 15 4 16 3 17 2 18 1 19
REMARK H PARENT
REMARK Flexibility Score: inf
ROOT
ATOM      1  C   UNL     1      44.527  27.209   3.385  1.00  0.00     0.000 C 
ENDROOT
BRANCH   1   2
ATOM      2  C   UNL     1      45.183  25.989   4.057  1.00  0.00     0.000 C 
BRANCH   2   3
ATOM      3  C   UNL     1      46.114  26.369   5.219  1.00  0.00     0.000 C 
BRANCH   3   4
ATOM      4  C   UNL     1      45.968  27.854   5.576  1.00  0.00     0.000 C 
BRANCH   4   5
ATOM      5  C   UNL     1      46.053  28.067   7.093  1.00  0.00     0.001 C 
BRANCH   5   6
ATOM      6  C   UNL     1      45.621  26.835   7.914  1.00  0.00     0.009 C 
BRANCH   6   7
ATOM      7  C   UNL     1      45.218  27.088   9.390  1.00  0.00     0.032 C 
ATOM      8  C   UNL     1      44.841  28.552   9.661  1.00  0.00     0.014 C 
BRANCH   7   9
ATOM      9  C   UNL     1      46.250  26.572  10.363  1.00  0.00     0.044 C 
ATOM     10  O   UNL     1      46.690  25.398  10.245  1.00  0.00    -0.550 OA
ATOM     11  O   UNL     1      46.709  27.364  11.410  1.00  0.00    -0.550 OA
ENDBRANCH   7   9
ENDBRANCH   6   7
ENDBRANCH   5   6
ENDBRANCH   4   5
ENDBRANCH   3   4
ENDBRANCH   2   3
ENDBRANCH   1   2
BRANCH   1  12
ATOM     12  C   UNL     1      44.925  27.445   1.917  1.00  0.00     0.000 C 
BRANCH  12  13
ATOM     13  C   UNL     1      45.446  28.868   1.657  1.00  0.00    -0.000 C 
BRANCH  13  14
ATOM     14  C   UNL     1      45.415  29.248   0.167  1.00  0.00    -0.000 C 
BRANCH  14  15
ATOM     15  C   UNL     1      46.155  28.246  -0.745  1.00  0.00    -0.000 C 
BRANCH  15  16
ATOM     16  C   UNL     1      45.229  27.647  -1.818  1.00  0.00    -0.000 C 
BRANCH  16  17
ATOM     17  C   UNL     1      45.152  28.529  -3.084  1.00  0.00    -0.000 C 
BRANCH  17  18
ATOM     18  C   UNL     1      43.778  29.186  -3.295  1.00  0.00    -0.003 C 
ATOM     19  C   UNL     1      42.815  28.312  -4.097  1.00  0.00     0.004 C 
ENDBRANCH  17  18
ENDBRANCH  16  17
ENDBRANCH  15  16
ENDBRANCH  14  15
ENDBRANCH  13  14
ENDBRANCH  12  13
ENDBRANCH   1  12
TORSDOF 14
ENDMDL
MODEL 7
REMARK VINA RESULT:    -4.289      4.279      9.560
REMARK INTER + INTRA:          -8.775
REMARK INTER:                  -7.715
REMARK INTRA:                  -1.059
REMARK UNBOUND:                -0.976
REMARK SMILES CCCCCCCCCCCCCC[C@H](C)C(=O)[O-]
REMARK SMILES IDX 9 1 10 2 11 3 12 4 13 5 14 6 15 7 16 8 17 9 18 10 19 11 8 12
REMARK SMILES IDX 7 13 6 14 5 15 4 16 3 17 2 18 1 19
REMARK H PARENT
REMARK Flexibility Score: inf
ROOT
ATOM      1  C   UNL     1      44.756  28.310   2.987  1.00  0.00     0.000 C 
ENDROOT
BRANCH   1   2
ATOM      2  C   UNL     1      44.308  26.840   2.889  1.00  0.00     0.000 C 
BRANCH   2   3
ATOM      3  C   UNL     1      44.825  25.974   4.048  1.00  0.00     0.000 C 
BRANCH   3   4
ATOM      4  C   UNL     1      46.356  25.877   4.021  1.00  0.00     0.000 C 
BRANCH   4   5
ATOM      5  C   UNL     1      46.968  26.456   5.304  1.00  0.00     0.001 C 
BRANCH   5   6
ATOM      6  C   UNL     1      45.918  26.890   6.347  1.00  0.00     0.009 C 
BRANCH   6   7
ATOM      7  C   UNL     1      46.446  27.249   7.760  1.00  0.00     0.032 C 
ATOM      8  C   UNL     1      47.068  26.047   8.485  1.00  0.00     0.014 C 
BRANCH   7   9
ATOM      9  C   UNL     1      45.407  27.951   8.600  1.00  0.00     0.044 C 
ATOM     10  O   UNL     1      45.000  29.095   8.265  1.00  0.00    -0.550 OA
ATOM     11  O   UNL     1      44.906  27.367   9.758  1.00  0.00    -0.550 OA
ENDBRANCH   7   9
ENDBRANCH   6   7
ENDBRANCH   5   6
ENDBRANCH   4   5
ENDBRANCH   3   4
ENDBRANCH   2   3
ENDBRANCH   1   2
BRANCH   1  12
ATOM     12  C   UNL     1      45.185  28.957   1.657  1.00  0.00     0.000 C 
BRANCH  12  13
ATOM     13  C   UNL     1      45.652  27.929   0.613  1.00  0.00    -0.000 C 
BRANCH  13  14
ATOM     14  C   UNL     1      46.131  28.586  -0.692  1.00  0.00    -0.000 C 
BRANCH  14  15
ATOM     15  C   UNL     1      45.005  29.283  -1.485  1.00  0.00    -0.000 C 
BRANCH  15  16
ATOM     16  C   UNL     1      44.911  28.769  -2.932  1.00  0.00    -0.000 C 
BRANCH  16  17
ATOM     17  C   UNL     1      44.589  27.260  -2.999  1.00  0.00    -0.000 C 
BRANCH  17  18
ATOM     18  C   UNL     1      43.424  26.918  -3.942  1.00  0.00    -0.003 C 
ATOM     19  C   UNL     1      42.471  28.091  -4.164  1.00  0.00     0.004 C 
ENDBRANCH  17  18
ENDBRANCH  16  17
ENDBRANCH  15  16
ENDBRANCH  14  15
ENDBRANCH  13  14
ENDBRANCH  12  13
ENDBRANCH   1  12
TORSDOF 14
ENDMDL
MODEL 8
REMARK VINA RESULT:    -3.867      3.928      9.405
REMARK INTER + INTRA:          -8.007
REMARK INTER:                  -6.364
REMARK INTRA:                  -1.643
REMARK UNBOUND:                -0.976
REMARK SMILES CCCCCCCCCCCCCC[C@H](C)C(=O)[O-]
REMARK SMILES IDX 9 1 10 2 11 3 12 4 13 5 14 6 15 7 16 8 17 9 18 10 19 11 8 12
REMARK SMILES IDX 7 13 6 14 5 15 4 16 3 17 2 18 1 19
REMARK H PARENT
REMARK Flexibility Score: inf
ROOT
ATOM      1  C   UNL     1      45.360  27.893  -2.360  1.00  0.00     0.000 C 
ENDROOT
BRANCH   1   2
ATOM      2  C   UNL     1      44.981  29.365  -2.116  1.00  0.00     0.000 C 
BRANCH   2   3
ATOM      3  C   UNL     1      45.292  29.838  -0.687  1.00  0.00     0.000 C 
BRANCH   3   4
ATOM      4  C   UNL     1      46.620  29.252  -0.192  1.00  0.00     0.000 C 
BRANCH   4   5
ATOM      5  C   UNL     1      46.462  28.626   1.200  1.00  0.00     0.001 C 
BRANCH   5   6
ATOM      6  C   UNL     1      45.301  27.615   1.293  1.00  0.00     0.009 C 
BRANCH   6   7
ATOM      7  C   UNL     1      44.447  27.651   2.587  1.00  0.00     0.032 C 
ATOM      8  C   UNL     1      44.070  29.079   3.009  1.00  0.00     0.014 C 
BRANCH   7   9
ATOM      9  C   UNL     1      45.078  26.869   3.713  1.00  0.00     0.044 C 
ATOM     10  O   UNL     1      45.041  25.610   3.697  1.00  0.00    -0.550 OA
ATOM     11  O   UNL     1      45.682  27.514   4.786  1.00  0.00    -0.550 OA
ENDBRANCH   7   9
ENDBRANCH   6   7
ENDBRANCH   5   6
ENDBRANCH   4   5
ENDBRANCH   3   4
ENDBRANCH   2   3
ENDBRANCH   1   2
BRANCH   1  12
ATOM     12  C   UNL     1      46.396  27.657  -3.474  1.00  0.00     0.000 C 
BRANCH  12  13
ATOM     13  C   UNL     1      45.771  27.113  -4.770  1.00  0.00    -0.000 C 
BRANCH  13  14
ATOM     14  C   UNL     1      45.972  28.057  -5.967  1.00  0.00    -0.000 C 
BRANCH  14  15
ATOM     15  C   UNL     1      45.512  29.506  -5.700  1.00  0.00    -0.000 C 
BRANCH  15  16
ATOM     16  C   UNL     1      44.299  29.897  -6.562  1.00  0.00    -0.000 C 
BRANCH  16  17
ATOM     17  C   UNL     1      43.275  28.747  -6.689  1.00  0.00    -0.000 C 
BRANCH  17  18
ATOM     18  C   UNL     1      42.077  28.880  -5.735  1.00  0.00    -0.003 C 
ATOM     19  C   UNL     1      42.281  28.142  -4.413  1.00  0.00     0.004 C 
ENDBRANCH  17  18
ENDBRANCH  16  17
ENDBRANCH  15  16
ENDBRANCH  14  15
ENDBRANCH  13  14
ENDBRANCH  12  13
ENDBRANCH   1  12
TORSDOF 14
ENDMDL
MODEL 9
REMARK VINA RESULT:    -3.779      4.009      9.736
REMARK INTER + INTRA:          -7.847
REMARK INTER:                  -6.568
REMARK INTRA:                  -1.279
REMARK UNBOUND:                -0.976
REMARK SMILES CCCCCCCCCCCCCC[C@H](C)C(=O)[O-]
REMARK SMILES IDX 9 1 10 2 11 3 12 4 13 5 14 6 15 7 16 8 17 9 18 10 19 11 8 12
REMARK SMILES IDX 7 13 6 14 5 15 4 16 3 17 2 18 1 19
REMARK H PARENT
REMARK Flexibility Score: inf
ROOT
ATOM      1  C   UNL     1      45.022  28.297  -2.627  1.00  0.00     0.000 C 
ENDROOT
BRANCH   1   2
ATOM      2  C   UNL     1      46.316  28.383  -1.797  1.00  0.00     0.000 C 
BRANCH   2   3
ATOM      3  C   UNL     1      46.068  28.286  -0.284  1.00  0.00     0.000 C 
BRANCH   3   4
ATOM      4  C   UNL     1      45.461  29.587   0.257  1.00  0.00     0.000 C 
BRANCH   4   5
ATOM      5  C   UNL     1      45.129  29.461   1.750  1.00  0.00     0.001 C 
BRANCH   5   6
ATOM      6  C   UNL     1      45.962  28.386   2.478  1.00  0.00     0.009 C 
BRANCH   6   7
ATOM      7  C   UNL     1      45.256  27.035   2.764  1.00  0.00     0.032 C 
ATOM      8  C   UNL     1      43.730  27.170   2.861  1.00  0.00     0.014 C 
BRANCH   7   9
ATOM      9  C   UNL     1      45.844  26.321   3.957  1.00  0.00     0.044 C 
ATOM     10  O   UNL     1      46.323  25.164   3.821  1.00  0.00    -0.550 OA
ATOM     11  O   UNL     1      45.846  26.909   5.217  1.00  0.00    -0.550 OA
ENDBRANCH   7   9
ENDBRANCH   6   7
ENDBRANCH   5   6
ENDBRANCH   4   5
ENDBRANCH   3   4
ENDBRANCH   2   3
ENDBRANCH   1   2
BRANCH   1  12
ATOM     12  C   UNL     1      44.458  29.648  -3.106  1.00  0.00     0.000 C 
BRANCH  12  13
ATOM     13  C   UNL     1      42.946  29.604  -3.382  1.00  0.00    -0.000 C 
BRANCH  13  14
ATOM     14  C   UNL     1      42.553  28.483  -4.358  1.00  0.00    -0.000 C 
BRANCH  14  15
ATOM     15  C   UNL     1      42.162  28.991  -5.762  1.00  0.00    -0.000 C 
BRANCH  15  16
ATOM     16  C   UNL     1      43.286  28.776  -6.790  1.00  0.00    -0.000 C 
BRANCH  16  17
ATOM     17  C   UNL     1      44.247  27.639  -6.380  1.00  0.00    -0.000 C 
BRANCH  17  18
ATOM     18  C   UNL     1      45.669  27.799  -6.942  1.00  0.00    -0.003 C 
ATOM     19  C   UNL     1      46.611  28.530  -5.988  1.00  0.00     0.004 C 
ENDBRANCH  17  18
ENDBRANCH  16  17
ENDBRANCH  15  16
ENDBRANCH  14  15
ENDBRANCH  13  14
ENDBRANCH  12  13
ENDBRANCH   1  12
TORSDOF 14
ENDMDL
