MODEL 1
REMARK VINA RESULT:    -5.758      0.000      0.000
REMARK INTER + INTRA:          -9.032
REMARK INTER:                  -8.451
REMARK INTRA:                  -0.581
REMARK UNBOUND:                -0.581
REMARK SMILES CCCOC(=O)c1ccccc1C(=O)OCCC
REMARK SMILES IDX 7 1 8 2 9 3 10 4 11 5 12 6 5 7 6 8 4 9 3 10 2 11 1 12 13 13
REMARK SMILES IDX 14 14 15 15 16 16 17 17 18 18
REMARK H PARENT
REMARK Flexibility Score: inf
ROOT
ATOM      1  C   UNL     1     136.200 124.083 138.810  1.00  0.00     0.074 A 
ATOM      2  C   UNL     1     137.297 124.149 137.934  1.00  0.00     0.016 A 
ATOM      3  C   UNL     1     138.590 123.884 138.389  1.00  0.00     0.001 A 
ATOM      4  C   UNL     1     138.806 123.548 139.723  1.00  0.00     0.001 A 
ATOM      5  C   UNL     1     137.734 123.499 140.615  1.00  0.00     0.016 A 
ATOM      6  C   UNL     1     136.426 123.786 140.184  1.00  0.00     0.074 A 
ENDROOT
BRANCH   1   7
ATOM      7  C   UNL     1     134.846 124.266 138.240  1.00  0.00     0.339 C 
ATOM      8  O   UNL     1     134.181 123.266 137.850  1.00  0.00    -0.246 OA
BRANCH   7   9
ATOM      9  O   UNL     1     134.334 125.559 138.081  1.00  0.00    -0.462 OA
BRANCH   9  10
ATOM     10  C   UNL     1     132.967 125.896 138.308  1.00  0.00     0.233 C 
BRANCH  10  11
ATOM     11  C   UNL     1     132.503 126.953 137.301  1.00  0.00     0.038 C 
ATOM     12  C   UNL     1     131.022 126.791 136.973  1.00  0.00     0.007 C 
ENDBRANCH  10  11
ENDBRANCH   9  10
ENDBRANCH   7   9
ENDBRANCH   1   7
BRANCH   6  13
ATOM     13  C   UNL     1     135.353 123.827 141.202  1.00  0.00     0.339 C 
ATOM     14  O   UNL     1     134.467 122.929 141.228  1.00  0.00    -0.246 OA
BRANCH  13  15
ATOM     15  O   UNL     1     135.293 124.901 142.097  1.00  0.00    -0.462 OA
BRANCH  15  16
ATOM     16  C   UNL     1     135.331 124.745 143.515  1.00  0.00     0.233 C 
BRANCH  16  17
ATOM     17  C   UNL     1     136.754 124.425 143.981  1.00  0.00     0.038 C 
ATOM     18  C   UNL     1     136.846 124.411 145.503  1.00  0.00     0.007 C 
ENDBRANCH  16  17
ENDBRANCH  15  16
ENDBRANCH  13  15
ENDBRANCH   6  13
TORSDOF 8
ENDMDL
MODEL 2
REMARK VINA RESULT:    -5.682      0.095      5.453
REMARK INTER + INTRA:          -8.920
REMARK INTER:                  -8.355
REMARK INTRA:                  -0.565
REMARK UNBOUND:                -0.581
REMARK SMILES CCCOC(=O)c1ccccc1C(=O)OCCC
REMARK SMILES IDX 7 1 8 2 9 3 10 4 11 5 12 6 5 7 6 8 4 9 3 10 2 11 1 12 13 13
REMARK SMILES IDX 14 14 15 15 16 16 17 17 18 18
REMARK H PARENT
REMARK Flexibility Score: inf
ROOT
ATOM      1  C   UNL     1     136.449 123.795 140.172  1.00  0.00     0.074 A 
ATOM      2  C   UNL     1     137.758 123.534 140.615  1.00  0.00     0.016 A 
ATOM      3  C   UNL     1     138.835 123.592 139.730  1.00  0.00     0.001 A 
ATOM      4  C   UNL     1     138.622 123.911 138.391  1.00  0.00     0.001 A 
ATOM      5  C   UNL     1     137.329 124.151 137.926  1.00  0.00     0.016 A 
ATOM      6  C   UNL     1     136.226 124.075 138.795  1.00  0.00     0.074 A 
ENDROOT
BRANCH   1   7
ATOM      7  C   UNL     1     135.369 123.826 141.184  1.00  0.00     0.339 C 
ATOM      8  O   UNL     1     134.486 122.923 141.198  1.00  0.00    -0.246 OA
BRANCH   7   9
ATOM      9  O   UNL     1     135.298 124.895 142.084  1.00  0.00    -0.462 OA
BRANCH   9  10
ATOM     10  C   UNL     1     135.306 124.731 143.501  1.00  0.00     0.233 C 
BRANCH  10  11
ATOM     11  C   UNL     1     136.727 124.449 143.999  1.00  0.00     0.038 C 
ATOM     12  C   UNL     1     136.788 124.446 145.523  1.00  0.00     0.007 C 
ENDBRANCH  10  11
ENDBRANCH   9  10
ENDBRANCH   7   9
ENDBRANCH   1   7
BRANCH   6  13
ATOM     13  C   UNL     1     134.873 124.230 138.215  1.00  0.00     0.339 C 
ATOM     14  O   UNL     1     134.226 123.216 137.833  1.00  0.00    -0.246 OA
BRANCH  13  15
ATOM     15  O   UNL     1     134.343 125.513 138.037  1.00  0.00    -0.462 OA
BRANCH  15  16
ATOM     16  C   UNL     1     132.948 125.802 138.109  1.00  0.00     0.233 C 
BRANCH  16  17
ATOM     17  C   UNL     1     132.596 126.977 137.192  1.00  0.00     0.038 C 
ATOM     18  C   UNL     1     131.112 126.979 136.842  1.00  0.00     0.007 C 
ENDBRANCH  16  17
ENDBRANCH  15  16
ENDBRANCH  13  15
ENDBRANCH   6  13
TORSDOF 8
ENDMDL
MODEL 3
REMARK VINA RESULT:    -5.120      1.378      1.899
REMARK INTER + INTRA:          -8.096
REMARK INTER:                  -7.993
REMARK INTRA:                  -0.103
REMARK UNBOUND:                -0.581
REMARK SMILES CCCOC(=O)c1ccccc1C(=O)OCCC
REMARK SMILES IDX 7 1 8 2 9 3 10 4 11 5 12 6 5 7 6 8 4 9 3 10 2 11 1 12 13 13
REMARK SMILES IDX 14 14 15 15 16 16 17 17 18 18
REMARK H PARENT
REMARK Flexibility Score: inf
ROOT
ATOM      1  C   UNL     1     136.250 124.087 138.840  1.00  0.00     0.074 A 
ATOM      2  C   UNL     1     137.242 123.982 137.850  1.00  0.00     0.016 A 
ATOM      3  C   UNL     1     138.567 123.707 138.194  1.00  0.00     0.001 A 
ATOM      4  C   UNL     1     138.920 123.533 139.530  1.00  0.00     0.001 A 
ATOM      5  C   UNL     1     137.955 123.656 140.530  1.00  0.00     0.016 A 
ATOM      6  C   UNL     1     136.619 123.956 140.208  1.00  0.00     0.074 A 
ENDROOT
BRANCH   1   7
ATOM      7  C   UNL     1     134.848 124.268 138.400  1.00  0.00     0.339 C 
ATOM      8  O   UNL     1     134.141 123.265 138.104  1.00  0.00    -0.246 OA
BRANCH   7   9
ATOM      9  O   UNL     1     134.333 125.561 138.257  1.00  0.00    -0.462 OA
BRANCH   9  10
ATOM     10  C   UNL     1     132.947 125.873 138.386  1.00  0.00     0.233 C 
BRANCH  10  11
ATOM     11  C   UNL     1     132.539 126.931 137.357  1.00  0.00     0.038 C 
ATOM     12  C   UNL     1     131.080 126.765 136.941  1.00  0.00     0.007 C 
ENDBRANCH  10  11
ENDBRANCH   9  10
ENDBRANCH   7   9
ENDBRANCH   1   7
BRANCH   6  13
ATOM     13  C   UNL     1     135.671 124.183 141.322  1.00  0.00     0.339 C 
ATOM     14  O   UNL     1     136.023 124.858 142.328  1.00  0.00    -0.246 OA
BRANCH  13  15
ATOM     15  O   UNL     1     134.403 123.593 141.278  1.00  0.00    -0.462 OA
BRANCH  15  16
ATOM     16  C   UNL     1     133.753 123.042 142.422  1.00  0.00     0.233 C 
BRANCH  16  17
ATOM     17  C   UNL     1     132.750 124.044 143.002  1.00  0.00     0.038 C 
ATOM     18  C   UNL     1     132.633 125.283 142.121  1.00  0.00     0.007 C 
ENDBRANCH  16  17
ENDBRANCH  15  16
ENDBRANCH  13  15
ENDBRANCH   6  13
TORSDOF 8
ENDMDL
MODEL 4
REMARK VINA RESULT:    -5.021      2.655      5.564
REMARK INTER + INTRA:          -7.951
REMARK INTER:                  -7.842
REMARK INTRA:                  -0.109
REMARK UNBOUND:                -0.581
REMARK SMILES CCCOC(=O)c1ccccc1C(=O)OCCC
REMARK SMILES IDX 7 1 8 2 9 3 10 4 11 5 12 6 5 7 6 8 4 9 3 10 2 11 1 12 13 13
REMARK SMILES IDX 14 14 15 15 16 16 17 17 18 18
REMARK H PARENT
REMARK Flexibility Score: inf
ROOT
ATOM      1  C   UNL     1     137.805 123.739 139.964  1.00  0.00     0.074 A 
ATOM      2  C   UNL     1     138.258 123.615 138.638  1.00  0.00     0.016 A 
ATOM      3  C   UNL     1     137.409 123.894 137.566  1.00  0.00     0.001 A 
ATOM      4  C   UNL     1     136.098 124.302 137.801  1.00  0.00     0.001 A 
ATOM      5  C   UNL     1     135.622 124.409 139.107  1.00  0.00     0.016 A 
ATOM      6  C   UNL     1     136.452 124.111 140.202  1.00  0.00     0.074 A 
ENDROOT
BRANCH   1   7
ATOM      7  C   UNL     1     138.787 123.537 141.053  1.00  0.00     0.339 C 
ATOM      8  O   UNL     1     138.715 122.514 141.790  1.00  0.00    -0.246 OA
BRANCH   7   9
ATOM      9  O   UNL     1     139.758 124.515 141.297  1.00  0.00    -0.462 OA
BRANCH   9  10
ATOM     10  C   UNL     1     140.588 124.526 142.457  1.00  0.00     0.233 C 
BRANCH  10  11
ATOM     11  C   UNL     1     141.591 125.681 142.385  1.00  0.00     0.038 C 
ATOM     12  C   UNL     1     143.018 125.188 142.602  1.00  0.00     0.007 C 
ENDBRANCH  10  11
ENDBRANCH   9  10
ENDBRANCH   7   9
ENDBRANCH   1   7
BRANCH   6  13
ATOM     13  C   UNL     1     135.853 124.137 141.556  1.00  0.00     0.339 C 
ATOM     14  O   UNL     1     136.461 124.695 142.510  1.00  0.00    -0.246 OA
BRANCH  13  15
ATOM     15  O   UNL     1     134.635 123.485 141.782  1.00  0.00    -0.462 OA
BRANCH  15  16
ATOM     16  C   UNL     1     133.973 123.475 143.045  1.00  0.00     0.233 C 
BRANCH  16  17
ATOM     17  C   UNL     1     132.602 124.149 142.937  1.00  0.00     0.038 C 
ATOM     18  C   UNL     1     132.690 125.457 142.159  1.00  0.00     0.007 C 
ENDBRANCH  16  17
ENDBRANCH  15  16
ENDBRANCH  13  15
ENDBRANCH   6  13
TORSDOF 8
ENDMDL
MODEL 5
REMARK VINA RESULT:    -4.797      2.769      4.382
REMARK INTER + INTRA:          -7.621
REMARK INTER:                  -7.866
REMARK INTRA:                   0.245
REMARK UNBOUND:                -0.581
REMARK SMILES CCCOC(=O)c1ccccc1C(=O)OCCC
REMARK SMILES IDX 7 1 8 2 9 3 10 4 11 5 12 6 5 7 6 8 4 9 3 10 2 11 1 12 13 13
REMARK SMILES IDX 14 14 15 15 16 16 17 17 18 18
REMARK H PARENT
REMARK Flexibility Score: inf
ROOT
ATOM      1  C   UNL     1     136.737 124.107 140.158  1.00  0.00     0.074 A 
ATOM      2  C   UNL     1     135.874 124.361 139.077  1.00  0.00     0.016 A 
ATOM      3  C   UNL     1     136.319 124.219 137.762  1.00  0.00     0.001 A 
ATOM      4  C   UNL     1     137.629 123.822 137.506  1.00  0.00     0.001 A 
ATOM      5  C   UNL     1     138.508 123.587 138.564  1.00  0.00     0.016 A 
ATOM      6  C   UNL     1     138.089 123.747 139.896  1.00  0.00     0.074 A 
ENDROOT
BRANCH   1   7
ATOM      7  C   UNL     1     136.172 124.168 141.525  1.00  0.00     0.339 C 
ATOM      8  O   UNL     1     136.927 124.054 142.530  1.00  0.00    -0.246 OA
BRANCH   7   9
ATOM      9  O   UNL     1     134.788 124.292 141.693  1.00  0.00    -0.462 OA
BRANCH   9  10
ATOM     10  C   UNL     1     134.028 123.473 142.580  1.00  0.00     0.233 C 
BRANCH  10  11
ATOM     11  C   UNL     1     132.712 124.163 142.950  1.00  0.00     0.038 C 
ATOM     12  C   UNL     1     132.528 125.459 142.166  1.00  0.00     0.007 C 
ENDBRANCH  10  11
ENDBRANCH   9  10
ENDBRANCH   7   9
ENDBRANCH   1   7
BRANCH   6  13
ATOM     13  C   UNL     1     139.100 123.591 140.966  1.00  0.00     0.339 C 
ATOM     14  O   UNL     1     139.310 122.459 141.482  1.00  0.00    -0.246 OA
BRANCH  13  15
ATOM     15  O   UNL     1     139.778 124.720 141.441  1.00  0.00    -0.462 OA
BRANCH  15  16
ATOM     16  C   UNL     1     140.720 124.676 142.511  1.00  0.00     0.233 C 
BRANCH  16  17
ATOM     17  C   UNL     1     141.808 125.736 142.312  1.00  0.00     0.038 C 
ATOM     18  C   UNL     1     143.177 125.206 142.722  1.00  0.00     0.007 C 
ENDBRANCH  16  17
ENDBRANCH  15  16
ENDBRANCH  13  15
ENDBRANCH   6  13
TORSDOF 8
ENDMDL
MODEL 6
REMARK VINA RESULT:    -4.654      2.302      5.146
REMARK INTER + INTRA:          -7.412
REMARK INTER:                  -6.848
REMARK INTRA:                  -0.565
REMARK UNBOUND:                -0.581
REMARK SMILES CCCOC(=O)c1ccccc1C(=O)OCCC
REMARK SMILES IDX 7 1 8 2 9 3 10 4 11 5 12 6 5 7 6 8 4 9 3 10 2 11 1 12 13 13
REMARK SMILES IDX 14 14 15 15 16 16 17 17 18 18
REMARK H PARENT
REMARK Flexibility Score: inf
ROOT
ATOM      1  C   UNL     1     137.651 123.630 140.107  1.00  0.00     0.074 A 
ATOM      2  C   UNL     1     138.293 123.539 138.860  1.00  0.00     0.016 A 
ATOM      3  C   UNL     1     137.620 123.878 137.685  1.00  0.00     0.001 A 
ATOM      4  C   UNL     1     136.298 124.312 137.738  1.00  0.00     0.001 A 
ATOM      5  C   UNL     1     135.634 124.387 138.963  1.00  0.00     0.016 A 
ATOM      6  C   UNL     1     136.286 124.029 140.157  1.00  0.00     0.074 A 
ENDROOT
BRANCH   1   7
ATOM      7  C   UNL     1     138.455 123.364 141.321  1.00  0.00     0.339 C 
ATOM      8  O   UNL     1     138.411 122.231 141.876  1.00  0.00    -0.246 OA
BRANCH   7   9
ATOM      9  O   UNL     1     139.216 124.395 141.884  1.00  0.00    -0.462 OA
BRANCH   9  10
ATOM     10  C   UNL     1     140.633 124.491 141.746  1.00  0.00     0.233 C 
BRANCH  10  11
ATOM     11  C   UNL     1     141.234 125.253 142.931  1.00  0.00     0.038 C 
ATOM     12  C   UNL     1     142.609 125.817 142.584  1.00  0.00     0.007 C 
ENDBRANCH  10  11
ENDBRANCH   9  10
ENDBRANCH   7   9
ENDBRANCH   1   7
BRANCH   6  13
ATOM     13  C   UNL     1     135.492 124.024 141.406  1.00  0.00     0.339 C 
ATOM     14  O   UNL     1     134.430 123.347 141.481  1.00  0.00    -0.246 OA
BRANCH  13  15
ATOM     15  O   UNL     1     135.895 124.825 142.481  1.00  0.00    -0.462 OA
BRANCH  15  16
ATOM     16  C   UNL     1     135.658 124.483 143.846  1.00  0.00     0.233 C 
BRANCH  16  17
ATOM     17  C   UNL     1     136.975 124.456 144.628  1.00  0.00     0.038 C 
ATOM     18  C   UNL     1     136.724 124.508 146.131  1.00  0.00     0.007 C 
ENDBRANCH  16  17
ENDBRANCH  15  16
ENDBRANCH  13  15
ENDBRANCH   6  13
TORSDOF 8
ENDMDL
MODEL 7
REMARK VINA RESULT:    -4.635      2.313      4.909
REMARK INTER + INTRA:          -7.384
REMARK INTER:                  -6.770
REMARK INTRA:                  -0.614
REMARK UNBOUND:                -0.581
REMARK SMILES CCCOC(=O)c1ccccc1C(=O)OCCC
REMARK SMILES IDX 7 1 8 2 9 3 10 4 11 5 12 6 5 7 6 8 4 9 3 10 2 11 1 12 13 13
REMARK SMILES IDX 14 14 15 15 16 16 17 17 18 18
REMARK H PARENT
REMARK Flexibility Score: inf
ROOT
ATOM      1  C   UNL     1     136.235 123.939 140.133  1.00  0.00     0.074 A 
ATOM      2  C   UNL     1     135.606 124.289 138.925  1.00  0.00     0.016 A 
ATOM      3  C   UNL     1     136.318 124.293 137.725  1.00  0.00     0.001 A 
ATOM      4  C   UNL     1     137.667 123.948 137.712  1.00  0.00     0.001 A 
ATOM      5  C   UNL     1     138.317 123.619 138.902  1.00  0.00     0.016 A 
ATOM      6  C   UNL     1     137.625 123.632 140.126  1.00  0.00     0.074 A 
ENDROOT
BRANCH   1   7
ATOM      7  C   UNL     1     135.397 123.847 141.349  1.00  0.00     0.339 C 
ATOM      8  O   UNL     1     134.517 122.948 141.447  1.00  0.00    -0.246 OA
BRANCH   7   9
ATOM      9  O   UNL     1     135.548 124.800 142.364  1.00  0.00    -0.462 OA
BRANCH   9  10
ATOM     10  C   UNL     1     135.445 124.492 143.753  1.00  0.00     0.233 C 
BRANCH  10  11
ATOM     11  C   UNL     1     136.658 125.038 144.512  1.00  0.00     0.038 C 
ATOM     12  C   UNL     1     137.121 124.061 145.589  1.00  0.00     0.007 C 
ENDBRANCH  10  11
ENDBRANCH   9  10
ENDBRANCH   7   9
ENDBRANCH   1   7
BRANCH   6  13
ATOM     13  C   UNL     1     138.399 123.384 141.363  1.00  0.00     0.339 C 
ATOM     14  O   UNL     1     138.277 122.290 141.981  1.00  0.00    -0.246 OA
BRANCH  13  15
ATOM     15  O   UNL     1     139.220 124.394 141.876  1.00  0.00    -0.462 OA
BRANCH  15  16
ATOM     16  C   UNL     1     140.645 124.343 141.835  1.00  0.00     0.233 C 
BRANCH  16  17
ATOM     17  C   UNL     1     141.246 125.322 142.849  1.00  0.00     0.038 C 
ATOM     18  C   UNL     1     142.719 125.586 142.555  1.00  0.00     0.007 C 
ENDBRANCH  16  17
ENDBRANCH  15  16
ENDBRANCH  13  15
ENDBRANCH   6  13
TORSDOF 8
ENDMDL
MODEL 8
REMARK VINA RESULT:    -4.374      1.816      3.994
REMARK INTER + INTRA:          -7.001
REMARK INTER:                  -6.685
REMARK INTRA:                  -0.316
REMARK UNBOUND:                -0.581
REMARK SMILES CCCOC(=O)c1ccccc1C(=O)OCCC
REMARK SMILES IDX 7 1 8 2 9 3 10 4 11 5 12 6 5 7 6 8 4 9 3 10 2 11 1 12 13 13
REMARK SMILES IDX 14 14 15 15 16 16 17 17 18 18
REMARK H PARENT
REMARK Flexibility Score: inf
ROOT
ATOM      1  C   UNL     1     134.170 124.795 140.315  1.00  0.00     0.074 A 
ATOM      2  C   UNL     1     133.141 125.470 140.996  1.00  0.00     0.016 A 
ATOM      3  C   UNL     1     132.843 125.163 142.324  1.00  0.00     0.001 A 
ATOM      4  C   UNL     1     133.567 124.178 142.993  1.00  0.00     0.001 A 
ATOM      5  C   UNL     1     134.576 123.480 142.329  1.00  0.00     0.016 A 
ATOM      6  C   UNL     1     134.878 123.757 140.984  1.00  0.00     0.074 A 
ENDROOT
BRANCH   1   7
ATOM      7  C   UNL     1     134.508 125.246 138.947  1.00  0.00     0.339 C 
ATOM      8  O   UNL     1     135.695 125.562 138.658  1.00  0.00    -0.246 OA
BRANCH   7   9
ATOM      9  O   UNL     1     133.491 125.376 137.993  1.00  0.00    -0.462 OA
BRANCH   9  10
ATOM     10  C   UNL     1     132.836 126.610 137.706  1.00  0.00     0.233 C 
BRANCH  10  11
ATOM     11  C   UNL     1     131.333 126.386 137.516  1.00  0.00     0.038 C 
ATOM     12  C   UNL     1     130.522 127.499 138.172  1.00  0.00     0.007 C 
ENDBRANCH  10  11
ENDBRANCH   9  10
ENDBRANCH   7   9
ENDBRANCH   1   7
BRANCH   6  13
ATOM     13  C   UNL     1     135.881 122.904 140.308  1.00  0.00     0.339 C 
ATOM     14  O   UNL     1     135.517 122.047 139.456  1.00  0.00    -0.246 OA
BRANCH  13  15
ATOM     15  O   UNL     1     137.230 123.013 140.665  1.00  0.00    -0.462 OA
BRANCH  15  16
ATOM     16  C   UNL     1     138.113 123.985 140.108  1.00  0.00     0.233 C 
BRANCH  16  17
ATOM     17  C   UNL     1     138.826 123.418 138.876  1.00  0.00     0.038 C 
ATOM     18  C   UNL     1     138.038 123.703 137.603  1.00  0.00     0.007 C 
ENDBRANCH  16  17
ENDBRANCH  15  16
ENDBRANCH  13  15
ENDBRANCH   6  13
TORSDOF 8
ENDMDL
MODEL 9
REMARK VINA RESULT:    -4.352      1.766      5.803
REMARK INTER + INTRA:          -6.968
REMARK INTER:                  -6.705
REMARK INTRA:                  -0.262
REMARK UNBOUND:                -0.581
REMARK SMILES CCCOC(=O)c1ccccc1C(=O)OCCC
REMARK SMILES IDX 7 1 8 2 9 3 10 4 11 5 12 6 5 7 6 8 4 9 3 10 2 11 1 12 13 13
REMARK SMILES IDX 14 14 15 15 16 16 17 17 18 18
REMARK H PARENT
REMARK Flexibility Score: inf
ROOT
ATOM      1  C   UNL     1     134.950 123.804 141.090  1.00  0.00     0.074 A 
ATOM      2  C   UNL     1     134.642 123.553 142.439  1.00  0.00     0.016 A 
ATOM      3  C   UNL     1     133.590 124.222 143.066  1.00  0.00     0.001 A 
ATOM      4  C   UNL     1     132.830 125.150 142.357  1.00  0.00     0.001 A 
ATOM      5  C   UNL     1     133.134 125.430 141.024  1.00  0.00     0.016 A 
ATOM      6  C   UNL     1     134.204 124.785 140.380  1.00  0.00     0.074 A 
ENDROOT
BRANCH   1   7
ATOM      7  C   UNL     1     136.004 122.980 140.456  1.00  0.00     0.339 C 
ATOM      8  O   UNL     1     135.692 122.067 139.642  1.00  0.00    -0.246 OA
BRANCH   7   9
ATOM      9  O   UNL     1     137.343 123.181 140.812  1.00  0.00    -0.462 OA
BRANCH   9  10
ATOM     10  C   UNL     1     138.222 124.053 140.104  1.00  0.00     0.233 C 
BRANCH  10  11
ATOM     11  C   UNL     1     138.815 123.340 138.885  1.00  0.00     0.038 C 
ATOM     12  C   UNL     1     138.080 123.729 137.606  1.00  0.00     0.007 C 
ENDBRANCH  10  11
ENDBRANCH   9  10
ENDBRANCH   7   9
ENDBRANCH   1   7
BRANCH   6  13
ATOM     13  C   UNL     1     134.543 125.210 139.003  1.00  0.00     0.339 C 
ATOM     14  O   UNL     1     135.729 125.519 138.706  1.00  0.00    -0.246 OA
BRANCH  13  15
ATOM     15  O   UNL     1     133.525 125.324 138.048  1.00  0.00    -0.462 OA
BRANCH  15  16
ATOM     16  C   UNL     1     132.909 126.564 137.703  1.00  0.00     0.233 C 
BRANCH  16  17
ATOM     17  C   UNL     1     131.406 126.371 137.478  1.00  0.00     0.038 C 
ATOM     18  C   UNL     1     130.602 127.489 138.132  1.00  0.00     0.007 C 
ENDBRANCH  16  17
ENDBRANCH  15  16
ENDBRANCH  13  15
ENDBRANCH   6  13
TORSDOF 8
ENDMDL
