MODEL 1
REMARK VINA RESULT:    -4.162      0.000      0.000
REMARK INTER + INTRA:          -6.119
REMARK INTER:                  -5.865
REMARK INTRA:                  -0.255
REMARK UNBOUND:                -0.255
REMARK SMILES C=CCCCCCCC(=O)[O-]
REMARK SMILES IDX 6 1 7 2 8 3 9 4 10 5 11 6 5 7 4 8 3 9 2 10 1 11
REMARK H PARENT
REMARK Flexibility Score: inf
ROOT
ATOM      1  C   UNL     1       6.119  -6.578  21.567  1.00  0.00     0.000 C 
ENDROOT
BRANCH   1   2
ATOM      2  C   UNL     1       6.837  -7.202  20.360  1.00  0.00     0.006 C 
BRANCH   2   3
ATOM      3  C   UNL     1       5.884  -7.456  19.184  1.00  0.00     0.053 C 
BRANCH   3   4
ATOM      4  C   UNL     1       6.622  -7.567  17.885  1.00  0.00     0.041 C 
ATOM      5  O   UNL     1       7.468  -6.694  17.557  1.00  0.00    -0.550 OA
ATOM      6  O   UNL     1       6.398  -8.656  17.052  1.00  0.00    -0.550 OA
ENDBRANCH   3   4
ENDBRANCH   2   3
ENDBRANCH   1   2
BRANCH   1   7
ATOM      7  C   UNL     1       6.402  -5.074  21.657  1.00  0.00     0.000 C 
BRANCH   7   8
ATOM      8  C   UNL     1       7.508  -4.782  22.678  1.00  0.00     0.004 C 
BRANCH   8   9
ATOM      9  C   UNL     1       7.232  -3.474  23.429  1.00  0.00     0.027 C 
BRANCH   9  10
ATOM     10  C   UNL     1       7.263  -3.683  24.918  1.00  0.00    -0.035 C 
ATOM     11  C   UNL     1       6.494  -4.597  25.518  1.00  0.00     0.004 C 
ENDBRANCH   9  10
ENDBRANCH   8   9
ENDBRANCH   7   8
ENDBRANCH   1   7
TORSDOF 7
ENDMDL
MODEL 2
REMARK VINA RESULT:    -4.159     13.271     14.311
REMARK INTER + INTRA:          -6.116
REMARK INTER:                  -5.385
REMARK INTRA:                  -0.731
REMARK UNBOUND:                -0.255
REMARK SMILES C=CCCCCCCC(=O)[O-]
REMARK SMILES IDX 6 1 7 2 8 3 9 4 10 5 11 6 5 7 4 8 3 9 2 10 1 11
REMARK H PARENT
REMARK Flexibility Score: inf
ROOT
ATOM      1  C   UNL     1      -1.855   3.290  17.637  1.00  0.00     0.000 C 
ENDROOT
BRANCH   1   2
ATOM      2  C   UNL     1      -0.846   4.434  17.452  1.00  0.00     0.006 C 
BRANCH   2   3
ATOM      3  C   UNL     1       0.232   4.096  16.414  1.00  0.00     0.053 C 
BRANCH   3   4
ATOM      4  C   UNL     1       1.300   3.217  16.988  1.00  0.00     0.041 C 
ATOM      5  O   UNL     1       1.759   2.255  16.318  1.00  0.00    -0.550 OA
ATOM      6  O   UNL     1       1.811   3.481  18.252  1.00  0.00    -0.550 OA
ENDBRANCH   3   4
ENDBRANCH   2   3
ENDBRANCH   1   2
BRANCH   1   7
ATOM      7  C   UNL     1      -3.178   3.606  16.929  1.00  0.00     0.000 C 
BRANCH   7   8
ATOM      8  C   UNL     1      -3.375   2.706  15.704  1.00  0.00     0.004 C 
BRANCH   8   9
ATOM      9  C   UNL     1      -3.196   3.500  14.404  1.00  0.00     0.027 C 
BRANCH   9  10
ATOM     10  C   UNL     1      -3.452   4.966  14.622  1.00  0.00    -0.035 C 
ATOM     11  C   UNL     1      -2.647   5.905  14.115  1.00  0.00     0.004 C 
ENDBRANCH   9  10
ENDBRANCH   8   9
ENDBRANCH   7   8
ENDBRANCH   1   7
TORSDOF 7
ENDMDL
MODEL 3
REMARK VINA RESULT:    -4.127      1.571      2.131
REMARK INTER + INTRA:          -6.071
REMARK INTER:                  -5.568
REMARK INTRA:                  -0.503
REMARK UNBOUND:                -0.255
REMARK SMILES C=CCCCCCCC(=O)[O-]
REMARK SMILES IDX 6 1 7 2 8 3 9 4 10 5 11 6 5 7 4 8 3 9 2 10 1 11
REMARK H PARENT
REMARK Flexibility Score: inf
ROOT
ATOM      1  C   UNL     1       6.133  -3.380  21.117  1.00  0.00     0.000 C 
ENDROOT
BRANCH   1   2
ATOM      2  C   UNL     1       5.804  -4.870  21.300  1.00  0.00     0.006 C 
BRANCH   2   3
ATOM      3  C   UNL     1       4.935  -5.417  20.160  1.00  0.00     0.053 C 
BRANCH   3   4
ATOM      4  C   UNL     1       5.767  -5.951  19.035  1.00  0.00     0.041 C 
ATOM      5  O   UNL     1       5.924  -5.276  17.984  1.00  0.00    -0.550 OA
ATOM      6  O   UNL     1       6.396  -7.183  19.162  1.00  0.00    -0.550 OA
ENDBRANCH   3   4
ENDBRANCH   2   3
ENDBRANCH   1   2
BRANCH   1   7
ATOM      7  C   UNL     1       7.054  -2.880  22.237  1.00  0.00     0.000 C 
BRANCH   7   8
ATOM      8  C   UNL     1       7.419  -4.016  23.198  1.00  0.00     0.004 C 
BRANCH   8   9
ATOM      9  C   UNL     1       7.511  -3.507  24.642  1.00  0.00     0.027 C 
BRANCH   9  10
ATOM     10  C   UNL     1       6.605  -4.287  25.554  1.00  0.00    -0.035 C 
ATOM     11  C   UNL     1       5.823  -5.271  25.099  1.00  0.00     0.004 C 
ENDBRANCH   9  10
ENDBRANCH   8   9
ENDBRANCH   7   8
ENDBRANCH   1   7
TORSDOF 7
ENDMDL
MODEL 4
REMARK VINA RESULT:    -4.030     12.363     13.304
REMARK INTER + INTRA:          -5.934
REMARK INTER:                  -5.325
REMARK INTRA:                  -0.609
REMARK UNBOUND:                -0.255
REMARK SMILES C=CCCCCCCC(=O)[O-]
REMARK SMILES IDX 6 1 7 2 8 3 9 4 10 5 11 6 5 7 4 8 3 9 2 10 1 11
REMARK H PARENT
REMARK Flexibility Score: inf
ROOT
ATOM      1  C   UNL     1       0.402   4.341  16.752  1.00  0.00     0.000 C 
ENDROOT
BRANCH   1   2
ATOM      2  C   UNL     1       1.249   3.318  17.525  1.00  0.00     0.006 C 
BRANCH   2   3
ATOM      3  C   UNL     1       1.590   2.087  16.675  1.00  0.00     0.053 C 
BRANCH   3   4
ATOM      4  C   UNL     1       0.677   0.937  16.972  1.00  0.00     0.041 C 
ATOM      5  O   UNL     1      -0.391   0.789  16.320  1.00  0.00    -0.550 OA
ATOM      6  O   UNL     1       1.022   0.010  17.947  1.00  0.00    -0.550 OA
ENDBRANCH   3   4
ENDBRANCH   2   3
ENDBRANCH   1   2
BRANCH   1   7
ATOM      7  C   UNL     1      -0.905   4.643  17.494  1.00  0.00     0.000 C 
BRANCH   7   8
ATOM      8  C   UNL     1      -2.070   3.839  16.907  1.00  0.00     0.004 C 
BRANCH   8   9
ATOM      9  C   UNL     1      -2.032   3.855  15.374  1.00  0.00     0.027 C 
BRANCH   9  10
ATOM     10  C   UNL     1      -3.026   4.835  14.814  1.00  0.00    -0.035 C 
ATOM     11  C   UNL     1      -2.643   5.899  14.102  1.00  0.00     0.004 C 
ENDBRANCH   9  10
ENDBRANCH   8   9
ENDBRANCH   7   8
ENDBRANCH   1   7
TORSDOF 7
ENDMDL
MODEL 5
REMARK VINA RESULT:    -3.953     13.692     14.649
REMARK INTER + INTRA:          -5.825
REMARK INTER:                  -5.222
REMARK INTRA:                  -0.603
REMARK UNBOUND:                -0.255
REMARK SMILES C=CCCCCCCC(=O)[O-]
REMARK SMILES IDX 6 1 7 2 8 3 9 4 10 5 11 6 5 7 4 8 3 9 2 10 1 11
REMARK H PARENT
REMARK Flexibility Score: inf
ROOT
ATOM      1  C   UNL     1      -2.204   1.931  15.638  1.00  0.00     0.000 C 
ENDROOT
BRANCH   1   2
ATOM      2  C   UNL     1      -0.821   1.821  16.298  1.00  0.00     0.006 C 
BRANCH   2   3
ATOM      3  C   UNL     1       0.068   3.032  15.989  1.00  0.00     0.053 C 
BRANCH   3   4
ATOM      4  C   UNL     1       0.198   3.942  17.171  1.00  0.00     0.041 C 
ATOM      5  O   UNL     1       1.291   4.025  17.793  1.00  0.00    -0.550 OA
ATOM      6  O   UNL     1      -0.879   4.725  17.567  1.00  0.00    -0.550 OA
ENDBRANCH   3   4
ENDBRANCH   2   3
ENDBRANCH   1   2
BRANCH   1   7
ATOM      7  C   UNL     1      -2.089   1.876  14.109  1.00  0.00     0.000 C 
BRANCH   7   8
ATOM      8  C   UNL     1      -2.643   3.154  13.470  1.00  0.00     0.004 C 
BRANCH   8   9
ATOM      9  C   UNL     1      -3.755   3.763  14.332  1.00  0.00     0.027 C 
BRANCH   9  10
ATOM     10  C   UNL     1      -3.586   5.251  14.469  1.00  0.00    -0.035 C 
ATOM     11  C   UNL     1      -2.497   5.881  14.019  1.00  0.00     0.004 C 
ENDBRANCH   9  10
ENDBRANCH   8   9
ENDBRANCH   7   8
ENDBRANCH   1   7
TORSDOF 7
ENDMDL
MODEL 6
REMARK VINA RESULT:    -3.941     15.468     16.159
REMARK INTER + INTRA:          -5.809
REMARK INTER:                  -5.410
REMARK INTRA:                  -0.399
REMARK UNBOUND:                -0.255
REMARK SMILES C=CCCCCCCC(=O)[O-]
REMARK SMILES IDX 6 1 7 2 8 3 9 4 10 5 11 6 5 7 4 8 3 9 2 10 1 11
REMARK H PARENT
REMARK Flexibility Score: inf
ROOT
ATOM      1  C   UNL     1      -1.945   2.194  11.925  1.00  0.00     0.000 C 
ENDROOT
BRANCH   1   2
ATOM      2  C   UNL     1      -2.732   1.358  10.904  1.00  0.00     0.006 C 
BRANCH   2   3
ATOM      3  C   UNL     1      -4.244   1.400  11.160  1.00  0.00     0.053 C 
BRANCH   3   4
ATOM      4  C   UNL     1      -5.025   1.003   9.945  1.00  0.00     0.041 C 
ATOM      5  O   UNL     1      -4.431   0.578   8.919  1.00  0.00    -0.550 OA
ATOM      6  O   UNL     1      -6.412   1.070   9.959  1.00  0.00    -0.550 OA
ENDBRANCH   3   4
ENDBRANCH   2   3
ENDBRANCH   1   2
BRANCH   1   7
ATOM      7  C   UNL     1      -2.448   1.934  13.350  1.00  0.00     0.000 C 
BRANCH   7   8
ATOM      8  C   UNL     1      -2.102   3.104  14.278  1.00  0.00     0.004 C 
BRANCH   8   9
ATOM      9  C   UNL     1      -3.369   3.715  14.888  1.00  0.00     0.027 C 
BRANCH   9  10
ATOM     10  C   UNL     1      -3.572   5.130  14.420  1.00  0.00    -0.035 C 
ATOM     11  C   UNL     1      -2.549   5.899  14.035  1.00  0.00     0.004 C 
ENDBRANCH   9  10
ENDBRANCH   8   9
ENDBRANCH   7   8
ENDBRANCH   1   7
TORSDOF 7
ENDMDL
MODEL 7
REMARK VINA RESULT:    -3.928     13.242     13.981
REMARK INTER + INTRA:          -5.791
REMARK INTER:                  -5.140
REMARK INTRA:                  -0.651
REMARK UNBOUND:                -0.255
REMARK SMILES C=CCCCCCCC(=O)[O-]
REMARK SMILES IDX 6 1 7 2 8 3 9 4 10 5 11 6 5 7 4 8 3 9 2 10 1 11
REMARK H PARENT
REMARK Flexibility Score: inf
ROOT
ATOM      1  C   UNL     1      -1.665   3.409  17.717  1.00  0.00     0.000 C 
ENDROOT
BRANCH   1   2
ATOM      2  C   UNL     1      -2.687   3.173  16.594  1.00  0.00     0.006 C 
BRANCH   2   3
ATOM      3  C   UNL     1      -2.246   3.800  15.265  1.00  0.00     0.053 C 
BRANCH   3   4
ATOM      4  C   UNL     1      -3.406   4.370  14.508  1.00  0.00     0.041 C 
ATOM      5  O   UNL     1      -3.560   5.617  14.425  1.00  0.00    -0.550 OA
ATOM      6  O   UNL     1      -4.300   3.522  13.867  1.00  0.00    -0.550 OA
ENDBRANCH   3   4
ENDBRANCH   2   3
ENDBRANCH   1   2
BRANCH   1   7
ATOM      7  C   UNL     1      -0.811   4.651  17.429  1.00  0.00     0.000 C 
BRANCH   7   8
ATOM      8  C   UNL     1       0.677   4.290  17.356  1.00  0.00     0.004 C 
BRANCH   8   9
ATOM      9  C   UNL     1       0.906   2.822  17.735  1.00  0.00     0.027 C 
BRANCH   9  10
ATOM     10  C   UNL     1       1.654   2.091  16.653  1.00  0.00    -0.035 C 
ATOM     11  C   UNL     1       1.525   2.416  15.364  1.00  0.00     0.004 C 
ENDBRANCH   9  10
ENDBRANCH   8   9
ENDBRANCH   7   8
ENDBRANCH   1   7
TORSDOF 7
ENDMDL
MODEL 8
REMARK VINA RESULT:    -3.927      2.192      2.733
REMARK INTER + INTRA:          -5.789
REMARK INTER:                  -5.367
REMARK INTRA:                  -0.422
REMARK UNBOUND:                -0.255
REMARK SMILES C=CCCCCCCC(=O)[O-]
REMARK SMILES IDX 6 1 7 2 8 3 9 4 10 5 11 6 5 7 4 8 3 9 2 10 1 11
REMARK H PARENT
REMARK Flexibility Score: inf
ROOT
ATOM      1  C   UNL     1       5.622  -4.119  21.229  1.00  0.00     0.000 C 
ENDROOT
BRANCH   1   2
ATOM      2  C   UNL     1       5.623  -4.754  19.830  1.00  0.00     0.006 C 
BRANCH   2   3
ATOM      3  C   UNL     1       5.429  -6.275  19.882  1.00  0.00     0.053 C 
BRANCH   3   4
ATOM      4  C   UNL     1       6.123  -6.883  21.061  1.00  0.00     0.041 C 
ATOM      5  O   UNL     1       5.456  -7.323  22.035  1.00  0.00    -0.550 OA
ATOM      6  O   UNL     1       7.508  -6.995  21.069  1.00  0.00    -0.550 OA
ENDBRANCH   3   4
ENDBRANCH   2   3
ENDBRANCH   1   2
BRANCH   1   7
ATOM      7  C   UNL     1       6.362  -2.776  21.223  1.00  0.00     0.000 C 
BRANCH   7   8
ATOM      8  C   UNL     1       7.365  -2.695  22.379  1.00  0.00     0.004 C 
BRANCH   8   9
ATOM      9  C   UNL     1       7.428  -4.022  23.145  1.00  0.00     0.027 C 
BRANCH   9  10
ATOM     10  C   UNL     1       7.298  -3.802  24.628  1.00  0.00    -0.035 C 
ATOM     11  C   UNL     1       6.458  -4.524  25.376  1.00  0.00     0.004 C 
ENDBRANCH   9  10
ENDBRANCH   8   9
ENDBRANCH   7   8
ENDBRANCH   1   7
TORSDOF 7
ENDMDL
MODEL 9
REMARK VINA RESULT:    -3.826      3.579      6.629
REMARK INTER + INTRA:          -5.647
REMARK INTER:                  -5.461
REMARK INTRA:                  -0.186
REMARK UNBOUND:                -0.255
REMARK SMILES C=CCCCCCCC(=O)[O-]
REMARK SMILES IDX 6 1 7 2 8 3 9 4 10 5 11 6 5 7 4 8 3 9 2 10 1 11
REMARK H PARENT
REMARK Flexibility Score: inf
ROOT
ATOM      1  C   UNL     1       7.019  -6.780  21.255  1.00  0.00     0.000 C 
ENDROOT
BRANCH   1   2
ATOM      2  C   UNL     1       6.316  -5.778  22.184  1.00  0.00     0.006 C 
BRANCH   2   3
ATOM      3  C   UNL     1       7.229  -4.609  22.574  1.00  0.00     0.053 C 
BRANCH   3   4
ATOM      4  C   UNL     1       7.025  -4.196  23.999  1.00  0.00     0.041 C 
ATOM      5  O   UNL     1       7.506  -3.112  24.422  1.00  0.00    -0.550 OA
ATOM      6  O   UNL     1       6.275  -4.995  24.852  1.00  0.00    -0.550 OA
ENDBRANCH   3   4
ENDBRANCH   2   3
ENDBRANCH   1   2
BRANCH   1   7
ATOM      7  C   UNL     1       6.251  -6.937  19.936  1.00  0.00     0.000 C 
BRANCH   7   8
ATOM      8  C   UNL     1       7.205  -7.257  18.779  1.00  0.00     0.004 C 
BRANCH   8   9
ATOM      9  C   UNL     1       6.655  -6.723  17.451  1.00  0.00     0.027 C 
BRANCH   9  10
ATOM     10  C   UNL     1       6.977  -7.655  16.315  1.00  0.00    -0.035 C 
ATOM     11  C   UNL     1       6.144  -8.635  15.950  1.00  0.00     0.004 C 
ENDBRANCH   9  10
ENDBRANCH   8   9
ENDBRANCH   7   8
ENDBRANCH   1   7
TORSDOF 7
ENDMDL
