MODEL 1
REMARK VINA RESULT:    -3.048      0.000      0.000
REMARK INTER + INTRA:          -4.244
REMARK INTER:                  -3.939
REMARK INTRA:                  -0.306
REMARK UNBOUND:                -0.306
REMARK SMILES CCCCCCC(=O)[O-]
REMARK SMILES IDX 5 1 6 2 7 3 8 4 9 5 4 6 3 7 2 8 1 9
REMARK H PARENT
REMARK Flexibility Score: inf
ROOT
ATOM      1  C   UNL     1     -37.946 -34.099  25.920  1.00  0.00     0.006 C 
ENDROOT
BRANCH   1   2
ATOM      2  C   UNL     1     -38.386 -32.918  25.036  1.00  0.00     0.053 C 
BRANCH   2   3
ATOM      3  C   UNL     1     -37.369 -32.567  23.992  1.00  0.00     0.041 C 
ATOM      4  O   UNL     1     -36.361 -31.875  24.293  1.00  0.00    -0.550 OA
ATOM      5  O   UNL     1     -37.519 -33.033  22.691  1.00  0.00    -0.550 OA
ENDBRANCH   2   3
ENDBRANCH   1   2
BRANCH   1   6
ATOM      6  C   UNL     1     -37.584 -33.699  27.362  1.00  0.00     0.000 C 
BRANCH   6   7
ATOM      7  C   UNL     1     -37.736 -32.190  27.624  1.00  0.00    -0.000 C 
BRANCH   7   8
ATOM      8  C   UNL     1     -38.719 -31.888  28.765  1.00  0.00    -0.003 C 
ATOM      9  C   UNL     1     -39.751 -32.997  28.964  1.00  0.00     0.004 C 
ENDBRANCH   7   8
ENDBRANCH   6   7
ENDBRANCH   1   6
TORSDOF 5
ENDMDL
MODEL 2
REMARK VINA RESULT:    -3.017     13.407     14.877
REMARK INTER + INTRA:          -4.205
REMARK INTER:                  -3.889
REMARK INTRA:                  -0.316
REMARK UNBOUND:                -0.306
REMARK SMILES CCCCCCC(=O)[O-]
REMARK SMILES IDX 5 1 6 2 7 3 8 4 9 5 4 6 3 7 2 8 1 9
REMARK H PARENT
REMARK Flexibility Score: inf
ROOT
ATOM      1  C   UNL     1     -44.935 -37.847  13.047  1.00  0.00     0.006 C 
ENDROOT
BRANCH   1   2
ATOM      2  C   UNL     1     -45.453 -37.925  14.494  1.00  0.00     0.053 C 
BRANCH   2   3
ATOM      3  C   UNL     1     -44.352 -37.846  15.507  1.00  0.00     0.041 C 
ATOM      4  O   UNL     1     -44.559 -37.321  16.633  1.00  0.00    -0.550 OA
ATOM      5  O   UNL     1     -43.102 -38.381  15.219  1.00  0.00    -0.550 OA
ENDBRANCH   2   3
ENDBRANCH   1   2
BRANCH   1   6
ATOM      6  C   UNL     1     -44.592 -36.420  12.581  1.00  0.00     0.000 C 
BRANCH   6   7
ATOM      7  C   UNL     1     -45.829 -35.613  12.151  1.00  0.00    -0.000 C 
BRANCH   7   8
ATOM      8  C   UNL     1     -45.848 -34.200  12.754  1.00  0.00    -0.003 C 
ATOM      9  C   UNL     1     -45.757 -34.208  14.279  1.00  0.00     0.004 C 
ENDBRANCH   7   8
ENDBRANCH   6   7
ENDBRANCH   1   6
TORSDOF 5
ENDMDL
MODEL 3
REMARK VINA RESULT:    -2.921     11.995     13.345
REMARK INTER + INTRA:          -4.081
REMARK INTER:                  -3.877
REMARK INTRA:                  -0.204
REMARK UNBOUND:                -0.306
REMARK SMILES CCCCCCC(=O)[O-]
REMARK SMILES IDX 5 1 6 2 7 3 8 4 9 5 4 6 3 7 2 8 1 9
REMARK H PARENT
REMARK Flexibility Score: inf
ROOT
ATOM      1  C   UNL     1     -44.507 -37.430  15.834  1.00  0.00     0.006 C 
ENDROOT
BRANCH   1   2
ATOM      2  C   UNL     1     -43.894 -38.229  14.671  1.00  0.00     0.053 C 
BRANCH   2   3
ATOM      3  C   UNL     1     -44.585 -37.974  13.366  1.00  0.00     0.041 C 
ATOM      4  O   UNL     1     -45.437 -38.790  12.926  1.00  0.00    -0.550 OA
ATOM      5  O   UNL     1     -44.311 -36.815  12.648  1.00  0.00    -0.550 OA
ENDBRANCH   2   3
ENDBRANCH   1   2
BRANCH   1   6
ATOM      6  C   UNL     1     -45.577 -38.203  16.627  1.00  0.00     0.000 C 
BRANCH   6   7
ATOM      7  C   UNL     1     -45.590 -37.849  18.124  1.00  0.00    -0.000 C 
BRANCH   7   8
ATOM      8  C   UNL     1     -44.729 -36.617  18.445  1.00  0.00    -0.003 C 
ATOM      9  C   UNL     1     -43.853 -36.816  19.680  1.00  0.00     0.004 C 
ENDBRANCH   7   8
ENDBRANCH   6   7
ENDBRANCH   1   6
TORSDOF 5
ENDMDL
MODEL 4
REMARK VINA RESULT:    -2.908     11.062     12.902
REMARK INTER + INTRA:          -4.064
REMARK INTER:                  -3.970
REMARK INTRA:                  -0.095
REMARK UNBOUND:                -0.306
REMARK SMILES CCCCCCC(=O)[O-]
REMARK SMILES IDX 5 1 6 2 7 3 8 4 9 5 4 6 3 7 2 8 1 9
REMARK H PARENT
REMARK Flexibility Score: inf
ROOT
ATOM      1  C   UNL     1     -44.580 -37.840  17.519  1.00  0.00     0.006 C 
ENDROOT
BRANCH   1   2
ATOM      2  C   UNL     1     -45.233 -36.923  18.568  1.00  0.00     0.053 C 
BRANCH   2   3
ATOM      3  C   UNL     1     -44.461 -36.871  19.852  1.00  0.00     0.041 C 
ATOM      4  O   UNL     1     -44.915 -37.420  20.890  1.00  0.00    -0.550 OA
ATOM      5  O   UNL     1     -43.222 -36.243  19.893  1.00  0.00    -0.550 OA
ENDBRANCH   2   3
ENDBRANCH   1   2
BRANCH   1   6
ATOM      6  C   UNL     1     -44.598 -37.266  16.090  1.00  0.00     0.000 C 
BRANCH   6   7
ATOM      7  C   UNL     1     -43.836 -38.142  15.080  1.00  0.00    -0.000 C 
BRANCH   7   8
ATOM      8  C   UNL     1     -44.549 -38.230  13.722  1.00  0.00    -0.003 C 
ATOM      9  C   UNL     1     -44.651 -36.876  13.021  1.00  0.00     0.004 C 
ENDBRANCH   7   8
ENDBRANCH   6   7
ENDBRANCH   1   6
TORSDOF 5
ENDMDL
MODEL 5
REMARK VINA RESULT:    -2.906     13.469     14.797
REMARK INTER + INTRA:          -4.061
REMARK INTER:                  -3.676
REMARK INTRA:                  -0.385
REMARK UNBOUND:                -0.306
REMARK SMILES CCCCCCC(=O)[O-]
REMARK SMILES IDX 5 1 6 2 7 3 8 4 9 5 4 6 3 7 2 8 1 9
REMARK H PARENT
REMARK Flexibility Score: inf
ROOT
ATOM      1  C   UNL     1     -44.569 -36.599  12.658  1.00  0.00     0.006 C 
ENDROOT
BRANCH   1   2
ATOM      2  C   UNL     1     -45.830 -35.727  12.520  1.00  0.00     0.053 C 
BRANCH   2   3
ATOM      3  C   UNL     1     -45.758 -34.472  13.337  1.00  0.00     0.041 C 
ATOM      4  O   UNL     1     -45.649 -34.534  14.590  1.00  0.00    -0.550 OA
ATOM      5  O   UNL     1     -45.780 -33.232  12.710  1.00  0.00    -0.550 OA
ENDBRANCH   2   3
ENDBRANCH   1   2
BRANCH   1   6
ATOM      6  C   UNL     1     -44.821 -37.957  13.338  1.00  0.00     0.000 C 
BRANCH   6   7
ATOM      7  C   UNL     1     -43.942 -38.181  14.580  1.00  0.00    -0.000 C 
BRANCH   7   8
ATOM      8  C   UNL     1     -44.603 -37.666  15.869  1.00  0.00    -0.003 C 
ATOM      9  C   UNL     1     -46.119 -37.851  15.868  1.00  0.00     0.004 C 
ENDBRANCH   7   8
ENDBRANCH   6   7
ENDBRANCH   1   6
TORSDOF 5
ENDMDL
MODEL 6
REMARK VINA RESULT:    -2.866      1.262      1.580
REMARK INTER + INTRA:          -4.009
REMARK INTER:                  -3.803
REMARK INTRA:                  -0.206
REMARK UNBOUND:                -0.306
REMARK SMILES CCCCCCC(=O)[O-]
REMARK SMILES IDX 5 1 6 2 7 3 8 4 9 5 4 6 3 7 2 8 1 9
REMARK H PARENT
REMARK Flexibility Score: inf
ROOT
ATOM      1  C   UNL     1     -38.230 -34.046  26.175  1.00  0.00     0.006 C 
ENDROOT
BRANCH   1   2
ATOM      2  C   UNL     1     -37.475 -33.117  25.208  1.00  0.00     0.053 C 
BRANCH   2   3
ATOM      3  C   UNL     1     -38.250 -32.830  23.958  1.00  0.00     0.041 C 
ATOM      4  O   UNL     1     -39.481 -32.572  24.017  1.00  0.00    -0.550 OA
ATOM      5  O   UNL     1     -37.605 -32.817  22.727  1.00  0.00    -0.550 OA
ENDBRANCH   2   3
ENDBRANCH   1   2
BRANCH   1   6
ATOM      6  C   UNL     1     -37.818 -33.881  27.650  1.00  0.00     0.000 C 
BRANCH   6   7
ATOM      7  C   UNL     1     -38.903 -33.207  28.506  1.00  0.00    -0.000 C 
BRANCH   7   8
ATOM      8  C   UNL     1     -40.022 -32.585  27.656  1.00  0.00    -0.003 C 
ATOM      9  C   UNL     1     -41.417 -32.988  28.132  1.00  0.00     0.004 C 
ENDBRANCH   7   8
ENDBRANCH   6   7
ENDBRANCH   1   6
TORSDOF 5
ENDMDL
MODEL 7
REMARK VINA RESULT:    -2.785     10.882     12.025
REMARK INTER + INTRA:          -3.905
REMARK INTER:                  -3.745
REMARK INTRA:                  -0.160
REMARK UNBOUND:                -0.306
REMARK SMILES CCCCCCC(=O)[O-]
REMARK SMILES IDX 5 1 6 2 7 3 8 4 9 5 4 6 3 7 2 8 1 9
REMARK H PARENT
REMARK Flexibility Score: inf
ROOT
ATOM      1  C   UNL     1     -45.013 -38.338  17.326  1.00  0.00     0.006 C 
ENDROOT
BRANCH   1   2
ATOM      2  C   UNL     1     -45.327 -37.900  15.884  1.00  0.00     0.053 C 
BRANCH   2   3
ATOM      3  C   UNL     1     -44.148 -38.032  14.969  1.00  0.00     0.041 C 
ATOM      4  O   UNL     1     -43.025 -38.378  15.423  1.00  0.00    -0.550 OA
ATOM      5  O   UNL     1     -44.296 -37.802  13.606  1.00  0.00    -0.550 OA
ENDBRANCH   2   3
ENDBRANCH   1   2
BRANCH   1   6
ATOM      6  C   UNL     1     -45.485 -37.340  18.399  1.00  0.00     0.000 C 
BRANCH   6   7
ATOM      7  C   UNL     1     -44.324 -36.608  19.093  1.00  0.00    -0.000 C 
BRANCH   7   8
ATOM      8  C   UNL     1     -44.450 -36.624  20.624  1.00  0.00    -0.003 C 
ATOM      9  C   UNL     1     -45.472 -37.645  21.121  1.00  0.00     0.004 C 
ENDBRANCH   7   8
ENDBRANCH   6   7
ENDBRANCH   1   6
TORSDOF 5
ENDMDL
MODEL 8
REMARK VINA RESULT:    -1.123     12.856     14.684
REMARK INTER + INTRA:          -1.757
REMARK INTER:                  -1.431
REMARK INTRA:                  -0.326
REMARK UNBOUND:                -0.306
REMARK SMILES CCCCCCC(=O)[O-]
REMARK SMILES IDX 5 1 6 2 7 3 8 4 9 5 4 6 3 7 2 8 1 9
REMARK H PARENT
REMARK Flexibility Score: inf
ROOT
ATOM      1  C   UNL     1     -43.941 -38.043  14.744  1.00  0.00     0.006 C 
ENDROOT
BRANCH   1   2
ATOM      2  C   UNL     1     -44.581 -37.102  15.780  1.00  0.00     0.053 C 
BRANCH   2   3
ATOM      3  C   UNL     1     -44.986 -37.813  17.036  1.00  0.00     0.041 C 
ATOM      4  O   UNL     1     -45.911 -38.667  17.014  1.00  0.00    -0.550 OA
ATOM      5  O   UNL     1     -44.318 -37.555  18.227  1.00  0.00    -0.550 OA
ENDBRANCH   2   3
ENDBRANCH   1   2
BRANCH   1   6
ATOM      6  C   UNL     1     -44.730 -38.152  13.427  1.00  0.00     0.000 C 
BRANCH   6   7
ATOM      7  C   UNL     1     -46.040 -37.345  13.442  1.00  0.00    -0.000 C 
BRANCH   7   8
ATOM      8  C   UNL     1     -46.125 -36.339  12.283  1.00  0.00    -0.003 C 
ATOM      9  C   UNL     1     -45.623 -34.949  12.671  1.00  0.00     0.004 C 
ENDBRANCH   7   8
ENDBRANCH   6   7
ENDBRANCH   1   6
TORSDOF 5
ENDMDL
