MODEL 1
REMARK VINA RESULT:    -5.211      0.000      0.000
REMARK INTER + INTRA:          -6.123
REMARK INTER:                  -5.972
REMARK INTRA:                  -0.151
REMARK UNBOUND:                -0.151
REMARK SMILES O=C([O-])C=Cc1ccc(O)cc1
REMARK SMILES IDX 6 1 7 2 12 3 8 4 11 5 9 6 5 7 4 8 2 9 1 10 3 11 10 12
REMARK H PARENT 10 13
REMARK Flexibility Score: inf
ROOT
ATOM      1  C   UNL     1       1.358 -20.049  -5.766  1.00  0.00    -0.025 A 
ATOM      2  C   UNL     1       1.937 -20.312  -7.025  1.00  0.00     0.012 A 
ATOM      3  C   UNL     1       0.536 -21.026  -5.181  1.00  0.00     0.012 A 
ATOM      4  C   UNL     1       1.675 -21.516  -7.685  1.00  0.00     0.047 A 
ATOM      5  C   UNL     1       0.276 -22.228  -5.845  1.00  0.00     0.047 A 
ATOM      6  C   UNL     1       0.842 -22.476  -7.101  1.00  0.00     0.115 A 
ENDROOT
BRANCH   1   7
ATOM      7  C   UNL     1       1.612 -18.793  -5.017  1.00  0.00     0.010 C 
ATOM      8  C   UNL     1       1.222 -18.589  -3.751  1.00  0.00     0.025 C 
BRANCH   8   9
ATOM      9  C   UNL     1       1.506 -17.331  -3.043  1.00  0.00     0.064 C 
ATOM     10  O   UNL     1       2.361 -17.318  -2.118  1.00  0.00    -0.545 OA
ATOM     11  O   UNL     1       0.844 -16.155  -3.376  1.00  0.00    -0.545 OA
ENDBRANCH   8   9
ENDBRANCH   1   7
BRANCH   6  12
ATOM     12  O   UNL     1       0.591 -23.669  -7.773  1.00  0.00    -0.508 OA
ATOM     13  H   UNL     1       1.313 -24.371  -7.894  1.00  0.00     0.293 HD
ENDBRANCH   6  12
TORSDOF 3
ENDMDL
MODEL 2
REMARK VINA RESULT:    -5.178      0.145      1.678
REMARK INTER + INTRA:          -6.086
REMARK INTER:                  -5.945
REMARK INTRA:                  -0.141
REMARK UNBOUND:                -0.151
REMARK SMILES O=C([O-])C=Cc1ccc(O)cc1
REMARK SMILES IDX 6 1 7 2 12 3 8 4 11 5 9 6 5 7 4 8 2 9 1 10 3 11 10 12
REMARK H PARENT 10 13
REMARK Flexibility Score: inf
ROOT
ATOM      1  C   UNL     1       1.331 -20.101  -5.747  1.00  0.00    -0.025 A 
ATOM      2  C   UNL     1       0.523 -21.112  -5.186  1.00  0.00     0.012 A 
ATOM      3  C   UNL     1       1.872 -20.299  -7.029  1.00  0.00     0.012 A 
ATOM      4  C   UNL     1       0.287 -22.298  -5.888  1.00  0.00     0.047 A 
ATOM      5  C   UNL     1       1.634 -21.487  -7.726  1.00  0.00     0.047 A 
ATOM      6  C   UNL     1       0.843 -22.491  -7.156  1.00  0.00     0.115 A 
ENDROOT
BRANCH   1   7
ATOM      7  C   UNL     1       1.603 -18.818  -5.051  1.00  0.00     0.010 C 
ATOM      8  C   UNL     1       1.244 -18.567  -3.785  1.00  0.00     0.025 C 
BRANCH   8   9
ATOM      9  C   UNL     1       1.546 -17.283  -3.132  1.00  0.00     0.064 C 
ATOM     10  O   UNL     1       1.134 -16.211  -3.648  1.00  0.00    -0.545 OA
ATOM     11  O   UNL     1       2.282 -17.234  -1.953  1.00  0.00    -0.545 OA
ENDBRANCH   8   9
ENDBRANCH   1   7
BRANCH   6  12
ATOM     12  O   UNL     1       0.600 -23.680  -7.840  1.00  0.00    -0.508 OA
ATOM     13  H   UNL     1       0.419 -24.547  -7.347  1.00  0.00     0.293 HD
ENDBRANCH   6  12
TORSDOF 3
ENDMDL
MODEL 3
REMARK VINA RESULT:    -5.146     10.159     10.949
REMARK INTER + INTRA:          -6.049
REMARK INTER:                  -5.897
REMARK INTRA:                  -0.152
REMARK UNBOUND:                -0.151
REMARK SMILES O=C([O-])C=Cc1ccc(O)cc1
REMARK SMILES IDX 6 1 7 2 12 3 8 4 11 5 9 6 5 7 4 8 2 9 1 10 3 11 10 12
REMARK H PARENT 10 13
REMARK Flexibility Score: inf
ROOT
ATOM      1  C   UNL     1      -6.743 -26.515  -2.876  1.00  0.00    -0.025 A 
ATOM      2  C   UNL     1      -5.458 -27.083  -2.998  1.00  0.00     0.012 A 
ATOM      3  C   UNL     1      -7.860 -27.278  -3.257  1.00  0.00     0.012 A 
ATOM      4  C   UNL     1      -5.302 -28.375  -3.512  1.00  0.00     0.047 A 
ATOM      5  C   UNL     1      -7.700 -28.568  -3.770  1.00  0.00     0.047 A 
ATOM      6  C   UNL     1      -6.420 -29.119  -3.902  1.00  0.00     0.115 A 
ENDROOT
BRANCH   1   7
ATOM      7  C   UNL     1      -6.966 -25.154  -2.327  1.00  0.00     0.010 C 
ATOM      8  C   UNL     1      -8.174 -24.586  -2.214  1.00  0.00     0.025 C 
BRANCH   8   9
ATOM      9  C   UNL     1      -8.349 -23.237  -1.652  1.00  0.00     0.064 C 
ATOM     10  O   UNL     1      -9.466 -22.902  -1.176  1.00  0.00    -0.545 OA
ATOM     11  O   UNL     1      -7.301 -22.324  -1.639  1.00  0.00    -0.545 OA
ENDBRANCH   8   9
ENDBRANCH   1   7
BRANCH   6  12
ATOM     12  O   UNL     1      -6.246 -30.403  -4.413  1.00  0.00    -0.508 OA
ATOM     13  H   UNL     1      -5.434 -30.646  -4.968  1.00  0.00     0.293 HD
ENDBRANCH   6  12
TORSDOF 3
ENDMDL
MODEL 4
REMARK VINA RESULT:    -4.841      1.937      2.658
REMARK INTER + INTRA:          -5.700
REMARK INTER:                  -5.555
REMARK INTRA:                  -0.145
REMARK UNBOUND:                -0.151
REMARK SMILES O=C([O-])C=Cc1ccc(O)cc1
REMARK SMILES IDX 6 1 7 2 12 3 8 4 11 5 9 6 5 7 4 8 2 9 1 10 3 11 10 12
REMARK H PARENT 10 13
REMARK Flexibility Score: inf
ROOT
ATOM      1  C   UNL     1       1.546 -19.893  -6.304  1.00  0.00    -0.025 A 
ATOM      2  C   UNL     1       0.815 -20.716  -5.423  1.00  0.00     0.012 A 
ATOM      3  C   UNL     1       1.872 -20.386  -7.578  1.00  0.00     0.012 A 
ATOM      4  C   UNL     1       0.443 -22.008  -5.807  1.00  0.00     0.047 A 
ATOM      5  C   UNL     1       1.500 -21.679  -7.958  1.00  0.00     0.047 A 
ATOM      6  C   UNL     1       0.787 -22.495  -7.072  1.00  0.00     0.115 A 
ENDROOT
BRANCH   1   7
ATOM      7  C   UNL     1       1.954 -18.510  -5.952  1.00  0.00     0.010 C 
ATOM      8  C   UNL     1       3.175 -18.011  -6.188  1.00  0.00     0.025 C 
BRANCH   8   9
ATOM      9  C   UNL     1       3.533 -16.628  -5.832  1.00  0.00     0.064 C 
ATOM     10  O   UNL     1       2.764 -15.685  -6.156  1.00  0.00    -0.545 OA
ATOM     11  O   UNL     1       4.707 -16.346  -5.145  1.00  0.00    -0.545 OA
ENDBRANCH   8   9
ENDBRANCH   1   7
BRANCH   6  12
ATOM     12  O   UNL     1       0.411 -23.785  -7.438  1.00  0.00    -0.508 OA
ATOM     13  H   UNL     1       1.100 -24.490  -7.676  1.00  0.00     0.293 HD
ENDBRANCH   6  12
TORSDOF 3
ENDMDL
MODEL 5
REMARK VINA RESULT:    -4.628      3.613      4.425
REMARK INTER + INTRA:          -5.455
REMARK INTER:                  -5.308
REMARK INTRA:                  -0.147
REMARK UNBOUND:                -0.151
REMARK SMILES O=C([O-])C=Cc1ccc(O)cc1
REMARK SMILES IDX 6 1 7 2 12 3 8 4 11 5 9 6 5 7 4 8 2 9 1 10 3 11 10 12
REMARK H PARENT 10 13
REMARK Flexibility Score: inf
ROOT
ATOM      1  C   UNL     1       2.818 -20.192  -6.933  1.00  0.00    -0.025 A 
ATOM      2  C   UNL     1       2.097 -20.322  -5.729  1.00  0.00     0.012 A 
ATOM      3  C   UNL     1       2.404 -20.932  -8.054  1.00  0.00     0.012 A 
ATOM      4  C   UNL     1       1.004 -21.191  -5.650  1.00  0.00     0.047 A 
ATOM      5  C   UNL     1       1.312 -21.800  -7.970  1.00  0.00     0.047 A 
ATOM      6  C   UNL     1       0.610 -21.935  -6.766  1.00  0.00     0.115 A 
ENDROOT
BRANCH   1   7
ATOM      7  C   UNL     1       3.977 -19.276  -7.076  1.00  0.00     0.010 C 
ATOM      8  C   UNL     1       5.040 -19.535  -7.849  1.00  0.00     0.025 C 
BRANCH   8   9
ATOM      9  C   UNL     1       6.163 -18.591  -7.969  1.00  0.00     0.064 C 
ATOM     10  O   UNL     1       6.764 -18.205  -6.932  1.00  0.00    -0.545 OA
ATOM     11  O   UNL     1       6.571 -18.115  -9.210  1.00  0.00    -0.545 OA
ENDBRANCH   8   9
ENDBRANCH   1   7
BRANCH   6  12
ATOM     12  O   UNL     1      -0.479 -22.797  -6.670  1.00  0.00    -0.508 OA
ATOM     13  H   UNL     1      -0.635 -23.531  -7.352  1.00  0.00     0.293 HD
ENDBRANCH   6  12
TORSDOF 3
ENDMDL
MODEL 6
REMARK VINA RESULT:    -4.575     11.825     12.866
REMARK INTER + INTRA:          -5.395
REMARK INTER:                  -5.258
REMARK INTRA:                  -0.136
REMARK UNBOUND:                -0.151
REMARK SMILES O=C([O-])C=Cc1ccc(O)cc1
REMARK SMILES IDX 6 1 7 2 12 3 8 4 11 5 9 6 5 7 4 8 2 9 1 10 3 11 10 12
REMARK H PARENT 10 13
REMARK Flexibility Score: inf
ROOT
ATOM      1  C   UNL     1       4.611 -24.333   5.416  1.00  0.00    -0.025 A 
ATOM      2  C   UNL     1       5.516 -25.006   4.569  1.00  0.00     0.012 A 
ATOM      3  C   UNL     1       3.807 -23.315   4.876  1.00  0.00     0.012 A 
ATOM      4  C   UNL     1       5.625 -24.646   3.223  1.00  0.00     0.047 A 
ATOM      5  C   UNL     1       3.920 -22.958   3.529  1.00  0.00     0.047 A 
ATOM      6  C   UNL     1       4.832 -23.620   2.699  1.00  0.00     0.115 A 
ENDROOT
BRANCH   1   7
ATOM      7  C   UNL     1       4.446 -24.683   6.849  1.00  0.00     0.010 C 
ATOM      8  C   UNL     1       5.470 -24.840   7.699  1.00  0.00     0.025 C 
BRANCH   8   9
ATOM      9  C   UNL     1       5.259 -25.176   9.117  1.00  0.00     0.064 C 
ATOM     10  O   UNL     1       5.022 -26.369   9.443  1.00  0.00    -0.545 OA
ATOM     11  O   UNL     1       5.314 -24.197  10.102  1.00  0.00    -0.545 OA
ENDBRANCH   8   9
ENDBRANCH   1   7
BRANCH   6  12
ATOM     12  O   UNL     1       4.954 -23.273   1.356  1.00  0.00    -0.508 OA
ATOM     13  H   UNL     1       5.404 -22.410   1.072  1.00  0.00     0.293 HD
ENDBRANCH   6  12
TORSDOF 3
ENDMDL
MODEL 7
REMARK VINA RESULT:    -4.562      4.039      5.582
REMARK INTER + INTRA:          -5.380
REMARK INTER:                  -5.245
REMARK INTRA:                  -0.134
REMARK UNBOUND:                -0.151
REMARK SMILES O=C([O-])C=Cc1ccc(O)cc1
REMARK SMILES IDX 6 1 7 2 12 3 8 4 11 5 9 6 5 7 4 8 2 9 1 10 3 11 10 12
REMARK H PARENT 10 13
REMARK Flexibility Score: inf
ROOT
ATOM      1  C   UNL     1       4.514 -20.806  -6.956  1.00  0.00    -0.025 A 
ATOM      2  C   UNL     1       4.740 -19.606  -7.660  1.00  0.00     0.012 A 
ATOM      3  C   UNL     1       5.562 -21.736  -6.848  1.00  0.00     0.012 A 
ATOM      4  C   UNL     1       5.980 -19.360  -8.258  1.00  0.00     0.047 A 
ATOM      5  C   UNL     1       6.799 -21.487  -7.448  1.00  0.00     0.047 A 
ATOM      6  C   UNL     1       7.011 -20.300  -8.158  1.00  0.00     0.115 A 
ENDROOT
BRANCH   1   7
ATOM      7  C   UNL     1       3.222 -21.112  -6.291  1.00  0.00     0.010 C 
ATOM      8  C   UNL     1       2.086 -21.368  -6.954  1.00  0.00     0.025 C 
BRANCH   8   9
ATOM      9  C   UNL     1       0.830 -21.678  -6.253  1.00  0.00     0.064 C 
ATOM     10  O   UNL     1       0.024 -22.504  -6.758  1.00  0.00    -0.545 OA
ATOM     11  O   UNL     1       0.516 -21.072  -5.042  1.00  0.00    -0.545 OA
ENDBRANCH   8   9
ENDBRANCH   1   7
BRANCH   6  12
ATOM     12  O   UNL     1       8.239 -20.040  -8.762  1.00  0.00    -0.508 OA
ATOM     13  H   UNL     1       8.798 -19.236  -8.500  1.00  0.00     0.293 HD
ENDBRANCH   6  12
TORSDOF 3
ENDMDL
MODEL 8
REMARK VINA RESULT:    -4.468     12.342     13.905
REMARK INTER + INTRA:          -5.272
REMARK INTER:                  -5.131
REMARK INTRA:                  -0.141
REMARK UNBOUND:                -0.151
REMARK SMILES O=C([O-])C=Cc1ccc(O)cc1
REMARK SMILES IDX 6 1 7 2 12 3 8 4 11 5 9 6 5 7 4 8 2 9 1 10 3 11 10 12
REMARK H PARENT 10 13
REMARK Flexibility Score: inf
ROOT
ATOM      1  C   UNL     1       4.249 -24.589   6.472  1.00  0.00    -0.025 A 
ATOM      2  C   UNL     1       3.931 -24.033   5.215  1.00  0.00     0.012 A 
ATOM      3  C   UNL     1       5.125 -23.890   7.320  1.00  0.00     0.012 A 
ATOM      4  C   UNL     1       4.498 -22.819   4.816  1.00  0.00     0.047 A 
ATOM      5  C   UNL     1       5.690 -22.677   6.916  1.00  0.00     0.047 A 
ATOM      6  C   UNL     1       5.381 -22.139   5.661  1.00  0.00     0.115 A 
ENDROOT
BRANCH   1   7
ATOM      7  C   UNL     1       3.666 -25.867   6.950  1.00  0.00     0.010 C 
ATOM      8  C   UNL     1       2.407 -26.250   6.702  1.00  0.00     0.025 C 
BRANCH   8   9
ATOM      9  C   UNL     1       1.874 -27.534   7.187  1.00  0.00     0.064 C 
ATOM     10  O   UNL     1       2.334 -28.036   8.247  1.00  0.00    -0.545 OA
ATOM     11  O   UNL     1       0.873 -28.204   6.493  1.00  0.00    -0.545 OA
ENDBRANCH   8   9
ENDBRANCH   1   7
BRANCH   6  12
ATOM     12  O   UNL     1       5.939 -20.932   5.247  1.00  0.00    -0.508 OA
ATOM     13  H   UNL     1       5.765 -20.560   4.320  1.00  0.00     0.293 HD
ENDBRANCH   6  12
TORSDOF 3
ENDMDL
MODEL 9
REMARK VINA RESULT:    -4.388     10.537     12.271
REMARK INTER + INTRA:          -5.181
REMARK INTER:                  -5.043
REMARK INTRA:                  -0.137
REMARK UNBOUND:                -0.151
REMARK SMILES O=C([O-])C=Cc1ccc(O)cc1
REMARK SMILES IDX 6 1 7 2 12 3 8 4 11 5 9 6 5 7 4 8 2 9 1 10 3 11 10 12
REMARK H PARENT 10 13
REMARK Flexibility Score: inf
ROOT
ATOM      1  C   UNL     1      -7.722 -25.107  -1.930  1.00  0.00    -0.025 A 
ATOM      2  C   UNL     1      -7.386 -23.783  -2.279  1.00  0.00     0.012 A 
ATOM      3  C   UNL     1      -8.903 -25.337  -1.203  1.00  0.00     0.012 A 
ATOM      4  C   UNL     1      -8.204 -22.719  -1.886  1.00  0.00     0.047 A 
ATOM      5  C   UNL     1      -9.717 -24.271  -0.812  1.00  0.00     0.047 A 
ATOM      6  C   UNL     1      -9.368 -22.958  -1.150  1.00  0.00     0.115 A 
ENDROOT
BRANCH   1   7
ATOM      7  C   UNL     1      -6.897 -26.274  -2.332  1.00  0.00     0.010 C 
ATOM      8  C   UNL     1      -7.189 -27.071  -3.368  1.00  0.00     0.025 C 
BRANCH   8   9
ATOM      9  C   UNL     1      -6.334 -28.212  -3.737  1.00  0.00     0.064 C 
ATOM     10  O   UNL     1      -6.816 -29.153  -4.421  1.00  0.00    -0.545 OA
ATOM     11  O   UNL     1      -5.003 -28.267  -3.341  1.00  0.00    -0.545 OA
ENDBRANCH   8   9
ENDBRANCH   1   7
BRANCH   6  12
ATOM     12  O   UNL     1     -10.170 -21.886  -0.765  1.00  0.00    -0.508 OA
ATOM     13  H   UNL     1     -11.026 -21.662  -1.259  1.00  0.00     0.293 HD
ENDBRANCH   6  12
TORSDOF 3
ENDMDL
