MODEL 1
REMARK VINA RESULT:    -2.918      0.000      0.000
REMARK INTER + INTRA:         -12.212
REMARK INTER:                  -7.694
REMARK INTRA:                  -4.518
REMARK UNBOUND:                -4.518
REMARK SMILES CCCCCCCCCCCCCCCCCCCCCCCCCCCCCC(=O)[O-]
REMARK SMILES IDX 16 1 17 2 18 3 19 4 20 5 21 6 22 7 23 8 24 9 25 10 26 11
REMARK SMILES IDX 27 12 28 13 29 14 30 15 31 16 32 17 15 18 14 19 13 20 12 21
REMARK SMILES IDX 11 22 10 23 9 24 8 25 7 26 6 27 5 28 4 29 3 30 2 31 1 32
REMARK H PARENT
REMARK Flexibility Score: inf
ROOT
ATOM      1  C   UNL     1     143.932 150.259 141.740  1.00  0.00     0.000 C 
ENDROOT
BRANCH   1   2
ATOM      2  C   UNL     1     143.063 149.947 142.973  1.00  0.00     0.000 C 
BRANCH   2   3
ATOM      3  C   UNL     1     143.431 148.650 143.717  1.00  0.00     0.000 C 
BRANCH   3   4
ATOM      4  C   UNL     1     144.190 148.846 145.045  1.00  0.00     0.000 C 
BRANCH   4   5
ATOM      5  C   UNL     1     144.326 150.304 145.515  1.00  0.00     0.000 C 
BRANCH   5   6
ATOM      6  C   UNL     1     144.337 150.448 147.044  1.00  0.00     0.000 C 
BRANCH   6   7
ATOM      7  C   UNL     1     145.467 151.389 147.490  1.00  0.00     0.000 C 
BRANCH   7   8
ATOM      8  C   UNL     1     145.942 151.107 148.925  1.00  0.00     0.000 C 
BRANCH   8   9
ATOM      9  C   UNL     1     145.634 149.664 149.368  1.00  0.00     0.000 C 
BRANCH   9  10
ATOM     10  C   UNL     1     145.322 149.566 150.873  1.00  0.00     0.000 C 
BRANCH  10  11
ATOM     11  C   UNL     1     144.220 150.538 151.339  1.00  0.00     0.000 C 
BRANCH  11  12
ATOM     12  C   UNL     1     144.685 151.488 152.468  1.00  0.00     0.000 C 
BRANCH  12  13
ATOM     13  C   UNL     1     144.829 152.952 152.016  1.00  0.00     0.006 C 
BRANCH  13  14
ATOM     14  C   UNL     1     145.973 153.704 152.712  1.00  0.00     0.053 C 
BRANCH  14  15
ATOM     15  C   UNL     1     145.579 155.100 153.089  1.00  0.00     0.041 C 
ATOM     16  O   UNL     1     144.778 155.750 152.366  1.00  0.00    -0.550 OA
ATOM     17  O   UNL     1     146.100 155.684 154.236  1.00  0.00    -0.550 OA
ENDBRANCH  14  15
ENDBRANCH  13  14
ENDBRANCH  12  13
ENDBRANCH  11  12
ENDBRANCH  10  11
ENDBRANCH   9  10
ENDBRANCH   8   9
ENDBRANCH   7   8
ENDBRANCH   6   7
ENDBRANCH   5   6
ENDBRANCH   4   5
ENDBRANCH   3   4
ENDBRANCH   2   3
ENDBRANCH   1   2
BRANCH   1  18
ATOM     18  C   UNL     1     144.374 149.010 140.949  1.00  0.00     0.000 C 
BRANCH  18  19
ATOM     19  C   UNL     1     145.905 148.853 140.891  1.00  0.00     0.000 C 
BRANCH  19  20
ATOM     20  C   UNL     1     146.630 149.783 141.877  1.00  0.00     0.000 C 
BRANCH  20  21
ATOM     21  C   UNL     1     147.355 149.012 142.993  1.00  0.00     0.000 C 
BRANCH  21  22
ATOM     22  C   UNL     1     146.974 147.522 143.019  1.00  0.00     0.000 C 
BRANCH  22  23
ATOM     23  C   UNL     1     148.204 146.599 142.957  1.00  0.00     0.000 C 
BRANCH  23  24
ATOM     24  C   UNL     1     147.894 145.240 142.294  1.00  0.00    -0.000 C 
BRANCH  24  25
ATOM     25  C   UNL     1     146.840 145.324 141.173  1.00  0.00    -0.000 C 
BRANCH  25  26
ATOM     26  C   UNL     1     145.546 144.532 141.438  1.00  0.00    -0.000 C 
BRANCH  26  27
ATOM     27  C   UNL     1     144.346 145.377 141.903  1.00  0.00    -0.000 C 
BRANCH  27  28
ATOM     28  C   UNL     1     143.816 144.960 143.283  1.00  0.00    -0.000 C 
BRANCH  28  29
ATOM     29  C   UNL     1     144.853 144.121 144.043  1.00  0.00    -0.000 C 
BRANCH  29  30
ATOM     30  C   UNL     1     145.481 144.886 145.218  1.00  0.00    -0.000 C 
BRANCH  30  31
ATOM     31  C   UNL     1     144.432 145.407 146.212  1.00  0.00    -0.003 C 
ATOM     32  C   UNL     1     143.990 144.306 147.171  1.00  0.00     0.004 C 
ENDBRANCH  30  31
ENDBRANCH  29  30
ENDBRANCH  28  29
ENDBRANCH  27  28
ENDBRANCH  26  27
ENDBRANCH  25  26
ENDBRANCH  24  25
ENDBRANCH  23  24
ENDBRANCH  22  23
ENDBRANCH  21  22
ENDBRANCH  20  21
ENDBRANCH  19  20
ENDBRANCH  18  19
ENDBRANCH   1  18
TORSDOF 28
ENDMDL
MODEL 2
REMARK VINA RESULT:    -2.740      1.097      2.514
REMARK INTER + INTRA:         -11.743
REMARK INTER:                  -7.757
REMARK INTRA:                  -3.986
REMARK UNBOUND:                -4.518
REMARK SMILES CCCCCCCCCCCCCCCCCCCCCCCCCCCCCC(=O)[O-]
REMARK SMILES IDX 16 1 17 2 18 3 19 4 20 5 21 6 22 7 23 8 24 9 25 10 26 11
REMARK SMILES IDX 27 12 28 13 29 14 30 15 31 16 32 17 15 18 14 19 13 20 12 21
REMARK SMILES IDX 11 22 10 23 9 24 8 25 7 26 6 27 5 28 4 29 3 30 2 31 1 32
REMARK H PARENT
REMARK Flexibility Score: inf
ROOT
ATOM      1  C   UNL     1     143.119 150.614 143.229  1.00  0.00     0.000 C 
ENDROOT
BRANCH   1   2
ATOM      2  C   UNL     1     144.305 150.543 144.209  1.00  0.00     0.000 C 
BRANCH   2   3
ATOM      3  C   UNL     1     144.280 149.345 145.176  1.00  0.00     0.000 C 
BRANCH   3   4
ATOM      4  C   UNL     1     144.142 149.707 146.668  1.00  0.00     0.000 C 
BRANCH   4   5
ATOM      5  C   UNL     1     144.807 151.029 147.087  1.00  0.00     0.000 C 
BRANCH   5   6
ATOM      6  C   UNL     1     144.737 151.288 148.600  1.00  0.00     0.000 C 
BRANCH   6   7
ATOM      7  C   UNL     1     145.976 150.715 149.304  1.00  0.00     0.000 C 
BRANCH   7   8
ATOM      8  C   UNL     1     145.616 149.740 150.437  1.00  0.00     0.000 C 
BRANCH   8   9
ATOM      9  C   UNL     1     144.321 150.145 151.166  1.00  0.00     0.000 C 
BRANCH   9  10
ATOM     10  C   UNL     1     144.534 150.343 152.678  1.00  0.00     0.000 C 
BRANCH  10  11
ATOM     11  C   UNL     1     144.318 151.796 153.146  1.00  0.00     0.000 C 
BRANCH  11  12
ATOM     12  C   UNL     1     145.272 152.804 152.463  1.00  0.00     0.000 C 
BRANCH  12  13
ATOM     13  C   UNL     1     145.879 153.829 153.438  1.00  0.00     0.006 C 
BRANCH  13  14
ATOM     14  C   UNL     1     146.411 155.095 152.750  1.00  0.00     0.053 C 
BRANCH  14  15
ATOM     15  C   UNL     1     145.472 156.253 152.907  1.00  0.00     0.041 C 
ATOM     16  O   UNL     1     145.670 157.113 153.805  1.00  0.00    -0.550 OA
ATOM     17  O   UNL     1     144.378 156.380 152.061  1.00  0.00    -0.550 OA
ENDBRANCH  14  15
ENDBRANCH  13  14
ENDBRANCH  12  13
ENDBRANCH  11  12
ENDBRANCH  10  11
ENDBRANCH   9  10
ENDBRANCH   8   9
ENDBRANCH   7   8
ENDBRANCH   6   7
ENDBRANCH   5   6
ENDBRANCH   4   5
ENDBRANCH   3   4
ENDBRANCH   2   3
ENDBRANCH   1   2
BRANCH   1  18
ATOM     18  C   UNL     1     143.530 150.596 141.741  1.00  0.00     0.000 C 
BRANCH  18  19
ATOM     19  C   UNL     1     142.962 149.382 140.982  1.00  0.00     0.000 C 
BRANCH  19  20
ATOM     20  C   UNL     1     143.335 148.046 141.643  1.00  0.00     0.000 C 
BRANCH  20  21
ATOM     21  C   UNL     1     144.191 147.153 140.729  1.00  0.00     0.000 C 
BRANCH  21  22
ATOM     22  C   UNL     1     145.114 147.969 139.809  1.00  0.00     0.000 C 
BRANCH  22  23
ATOM     23  C   UNL     1     146.568 148.001 140.312  1.00  0.00     0.000 C 
BRANCH  23  24
ATOM     24  C   UNL     1     146.804 149.095 141.375  1.00  0.00    -0.000 C 
BRANCH  24  25
ATOM     25  C   UNL     1     147.101 148.539 142.781  1.00  0.00    -0.000 C 
BRANCH  25  26
ATOM     26  C   UNL     1     147.719 147.128 142.804  1.00  0.00    -0.000 C 
BRANCH  26  27
ATOM     27  C   UNL     1     146.981 146.106 143.689  1.00  0.00    -0.000 C 
BRANCH  27  28
ATOM     28  C   UNL     1     146.331 144.971 142.884  1.00  0.00    -0.000 C 
BRANCH  28  29
ATOM     29  C   UNL     1     144.901 144.696 143.371  1.00  0.00    -0.000 C 
BRANCH  29  30
ATOM     30  C   UNL     1     144.461 145.666 144.479  1.00  0.00    -0.000 C 
BRANCH  30  31
ATOM     31  C   UNL     1     144.218 144.959 145.821  1.00  0.00    -0.003 C 
ATOM     32  C   UNL     1     144.052 145.970 146.951  1.00  0.00     0.004 C 
ENDBRANCH  30  31
ENDBRANCH  29  30
ENDBRANCH  28  29
ENDBRANCH  27  28
ENDBRANCH  26  27
ENDBRANCH  25  26
ENDBRANCH  24  25
ENDBRANCH  23  24
ENDBRANCH  22  23
ENDBRANCH  21  22
ENDBRANCH  20  21
ENDBRANCH  19  20
ENDBRANCH  18  19
ENDBRANCH   1  18
TORSDOF 28
ENDMDL
MODEL 3
REMARK VINA RESULT:    -2.681      1.703      4.387
REMARK INTER + INTRA:         -11.587
REMARK INTER:                  -7.031
REMARK INTRA:                  -4.556
REMARK UNBOUND:                -4.518
REMARK SMILES CCCCCCCCCCCCCCCCCCCCCCCCCCCCCC(=O)[O-]
REMARK SMILES IDX 16 1 17 2 18 3 19 4 20 5 21 6 22 7 23 8 24 9 25 10 26 11
REMARK SMILES IDX 27 12 28 13 29 14 30 15 31 16 32 17 15 18 14 19 13 20 12 21
REMARK SMILES IDX 11 22 10 23 9 24 8 25 7 26 6 27 5 28 4 29 3 30 2 31 1 32
REMARK H PARENT
REMARK Flexibility Score: inf
ROOT
ATOM      1  C   UNL     1     143.054 149.930 146.538  1.00  0.00     0.000 C 
ENDROOT
BRANCH   1   2
ATOM      2  C   UNL     1     144.392 150.641 146.261  1.00  0.00     0.000 C 
BRANCH   2   3
ATOM      3  C   UNL     1     144.788 151.710 147.296  1.00  0.00     0.000 C 
BRANCH   3   4
ATOM      4  C   UNL     1     145.901 151.293 148.278  1.00  0.00     0.000 C 
BRANCH   4   5
ATOM      5  C   UNL     1     145.501 151.296 149.763  1.00  0.00     0.000 C 
BRANCH   5   6
ATOM      6  C   UNL     1     144.033 151.687 149.992  1.00  0.00     0.000 C 
BRANCH   6   7
ATOM      7  C   UNL     1     143.312 150.617 150.826  1.00  0.00     0.000 C 
BRANCH   7   8
ATOM      8  C   UNL     1     144.221 149.426 151.175  1.00  0.00     0.000 C 
BRANCH   8   9
ATOM      9  C   UNL     1     144.299 149.178 152.693  1.00  0.00     0.000 C 
BRANCH   9  10
ATOM     10  C   UNL     1     143.898 150.418 153.514  1.00  0.00     0.000 C 
BRANCH  10  11
ATOM     11  C   UNL     1     145.090 151.113 154.201  1.00  0.00     0.000 C 
BRANCH  11  12
ATOM     12  C   UNL     1     144.878 152.634 154.397  1.00  0.00     0.000 C 
BRANCH  12  13
ATOM     13  C   UNL     1     144.325 153.340 153.147  1.00  0.00     0.006 C 
BRANCH  13  14
ATOM     14  C   UNL     1     144.938 154.727 152.900  1.00  0.00     0.053 C 
BRANCH  14  15
ATOM     15  C   UNL     1     146.343 154.817 153.414  1.00  0.00     0.041 C 
ATOM     16  O   UNL     1     147.291 154.303 152.763  1.00  0.00    -0.550 OA
ATOM     17  O   UNL     1     146.605 155.468 154.613  1.00  0.00    -0.550 OA
ENDBRANCH  14  15
ENDBRANCH  13  14
ENDBRANCH  12  13
ENDBRANCH  11  12
ENDBRANCH  10  11
ENDBRANCH   9  10
ENDBRANCH   8   9
ENDBRANCH   7   8
ENDBRANCH   6   7
ENDBRANCH   5   6
ENDBRANCH   4   5
ENDBRANCH   3   4
ENDBRANCH   2   3
ENDBRANCH   1   2
BRANCH   1  18
ATOM     18  C   UNL     1     143.149 148.795 147.580  1.00  0.00     0.000 C 
BRANCH  18  19
ATOM     19  C   UNL     1     143.777 147.512 147.006  1.00  0.00     0.000 C 
BRANCH  19  20
ATOM     20  C   UNL     1     143.242 147.169 145.607  1.00  0.00     0.000 C 
BRANCH  20  21
ATOM     21  C   UNL     1     144.366 146.982 144.574  1.00  0.00     0.000 C 
BRANCH  21  22
ATOM     22  C   UNL     1     144.371 148.089 143.506  1.00  0.00     0.000 C 
BRANCH  22  23
ATOM     23  C   UNL     1     145.734 148.793 143.395  1.00  0.00     0.000 C 
BRANCH  23  24
ATOM     24  C   UNL     1     145.759 149.868 142.287  1.00  0.00    -0.000 C 
BRANCH  24  25
ATOM     25  C   UNL     1     144.373 150.173 141.688  1.00  0.00    -0.000 C 
BRANCH  25  26
ATOM     26  C   UNL     1     144.239 149.887 140.181  1.00  0.00    -0.000 C 
BRANCH  26  27
ATOM     27  C   UNL     1     143.548 148.557 139.827  1.00  0.00    -0.000 C 
BRANCH  27  28
ATOM     28  C   UNL     1     144.505 147.356 139.853  1.00  0.00    -0.000 C 
BRANCH  28  29
ATOM     29  C   UNL     1     145.818 147.681 139.126  1.00  0.00    -0.000 C 
BRANCH  29  30
ATOM     30  C   UNL     1     147.053 147.175 139.889  1.00  0.00    -0.000 C 
BRANCH  30  31
ATOM     31  C   UNL     1     146.703 146.112 140.941  1.00  0.00    -0.003 C 
ATOM     32  C   UNL     1     147.732 146.095 142.067  1.00  0.00     0.004 C 
ENDBRANCH  30  31
ENDBRANCH  29  30
ENDBRANCH  28  29
ENDBRANCH  27  28
ENDBRANCH  26  27
ENDBRANCH  25  26
ENDBRANCH  24  25
ENDBRANCH  23  24
ENDBRANCH  22  23
ENDBRANCH  21  22
ENDBRANCH  20  21
ENDBRANCH  19  20
ENDBRANCH  18  19
ENDBRANCH   1  18
TORSDOF 28
ENDMDL
MODEL 4
REMARK VINA RESULT:    -2.656      1.317      2.171
REMARK INTER + INTRA:         -11.522
REMARK INTER:                  -7.427
REMARK INTRA:                  -4.095
REMARK UNBOUND:                -4.518
REMARK SMILES CCCCCCCCCCCCCCCCCCCCCCCCCCCCCC(=O)[O-]
REMARK SMILES IDX 16 1 17 2 18 3 19 4 20 5 21 6 22 7 23 8 24 9 25 10 26 11
REMARK SMILES IDX 27 12 28 13 29 14 30 15 31 16 32 17 15 18 14 19 13 20 12 21
REMARK SMILES IDX 11 22 10 23 9 24 8 25 7 26 6 27 5 28 4 29 3 30 2 31 1 32
REMARK H PARENT
REMARK Flexibility Score: inf
ROOT
ATOM      1  C   UNL     1     146.097 149.813 141.555  1.00  0.00     0.000 C 
ENDROOT
BRANCH   1   2
ATOM      2  C   UNL     1     146.347 149.831 143.075  1.00  0.00     0.000 C 
BRANCH   2   3
ATOM      3  C   UNL     1     145.173 149.328 143.934  1.00  0.00     0.000 C 
BRANCH   3   4
ATOM      4  C   UNL     1     144.662 150.322 144.997  1.00  0.00     0.000 C 
BRANCH   4   5
ATOM      5  C   UNL     1     143.693 149.732 146.035  1.00  0.00     0.000 C 
BRANCH   5   6
ATOM      6  C   UNL     1     143.870 150.334 147.437  1.00  0.00     0.000 C 
BRANCH   6   7
ATOM      7  C   UNL     1     145.111 151.239 147.484  1.00  0.00     0.000 C 
BRANCH   7   8
ATOM      8  C   UNL     1     145.975 150.996 148.732  1.00  0.00     0.000 C 
BRANCH   8   9
ATOM      9  C   UNL     1     145.681 149.635 149.390  1.00  0.00     0.000 C 
BRANCH   9  10
ATOM     10  C   UNL     1     145.325 149.768 150.882  1.00  0.00     0.000 C 
BRANCH  10  11
ATOM     11  C   UNL     1     143.858 150.170 151.133  1.00  0.00     0.000 C 
BRANCH  11  12
ATOM     12  C   UNL     1     143.680 151.681 151.416  1.00  0.00     0.000 C 
BRANCH  12  13
ATOM     13  C   UNL     1     144.921 152.334 152.050  1.00  0.00     0.006 C 
BRANCH  13  14
ATOM     14  C   UNL     1     144.590 153.506 152.987  1.00  0.00     0.053 C 
BRANCH  14  15
ATOM     15  C   UNL     1     145.602 154.606 152.886  1.00  0.00     0.041 C 
ATOM     16  O   UNL     1     145.250 155.762 152.533  1.00  0.00    -0.550 OA
ATOM     17  O   UNL     1     146.936 154.354 153.181  1.00  0.00    -0.550 OA
ENDBRANCH  14  15
ENDBRANCH  13  14
ENDBRANCH  12  13
ENDBRANCH  11  12
ENDBRANCH  10  11
ENDBRANCH   9  10
ENDBRANCH   8   9
ENDBRANCH   7   8
ENDBRANCH   6   7
ENDBRANCH   5   6
ENDBRANCH   4   5
ENDBRANCH   3   4
ENDBRANCH   2   3
ENDBRANCH   1   2
BRANCH   1  18
ATOM     18  C   UNL     1     144.668 149.386 141.158  1.00  0.00     0.000 C 
BRANCH  18  19
ATOM     19  C   UNL     1     144.147 150.135 139.917  1.00  0.00     0.000 C 
BRANCH  19  20
ATOM     20  C   UNL     1     143.798 149.185 138.759  1.00  0.00     0.000 C 
BRANCH  20  21
ATOM     21  C   UNL     1     144.408 147.785 138.940  1.00  0.00     0.000 C 
BRANCH  21  22
ATOM     22  C   UNL     1     145.684 147.588 138.105  1.00  0.00     0.000 C 
BRANCH  22  23
ATOM     23  C   UNL     1     146.913 147.272 138.974  1.00  0.00     0.000 C 
BRANCH  23  24
ATOM     24  C   UNL     1     146.651 146.130 139.980  1.00  0.00    -0.000 C 
BRANCH  24  25
ATOM     25  C   UNL     1     147.368 146.318 141.331  1.00  0.00    -0.000 C 
BRANCH  25  26
ATOM     26  C   UNL     1     146.472 146.146 142.572  1.00  0.00    -0.000 C 
BRANCH  26  27
ATOM     27  C   UNL     1     144.976 145.937 142.273  1.00  0.00    -0.000 C 
BRANCH  27  28
ATOM     28  C   UNL     1     144.168 145.522 143.511  1.00  0.00    -0.000 C 
BRANCH  28  29
ATOM     29  C   UNL     1     144.942 145.822 144.803  1.00  0.00    -0.000 C 
BRANCH  29  30
ATOM     30  C   UNL     1     145.016 144.607 145.741  1.00  0.00    -0.000 C 
BRANCH  30  31
ATOM     31  C   UNL     1     144.231 144.819 147.045  1.00  0.00    -0.003 C 
ATOM     32  C   UNL     1     143.681 146.239 147.128  1.00  0.00     0.004 C 
ENDBRANCH  30  31
ENDBRANCH  29  30
ENDBRANCH  28  29
ENDBRANCH  27  28
ENDBRANCH  26  27
ENDBRANCH  25  26
ENDBRANCH  24  25
ENDBRANCH  23  24
ENDBRANCH  22  23
ENDBRANCH  21  22
ENDBRANCH  20  21
ENDBRANCH  19  20
ENDBRANCH  18  19
ENDBRANCH   1  18
TORSDOF 28
ENDMDL
MODEL 5
REMARK VINA RESULT:    -2.651      4.702     10.694
REMARK INTER + INTRA:         -11.509
REMARK INTER:                  -7.157
REMARK INTRA:                  -4.352
REMARK UNBOUND:                -4.518
REMARK SMILES CCCCCCCCCCCCCCCCCCCCCCCCCCCCCC(=O)[O-]
REMARK SMILES IDX 16 1 17 2 18 3 19 4 20 5 21 6 22 7 23 8 24 9 25 10 26 11
REMARK SMILES IDX 27 12 28 13 29 14 30 15 31 16 32 17 15 18 14 19 13 20 12 21
REMARK SMILES IDX 11 22 10 23 9 24 8 25 7 26 6 27 5 28 4 29 3 30 2 31 1 32
REMARK H PARENT
REMARK Flexibility Score: inf
ROOT
ATOM      1  C   UNL     1     145.162 149.512 143.939  1.00  0.00     0.000 C 
ENDROOT
BRANCH   1   2
ATOM      2  C   UNL     1     145.630 149.836 142.508  1.00  0.00     0.000 C 
BRANCH   2   3
ATOM      3  C   UNL     1     146.896 149.088 142.052  1.00  0.00     0.000 C 
BRANCH   3   4
ATOM      4  C   UNL     1     147.426 148.029 143.041  1.00  0.00     0.000 C 
BRANCH   4   5
ATOM      5  C   UNL     1     147.694 146.641 142.435  1.00  0.00     0.000 C 
BRANCH   5   6
ATOM      6  C   UNL     1     146.474 145.710 142.496  1.00  0.00     0.000 C 
BRANCH   6   7
ATOM      7  C   UNL     1     145.761 145.841 143.851  1.00  0.00     0.000 C 
BRANCH   7   8
ATOM      8  C   UNL     1     144.242 146.023 143.707  1.00  0.00     0.000 C 
BRANCH   8   9
ATOM      9  C   UNL     1     143.788 145.998 142.236  1.00  0.00     0.000 C 
BRANCH   9  10
ATOM     10  C   UNL     1     142.997 147.260 141.843  1.00  0.00     0.000 C 
BRANCH  10  11
ATOM     11  C   UNL     1     143.429 147.861 140.491  1.00  0.00     0.000 C 
BRANCH  11  12
ATOM     12  C   UNL     1     144.519 147.029 139.774  1.00  0.00     0.000 C 
BRANCH  12  13
ATOM     13  C   UNL     1     145.536 147.888 139.002  1.00  0.00     0.006 C 
BRANCH  13  14
ATOM     14  C   UNL     1     146.899 147.206 138.809  1.00  0.00     0.053 C 
BRANCH  14  15
ATOM     15  C   UNL     1     146.754 145.786 138.353  1.00  0.00     0.041 C 
ATOM     16  O   UNL     1     147.105 144.839 139.106  1.00  0.00    -0.550 OA
ATOM     17  O   UNL     1     146.235 145.508 137.095  1.00  0.00    -0.550 OA
ENDBRANCH  14  15
ENDBRANCH  13  14
ENDBRANCH  12  13
ENDBRANCH  11  12
ENDBRANCH  10  11
ENDBRANCH   9  10
ENDBRANCH   8   9
ENDBRANCH   7   8
ENDBRANCH   6   7
ENDBRANCH   5   6
ENDBRANCH   4   5
ENDBRANCH   3   4
ENDBRANCH   2   3
ENDBRANCH   1   2
BRANCH   1  18
ATOM     18  C   UNL     1     143.763 150.066 144.284  1.00  0.00     0.000 C 
BRANCH  18  19
ATOM     19  C   UNL     1     143.823 151.326 145.167  1.00  0.00     0.000 C 
BRANCH  19  20
ATOM     20  C   UNL     1     143.324 151.067 146.598  1.00  0.00     0.000 C 
BRANCH  20  21
ATOM     21  C   UNL     1     144.400 150.427 147.492  1.00  0.00     0.000 C 
BRANCH  21  22
ATOM     22  C   UNL     1     145.512 151.419 147.873  1.00  0.00     0.000 C 
BRANCH  22  23
ATOM     23  C   UNL     1     146.142 151.099 149.240  1.00  0.00     0.000 C 
BRANCH  23  24
ATOM     24  C   UNL     1     145.758 149.695 149.756  1.00  0.00    -0.000 C 
BRANCH  24  25
ATOM     25  C   UNL     1     145.139 149.702 151.167  1.00  0.00    -0.000 C 
BRANCH  25  26
ATOM     26  C   UNL     1     144.183 150.876 151.451  1.00  0.00    -0.000 C 
BRANCH  26  27
ATOM     27  C   UNL     1     144.493 151.676 152.730  1.00  0.00    -0.000 C 
BRANCH  27  28
ATOM     28  C   UNL     1     144.665 153.180 152.471  1.00  0.00    -0.000 C 
BRANCH  28  29
ATOM     29  C   UNL     1     146.135 153.529 152.194  1.00  0.00    -0.000 C 
BRANCH  29  30
ATOM     30  C   UNL     1     146.704 154.530 153.212  1.00  0.00    -0.000 C 
BRANCH  30  31
ATOM     31  C   UNL     1     145.665 155.567 153.664  1.00  0.00    -0.003 C 
ATOM     32  C   UNL     1     145.716 156.813 152.786  1.00  0.00     0.004 C 
ENDBRANCH  30  31
ENDBRANCH  29  30
ENDBRANCH  28  29
ENDBRANCH  27  28
ENDBRANCH  26  27
ENDBRANCH  25  26
ENDBRANCH  24  25
ENDBRANCH  23  24
ENDBRANCH  22  23
ENDBRANCH  21  22
ENDBRANCH  20  21
ENDBRANCH  19  20
ENDBRANCH  18  19
ENDBRANCH   1  18
TORSDOF 28
ENDMDL
MODEL 6
REMARK VINA RESULT:    -2.648      4.019     10.477
REMARK INTER + INTRA:         -11.499
REMARK INTER:                  -7.833
REMARK INTRA:                  -3.666
REMARK UNBOUND:                -4.518
REMARK SMILES CCCCCCCCCCCCCCCCCCCCCCCCCCCCCC(=O)[O-]
REMARK SMILES IDX 16 1 17 2 18 3 19 4 20 5 21 6 22 7 23 8 24 9 25 10 26 11
REMARK SMILES IDX 27 12 28 13 29 14 30 15 31 16 32 17 15 18 14 19 13 20 12 21
REMARK SMILES IDX 11 22 10 23 9 24 8 25 7 26 6 27 5 28 4 29 3 30 2 31 1 32
REMARK H PARENT
REMARK Flexibility Score: inf
ROOT
ATOM      1  C   UNL     1     145.261 149.881 142.931  1.00  0.00     0.000 C 
ENDROOT
BRANCH   1   2
ATOM      2  C   UNL     1     145.694 148.613 142.172  1.00  0.00     0.000 C 
BRANCH   2   3
ATOM      3  C   UNL     1     144.975 147.321 142.601  1.00  0.00     0.000 C 
BRANCH   3   4
ATOM      4  C   UNL     1     145.864 146.276 143.307  1.00  0.00     0.000 C 
BRANCH   4   5
ATOM      5  C   UNL     1     147.365 146.608 143.341  1.00  0.00     0.000 C 
BRANCH   5   6
ATOM      6  C   UNL     1     148.212 145.669 142.470  1.00  0.00     0.000 C 
BRANCH   6   7
ATOM      7  C   UNL     1     147.347 144.534 141.900  1.00  0.00     0.000 C 
BRANCH   7   8
ATOM      8  C   UNL     1     147.412 144.450 140.367  1.00  0.00     0.000 C 
BRANCH   8   9
ATOM      9  C   UNL     1     146.320 145.298 139.689  1.00  0.00     0.000 C 
BRANCH   9  10
ATOM     10  C   UNL     1     146.874 146.609 139.100  1.00  0.00     0.000 C 
BRANCH  10  11
ATOM     11  C   UNL     1     145.777 147.592 138.645  1.00  0.00     0.000 C 
BRANCH  11  12
ATOM     12  C   UNL     1     144.346 147.103 138.973  1.00  0.00     0.000 C 
BRANCH  12  13
ATOM     13  C   UNL     1     143.298 148.229 138.966  1.00  0.00     0.006 C 
BRANCH  13  14
ATOM     14  C   UNL     1     143.511 149.264 137.851  1.00  0.00     0.053 C 
BRANCH  14  15
ATOM     15  C   UNL     1     143.725 150.642 138.400  1.00  0.00     0.041 C 
ATOM     16  O   UNL     1     143.619 151.648 137.649  1.00  0.00    -0.550 OA
ATOM     17  O   UNL     1     144.042 150.816 139.741  1.00  0.00    -0.550 OA
ENDBRANCH  14  15
ENDBRANCH  13  14
ENDBRANCH  12  13
ENDBRANCH  11  12
ENDBRANCH  10  11
ENDBRANCH   9  10
ENDBRANCH   8   9
ENDBRANCH   7   8
ENDBRANCH   6   7
ENDBRANCH   5   6
ENDBRANCH   4   5
ENDBRANCH   3   4
ENDBRANCH   2   3
ENDBRANCH   1   2
BRANCH   1  18
ATOM     18  C   UNL     1     145.087 149.677 144.451  1.00  0.00     0.000 C 
BRANCH  18  19
ATOM     19  C   UNL     1     144.176 150.739 145.094  1.00  0.00     0.000 C 
BRANCH  19  20
ATOM     20  C   UNL     1     143.298 150.163 146.215  1.00  0.00     0.000 C 
BRANCH  20  21
ATOM     21  C   UNL     1     143.592 150.802 147.583  1.00  0.00     0.000 C 
BRANCH  21  22
ATOM     22  C   UNL     1     144.934 151.554 147.604  1.00  0.00     0.000 C 
BRANCH  22  23
ATOM     23  C   UNL     1     145.941 150.931 148.586  1.00  0.00     0.000 C 
BRANCH  23  24
ATOM     24  C   UNL     1     145.395 149.660 149.271  1.00  0.00    -0.000 C 
BRANCH  24  25
ATOM     25  C   UNL     1     145.315 149.770 150.806  1.00  0.00    -0.000 C 
BRANCH  25  26
ATOM     26  C   UNL     1     143.967 150.274 151.352  1.00  0.00    -0.000 C 
BRANCH  26  27
ATOM     27  C   UNL     1     143.778 151.802 151.317  1.00  0.00    -0.000 C 
BRANCH  27  28
ATOM     28  C   UNL     1     145.007 152.571 151.825  1.00  0.00    -0.000 C 
BRANCH  28  29
ATOM     29  C   UNL     1     144.946 152.766 153.347  1.00  0.00    -0.000 C 
BRANCH  29  30
ATOM     30  C   UNL     1     146.131 153.583 153.884  1.00  0.00    -0.000 C 
BRANCH  30  31
ATOM     31  C   UNL     1     146.670 154.588 152.854  1.00  0.00    -0.003 C 
ATOM     32  C   UNL     1     145.844 155.871 152.857  1.00  0.00     0.004 C 
ENDBRANCH  30  31
ENDBRANCH  29  30
ENDBRANCH  28  29
ENDBRANCH  27  28
ENDBRANCH  26  27
ENDBRANCH  25  26
ENDBRANCH  24  25
ENDBRANCH  23  24
ENDBRANCH  22  23
ENDBRANCH  21  22
ENDBRANCH  20  21
ENDBRANCH  19  20
ENDBRANCH  18  19
ENDBRANCH   1  18
TORSDOF 28
ENDMDL
MODEL 7
REMARK VINA RESULT:    -2.642      3.414     10.119
REMARK INTER + INTRA:         -11.483
REMARK INTER:                  -6.950
REMARK INTRA:                  -4.533
REMARK UNBOUND:                -4.518
REMARK SMILES CCCCCCCCCCCCCCCCCCCCCCCCCCCCCC(=O)[O-]
REMARK SMILES IDX 16 1 17 2 18 3 19 4 20 5 21 6 22 7 23 8 24 9 25 10 26 11
REMARK SMILES IDX 27 12 28 13 29 14 30 15 31 16 32 17 15 18 14 19 13 20 12 21
REMARK SMILES IDX 11 22 10 23 9 24 8 25 7 26 6 27 5 28 4 29 3 30 2 31 1 32
REMARK H PARENT
REMARK Flexibility Score: inf
ROOT
ATOM      1  C   UNL     1     144.756 150.594 146.100  1.00  0.00     0.000 C 
ENDROOT
BRANCH   1   2
ATOM      2  C   UNL     1     143.743 149.891 145.176  1.00  0.00     0.000 C 
BRANCH   2   3
ATOM      3  C   UNL     1     143.223 148.537 145.690  1.00  0.00     0.000 C 
BRANCH   3   4
ATOM      4  C   UNL     1     143.856 148.046 147.008  1.00  0.00     0.000 C 
BRANCH   4   5
ATOM      5  C   UNL     1     143.225 146.778 147.607  1.00  0.00     0.000 C 
BRANCH   5   6
ATOM      6  C   UNL     1     143.189 145.598 146.624  1.00  0.00     0.000 C 
BRANCH   6   7
ATOM      7  C   UNL     1     144.512 144.817 146.669  1.00  0.00     0.000 C 
BRANCH   7   8
ATOM      8  C   UNL     1     145.335 144.970 145.380  1.00  0.00     0.000 C 
BRANCH   8   9
ATOM      9  C   UNL     1     144.445 145.149 144.137  1.00  0.00     0.000 C 
BRANCH   9  10
ATOM     10  C   UNL     1     144.903 146.323 143.250  1.00  0.00     0.000 C 
BRANCH  10  11
ATOM     11  C   UNL     1     146.331 146.811 143.563  1.00  0.00     0.000 C 
BRANCH  11  12
ATOM     12  C   UNL     1     146.671 148.166 142.896  1.00  0.00     0.000 C 
BRANCH  12  13
ATOM     13  C   UNL     1     145.842 148.450 141.630  1.00  0.00     0.006 C 
BRANCH  13  14
ATOM     14  C   UNL     1     145.498 149.934 141.438  1.00  0.00     0.053 C 
BRANCH  14  15
ATOM     15  C   UNL     1     144.044 150.137 141.137  1.00  0.00     0.041 C 
ATOM     16  O   UNL     1     143.505 149.532 140.173  1.00  0.00    -0.550 OA
ATOM     17  O   UNL     1     143.285 150.997 141.921  1.00  0.00    -0.550 OA
ENDBRANCH  14  15
ENDBRANCH  13  14
ENDBRANCH  12  13
ENDBRANCH  11  12
ENDBRANCH  10  11
ENDBRANCH   9  10
ENDBRANCH   8   9
ENDBRANCH   7   8
ENDBRANCH   6   7
ENDBRANCH   5   6
ENDBRANCH   4   5
ENDBRANCH   3   4
ENDBRANCH   2   3
ENDBRANCH   1   2
BRANCH   1  18
ATOM     18  C   UNL     1     144.138 151.694 146.989  1.00  0.00     0.000 C 
BRANCH  18  19
ATOM     19  C   UNL     1     144.388 151.457 148.490  1.00  0.00     0.000 C 
BRANCH  19  20
ATOM     20  C   UNL     1     145.785 150.880 148.771  1.00  0.00     0.000 C 
BRANCH  20  21
ATOM     21  C   UNL     1     145.758 149.750 149.814  1.00  0.00     0.000 C 
BRANCH  21  22
ATOM     22  C   UNL     1     144.376 149.589 150.469  1.00  0.00     0.000 C 
BRANCH  22  23
ATOM     23  C   UNL     1     144.470 149.291 151.976  1.00  0.00     0.000 C 
BRANCH  23  24
ATOM     24  C   UNL     1     143.974 150.465 152.845  1.00  0.00    -0.000 C 
BRANCH  24  25
ATOM     25  C   UNL     1     143.260 151.571 152.044  1.00  0.00    -0.000 C 
BRANCH  25  26
ATOM     26  C   UNL     1     143.965 152.941 152.058  1.00  0.00    -0.000 C 
BRANCH  26  27
ATOM     27  C   UNL     1     145.501 152.885 151.979  1.00  0.00    -0.000 C 
BRANCH  27  28
ATOM     28  C   UNL     1     146.190 153.759 153.039  1.00  0.00    -0.000 C 
BRANCH  28  29
ATOM     29  C   UNL     1     145.173 154.653 153.763  1.00  0.00    -0.000 C 
BRANCH  29  30
ATOM     30  C   UNL     1     145.716 156.066 154.028  1.00  0.00    -0.000 C 
BRANCH  30  31
ATOM     31  C   UNL     1     145.596 156.984 152.802  1.00  0.00    -0.003 C 
ATOM     32  C   UNL     1     144.329 156.678 152.010  1.00  0.00     0.004 C 
ENDBRANCH  30  31
ENDBRANCH  29  30
ENDBRANCH  28  29
ENDBRANCH  27  28
ENDBRANCH  26  27
ENDBRANCH  25  26
ENDBRANCH  24  25
ENDBRANCH  23  24
ENDBRANCH  22  23
ENDBRANCH  21  22
ENDBRANCH  20  21
ENDBRANCH  19  20
ENDBRANCH  18  19
ENDBRANCH   1  18
TORSDOF 28
ENDMDL
MODEL 8
REMARK VINA RESULT:    -2.630      3.852     11.431
REMARK INTER + INTRA:         -11.452
REMARK INTER:                  -7.882
REMARK INTRA:                  -3.570
REMARK UNBOUND:                -4.518
REMARK SMILES CCCCCCCCCCCCCCCCCCCCCCCCCCCCCC(=O)[O-]
REMARK SMILES IDX 16 1 17 2 18 3 19 4 20 5 21 6 22 7 23 8 24 9 25 10 26 11
REMARK SMILES IDX 27 12 28 13 29 14 30 15 31 16 32 17 15 18 14 19 13 20 12 21
REMARK SMILES IDX 11 22 10 23 9 24 8 25 7 26 6 27 5 28 4 29 3 30 2 31 1 32
REMARK H PARENT
REMARK Flexibility Score: inf
ROOT
ATOM      1  C   UNL     1     145.758 150.983 149.853  1.00  0.00     0.000 C 
ENDROOT
BRANCH   1   2
ATOM      2  C   UNL     1     145.362 150.399 148.484  1.00  0.00     0.000 C 
BRANCH   2   3
ATOM      3  C   UNL     1     145.103 151.442 147.381  1.00  0.00     0.000 C 
BRANCH   3   4
ATOM      4  C   UNL     1     144.228 150.955 146.208  1.00  0.00     0.000 C 
BRANCH   4   5
ATOM      5  C   UNL     1     144.005 149.435 146.142  1.00  0.00     0.000 C 
BRANCH   5   6
ATOM      6  C   UNL     1     144.378 148.828 144.781  1.00  0.00     0.000 C 
BRANCH   6   7
ATOM      7  C   UNL     1     144.860 149.922 143.816  1.00  0.00     0.000 C 
BRANCH   7   8
ATOM      8  C   UNL     1     146.326 149.733 143.390  1.00  0.00     0.000 C 
BRANCH   8   9
ATOM      9  C   UNL     1     146.526 149.947 141.878  1.00  0.00     0.000 C 
BRANCH   9  10
ATOM     10  C   UNL     1     145.215 149.794 141.083  1.00  0.00     0.000 C 
BRANCH  10  11
ATOM     11  C   UNL     1     145.149 148.502 140.246  1.00  0.00     0.000 C 
BRANCH  11  12
ATOM     12  C   UNL     1     146.475 147.703 140.252  1.00  0.00     0.000 C 
BRANCH  12  13
ATOM     13  C   UNL     1     146.331 146.283 140.826  1.00  0.00     0.006 C 
BRANCH  13  14
ATOM     14  C   UNL     1     145.507 146.221 142.121  1.00  0.00     0.053 C 
BRANCH  14  15
ATOM     15  C   UNL     1     146.371 145.992 143.324  1.00  0.00     0.041 C 
ATOM     16  O   UNL     1     145.901 145.422 144.344  1.00  0.00    -0.550 OA
ATOM     17  O   UNL     1     147.696 146.412 143.319  1.00  0.00    -0.550 OA
ENDBRANCH  14  15
ENDBRANCH  13  14
ENDBRANCH  12  13
ENDBRANCH  11  12
ENDBRANCH  10  11
ENDBRANCH   9  10
ENDBRANCH   8   9
ENDBRANCH   7   8
ENDBRANCH   6   7
ENDBRANCH   5   6
ENDBRANCH   4   5
ENDBRANCH   3   4
ENDBRANCH   2   3
ENDBRANCH   1   2
BRANCH   1  18
ATOM     18  C   UNL     1     144.612 151.721 150.578  1.00  0.00     0.000 C 
BRANCH  18  19
ATOM     19  C   UNL     1     143.682 150.764 151.347  1.00  0.00     0.000 C 
BRANCH  19  20
ATOM     20  C   UNL     1     144.456 149.704 152.146  1.00  0.00     0.000 C 
BRANCH  20  21
ATOM     21  C   UNL     1     143.531 148.786 152.961  1.00  0.00     0.000 C 
BRANCH  21  22
ATOM     22  C   UNL     1     143.644 149.033 154.475  1.00  0.00     0.000 C 
BRANCH  22  23
ATOM     23  C   UNL     1     142.881 150.291 154.924  1.00  0.00     0.000 C 
BRANCH  23  24
ATOM     24  C   UNL     1     143.758 151.253 155.754  1.00  0.00    -0.000 C 
BRANCH  24  25
ATOM     25  C   UNL     1     145.265 150.944 155.672  1.00  0.00    -0.000 C 
BRANCH  25  26
ATOM     26  C   UNL     1     146.111 152.019 154.964  1.00  0.00    -0.000 C 
BRANCH  26  27
ATOM     27  C   UNL     1     145.337 152.914 153.978  1.00  0.00    -0.000 C 
BRANCH  27  28
ATOM     28  C   UNL     1     146.241 153.907 153.232  1.00  0.00    -0.000 C 
BRANCH  28  29
ATOM     29  C   UNL     1     146.521 155.151 154.087  1.00  0.00    -0.000 C 
BRANCH  29  30
ATOM     30  C   UNL     1     145.463 156.249 153.892  1.00  0.00    -0.000 C 
BRANCH  30  31
ATOM     31  C   UNL     1     145.085 156.450 152.416  1.00  0.00    -0.003 C 
ATOM     32  C   UNL     1     143.573 156.404 152.226  1.00  0.00     0.004 C 
ENDBRANCH  30  31
ENDBRANCH  29  30
ENDBRANCH  28  29
ENDBRANCH  27  28
ENDBRANCH  26  27
ENDBRANCH  25  26
ENDBRANCH  24  25
ENDBRANCH  23  24
ENDBRANCH  22  23
ENDBRANCH  21  22
ENDBRANCH  20  21
ENDBRANCH  19  20
ENDBRANCH  18  19
ENDBRANCH   1  18
TORSDOF 28
ENDMDL
MODEL 9
REMARK VINA RESULT:    -2.612      1.313      3.697
REMARK INTER + INTRA:         -11.406
REMARK INTER:                  -7.021
REMARK INTRA:                  -4.385
REMARK UNBOUND:                -4.518
REMARK SMILES CCCCCCCCCCCCCCCCCCCCCCCCCCCCCC(=O)[O-]
REMARK SMILES IDX 16 1 17 2 18 3 19 4 20 5 21 6 22 7 23 8 24 9 25 10 26 11
REMARK SMILES IDX 27 12 28 13 29 14 30 15 31 16 32 17 15 18 14 19 13 20 12 21
REMARK SMILES IDX 11 22 10 23 9 24 8 25 7 26 6 27 5 28 4 29 3 30 2 31 1 32
REMARK H PARENT
REMARK Flexibility Score: inf
ROOT
ATOM      1  C   UNL     1     143.423 149.231 144.358  1.00  0.00     0.000 C 
ENDROOT
BRANCH   1   2
ATOM      2  C   UNL     1     144.136 150.586 144.523  1.00  0.00     0.000 C 
BRANCH   2   3
ATOM      3  C   UNL     1     143.303 151.680 145.214  1.00  0.00     0.000 C 
BRANCH   3   4
ATOM      4  C   UNL     1     144.039 152.471 146.314  1.00  0.00     0.000 C 
BRANCH   4   5
ATOM      5  C   UNL     1     144.435 151.655 147.557  1.00  0.00     0.000 C 
BRANCH   5   6
ATOM      6  C   UNL     1     143.229 151.049 148.290  1.00  0.00     0.000 C 
BRANCH   6   7
ATOM      7  C   UNL     1     143.597 149.690 148.906  1.00  0.00     0.000 C 
BRANCH   7   8
ATOM      8  C   UNL     1     145.117 149.471 148.993  1.00  0.00     0.000 C 
BRANCH   8   9
ATOM      9  C   UNL     1     145.643 149.599 150.435  1.00  0.00     0.000 C 
BRANCH   9  10
ATOM     10  C   UNL     1     144.507 149.734 151.466  1.00  0.00     0.000 C 
BRANCH  10  11
ATOM     11  C   UNL     1     144.785 150.788 152.555  1.00  0.00     0.000 C 
BRANCH  11  12
ATOM     12  C   UNL     1     144.622 152.242 152.051  1.00  0.00     0.000 C 
BRANCH  12  13
ATOM     13  C   UNL     1     144.773 153.296 153.162  1.00  0.00     0.006 C 
BRANCH  13  14
ATOM     14  C   UNL     1     145.786 154.402 152.830  1.00  0.00     0.053 C 
BRANCH  14  15
ATOM     15  C   UNL     1     145.120 155.729 152.627  1.00  0.00     0.041 C 
ATOM     16  O   UNL     1     145.768 156.796 152.792  1.00  0.00    -0.550 OA
ATOM     17  O   UNL     1     143.782 155.786 152.258  1.00  0.00    -0.550 OA
ENDBRANCH  14  15
ENDBRANCH  13  14
ENDBRANCH  12  13
ENDBRANCH  11  12
ENDBRANCH  10  11
ENDBRANCH   9  10
ENDBRANCH   8   9
ENDBRANCH   7   8
ENDBRANCH   6   7
ENDBRANCH   5   6
ENDBRANCH   4   5
ENDBRANCH   3   4
ENDBRANCH   2   3
ENDBRANCH   1   2
BRANCH   1  18
ATOM     18  C   UNL     1     143.433 148.356 145.630  1.00  0.00     0.000 C 
BRANCH  18  19
ATOM     19  C   UNL     1     143.924 146.922 145.362  1.00  0.00     0.000 C 
BRANCH  19  20
ATOM     20  C   UNL     1     143.048 146.180 144.339  1.00  0.00     0.000 C 
BRANCH  20  21
ATOM     21  C   UNL     1     143.828 145.104 143.563  1.00  0.00     0.000 C 
BRANCH  21  22
ATOM     22  C   UNL     1     143.782 145.329 142.042  1.00  0.00     0.000 C 
BRANCH  22  23
ATOM     23  C   UNL     1     143.170 146.690 141.667  1.00  0.00     0.000 C 
BRANCH  23  24
ATOM     24  C   UNL     1     143.555 147.141 140.242  1.00  0.00    -0.000 C 
BRANCH  24  25
ATOM     25  C   UNL     1     145.064 147.044 139.948  1.00  0.00    -0.000 C 
BRANCH  25  26
ATOM     26  C   UNL     1     145.828 148.379 140.029  1.00  0.00    -0.000 C 
BRANCH  26  27
ATOM     27  C   UNL     1     145.530 149.227 141.280  1.00  0.00    -0.000 C 
BRANCH  27  28
ATOM     28  C   UNL     1     146.795 149.820 141.919  1.00  0.00    -0.000 C 
BRANCH  28  29
ATOM     29  C   UNL     1     147.440 148.824 142.894  1.00  0.00    -0.000 C 
BRANCH  29  30
ATOM     30  C   UNL     1     146.540 147.611 143.177  1.00  0.00    -0.000 C 
BRANCH  30  31
ATOM     31  C   UNL     1     147.342 146.321 143.408  1.00  0.00    -0.003 C 
ATOM     32  C   UNL     1     147.887 145.772 142.093  1.00  0.00     0.004 C 
ENDBRANCH  30  31
ENDBRANCH  29  30
ENDBRANCH  28  29
ENDBRANCH  27  28
ENDBRANCH  26  27
ENDBRANCH  25  26
ENDBRANCH  24  25
ENDBRANCH  23  24
ENDBRANCH  22  23
ENDBRANCH  21  22
ENDBRANCH  20  21
ENDBRANCH  19  20
ENDBRANCH  18  19
ENDBRANCH   1  18
TORSDOF 28
ENDMDL
