MODEL 1
REMARK VINA RESULT:    -2.865      0.000      0.000
REMARK INTER + INTRA:          -3.517
REMARK INTER:                  -3.367
REMARK INTRA:                  -0.150
REMARK UNBOUND:                -0.150
REMARK SMILES O=C([O-])CCC(=O)[O-]
REMARK SMILES IDX 4 1 2 2 1 3 3 4 5 5 6 6 7 7 8 8
REMARK H PARENT
REMARK Flexibility Score: inf
ROOT
ATOM      1  C   UNL     1     -44.521 -28.250  -0.596  1.00  0.00     0.059 C 
ENDROOT
BRANCH   1   2
ATOM      2  C   UNL     1     -45.348 -27.763  -1.747  1.00  0.00     0.042 C 
ATOM      3  O   UNL     1     -44.804 -27.159  -2.708  1.00  0.00    -0.550 OA
ATOM      4  O   UNL     1     -46.726 -27.940  -1.737  1.00  0.00    -0.550 OA
ENDBRANCH   1   2
BRANCH   1   5
ATOM      5  C   UNL     1     -44.065 -27.094   0.301  1.00  0.00     0.059 C 
BRANCH   5   6
ATOM      6  C   UNL     1     -45.178 -26.598   1.172  1.00  0.00     0.042 C 
ATOM      7  O   UNL     1     -45.920 -27.416   1.777  1.00  0.00    -0.550 OA
ATOM      8  O   UNL     1     -45.370 -25.234   1.347  1.00  0.00    -0.550 OA
ENDBRANCH   5   6
ENDBRANCH   1   5
TORSDOF 3
ENDMDL
MODEL 2
REMARK VINA RESULT:    -2.844      1.715      2.453
REMARK INTER + INTRA:          -3.492
REMARK INTER:                  -3.372
REMARK INTRA:                  -0.120
REMARK UNBOUND:                -0.150
REMARK SMILES O=C([O-])CCC(=O)[O-]
REMARK SMILES IDX 4 1 2 2 1 3 3 4 5 5 6 6 7 7 8 8
REMARK H PARENT
REMARK Flexibility Score: inf
ROOT
ATOM      1  C   UNL     1     -44.396 -28.230   0.293  1.00  0.00     0.059 C 
ENDROOT
BRANCH   1   2
ATOM      2  C   UNL     1     -43.301 -27.577  -0.493  1.00  0.00     0.042 C 
ATOM      3  O   UNL     1     -43.575 -26.699  -1.353  1.00  0.00    -0.550 OA
ATOM      4  O   UNL     1     -41.981 -27.969  -0.305  1.00  0.00    -0.550 OA
ENDBRANCH   1   2
BRANCH   1   5
ATOM      5  C   UNL     1     -45.664 -27.370   0.318  1.00  0.00     0.059 C 
BRANCH   5   6
ATOM      6  C   UNL     1     -45.668 -26.425   1.480  1.00  0.00     0.042 C 
ATOM      7  O   UNL     1     -45.281 -25.236   1.331  1.00  0.00    -0.550 OA
ATOM      8  O   UNL     1     -46.138 -26.846   2.718  1.00  0.00    -0.550 OA
ENDBRANCH   5   6
ENDBRANCH   1   5
TORSDOF 3
ENDMDL
MODEL 3
REMARK VINA RESULT:    -2.802      1.708      3.547
REMARK INTER + INTRA:          -3.443
REMARK INTER:                  -3.325
REMARK INTRA:                  -0.118
REMARK UNBOUND:                -0.150
REMARK SMILES O=C([O-])CCC(=O)[O-]
REMARK SMILES IDX 4 1 2 2 1 3 3 4 5 5 6 6 7 7 8 8
REMARK H PARENT
REMARK Flexibility Score: inf
ROOT
ATOM      1  C   UNL     1     -45.791 -27.330   0.319  1.00  0.00     0.059 C 
ENDROOT
BRANCH   1   2
ATOM      2  C   UNL     1     -45.821 -26.344   1.447  1.00  0.00     0.042 C 
ATOM      3  O   UNL     1     -45.340 -25.190   1.294  1.00  0.00    -0.550 OA
ATOM      4  O   UNL     1     -46.343 -26.715   2.680  1.00  0.00    -0.550 OA
ENDBRANCH   1   2
BRANCH   1   5
ATOM      5  C   UNL     1     -44.523 -28.191   0.355  1.00  0.00     0.059 C 
BRANCH   5   6
ATOM      6  C   UNL     1     -43.419 -27.581  -0.453  1.00  0.00     0.042 C 
ATOM      7  O   UNL     1     -43.682 -26.740  -1.353  1.00  0.00    -0.550 OA
ATOM      8  O   UNL     1     -42.096 -27.909  -0.184  1.00  0.00    -0.550 OA
ENDBRANCH   5   6
ENDBRANCH   1   5
TORSDOF 3
ENDMDL
MODEL 4
REMARK VINA RESULT:    -2.772      2.383      3.492
REMARK INTER + INTRA:          -3.408
REMARK INTER:                  -3.321
REMARK INTRA:                  -0.087
REMARK UNBOUND:                -0.150
REMARK SMILES O=C([O-])CCC(=O)[O-]
REMARK SMILES IDX 4 1 2 2 1 3 3 4 5 5 6 6 7 7 8 8
REMARK H PARENT
REMARK Flexibility Score: inf
ROOT
ATOM      1  C   UNL     1     -43.338 -27.486  -0.113  1.00  0.00     0.059 C 
ENDROOT
BRANCH   1   2
ATOM      2  C   UNL     1     -42.209 -28.458  -0.280  1.00  0.00     0.042 C 
ATOM      3  O   UNL     1     -41.027 -28.042  -0.399  1.00  0.00    -0.550 OA
ATOM      4  O   UNL     1     -42.470 -29.821  -0.345  1.00  0.00    -0.550 OA
ENDBRANCH   1   2
BRANCH   1   5
ATOM      5  C   UNL     1     -44.700 -28.186  -0.179  1.00  0.00     0.059 C 
BRANCH   5   6
ATOM      6  C   UNL     1     -45.495 -27.733  -1.365  1.00  0.00     0.042 C 
ATOM      7  O   UNL     1     -46.752 -27.812  -1.352  1.00  0.00    -0.550 OA
ATOM      8  O   UNL     1     -44.852 -27.185  -2.467  1.00  0.00    -0.550 OA
ENDBRANCH   5   6
ENDBRANCH   1   5
TORSDOF 3
ENDMDL
MODEL 5
REMARK VINA RESULT:    -2.754      0.376      3.512
REMARK INTER + INTRA:          -3.387
REMARK INTER:                  -3.217
REMARK INTRA:                  -0.169
REMARK UNBOUND:                -0.150
REMARK SMILES O=C([O-])CCC(=O)[O-]
REMARK SMILES IDX 4 1 2 2 1 3 3 4 5 5 6 6 7 7 8 8
REMARK H PARENT
REMARK Flexibility Score: inf
ROOT
ATOM      1  C   UNL     1     -44.039 -27.025   0.319  1.00  0.00     0.059 C 
ENDROOT
BRANCH   1   2
ATOM      2  C   UNL     1     -45.274 -26.773   1.129  1.00  0.00     0.042 C 
ATOM      3  O   UNL     1     -45.768 -25.616   1.190  1.00  0.00    -0.550 OA
ATOM      4  O   UNL     1     -45.855 -27.808   1.851  1.00  0.00    -0.550 OA
ENDBRANCH   1   2
BRANCH   1   5
ATOM      5  C   UNL     1     -44.216 -28.219  -0.625  1.00  0.00     0.059 C 
BRANCH   5   6
ATOM      6  C   UNL     1     -45.185 -27.913  -1.726  1.00  0.00     0.042 C 
ATOM      7  O   UNL     1     -44.862 -27.123  -2.652  1.00  0.00    -0.550 OA
ATOM      8  O   UNL     1     -46.428 -28.533  -1.752  1.00  0.00    -0.550 OA
ENDBRANCH   5   6
ENDBRANCH   1   5
TORSDOF 3
ENDMDL
MODEL 6
REMARK VINA RESULT:    -2.743      5.206      7.592
REMARK INTER + INTRA:          -3.374
REMARK INTER:                  -3.348
REMARK INTRA:                  -0.026
REMARK UNBOUND:                -0.150
REMARK SMILES O=C([O-])CCC(=O)[O-]
REMARK SMILES IDX 4 1 2 2 1 3 3 4 5 5 6 6 7 7 8 8
REMARK H PARENT
REMARK Flexibility Score: inf
ROOT
ATOM      1  C   UNL     1     -44.869 -28.327  -6.421  1.00  0.00     0.059 C 
ENDROOT
BRANCH   1   2
ATOM      2  C   UNL     1     -45.741 -27.478  -5.548  1.00  0.00     0.042 C 
ATOM      3  O   UNL     1     -46.892 -27.143  -5.934  1.00  0.00    -0.550 OA
ATOM      4  O   UNL     1     -45.266 -27.023  -4.324  1.00  0.00    -0.550 OA
ENDBRANCH   1   2
BRANCH   1   5
ATOM      5  C   UNL     1     -44.010 -27.473  -7.361  1.00  0.00     0.059 C 
BRANCH   5   6
ATOM      6  C   UNL     1     -42.989 -28.301  -8.079  1.00  0.00     0.042 C 
ATOM      7  O   UNL     1     -41.867 -28.522  -7.551  1.00  0.00    -0.550 OA
ATOM      8  O   UNL     1     -43.291 -28.863  -9.313  1.00  0.00    -0.550 OA
ENDBRANCH   5   6
ENDBRANCH   1   5
TORSDOF 3
ENDMDL
MODEL 7
REMARK VINA RESULT:    -2.730     22.912     23.846
REMARK INTER + INTRA:          -3.359
REMARK INTER:                  -3.291
REMARK INTRA:                  -0.068
REMARK UNBOUND:                -0.150
REMARK SMILES O=C([O-])CCC(=O)[O-]
REMARK SMILES IDX 4 1 2 2 1 3 3 4 5 5 6 6 7 7 8 8
REMARK H PARENT
REMARK Flexibility Score: inf
ROOT
ATOM      1  C   UNL     1     -29.152 -10.344  -7.658  1.00  0.00     0.059 C 
ENDROOT
BRANCH   1   2
ATOM      2  C   UNL     1     -28.206 -11.267  -6.951  1.00  0.00     0.042 C 
ATOM      3  O   UNL     1     -28.469 -12.495  -6.858  1.00  0.00    -0.550 OA
ATOM      4  O   UNL     1     -27.055 -10.763  -6.360  1.00  0.00    -0.550 OA
ENDBRANCH   1   2
BRANCH   1   5
ATOM      5  C   UNL     1     -29.941 -11.073  -8.750  1.00  0.00     0.059 C 
BRANCH   5   6
ATOM      6  C   UNL     1     -31.411 -10.800  -8.644  1.00  0.00     0.042 C 
ATOM      7  O   UNL     1     -31.831  -9.875  -7.901  1.00  0.00    -0.550 OA
ATOM      8  O   UNL     1     -32.312 -11.542  -9.398  1.00  0.00    -0.550 OA
ENDBRANCH   5   6
ENDBRANCH   1   5
TORSDOF 3
ENDMDL
MODEL 8
REMARK VINA RESULT:    -2.729      5.169      6.914
REMARK INTER + INTRA:          -3.357
REMARK INTER:                  -3.330
REMARK INTRA:                  -0.027
REMARK UNBOUND:                -0.150
REMARK SMILES O=C([O-])CCC(=O)[O-]
REMARK SMILES IDX 4 1 2 2 1 3 3 4 5 5 6 6 7 7 8 8
REMARK H PARENT
REMARK Flexibility Score: inf
ROOT
ATOM      1  C   UNL     1     -44.054 -27.539  -7.342  1.00  0.00     0.059 C 
ENDROOT
BRANCH   1   2
ATOM      2  C   UNL     1     -43.021 -28.379  -8.030  1.00  0.00     0.042 C 
ATOM      3  O   UNL     1     -41.871 -28.502  -7.533  1.00  0.00    -0.550 OA
ATOM      4  O   UNL     1     -43.318 -28.992  -9.240  1.00  0.00    -0.550 OA
ENDBRANCH   1   2
BRANCH   1   5
ATOM      5  C   UNL     1     -44.897 -28.366  -6.366  1.00  0.00     0.059 C 
BRANCH   5   6
ATOM      6  C   UNL     1     -45.713 -27.493  -5.463  1.00  0.00     0.042 C 
ATOM      7  O   UNL     1     -45.220 -27.053  -4.391  1.00  0.00    -0.550 OA
ATOM      8  O   UNL     1     -47.004 -27.130  -5.826  1.00  0.00    -0.550 OA
ENDBRANCH   5   6
ENDBRANCH   1   5
TORSDOF 3
ENDMDL
MODEL 9
REMARK VINA RESULT:    -2.695     23.064     23.865
REMARK INTER + INTRA:          -3.317
REMARK INTER:                  -3.212
REMARK INTRA:                  -0.105
REMARK UNBOUND:                -0.150
REMARK SMILES O=C([O-])CCC(=O)[O-]
REMARK SMILES IDX 4 1 2 2 1 3 3 4 5 5 6 6 7 7 8 8
REMARK H PARENT
REMARK Flexibility Score: inf
ROOT
ATOM      1  C   UNL     1     -30.023 -10.060  -8.218  1.00  0.00     0.059 C 
ENDROOT
BRANCH   1   2
ATOM      2  C   UNL     1     -30.957 -11.033  -8.872  1.00  0.00     0.042 C 
ATOM      3  O   UNL     1     -32.137 -11.159  -8.453  1.00  0.00    -0.550 OA
ATOM      4  O   UNL     1     -30.509 -11.829  -9.918  1.00  0.00    -0.550 OA
ENDBRANCH   1   2
BRANCH   1   5
ATOM      5  C   UNL     1     -28.571 -10.546  -8.273  1.00  0.00     0.059 C 
BRANCH   5   6
ATOM      6  C   UNL     1     -28.155 -11.189  -6.986  1.00  0.00     0.042 C 
ATOM      7  O   UNL     1     -28.432 -12.397  -6.762  1.00  0.00    -0.550 OA
ATOM      8  O   UNL     1     -27.425 -10.466  -6.051  1.00  0.00    -0.550 OA
ENDBRANCH   5   6
ENDBRANCH   1   5
TORSDOF 3
ENDMDL
