MODEL 1
REMARK VINA RESULT:     9.226      0.000      0.000
REMARK INTER + INTRA:          12.393
REMARK INTER:                  12.462
REMARK INTRA:                  -0.068
REMARK UNBOUND:                -0.068
REMARK SMILES COc1ccc(-c2cc(=O)c3c(OC)c(OC)c(OC)c(OC)c3o2)cc1
REMARK SMILES IDX 7 1 8 2 9 3 10 4 11 5 24 6 25 7 21 8 18 9 15 10 12 11 6 12
REMARK SMILES IDX 3 13 4 14 27 15 5 16 26 17 2 18 1 19 22 20 23 21 13 22 14 23
REMARK SMILES IDX 19 24 20 25 16 26 17 27
REMARK H PARENT
REMARK Flexibility Score: inf
ROOT
ATOM      1  C   UNL     1     155.793 165.241 154.877  1.00  0.00     0.138 A 
ATOM      2  C   UNL     1     154.641 164.776 155.527  1.00  0.00     0.100 A 
ATOM      3  C   UNL     1     154.721 163.640 156.331  1.00  0.00     0.197 A 
ATOM      4  O   UNL     1     153.678 163.230 156.908  1.00  0.00    -0.289 OA
ATOM      5  C   UNL     1     155.956 162.971 156.476  1.00  0.00     0.115 A 
ATOM      6  C   UNL     1     157.069 163.496 155.788  1.00  0.00     0.188 A 
ATOM      7  O   UNL     1     156.939 164.584 155.032  1.00  0.00    -0.452 OA
ATOM      8  C   UNL     1     158.331 162.895 155.889  1.00  0.00     0.209 A 
ATOM      9  C   UNL     1     158.494 161.723 156.670  1.00  0.00     0.211 A 
ATOM     10  C   UNL     1     157.365 161.166 157.326  1.00  0.00     0.208 A 
ATOM     11  C   UNL     1     156.119 161.826 157.282  1.00  0.00     0.179 A 
ENDROOT
BRANCH   1  12
ATOM     12  C   UNL     1     155.772 166.443 154.003  1.00  0.00     0.018 A 
ATOM     13  C   UNL     1     155.754 168.689 152.290  1.00  0.00     0.118 A 
ATOM     14  C   UNL     1     155.693 167.394 151.764  1.00  0.00     0.047 A 
ATOM     15  C   UNL     1     155.833 168.858 153.684  1.00  0.00     0.047 A 
ATOM     16  C   UNL     1     155.707 166.282 152.608  1.00  0.00     0.016 A 
ATOM     17  C   UNL     1     155.846 167.746 154.531  1.00  0.00     0.016 A 
BRANCH  13  18
ATOM     18  O   UNL     1     155.736 169.772 151.399  1.00  0.00    -0.497 OA
ATOM     19  C   UNL     1     156.573 169.884 150.252  1.00  0.00     0.278 C 
ENDBRANCH  13  18
ENDBRANCH   1  12
BRANCH   8  20
ATOM     20  O   UNL     1     159.379 163.521 155.182  1.00  0.00    -0.490 OA
ATOM     21  C   UNL     1     159.900 163.145 153.913  1.00  0.00     0.278 C 
ENDBRANCH   8  20
BRANCH  11  22
ATOM     22  O   UNL     1     155.039 161.353 158.040  1.00  0.00    -0.492 OA
ATOM     23  C   UNL     1     154.166 160.330 157.572  1.00  0.00     0.278 C 
ENDBRANCH  11  22
BRANCH   9  24
ATOM     24  O   UNL     1     159.776 161.146 156.753  1.00  0.00    -0.490 OA
ATOM     25  C   UNL     1     160.871 161.593 157.544  1.00  0.00     0.279 C 
ENDBRANCH   9  24
BRANCH  10  26
ATOM     26  O   UNL     1     157.477 159.948 158.003  1.00  0.00    -0.490 OA
ATOM     27  C   UNL     1     158.338 159.777 159.125  1.00  0.00     0.278 C 
ENDBRANCH  10  26
TORSDOF 6
ENDMDL
MODEL 2
REMARK VINA RESULT:    11.762      9.280     13.439
REMARK INTER + INTRA:          15.819
REMARK INTER:                  15.920
REMARK INTRA:                  -0.100
REMARK UNBOUND:                -0.068
REMARK SMILES COc1ccc(-c2cc(=O)c3c(OC)c(OC)c(OC)c(OC)c3o2)cc1
REMARK SMILES IDX 7 1 8 2 9 3 10 4 11 5 24 6 25 7 21 8 18 9 15 10 12 11 6 12
REMARK SMILES IDX 3 13 4 14 27 15 5 16 26 17 2 18 1 19 22 20 23 21 13 22 14 23
REMARK SMILES IDX 19 24 20 25 16 26 17 27
REMARK H PARENT
REMARK Flexibility Score: inf
ROOT
ATOM      1  C   UNL     1     167.507 163.669 152.375  1.00  0.00     0.138 A 
ATOM      2  C   UNL     1     168.539 162.982 151.719  1.00  0.00     0.100 A 
ATOM      3  C   UNL     1     168.611 163.023 150.328  1.00  0.00     0.197 A 
ATOM      4  O   UNL     1     169.542 162.399 149.750  1.00  0.00    -0.289 OA
ATOM      5  C   UNL     1     167.643 163.745 149.598  1.00  0.00     0.115 A 
ATOM      6  C   UNL     1     166.632 164.406 150.326  1.00  0.00     0.188 A 
ATOM      7  O   UNL     1     166.609 164.337 151.655  1.00  0.00    -0.452 OA
ATOM      8  C   UNL     1     165.642 165.153 149.675  1.00  0.00     0.209 A 
ATOM      9  C   UNL     1     165.630 165.226 148.259  1.00  0.00     0.211 A 
ATOM     10  C   UNL     1     166.618 164.523 147.521  1.00  0.00     0.208 A 
ATOM     11  C   UNL     1     167.657 163.843 148.191  1.00  0.00     0.179 A 
ENDROOT
BRANCH   1  12
ATOM     12  C   UNL     1     167.373 163.662 153.854  1.00  0.00     0.018 A 
ATOM     13  C   UNL     1     167.149 163.711 156.670  1.00  0.00     0.118 A 
ATOM     14  C   UNL     1     167.275 164.902 155.948  1.00  0.00     0.047 A 
ATOM     15  C   UNL     1     167.143 162.487 155.977  1.00  0.00     0.047 A 
ATOM     16  C   UNL     1     167.392 164.880 154.556  1.00  0.00     0.016 A 
ATOM     17  C   UNL     1     167.259 162.463 154.584  1.00  0.00     0.016 A 
BRANCH  13  18
ATOM     18  O   UNL     1     167.034 163.787 158.066  1.00  0.00    -0.497 OA
ATOM     19  C   UNL     1     167.205 162.681 158.948  1.00  0.00     0.278 C 
ENDBRANCH  13  18
ENDBRANCH   1  12
BRANCH   8  20
ATOM     20  O   UNL     1     164.699 165.795 150.503  1.00  0.00    -0.490 OA
ATOM     21  C   UNL     1     163.286 165.628 150.484  1.00  0.00     0.278 C 
ENDBRANCH   8  20
BRANCH  11  22
ATOM     22  O   UNL     1     168.708 163.265 147.467  1.00  0.00    -0.492 OA
ATOM     23  C   UNL     1     169.339 163.926 146.374  1.00  0.00     0.278 C 
ENDBRANCH  11  22
BRANCH   9  24
ATOM     24  O   UNL     1     164.622 165.987 147.635  1.00  0.00    -0.490 OA
ATOM     25  C   UNL     1     164.538 167.406 147.561  1.00  0.00     0.279 C 
ENDBRANCH   9  24
BRANCH  10  26
ATOM     26  O   UNL     1     166.556 164.484 146.125  1.00  0.00    -0.490 OA
ATOM     27  C   UNL     1     165.850 163.465 145.422  1.00  0.00     0.278 C 
ENDBRANCH  10  26
TORSDOF 6
ENDMDL
