MODEL 1
REMARK VINA RESULT:    -5.337      0.000      0.000
REMARK INTER + INTRA:          -5.745
REMARK INTER:                  -5.649
REMARK INTRA:                  -0.096
REMARK UNBOUND:                -0.096
REMARK SMILES C=C(C)[C@@H]1CC=C(C)C(=O)C1
REMARK SMILES IDX 8 1 7 2 6 3 5 4 4 5 11 6 9 7 10 8 2 9 1 10 3 11
REMARK H PARENT
REMARK Flexibility Score: inf
ROOT
ATOM      1  C   UNL     1      12.735  15.870  12.840  1.00  0.00     0.048 C 
ATOM      2  C   UNL     1      14.126  16.015  13.392  1.00  0.00    -0.012 C 
ATOM      3  C   UNL     1      14.482  15.335  14.496  1.00  0.00    -0.019 C 
ATOM      4  C   UNL     1      15.867  15.429  15.080  1.00  0.00     0.036 C 
ATOM      5  C   UNL     1      16.469  16.828  14.855  1.00  0.00     0.025 C 
ATOM      6  C   UNL     1      16.444  17.187  13.358  1.00  0.00     0.089 C 
ATOM      7  C   UNL     1      15.062  17.000  12.793  1.00  0.00     0.158 C 
ATOM      8  O   UNL     1      14.717  17.666  11.780  1.00  0.00    -0.295 OA
ENDROOT
BRANCH   5   9
ATOM      9  C   UNL     1      17.877  16.927  15.426  1.00  0.00    -0.077 C 
ATOM     10  C   UNL     1      18.888  16.259  14.846  1.00  0.00     0.008 C 
ATOM     11  C   UNL     1      18.175  17.766  16.643  1.00  0.00     0.039 C 
ENDBRANCH   5   9
TORSDOF 1
ENDMDL
MODEL 2
REMARK VINA RESULT:    -5.296      2.424      5.089
REMARK INTER + INTRA:          -5.702
REMARK INTER:                  -5.606
REMARK INTRA:                  -0.096
REMARK UNBOUND:                -0.096
REMARK SMILES C=C(C)[C@@H]1CC=C(C)C(=O)C1
REMARK SMILES IDX 8 1 7 2 6 3 5 4 4 5 11 6 9 7 10 8 2 9 1 10 3 11
REMARK H PARENT
REMARK Flexibility Score: inf
ROOT
ATOM      1  C   UNL     1      20.502  17.378  17.627  1.00  0.00     0.048 C 
ATOM      2  C   UNL     1      19.375  17.224  16.645  1.00  0.00    -0.012 C 
ATOM      3  C   UNL     1      18.198  17.831  16.876  1.00  0.00    -0.019 C 
ATOM      4  C   UNL     1      17.042  17.725  15.916  1.00  0.00     0.036 C 
ATOM      5  C   UNL     1      17.036  16.359  15.206  1.00  0.00     0.025 C 
ATOM      6  C   UNL     1      18.389  16.108  14.516  1.00  0.00     0.089 C 
ATOM      7  C   UNL     1      19.521  16.305  15.487  1.00  0.00     0.158 C 
ATOM      8  O   UNL     1      20.613  15.707  15.288  1.00  0.00    -0.295 OA
ENDROOT
BRANCH   5   9
ATOM      9  C   UNL     1      15.881  16.250  14.219  1.00  0.00    -0.077 C 
ATOM     10  C   UNL     1      15.876  16.997  13.103  1.00  0.00     0.008 C 
ATOM     11  C   UNL     1      14.725  15.313  14.463  1.00  0.00     0.039 C 
ENDBRANCH   5   9
TORSDOF 1
ENDMDL
MODEL 3
REMARK VINA RESULT:    -4.928      1.350      2.075
REMARK INTER + INTRA:          -5.312
REMARK INTER:                  -5.225
REMARK INTRA:                  -0.087
REMARK UNBOUND:                -0.096
REMARK SMILES C=C(C)[C@@H]1CC=C(C)C(=O)C1
REMARK SMILES IDX 8 1 7 2 6 3 5 4 4 5 11 6 9 7 10 8 2 9 1 10 3 11
REMARK H PARENT
REMARK Flexibility Score: inf
ROOT
ATOM      1  C   UNL     1      13.713  16.911  11.503  1.00  0.00     0.048 C 
ATOM      2  C   UNL     1      14.819  17.006  12.516  1.00  0.00    -0.012 C 
ATOM      3  C   UNL     1      15.910  17.744  12.248  1.00  0.00    -0.019 C 
ATOM      4  C   UNL     1      17.039  17.888  13.235  1.00  0.00     0.036 C 
ATOM      5  C   UNL     1      17.208  16.609  14.074  1.00  0.00     0.025 C 
ATOM      6  C   UNL     1      15.880  16.240  14.760  1.00  0.00     0.089 C 
ATOM      7  C   UNL     1      14.762  16.187  13.754  1.00  0.00     0.158 C 
ATOM      8  O   UNL     1      13.756  15.466  13.990  1.00  0.00    -0.295 OA
ENDROOT
BRANCH   5   9
ATOM      9  C   UNL     1      18.335  16.752  15.088  1.00  0.00    -0.077 C 
ATOM     10  C   UNL     1      19.495  16.102  14.901  1.00  0.00     0.008 C 
ATOM     11  C   UNL     1      18.183  17.615  16.315  1.00  0.00     0.039 C 
ENDBRANCH   5   9
TORSDOF 1
ENDMDL
MODEL 4
REMARK VINA RESULT:    -4.856      2.521      4.118
REMARK INTER + INTRA:          -5.236
REMARK INTER:                  -5.149
REMARK INTRA:                  -0.087
REMARK UNBOUND:                -0.096
REMARK SMILES C=C(C)[C@@H]1CC=C(C)C(=O)C1
REMARK SMILES IDX 8 1 7 2 6 3 5 4 4 5 11 6 9 7 10 8 2 9 1 10 3 11
REMARK H PARENT
REMARK Flexibility Score: inf
ROOT
ATOM      1  C   UNL     1      19.374  17.368  10.707  1.00  0.00     0.048 C 
ATOM      2  C   UNL     1      18.501  17.040  11.886  1.00  0.00    -0.012 C 
ATOM      3  C   UNL     1      17.296  17.624  12.008  1.00  0.00    -0.019 C 
ATOM      4  C   UNL     1      16.373  17.318  13.159  1.00  0.00     0.036 C 
ATOM      5  C   UNL     1      17.169  17.004  14.438  1.00  0.00     0.025 C 
ATOM      6  C   UNL     1      18.173  15.866  14.180  1.00  0.00     0.089 C 
ATOM      7  C   UNL     1      19.019  16.172  12.974  1.00  0.00     0.158 C 
ATOM      8  O   UNL     1      20.163  15.653  12.878  1.00  0.00    -0.295 OA
ENDROOT
BRANCH   5   9
ATOM      9  C   UNL     1      16.245  16.675  15.603  1.00  0.00    -0.077 C 
ATOM     10  C   UNL     1      16.335  17.366  16.751  1.00  0.00     0.008 C 
ATOM     11  C   UNL     1      15.215  15.577  15.503  1.00  0.00     0.039 C 
ENDBRANCH   5   9
TORSDOF 1
ENDMDL
MODEL 5
REMARK VINA RESULT:    -4.804      9.177     10.729
REMARK INTER + INTRA:          -5.181
REMARK INTER:                  -5.093
REMARK INTRA:                  -0.087
REMARK UNBOUND:                -0.096
REMARK SMILES C=C(C)[C@@H]1CC=C(C)C(=O)C1
REMARK SMILES IDX 8 1 7 2 6 3 5 4 4 5 11 6 9 7 10 8 2 9 1 10 3 11
REMARK H PARENT
REMARK Flexibility Score: inf
ROOT
ATOM      1  C   UNL     1      15.934  14.751  25.279  1.00  0.00     0.048 C 
ATOM      2  C   UNL     1      15.290  15.897  24.549  1.00  0.00    -0.012 C 
ATOM      3  C   UNL     1      16.052  16.760  23.853  1.00  0.00    -0.019 C 
ATOM      4  C   UNL     1      15.458  17.914  23.089  1.00  0.00     0.036 C 
ATOM      5  C   UNL     1      14.196  18.450  23.789  1.00  0.00     0.025 C 
ATOM      6  C   UNL     1      13.181  17.313  24.008  1.00  0.00     0.089 C 
ATOM      7  C   UNL     1      13.834  16.147  24.699  1.00  0.00     0.158 C 
ATOM      8  O   UNL     1      13.124  15.360  25.381  1.00  0.00    -0.295 OA
ENDROOT
BRANCH   5   9
ATOM      9  C   UNL     1      13.577  19.605  23.013  1.00  0.00    -0.077 C 
ATOM     10  C   UNL     1      13.394  20.795  23.609  1.00  0.00     0.008 C 
ATOM     11  C   UNL     1      13.156  19.449  21.573  1.00  0.00     0.039 C 
ENDBRANCH   5   9
TORSDOF 1
ENDMDL
MODEL 6
REMARK VINA RESULT:    -4.767      8.594     10.321
REMARK INTER + INTRA:          -5.142
REMARK INTER:                  -5.052
REMARK INTRA:                  -0.090
REMARK UNBOUND:                -0.096
REMARK SMILES C=C(C)[C@@H]1CC=C(C)C(=O)C1
REMARK SMILES IDX 8 1 7 2 6 3 5 4 4 5 11 6 9 7 10 8 2 9 1 10 3 11
REMARK H PARENT
REMARK Flexibility Score: inf
ROOT
ATOM      1  C   UNL     1      16.246  14.344  25.240  1.00  0.00     0.048 C 
ATOM      2  C   UNL     1      15.720  15.647  24.705  1.00  0.00    -0.012 C 
ATOM      3  C   UNL     1      14.446  16.002  24.945  1.00  0.00    -0.019 C 
ATOM      4  C   UNL     1      13.873  17.304  24.450  1.00  0.00     0.036 C 
ATOM      5  C   UNL     1      14.509  17.714  23.109  1.00  0.00     0.025 C 
ATOM      6  C   UNL     1      16.042  17.764  23.236  1.00  0.00     0.089 C 
ATOM      7  C   UNL     1      16.567  16.477  23.812  1.00  0.00     0.158 C 
ATOM      8  O   UNL     1      17.751  16.127  23.556  1.00  0.00    -0.295 OA
ENDROOT
BRANCH   5   9
ATOM      9  C   UNL     1      13.949  19.039  22.609  1.00  0.00    -0.077 C 
ATOM     10  C   UNL     1      13.847  19.272  21.290  1.00  0.00     0.008 C 
ATOM     11  C   UNL     1      13.501  20.115  23.567  1.00  0.00     0.039 C 
ENDBRANCH   5   9
TORSDOF 1
ENDMDL
MODEL 7
REMARK VINA RESULT:    -4.752     10.393     11.854
REMARK INTER + INTRA:          -5.126
REMARK INTER:                  -5.028
REMARK INTRA:                  -0.098
REMARK UNBOUND:                -0.096
REMARK SMILES C=C(C)[C@@H]1CC=C(C)C(=O)C1
REMARK SMILES IDX 8 1 7 2 6 3 5 4 4 5 11 6 9 7 10 8 2 9 1 10 3 11
REMARK H PARENT
REMARK Flexibility Score: inf
ROOT
ATOM      1  C   UNL     1      14.560  17.128  24.353  1.00  0.00     0.048 C 
ATOM      2  C   UNL     1      15.731  16.274  24.751  1.00  0.00    -0.012 C 
ATOM      3  C   UNL     1      16.455  15.650  23.806  1.00  0.00    -0.019 C 
ATOM      4  C   UNL     1      17.649  14.797  24.148  1.00  0.00     0.036 C 
ATOM      5  C   UNL     1      17.460  14.099  25.507  1.00  0.00     0.025 C 
ATOM      6  C   UNL     1      17.153  15.136  26.603  1.00  0.00     0.089 C 
ATOM      7  C   UNL     1      16.009  16.021  26.187  1.00  0.00     0.158 C 
ATOM      8  O   UNL     1      15.308  16.577  27.075  1.00  0.00    -0.295 OA
ENDROOT
BRANCH   5   9
ATOM      9  C   UNL     1      18.670  13.249  25.870  1.00  0.00    -0.077 C 
ATOM     10  C   UNL     1      19.646  13.761  26.639  1.00  0.00     0.008 C 
ATOM     11  C   UNL     1      18.808  11.828  25.383  1.00  0.00     0.039 C 
ENDBRANCH   5   9
TORSDOF 1
ENDMDL
MODEL 8
REMARK VINA RESULT:    -4.728      2.252      4.902
REMARK INTER + INTRA:          -5.101
REMARK INTER:                  -5.004
REMARK INTRA:                  -0.097
REMARK UNBOUND:                -0.096
REMARK SMILES C=C(C)[C@@H]1CC=C(C)C(=O)C1
REMARK SMILES IDX 8 1 7 2 6 3 5 4 4 5 11 6 9 7 10 8 2 9 1 10 3 11
REMARK H PARENT
REMARK Flexibility Score: inf
ROOT
ATOM      1  C   UNL     1      20.568  16.672  16.408  1.00  0.00     0.048 C 
ATOM      2  C   UNL     1      19.286  16.588  15.628  1.00  0.00    -0.012 C 
ATOM      3  C   UNL     1      19.288  16.049  14.396  1.00  0.00    -0.019 C 
ATOM      4  C   UNL     1      18.029  15.922  13.578  1.00  0.00     0.036 C 
ATOM      5  C   UNL     1      17.060  17.082  13.870  1.00  0.00     0.025 C 
ATOM      6  C   UNL     1      16.767  17.168  15.379  1.00  0.00     0.089 C 
ATOM      7  C   UNL     1      18.049  17.209  16.165  1.00  0.00     0.158 C 
ATOM      8  O   UNL     1      18.055  17.747  17.305  1.00  0.00    -0.295 OA
ENDROOT
BRANCH   5   9
ATOM      9  C   UNL     1      15.776  16.953  13.061  1.00  0.00    -0.077 C 
ATOM     10  C   UNL     1      14.779  16.168  13.502  1.00  0.00     0.008 C 
ATOM     11  C   UNL     1      15.589  17.692  11.760  1.00  0.00     0.039 C 
ENDBRANCH   5   9
TORSDOF 1
ENDMDL
MODEL 9
REMARK VINA RESULT:    -4.721     10.556     12.104
REMARK INTER + INTRA:          -5.093
REMARK INTER:                  -4.995
REMARK INTRA:                  -0.098
REMARK UNBOUND:                -0.096
REMARK SMILES C=C(C)[C@@H]1CC=C(C)C(=O)C1
REMARK SMILES IDX 8 1 7 2 6 3 5 4 4 5 11 6 9 7 10 8 2 9 1 10 3 11
REMARK H PARENT
REMARK Flexibility Score: inf
ROOT
ATOM      1  C   UNL     1      19.356  12.933  25.873  1.00  0.00     0.048 C 
ATOM      2  C   UNL     1      18.212  13.901  25.751  1.00  0.00    -0.012 C 
ATOM      3  C   UNL     1      17.746  14.527  26.846  1.00  0.00    -0.019 C 
ATOM      4  C   UNL     1      16.615  15.520  26.777  1.00  0.00     0.036 C 
ATOM      5  C   UNL     1      15.619  15.148  25.665  1.00  0.00     0.025 C 
ATOM      6  C   UNL     1      16.349  15.005  24.317  1.00  0.00     0.089 C 
ATOM      7  C   UNL     1      17.520  14.070  24.448  1.00  0.00     0.158 C 
ATOM      8  O   UNL     1      17.934  13.456  23.428  1.00  0.00    -0.295 OA
ENDROOT
BRANCH   5   9
ATOM      9  C   UNL     1      14.481  16.157  25.575  1.00  0.00    -0.077 C 
ATOM     10  C   UNL     1      14.455  17.055  24.577  1.00  0.00     0.008 C 
ATOM     11  C   UNL     1      13.367  16.178  26.592  1.00  0.00     0.039 C 
ENDBRANCH   5   9
TORSDOF 1
ENDMDL
