MODEL 1
REMARK VINA RESULT:    -2.703      0.000      0.000
REMARK INTER + INTRA:          -3.058
REMARK INTER:                  -3.019
REMARK INTRA:                  -0.038
REMARK UNBOUND:                -0.038
REMARK SMILES CCCC(=O)[O-]
REMARK SMILES IDX 3 1 4 2 5 3 6 4 2 5 1 6
REMARK H PARENT
REMARK Flexibility Score: inf
ROOT
ATOM      1  C   UNL     1      -8.599   4.027 -21.723  1.00  0.00     0.052 C 
ENDROOT
BRANCH   1   2
ATOM      2  C   UNL     1      -7.158   3.691 -21.955  1.00  0.00     0.041 C 
ATOM      3  O   UNL     1      -6.563   2.889 -21.188  1.00  0.00    -0.550 OA
ATOM      4  O   UNL     1      -6.462   4.290 -22.998  1.00  0.00    -0.550 OA
ENDBRANCH   1   2
BRANCH   1   5
ATOM      5  C   UNL     1      -9.326   4.351 -23.035  1.00  0.00     0.003 C 
ATOM      6  C   UNL     1      -9.736   5.820 -23.125  1.00  0.00     0.004 C 
ENDBRANCH   1   5
TORSDOF 2
ENDMDL
MODEL 2
REMARK VINA RESULT:    -2.408      2.229      2.684
REMARK INTER + INTRA:          -2.727
REMARK INTER:                  -2.697
REMARK INTRA:                  -0.030
REMARK UNBOUND:                -0.038
REMARK SMILES CCCC(=O)[O-]
REMARK SMILES IDX 3 1 4 2 5 3 6 4 2 5 1 6
REMARK H PARENT
REMARK Flexibility Score: inf
ROOT
ATOM      1  C   UNL     1      -7.287   3.111 -21.610  1.00  0.00     0.052 C 
ENDROOT
BRANCH   1   2
ATOM      2  C   UNL     1      -8.313   4.145 -21.263  1.00  0.00     0.041 C 
ATOM      3  O   UNL     1      -8.250   4.758 -20.165  1.00  0.00    -0.550 OA
ATOM      4  O   UNL     1      -9.360   4.409 -22.139  1.00  0.00    -0.550 OA
ENDBRANCH   1   2
BRANCH   1   5
ATOM      5  C   UNL     1      -6.658   3.371 -22.985  1.00  0.00     0.003 C 
ATOM      6  C   UNL     1      -6.136   4.800 -23.125  1.00  0.00     0.004 C 
ENDBRANCH   1   5
TORSDOF 2
ENDMDL
MODEL 3
REMARK VINA RESULT:    -2.243     21.707     22.167
REMARK INTER + INTRA:          -2.544
REMARK INTER:                  -2.533
REMARK INTRA:                  -0.011
REMARK UNBOUND:                -0.038
REMARK SMILES CCCC(=O)[O-]
REMARK SMILES IDX 3 1 4 2 5 3 6 4 2 5 1 6
REMARK H PARENT
REMARK Flexibility Score: inf
ROOT
ATOM      1  C   UNL     1     -18.088   5.113  -2.897  1.00  0.00     0.052 C 
ENDROOT
BRANCH   1   2
ATOM      2  C   UNL     1     -18.140   6.581  -3.189  1.00  0.00     0.041 C 
ATOM      3  O   UNL     1     -17.075   7.246  -3.287  1.00  0.00    -0.550 OA
ATOM      4  O   UNL     1     -19.366   7.221  -3.320  1.00  0.00    -0.550 OA
ENDBRANCH   1   2
BRANCH   1   5
ATOM      5  C   UNL     1     -19.488   4.486  -2.875  1.00  0.00     0.003 C 
ATOM      6  C   UNL     1     -19.462   2.993  -3.198  1.00  0.00     0.004 C 
ENDBRANCH   1   5
TORSDOF 2
ENDMDL
MODEL 4
REMARK VINA RESULT:    -2.196      2.014      3.330
REMARK INTER + INTRA:          -2.491
REMARK INTER:                  -2.964
REMARK INTRA:                   0.473
REMARK UNBOUND:                -0.038
REMARK SMILES CCCC(=O)[O-]
REMARK SMILES IDX 3 1 4 2 5 3 6 4 2 5 1 6
REMARK H PARENT
REMARK Flexibility Score: inf
ROOT
ATOM      1  C   UNL     1      -7.350   4.615 -22.993  1.00  0.00     0.052 C 
ENDROOT
BRANCH   1   2
ATOM      2  C   UNL     1      -8.751   4.710 -22.473  1.00  0.00     0.041 C 
ATOM      3  O   UNL     1      -9.628   5.337 -23.125  1.00  0.00    -0.550 OA
ATOM      4  O   UNL     1      -9.081   4.137 -21.251  1.00  0.00    -0.550 OA
ENDBRANCH   1   2
BRANCH   1   5
ATOM      5  C   UNL     1      -6.765   3.210 -22.799  1.00  0.00     0.003 C 
ATOM      6  C   UNL     1      -6.533   2.875 -21.326  1.00  0.00     0.004 C 
ENDBRANCH   1   5
TORSDOF 2
ENDMDL
MODEL 5
REMARK VINA RESULT:    -2.176     21.812     22.468
REMARK INTER + INTRA:          -2.468
REMARK INTER:                  -2.455
REMARK INTRA:                  -0.013
REMARK UNBOUND:                -0.038
REMARK SMILES CCCC(=O)[O-]
REMARK SMILES IDX 3 1 4 2 5 3 6 4 2 5 1 6
REMARK H PARENT
REMARK Flexibility Score: inf
ROOT
ATOM      1  C   UNL     1     -18.565   4.743  -2.876  1.00  0.00     0.052 C 
ENDROOT
BRANCH   1   2
ATOM      2  C   UNL     1     -19.918   4.110  -2.990  1.00  0.00     0.041 C 
ATOM      3  O   UNL     1     -20.023   2.877  -3.220  1.00  0.00    -0.550 OA
ATOM      4  O   UNL     1     -21.063   4.889  -2.875  1.00  0.00    -0.550 OA
ENDBRANCH   1   2
BRANCH   1   5
ATOM      5  C   UNL     1     -18.644   6.273  -2.959  1.00  0.00     0.003 C 
ATOM      6  C   UNL     1     -17.512   6.869  -3.795  1.00  0.00     0.004 C 
ENDBRANCH   1   5
TORSDOF 2
ENDMDL
MODEL 6
REMARK VINA RESULT:    -1.869     21.777     22.391
REMARK INTER + INTRA:          -2.126
REMARK INTER:                  -2.117
REMARK INTRA:                  -0.009
REMARK UNBOUND:                -0.038
REMARK SMILES CCCC(=O)[O-]
REMARK SMILES IDX 3 1 4 2 5 3 6 4 2 5 1 6
REMARK H PARENT
REMARK Flexibility Score: inf
ROOT
ATOM      1  C   UNL     1     -19.537   6.730  -2.876  1.00  0.00     0.052 C 
ENDROOT
BRANCH   1   2
ATOM      2  C   UNL     1     -18.100   6.416  -3.162  1.00  0.00     0.041 C 
ATOM      3  O   UNL     1     -17.330   7.311  -3.598  1.00  0.00    -0.550 OA
ATOM      4  O   UNL     1     -17.621   5.124  -2.979  1.00  0.00    -0.550 OA
ENDBRANCH   1   2
BRANCH   1   5
ATOM      5  C   UNL     1     -20.407   5.467  -2.876  1.00  0.00     0.003 C 
ATOM      6  C   UNL     1     -21.871   5.770  -3.196  1.00  0.00     0.004 C 
ENDBRANCH   1   5
TORSDOF 2
ENDMDL
MODEL 7
REMARK VINA RESULT:    -1.744      1.271      2.183
REMARK INTER + INTRA:          -1.986
REMARK INTER:                  -2.215
REMARK INTRA:                   0.229
REMARK UNBOUND:                -0.038
REMARK SMILES CCCC(=O)[O-]
REMARK SMILES IDX 3 1 4 2 5 3 6 4 2 5 1 6
REMARK H PARENT
REMARK Flexibility Score: inf
ROOT
ATOM      1  C   UNL     1      -8.510   3.967 -22.674  1.00  0.00     0.052 C 
ENDROOT
BRANCH   1   2
ATOM      2  C   UNL     1      -7.016   4.032 -22.745  1.00  0.00     0.041 C 
ATOM      3  O   UNL     1      -6.444   5.100 -23.090  1.00  0.00    -0.550 OA
ATOM      4  O   UNL     1      -6.255   2.904 -22.464  1.00  0.00    -0.550 OA
ENDBRANCH   1   2
BRANCH   1   5
ATOM      5  C   UNL     1      -9.028   4.295 -21.267  1.00  0.00     0.003 C 
ATOM      6  C   UNL     1      -7.895   4.597 -20.287  1.00  0.00     0.004 C 
ENDBRANCH   1   5
TORSDOF 2
ENDMDL
MODEL 8
REMARK VINA RESULT:    -1.443     20.459     20.945
REMARK INTER + INTRA:          -1.650
REMARK INTER:                  -1.607
REMARK INTRA:                  -0.043
REMARK UNBOUND:                -0.038
REMARK SMILES CCCC(=O)[O-]
REMARK SMILES IDX 3 1 4 2 5 3 6 4 2 5 1 6
REMARK H PARENT
REMARK Flexibility Score: inf
ROOT
ATOM      1  C   UNL     1     -13.685  19.685  -8.731  1.00  0.00     0.052 C 
ENDROOT
BRANCH   1   2
ATOM      2  C   UNL     1     -12.963  18.640  -9.524  1.00  0.00     0.041 C 
ATOM      3  O   UNL     1     -12.300  17.744  -8.938  1.00  0.00    -0.550 OA
ATOM      4  O   UNL     1     -12.994  18.675 -10.913  1.00  0.00    -0.550 OA
ENDBRANCH   1   2
BRANCH   1   5
ATOM      5  C   UNL     1     -12.871  20.137  -7.511  1.00  0.00     0.003 C 
ATOM      6  C   UNL     1     -11.945  21.309  -7.832  1.00  0.00     0.004 C 
ENDBRANCH   1   5
TORSDOF 2
ENDMDL
MODEL 9
REMARK VINA RESULT:    -1.229     19.485     20.022
REMARK INTER + INTRA:          -1.411
REMARK INTER:                  -1.396
REMARK INTRA:                  -0.015
REMARK UNBOUND:                -0.038
REMARK SMILES CCCC(=O)[O-]
REMARK SMILES IDX 3 1 4 2 5 3 6 4 2 5 1 6
REMARK H PARENT
REMARK Flexibility Score: inf
ROOT
ATOM      1  C   UNL     1     -13.444  19.533 -10.347  1.00  0.00     0.052 C 
ENDROOT
BRANCH   1   2
ATOM      2  C   UNL     1     -12.874  19.105  -9.030  1.00  0.00     0.041 C 
ATOM      3  O   UNL     1     -12.470  17.923  -8.868  1.00  0.00    -0.550 OA
ATOM      4  O   UNL     1     -12.821  20.002  -7.970  1.00  0.00    -0.550 OA
ENDBRANCH   1   2
BRANCH   1   5
ATOM      5  C   UNL     1     -13.023  18.591 -11.483  1.00  0.00     0.003 C 
ATOM      6  C   UNL     1     -12.616  19.349 -12.746  1.00  0.00     0.004 C 
ENDBRANCH   1   5
TORSDOF 2
ENDMDL
