MODEL 1
REMARK VINA RESULT:    -3.664      0.000      0.000
REMARK INTER + INTRA:          -3.999
REMARK INTER:                  -3.986
REMARK INTRA:                  -0.014
REMARK UNBOUND:                -0.014
REMARK SMILES OCc1ccco1
REMARK SMILES IDX 2 1 3 2 5 3 6 4 4 5 7 6 1 7
REMARK H PARENT 1 8
REMARK Flexibility Score: inf
ROOT
ATOM      1  C   UNL     1      23.197  25.010 -15.352  1.00  0.00     0.231 C 
ENDROOT
BRANCH   1   2
ATOM      2  C   UNL     1      23.838  23.886 -16.100  1.00  0.00     0.129 A 
ATOM      3  C   UNL     1      25.097  22.167 -16.634  1.00  0.00     0.042 A 
ATOM      4  C   UNL     1      24.351  22.592 -17.715  1.00  0.00     0.195 A 
ATOM      5  C   UNL     1      24.770  23.004 -15.589  1.00  0.00     0.048 A 
ATOM      6  O   UNL     1      23.612  23.621 -17.365  1.00  0.00    -0.467 OA
ENDBRANCH   1   2
BRANCH   1   7
ATOM      7  O   UNL     1      24.131  26.026 -15.116  1.00  0.00    -0.388 OA
ATOM      8  H   UNL     1      24.836  25.930 -15.809  1.00  0.00     0.211 HD
ENDBRANCH   1   7
TORSDOF 2
ENDMDL
MODEL 2
REMARK VINA RESULT:    -3.599     12.701     13.369
REMARK INTER + INTRA:          -3.928
REMARK INTER:                  -3.915
REMARK INTRA:                  -0.013
REMARK UNBOUND:                -0.014
REMARK SMILES OCc1ccco1
REMARK SMILES IDX 2 1 3 2 5 3 6 4 4 5 7 6 1 7
REMARK H PARENT 1 8
REMARK Flexibility Score: inf
ROOT
ATOM      1  C   UNL     1      27.773  12.986  -7.519  1.00  0.00     0.231 C 
ENDROOT
BRANCH   1   2
ATOM      2  C   UNL     1      28.310  13.430  -8.842  1.00  0.00     0.129 A 
ATOM      3  C   UNL     1      28.993  14.669 -10.523  1.00  0.00     0.042 A 
ATOM      4  C   UNL     1      29.030  13.328 -10.846  1.00  0.00     0.195 A 
ATOM      5  C   UNL     1      28.524  14.738  -9.228  1.00  0.00     0.048 A 
ATOM      6  O   UNL     1      28.614  12.614  -9.824  1.00  0.00    -0.467 OA
ENDBRANCH   1   2
BRANCH   1   7
ATOM      7  O   UNL     1      28.597  13.449  -6.486  1.00  0.00    -0.388 OA
ATOM      8  H   UNL     1      29.028  14.280  -6.818  1.00  0.00     0.211 HD
ENDBRANCH   1   7
TORSDOF 2
ENDMDL
MODEL 3
REMARK VINA RESULT:    -3.589      1.456      1.680
REMARK INTER + INTRA:          -3.917
REMARK INTER:                  -3.902
REMARK INTRA:                  -0.015
REMARK UNBOUND:                -0.014
REMARK SMILES OCc1ccco1
REMARK SMILES IDX 2 1 3 2 5 3 6 4 4 5 7 6 1 7
REMARK H PARENT 1 8
REMARK Flexibility Score: inf
ROOT
ATOM      1  C   UNL     1      23.109  24.889 -15.220  1.00  0.00     0.231 C 
ENDROOT
BRANCH   1   2
ATOM      2  C   UNL     1      23.718  23.524 -15.249  1.00  0.00     0.129 A 
ATOM      3  C   UNL     1      25.065  21.833 -15.641  1.00  0.00     0.042 A 
ATOM      4  C   UNL     1      23.936  21.424 -14.958  1.00  0.00     0.195 A 
ATOM      5  C   UNL     1      24.924  23.191 -15.832  1.00  0.00     0.048 A 
ATOM      6  O   UNL     1      23.151  22.455 -14.742  1.00  0.00    -0.467 OA
ENDBRANCH   1   2
BRANCH   1   7
ATOM      7  O   UNL     1      24.113  25.863 -15.167  1.00  0.00    -0.388 OA
ATOM      8  H   UNL     1      24.960  25.388 -14.960  1.00  0.00     0.211 HD
ENDBRANCH   1   7
TORSDOF 2
ENDMDL
MODEL 4
REMARK VINA RESULT:    -3.563     10.563     11.264
REMARK INTER + INTRA:          -3.889
REMARK INTER:                  -3.874
REMARK INTRA:                  -0.015
REMARK UNBOUND:                -0.014
REMARK SMILES OCc1ccco1
REMARK SMILES IDX 2 1 3 2 5 3 6 4 4 5 7 6 1 7
REMARK H PARENT 1 8
REMARK Flexibility Score: inf
ROOT
ATOM      1  C   UNL     1      18.091  21.088  -7.203  1.00  0.00     0.231 C 
ENDROOT
BRANCH   1   2
ATOM      2  C   UNL     1      19.444  21.094  -6.566  1.00  0.00     0.129 A 
ATOM      3  C   UNL     1      21.523  21.586  -6.056  1.00  0.00     0.042 A 
ATOM      4  C   UNL     1      21.077  20.497  -5.333  1.00  0.00     0.195 A 
ATOM      5  C   UNL     1      20.469  21.971  -6.856  1.00  0.00     0.048 A 
ATOM      6  O   UNL     1      19.834  20.226  -5.662  1.00  0.00    -0.467 OA
ENDBRANCH   1   2
BRANCH   1   7
ATOM      7  O   UNL     1      17.751  22.381  -7.620  1.00  0.00    -0.388 OA
ATOM      8  H   UNL     1      18.547  22.951  -7.457  1.00  0.00     0.211 HD
ENDBRANCH   1   7
TORSDOF 2
ENDMDL
MODEL 5
REMARK VINA RESULT:    -3.562     11.933     12.586
REMARK INTER + INTRA:          -3.888
REMARK INTER:                  -3.875
REMARK INTRA:                  -0.013
REMARK UNBOUND:                -0.014
REMARK SMILES OCc1ccco1
REMARK SMILES IDX 2 1 3 2 5 3 6 4 4 5 7 6 1 7
REMARK H PARENT 1 8
REMARK Flexibility Score: inf
ROOT
ATOM      1  C   UNL     1      20.742  18.653  -5.311  1.00  0.00     0.231 C 
ENDROOT
BRANCH   1   2
ATOM      2  C   UNL     1      19.573  19.385  -5.887  1.00  0.00     0.129 A 
ATOM      3  C   UNL     1      17.903  19.990  -7.180  1.00  0.00     0.042 A 
ATOM      4  C   UNL     1      18.092  20.895  -6.154  1.00  0.00     0.195 A 
ATOM      5  C   UNL     1      18.862  19.014  -7.010  1.00  0.00     0.048 A 
ATOM      6  O   UNL     1      19.098  20.508  -5.402  1.00  0.00    -0.467 OA
ENDBRANCH   1   2
BRANCH   1   7
ATOM      7  O   UNL     1      20.338  17.893  -4.206  1.00  0.00    -0.388 OA
ATOM      8  H   UNL     1      19.440  17.531  -4.424  1.00  0.00     0.211 HD
ENDBRANCH   1   7
TORSDOF 2
ENDMDL
MODEL 6
REMARK VINA RESULT:    -3.545     10.511     11.319
REMARK INTER + INTRA:          -3.870
REMARK INTER:                  -3.855
REMARK INTRA:                  -0.015
REMARK UNBOUND:                -0.014
REMARK SMILES OCc1ccco1
REMARK SMILES IDX 2 1 3 2 5 3 6 4 4 5 7 6 1 7
REMARK H PARENT 1 8
REMARK Flexibility Score: inf
ROOT
ATOM      1  C   UNL     1      21.655  21.177  -5.839  1.00  0.00     0.231 C 
ENDROOT
BRANCH   1   2
ATOM      2  C   UNL     1      20.212  21.180  -6.230  1.00  0.00     0.129 A 
ATOM      3  C   UNL     1      18.322  21.565  -7.282  1.00  0.00     0.042 A 
ATOM      4  C   UNL     1      18.113  20.821  -6.138  1.00  0.00     0.195 A 
ATOM      5  C   UNL     1      19.679  21.801  -7.342  1.00  0.00     0.048 A 
ATOM      6  O   UNL     1      19.259  20.611  -5.531  1.00  0.00    -0.467 OA
ENDBRANCH   1   2
BRANCH   1   7
ATOM      7  O   UNL     1      22.222  22.435  -6.081  1.00  0.00    -0.388 OA
ATOM      8  H   UNL     1      22.357  22.501  -7.062  1.00  0.00     0.211 HD
ENDBRANCH   1   7
TORSDOF 2
ENDMDL
MODEL 7
REMARK VINA RESULT:    -3.484     12.647     13.173
REMARK INTER + INTRA:          -3.803
REMARK INTER:                  -3.787
REMARK INTRA:                  -0.016
REMARK UNBOUND:                -0.014
REMARK SMILES OCc1ccco1
REMARK SMILES IDX 2 1 3 2 5 3 6 4 4 5 7 6 1 7
REMARK H PARENT 1 8
REMARK Flexibility Score: inf
ROOT
ATOM      1  C   UNL     1      18.874  16.682  -5.935  1.00  0.00     0.231 C 
ENDROOT
BRANCH   1   2
ATOM      2  C   UNL     1      19.320  18.100  -5.776  1.00  0.00     0.129 A 
ATOM      3  C   UNL     1      20.383  19.906  -5.116  1.00  0.00     0.042 A 
ATOM      4  C   UNL     1      19.365  20.220  -5.995  1.00  0.00     0.195 A 
ATOM      5  C   UNL     1      20.353  18.535  -4.971  1.00  0.00     0.048 A 
ATOM      6  O   UNL     1      18.748  19.121  -6.369  1.00  0.00    -0.467 OA
ENDBRANCH   1   2
BRANCH   1   7
ATOM      7  O   UNL     1      19.200  15.944  -4.790  1.00  0.00    -0.388 OA
ATOM      8  H   UNL     1      18.524  16.175  -4.101  1.00  0.00     0.211 HD
ENDBRANCH   1   7
TORSDOF 2
ENDMDL
MODEL 8
REMARK VINA RESULT:    -3.428     10.485     10.971
REMARK INTER + INTRA:          -3.742
REMARK INTER:                  -3.726
REMARK INTRA:                  -0.016
REMARK UNBOUND:                -0.014
REMARK SMILES OCc1ccco1
REMARK SMILES IDX 2 1 3 2 5 3 6 4 4 5 7 6 1 7
REMARK H PARENT 1 8
REMARK Flexibility Score: inf
ROOT
ATOM      1  C   UNL     1      19.239  22.000  -7.616  1.00  0.00     0.231 C 
ENDROOT
BRANCH   1   2
ATOM      2  C   UNL     1      19.055  20.519  -7.519  1.00  0.00     0.129 A 
ATOM      3  C   UNL     1      18.178  18.526  -7.226  1.00  0.00     0.042 A 
ATOM      4  C   UNL     1      19.532  18.442  -7.483  1.00  0.00     0.195 A 
ATOM      5  C   UNL     1      17.868  19.870  -7.245  1.00  0.00     0.048 A 
ATOM      6  O   UNL     1      20.027  19.647  -7.651  1.00  0.00    -0.467 OA
ENDBRANCH   1   2
BRANCH   1   7
ATOM      7  O   UNL     1      17.993  22.639  -7.628  1.00  0.00    -0.388 OA
ATOM      8  H   UNL     1      18.125  23.511  -8.083  1.00  0.00     0.211 HD
ENDBRANCH   1   7
TORSDOF 2
ENDMDL
MODEL 9
REMARK VINA RESULT:    -3.349     11.702     12.236
REMARK INTER + INTRA:          -3.657
REMARK INTER:                  -3.637
REMARK INTRA:                  -0.020
REMARK UNBOUND:                -0.014
REMARK SMILES OCc1ccco1
REMARK SMILES IDX 2 1 3 2 5 3 6 4 4 5 7 6 1 7
REMARK H PARENT 1 8
REMARK Flexibility Score: inf
ROOT
ATOM      1  C   UNL     1      18.169  20.968  -6.550  1.00  0.00     0.231 C 
ENDROOT
BRANCH   1   2
ATOM      2  C   UNL     1      19.270  20.066  -6.091  1.00  0.00     0.129 A 
ATOM      3  C   UNL     1      21.162  18.957  -5.967  1.00  0.00     0.042 A 
ATOM      4  C   UNL     1      20.316  18.617  -4.929  1.00  0.00     0.195 A 
ATOM      5  C   UNL     1      20.485  19.892  -6.722  1.00  0.00     0.048 A 
ATOM      6  O   UNL     1      19.194  19.294  -5.033  1.00  0.00    -0.467 OA
ENDBRANCH   1   2
BRANCH   1   7
ATOM      7  O   UNL     1      17.352  21.320  -5.469  1.00  0.00    -0.388 OA
ATOM      8  H   UNL     1      17.675  22.200  -5.143  1.00  0.00     0.211 HD
ENDBRANCH   1   7
TORSDOF 2
ENDMDL
