MODEL 1
REMARK VINA RESULT:    -4.048      0.000      0.000
REMARK INTER + INTRA:          -4.987
REMARK INTER:                  -4.758
REMARK INTRA:                  -0.229
REMARK UNBOUND:                -0.229
REMARK SMILES [NH3+][C@H](CO)C(=O)[O-]
REMARK SMILES IDX 3 1 2 2 1 3 5 7 6 8 7 9 4 10
REMARK H PARENT 1 4 1 5 1 6 4 11
REMARK Flexibility Score: inf
ROOT
ATOM      1  C   UNL     1      38.187  33.664 -11.424  1.00  0.00     0.227 C 
ENDROOT
BRANCH   1   2
ATOM      2  C   UNL     1      37.583  33.521 -10.018  1.00  0.00     0.253 C 
BRANCH   2   3
ATOM      3  N   UNL     1      37.573  34.814  -9.326  1.00  0.00    -0.348 N 
ATOM      4  H   UNL     1      37.891  34.690  -8.337  1.00  0.00     0.345 HD
ATOM      5  H   UNL     1      38.205  35.497  -9.806  1.00  0.00     0.345 HD
ATOM      6  H   UNL     1      36.600  35.199  -9.310  1.00  0.00     0.345 HD
ENDBRANCH   2   3
BRANCH   2   7
ATOM      7  C   UNL     1      36.188  32.959 -10.097  1.00  0.00     0.102 C 
ATOM      8  O   UNL     1      35.892  32.126 -10.993  1.00  0.00    -0.544 OA
ATOM      9  O   UNL     1      35.217  33.363  -9.188  1.00  0.00    -0.544 OA
ENDBRANCH   2   7
ENDBRANCH   1   2
BRANCH   1  10
ATOM     10  O   UNL     1      37.373  34.487 -12.214  1.00  0.00    -0.390 OA
ATOM     11  H   UNL     1      37.969  34.888 -12.900  1.00  0.00     0.210 HD
ENDBRANCH   1  10
TORSDOF 4
ENDMDL
MODEL 2
REMARK VINA RESULT:    -3.874      1.998      2.601
REMARK INTER + INTRA:          -4.783
REMARK INTER:                  -4.559
REMARK INTRA:                  -0.223
REMARK UNBOUND:                -0.229
REMARK SMILES [NH3+][C@H](CO)C(=O)[O-]
REMARK SMILES IDX 3 1 2 2 1 3 5 7 6 8 7 9 4 10
REMARK H PARENT 1 4 1 5 1 6 4 11
REMARK Flexibility Score: inf
ROOT
ATOM      1  C   UNL     1      37.507  32.249 -11.281  1.00  0.00     0.227 C 
ENDROOT
BRANCH   1   2
ATOM      2  C   UNL     1      38.217  33.612 -11.245  1.00  0.00     0.253 C 
BRANCH   2   3
ATOM      3  N   UNL     1      37.777  34.453 -12.364  1.00  0.00    -0.348 N 
ATOM      4  H   UNL     1      37.183  33.892 -13.017  1.00  0.00     0.345 HD
ATOM      5  H   UNL     1      37.224  35.272 -12.017  1.00  0.00     0.345 HD
ATOM      6  H   UNL     1      38.609  34.800 -12.894  1.00  0.00     0.345 HD
ENDBRANCH   2   3
BRANCH   2   7
ATOM      7  C   UNL     1      37.958  34.308  -9.935  1.00  0.00     0.102 C 
ATOM      8  O   UNL     1      38.922  34.724  -9.239  1.00  0.00    -0.544 OA
ATOM      9  O   UNL     1      36.657  34.489  -9.482  1.00  0.00    -0.544 OA
ENDBRANCH   2   7
ENDBRANCH   1   2
BRANCH   1  10
ATOM     10  O   UNL     1      36.153  32.421 -11.600  1.00  0.00    -0.390 OA
ATOM     11  H   UNL     1      36.132  32.827 -12.506  1.00  0.00     0.210 HD
ENDBRANCH   1  10
TORSDOF 4
ENDMDL
MODEL 3
REMARK VINA RESULT:    -3.874      2.202      3.126
REMARK INTER + INTRA:          -4.782
REMARK INTER:                  -4.406
REMARK INTRA:                  -0.376
REMARK UNBOUND:                -0.229
REMARK SMILES [NH3+][C@H](CO)C(=O)[O-]
REMARK SMILES IDX 3 1 2 2 1 3 5 7 6 8 7 9 4 10
REMARK H PARENT 1 4 1 5 1 6 4 11
REMARK Flexibility Score: inf
ROOT
ATOM      1  C   UNL     1      35.908  32.822 -10.060  1.00  0.00     0.227 C 
ENDROOT
BRANCH   1   2
ATOM      2  C   UNL     1      37.226  32.594 -10.818  1.00  0.00     0.253 C 
BRANCH   2   3
ATOM      3  N   UNL     1      37.058  32.889 -12.245  1.00  0.00    -0.348 N 
ATOM      4  H   UNL     1      37.008  31.996 -12.788  1.00  0.00     0.345 HD
ATOM      5  H   UNL     1      36.183  33.439 -12.410  1.00  0.00     0.345 HD
ATOM      6  H   UNL     1      37.879  33.436 -12.592  1.00  0.00     0.345 HD
ENDBRANCH   2   3
BRANCH   2   7
ATOM      7  C   UNL     1      38.324  33.443 -10.235  1.00  0.00     0.102 C 
ATOM      8  O   UNL     1      38.450  34.645 -10.588  1.00  0.00    -0.544 OA
ATOM      9  O   UNL     1      39.212  32.903  -9.311  1.00  0.00    -0.544 OA
ENDBRANCH   2   7
ENDBRANCH   1   2
BRANCH   1  10
ATOM     10  O   UNL     1      36.110  33.724  -9.007  1.00  0.00    -0.390 OA
ATOM     11  H   UNL     1      37.072  33.660  -8.768  1.00  0.00     0.210 HD
ENDBRANCH   1  10
TORSDOF 4
ENDMDL
MODEL 4
REMARK VINA RESULT:    -3.850      1.596      2.441
REMARK INTER + INTRA:          -4.754
REMARK INTER:                  -4.545
REMARK INTRA:                  -0.210
REMARK UNBOUND:                -0.229
REMARK SMILES [NH3+][C@H](CO)C(=O)[O-]
REMARK SMILES IDX 3 1 2 2 1 3 5 7 6 8 7 9 4 10
REMARK H PARENT 1 4 1 5 1 6 4 11
REMARK Flexibility Score: inf
ROOT
ATOM      1  C   UNL     1      39.089  34.269  -9.349  1.00  0.00     0.227 C 
ENDROOT
BRANCH   1   2
ATOM      2  C   UNL     1      37.686  33.809  -9.776  1.00  0.00     0.253 C 
BRANCH   2   3
ATOM      3  N   UNL     1      36.686  34.831  -9.449  1.00  0.00    -0.348 N 
ATOM      4  H   UNL     1      36.317  34.669  -8.483  1.00  0.00     0.345 HD
ATOM      5  H   UNL     1      37.104  35.789  -9.499  1.00  0.00     0.345 HD
ATOM      6  H   UNL     1      35.885  34.769 -10.119  1.00  0.00     0.345 HD
ENDBRANCH   2   3
BRANCH   2   7
ATOM      7  C   UNL     1      37.657  33.503 -11.250  1.00  0.00     0.102 C 
ATOM      8  O   UNL     1      37.110  32.448 -11.666  1.00  0.00    -0.544 OA
ATOM      9  O   UNL     1      38.240  34.377 -12.160  1.00  0.00    -0.544 OA
ENDBRANCH   2   7
ENDBRANCH   1   2
BRANCH   1  10
ATOM     10  O   UNL     1      39.368  35.530  -9.893  1.00  0.00    -0.390 OA
ATOM     11  H   UNL     1      38.910  36.190  -9.310  1.00  0.00     0.210 HD
ENDBRANCH   1  10
TORSDOF 4
ENDMDL
MODEL 5
REMARK VINA RESULT:    -3.805      2.160      2.475
REMARK INTER + INTRA:          -4.702
REMARK INTER:                  -4.509
REMARK INTRA:                  -0.192
REMARK UNBOUND:                -0.229
REMARK SMILES [NH3+][C@H](CO)C(=O)[O-]
REMARK SMILES IDX 3 1 2 2 1 3 5 7 6 8 7 9 4 10
REMARK H PARENT 1 4 1 5 1 6 4 11
REMARK Flexibility Score: inf
ROOT
ATOM      1  C   UNL     1      36.540  32.519 -11.082  1.00  0.00     0.227 C 
ENDROOT
BRANCH   1   2
ATOM      2  C   UNL     1      36.805  33.727 -10.169  1.00  0.00     0.253 C 
BRANCH   2   3
ATOM      3  N   UNL     1      35.901  33.710  -9.014  1.00  0.00    -0.348 N 
ATOM      4  H   UNL     1      35.297  32.857  -9.049  1.00  0.00     0.345 HD
ATOM      5  H   UNL     1      36.444  33.709  -8.119  1.00  0.00     0.345 HD
ATOM      6  H   UNL     1      35.281  34.552  -9.039  1.00  0.00     0.345 HD
ENDBRANCH   2   3
BRANCH   2   7
ATOM      7  C   UNL     1      38.239  33.736  -9.709  1.00  0.00     0.102 C 
ATOM      8  O   UNL     1      38.966  32.723  -9.884  1.00  0.00    -0.544 OA
ATOM      9  O   UNL     1      38.767  34.859  -9.082  1.00  0.00    -0.544 OA
ENDBRANCH   2   7
ENDBRANCH   1   2
BRANCH   1  10
ATOM     10  O   UNL     1      37.043  32.767 -12.365  1.00  0.00    -0.390 OA
ATOM     11  H   UNL     1      37.337  33.715 -12.369  1.00  0.00     0.210 HD
ENDBRANCH   1  10
TORSDOF 4
ENDMDL
MODEL 6
REMARK VINA RESULT:    -3.707      2.260      2.593
REMARK INTER + INTRA:          -4.586
REMARK INTER:                  -4.215
REMARK INTRA:                  -0.371
REMARK UNBOUND:                -0.229
REMARK SMILES [NH3+][C@H](CO)C(=O)[O-]
REMARK SMILES IDX 3 1 2 2 1 3 5 7 6 8 7 9 4 10
REMARK H PARENT 1 4 1 5 1 6 4 11
REMARK Flexibility Score: inf
ROOT
ATOM      1  C   UNL     1      38.876  32.246 -10.794  1.00  0.00     0.227 C 
ENDROOT
BRANCH   1   2
ATOM      2  C   UNL     1      37.843  33.296 -11.234  1.00  0.00     0.253 C 
BRANCH   2   3
ATOM      3  N   UNL     1      36.999  32.769 -12.312  1.00  0.00    -0.348 N 
ATOM      4  H   UNL     1      37.566  32.150 -12.935  1.00  0.00     0.345 HD
ATOM      5  H   UNL     1      36.198  32.221 -11.921  1.00  0.00     0.345 HD
ATOM      6  H   UNL     1      36.627  33.559 -12.888  1.00  0.00     0.345 HD
ENDBRANCH   2   3
BRANCH   2   7
ATOM      7  C   UNL     1      36.993  33.722 -10.066  1.00  0.00     0.102 C 
ATOM      8  O   UNL     1      37.347  34.694  -9.348  1.00  0.00    -0.544 OA
ATOM      9  O   UNL     1      35.818  33.041  -9.768  1.00  0.00    -0.544 OA
ENDBRANCH   2   7
ENDBRANCH   1   2
BRANCH   1  10
ATOM     10  O   UNL     1      38.903  32.156  -9.396  1.00  0.00    -0.390 OA
ATOM     11  H   UNL     1      38.105  32.649  -9.071  1.00  0.00     0.210 HD
ENDBRANCH   1  10
TORSDOF 4
ENDMDL
MODEL 7
REMARK VINA RESULT:    -3.673     17.059     17.555
REMARK INTER + INTRA:          -4.546
REMARK INTER:                  -4.321
REMARK INTRA:                  -0.226
REMARK UNBOUND:                -0.229
REMARK SMILES [NH3+][C@H](CO)C(=O)[O-]
REMARK SMILES IDX 3 1 2 2 1 3 5 7 6 8 7 9 4 10
REMARK H PARENT 1 4 1 5 1 6 4 11
REMARK Flexibility Score: inf
ROOT
ATOM      1  C   UNL     1      38.551  43.628   4.148  1.00  0.00     0.227 C 
ENDROOT
BRANCH   1   2
ATOM      2  C   UNL     1      39.735  43.415   3.192  1.00  0.00     0.253 C 
BRANCH   2   3
ATOM      3  N   UNL     1      39.508  42.242   2.341  1.00  0.00    -0.348 N 
ATOM      4  H   UNL     1      40.225  41.510   2.548  1.00  0.00     0.345 HD
ATOM      5  H   UNL     1      38.554  41.843   2.507  1.00  0.00     0.345 HD
ATOM      6  H   UNL     1      39.598  42.512   1.335  1.00  0.00     0.345 HD
ENDBRANCH   2   3
BRANCH   2   7
ATOM      7  C   UNL     1      39.956  44.640   2.344  1.00  0.00     0.102 C 
ATOM      8  O   UNL     1      41.124  44.981   2.018  1.00  0.00    -0.544 OA
ATOM      9  O   UNL     1      38.875  45.406   1.923  1.00  0.00    -0.544 OA
ENDBRANCH   2   7
ENDBRANCH   1   2
BRANCH   1  10
ATOM     10  O   UNL     1      38.545  44.948   4.619  1.00  0.00    -0.390 OA
ATOM     11  H   UNL     1      38.745  44.895   5.590  1.00  0.00     0.210 HD
ENDBRANCH   1  10
TORSDOF 4
ENDMDL
