MODEL 1
REMARK VINA RESULT:    -3.669      0.000      0.000
REMARK INTER + INTRA:          -5.994
REMARK INTER:                  -5.170
REMARK INTRA:                  -0.824
REMARK UNBOUND:                -0.824
REMARK SMILES CCCCCCCCC=O
REMARK SMILES IDX 5 1 4 2 3 3 2 4 1 5 6 6 7 7 8 8 9 9 10 10
REMARK H PARENT
REMARK Flexibility Score: inf
ROOT
ATOM      1  C   UNL     1     118.030 117.863 117.610  1.00  0.00     0.000 C 
ENDROOT
BRANCH   1   2
ATOM      2  C   UNL     1     117.681 117.391 119.032  1.00  0.00    -0.000 C 
BRANCH   2   3
ATOM      3  C   UNL     1     118.722 116.410 119.600  1.00  0.00    -0.000 C 
BRANCH   3   4
ATOM      4  C   UNL     1     119.870 117.128 120.326  1.00  0.00    -0.003 C 
ATOM      5  C   UNL     1     121.195 117.050 119.567  1.00  0.00     0.004 C 
ENDBRANCH   3   4
ENDBRANCH   2   3
ENDBRANCH   1   2
BRANCH   1   6
ATOM      6  C   UNL     1     118.181 119.389 117.511  1.00  0.00     0.000 C 
BRANCH   6   7
ATOM      7  C   UNL     1     119.652 119.805 117.665  1.00  0.00     0.008 C 
BRANCH   7   8
ATOM      8  C   UNL     1     119.860 120.765 118.845  1.00  0.00     0.072 C 
BRANCH   8   9
ATOM      9  C   UNL     1     118.630 120.890 119.696  1.00  0.00     0.224 C 
ATOM     10  O   UNL     1     118.646 120.533 120.864  1.00  0.00    -0.303 OA
ENDBRANCH   8   9
ENDBRANCH   7   8
ENDBRANCH   6   7
ENDBRANCH   1   6
TORSDOF 7
ENDMDL
MODEL 2
REMARK VINA RESULT:    -3.657      1.603      2.790
REMARK INTER + INTRA:          -5.978
REMARK INTER:                  -5.184
REMARK INTRA:                  -0.795
REMARK UNBOUND:                -0.824
REMARK SMILES CCCCCCCCC=O
REMARK SMILES IDX 5 1 4 2 3 3 2 4 1 5 6 6 7 7 8 8 9 9 10 10
REMARK H PARENT
REMARK Flexibility Score: inf
ROOT
ATOM      1  C   UNL     1     117.859 119.637 117.633  1.00  0.00     0.000 C 
ENDROOT
BRANCH   1   2
ATOM      2  C   UNL     1     117.423 119.965 119.070  1.00  0.00    -0.000 C 
BRANCH   2   3
ATOM      3  C   UNL     1     116.391 118.963 119.617  1.00  0.00    -0.000 C 
BRANCH   3   4
ATOM      4  C   UNL     1     117.046 117.816 120.402  1.00  0.00    -0.003 C 
ATOM      5  C   UNL     1     117.049 116.495 119.632  1.00  0.00     0.004 C 
ENDBRANCH   3   4
ENDBRANCH   2   3
ENDBRANCH   1   2
BRANCH   1   6
ATOM      6  C   UNL     1     119.376 119.437 117.503  1.00  0.00     0.000 C 
BRANCH   6   7
ATOM      7  C   UNL     1     119.753 117.959 117.688  1.00  0.00     0.008 C 
BRANCH   7   8
ATOM      8  C   UNL     1     120.852 117.770 118.742  1.00  0.00     0.072 C 
BRANCH   8   9
ATOM      9  C   UNL     1     120.920 118.923 119.701  1.00  0.00     0.224 C 
ATOM     10  O   UNL     1     120.449 118.825 120.823  1.00  0.00    -0.303 OA
ENDBRANCH   8   9
ENDBRANCH   7   8
ENDBRANCH   6   7
ENDBRANCH   1   6
TORSDOF 7
ENDMDL
MODEL 3
REMARK VINA RESULT:    -3.653      1.501      3.676
REMARK INTER + INTRA:          -5.973
REMARK INTER:                  -5.100
REMARK INTRA:                  -0.873
REMARK UNBOUND:                -0.824
REMARK SMILES CCCCCCCCC=O
REMARK SMILES IDX 5 1 4 2 3 3 2 4 1 5 6 6 7 7 8 8 9 9 10 10
REMARK H PARENT
REMARK Flexibility Score: inf
ROOT
ATOM      1  C   UNL     1     118.000 117.863 117.597  1.00  0.00     0.000 C 
ENDROOT
BRANCH   1   2
ATOM      2  C   UNL     1     118.172 119.390 117.553  1.00  0.00    -0.000 C 
BRANCH   2   3
ATOM      3  C   UNL     1     119.647 119.821 117.643  1.00  0.00    -0.000 C 
BRANCH   3   4
ATOM      4  C   UNL     1     119.891 120.855 118.753  1.00  0.00    -0.003 C 
ATOM      5  C   UNL     1     118.798 120.848 119.822  1.00  0.00     0.004 C 
ENDBRANCH   3   4
ENDBRANCH   2   3
ENDBRANCH   1   2
BRANCH   1   6
ATOM      6  C   UNL     1     117.605 117.350 118.990  1.00  0.00     0.000 C 
BRANCH   6   7
ATOM      7  C   UNL     1     118.736 116.514 119.608  1.00  0.00     0.008 C 
BRANCH   7   8
ATOM      8  C   UNL     1     119.510 117.293 120.681  1.00  0.00     0.072 C 
BRANCH   8   9
ATOM      9  C   UNL     1     120.932 117.551 120.278  1.00  0.00     0.224 C 
ATOM     10  O   UNL     1     121.345 117.178 119.191  1.00  0.00    -0.303 OA
ENDBRANCH   8   9
ENDBRANCH   7   8
ENDBRANCH   6   7
ENDBRANCH   1   6
TORSDOF 7
ENDMDL
MODEL 4
REMARK VINA RESULT:    -3.650      1.372      2.521
REMARK INTER + INTRA:          -5.968
REMARK INTER:                  -5.114
REMARK INTRA:                  -0.854
REMARK UNBOUND:                -0.824
REMARK SMILES CCCCCCCCC=O
REMARK SMILES IDX 5 1 4 2 3 3 2 4 1 5 6 6 7 7 8 8 9 9 10 10
REMARK H PARENT
REMARK Flexibility Score: inf
ROOT
ATOM      1  C   UNL     1     119.637 119.759 117.653  1.00  0.00     0.000 C 
ENDROOT
BRANCH   1   2
ATOM      2  C   UNL     1     119.464 118.233 117.593  1.00  0.00    -0.000 C 
BRANCH   2   3
ATOM      3  C   UNL     1     117.986 117.805 117.631  1.00  0.00    -0.000 C 
BRANCH   3   4
ATOM      4  C   UNL     1     117.699 116.779 118.738  1.00  0.00    -0.003 C 
ATOM      5  C   UNL     1     118.798 116.729 119.800  1.00  0.00     0.004 C 
ENDBRANCH   3   4
ENDBRANCH   2   3
ENDBRANCH   1   2
BRANCH   1   6
ATOM      6  C   UNL     1     120.050 120.256 119.047  1.00  0.00     0.000 C 
BRANCH   6   7
ATOM      7  C   UNL     1     118.966 121.161 119.651  1.00  0.00     0.008 C 
BRANCH   7   8
ATOM      8  C   UNL     1     118.169 120.452 120.755  1.00  0.00     0.072 C 
BRANCH   8   9
ATOM      9  C   UNL     1     116.792 120.066 120.299  1.00  0.00     0.224 C 
ATOM     10  O   UNL     1     116.343 120.498 119.248  1.00  0.00    -0.303 OA
ENDBRANCH   8   9
ENDBRANCH   7   8
ENDBRANCH   6   7
ENDBRANCH   1   6
TORSDOF 7
ENDMDL
MODEL 5
REMARK VINA RESULT:    -3.647      1.688      3.096
REMARK INTER + INTRA:          -5.963
REMARK INTER:                  -5.167
REMARK INTRA:                  -0.797
REMARK UNBOUND:                -0.824
REMARK SMILES CCCCCCCCC=O
REMARK SMILES IDX 5 1 4 2 3 3 2 4 1 5 6 6 7 7 8 8 9 9 10 10
REMARK H PARENT
REMARK Flexibility Score: inf
ROOT
ATOM      1  C   UNL     1     119.757 118.298 117.584  1.00  0.00     0.000 C 
ENDROOT
BRANCH   1   2
ATOM      2  C   UNL     1     118.220 118.286 117.553  1.00  0.00    -0.000 C 
BRANCH   2   3
ATOM      3  C   UNL     1     117.616 119.692 117.717  1.00  0.00    -0.000 C 
BRANCH   3   4
ATOM      4  C   UNL     1     116.786 119.828 119.003  1.00  0.00    -0.003 C 
ATOM      5  C   UNL     1     116.671 118.515 119.778  1.00  0.00     0.004 C 
ENDBRANCH   3   4
ENDBRANCH   2   3
ENDBRANCH   1   2
BRANCH   1   6
ATOM      6  C   UNL     1     120.332 117.619 118.836  1.00  0.00     0.000 C 
BRANCH   6   7
ATOM      7  C   UNL     1     121.211 118.594 119.634  1.00  0.00     0.008 C 
BRANCH   7   8
ATOM      8  C   UNL     1     120.380 119.670 120.346  1.00  0.00     0.072 C 
BRANCH   8   9
ATOM      9  C   UNL     1     120.786 121.058 119.941  1.00  0.00     0.224 C 
ATOM     10  O   UNL     1     120.190 121.642 119.050  1.00  0.00    -0.303 OA
ENDBRANCH   8   9
ENDBRANCH   7   8
ENDBRANCH   6   7
ENDBRANCH   1   6
TORSDOF 7
ENDMDL
MODEL 6
REMARK VINA RESULT:    -3.642      2.166      3.291
REMARK INTER + INTRA:          -5.957
REMARK INTER:                  -5.143
REMARK INTRA:                  -0.814
REMARK UNBOUND:                -0.824
REMARK SMILES CCCCCCCCC=O
REMARK SMILES IDX 5 1 4 2 3 3 2 4 1 5 6 6 7 7 8 8 9 9 10 10
REMARK H PARENT
REMARK Flexibility Score: inf
ROOT
ATOM      1  C   UNL     1     117.847 119.326 117.610  1.00  0.00     0.000 C 
ENDROOT
BRANCH   1   2
ATOM      2  C   UNL     1     119.384 119.348 117.592  1.00  0.00    -0.000 C 
BRANCH   2   3
ATOM      3  C   UNL     1     119.997 117.943 117.727  1.00  0.00    -0.000 C 
BRANCH   3   4
ATOM      4  C   UNL     1     120.780 117.767 119.037  1.00  0.00    -0.003 C 
ATOM      5  C   UNL     1     120.934 119.073 119.817  1.00  0.00     0.004 C 
ENDBRANCH   3   4
ENDBRANCH   2   3
ENDBRANCH   1   2
BRANCH   1   6
ATOM      6  C   UNL     1     117.257 120.000 118.858  1.00  0.00     0.000 C 
BRANCH   6   7
ATOM      7  C   UNL     1     116.394 119.013 119.659  1.00  0.00     0.008 C 
BRANCH   7   8
ATOM      8  C   UNL     1     117.243 117.957 120.382  1.00  0.00     0.072 C 
BRANCH   8   9
ATOM      9  C   UNL     1     116.862 116.560 119.989  1.00  0.00     0.224 C 
ATOM     10  O   UNL     1     117.298 116.064 118.962  1.00  0.00    -0.303 OA
ENDBRANCH   8   9
ENDBRANCH   7   8
ENDBRANCH   6   7
ENDBRANCH   1   6
TORSDOF 7
ENDMDL
MODEL 7
REMARK VINA RESULT:    -3.639      1.472      3.308
REMARK INTER + INTRA:          -5.952
REMARK INTER:                  -5.110
REMARK INTRA:                  -0.842
REMARK UNBOUND:                -0.824
REMARK SMILES CCCCCCCCC=O
REMARK SMILES IDX 5 1 4 2 3 3 2 4 1 5 6 6 7 7 8 8 9 9 10 10
REMARK H PARENT
REMARK Flexibility Score: inf
ROOT
ATOM      1  C   UNL     1     118.082 119.729 117.745  1.00  0.00     0.000 C 
ENDROOT
BRANCH   1   2
ATOM      2  C   UNL     1     117.493 120.079 119.122  1.00  0.00    -0.000 C 
BRANCH   2   3
ATOM      3  C   UNL     1     118.446 120.939 119.970  1.00  0.00    -0.000 C 
BRANCH   3   4
ATOM      4  C   UNL     1     119.726 121.320 119.211  1.00  0.00    -0.003 C 
ATOM      5  C   UNL     1     120.990 121.143 120.053  1.00  0.00     0.004 C 
ENDBRANCH   3   4
ENDBRANCH   2   3
ENDBRANCH   1   2
BRANCH   1   6
ATOM      6  C   UNL     1     118.299 118.219 117.558  1.00  0.00     0.000 C 
BRANCH   6   7
ATOM      7  C   UNL     1     119.796 117.885 117.490  1.00  0.00     0.008 C 
BRANCH   7   8
ATOM      8  C   UNL     1     120.404 117.665 118.882  1.00  0.00     0.072 C 
BRANCH   8   9
ATOM      9  C   UNL     1     119.481 116.903 119.788  1.00  0.00     0.224 C 
ATOM     10  O   UNL     1     119.185 117.346 120.887  1.00  0.00    -0.303 OA
ENDBRANCH   8   9
ENDBRANCH   7   8
ENDBRANCH   6   7
ENDBRANCH   1   6
TORSDOF 7
ENDMDL
MODEL 8
REMARK VINA RESULT:    -3.613      1.656      2.793
REMARK INTER + INTRA:          -5.916
REMARK INTER:                  -5.049
REMARK INTRA:                  -0.867
REMARK UNBOUND:                -0.824
REMARK SMILES CCCCCCCCC=O
REMARK SMILES IDX 5 1 4 2 3 3 2 4 1 5 6 6 7 7 8 8 9 9 10 10
REMARK H PARENT
REMARK Flexibility Score: inf
ROOT
ATOM      1  C   UNL     1     117.927 117.870 117.720  1.00  0.00     0.000 C 
ENDROOT
BRANCH   1   2
ATOM      2  C   UNL     1     117.752 117.056 119.012  1.00  0.00    -0.000 C 
BRANCH   2   3
ATOM      3  C   UNL     1     117.031 117.848 120.116  1.00  0.00    -0.000 C 
BRANCH   3   4
ATOM      4  C   UNL     1     116.317 119.095 119.573  1.00  0.00    -0.003 C 
ATOM      5  C   UNL     1     116.631 120.358 120.376  1.00  0.00     0.004 C 
ENDBRANCH   3   4
ENDBRANCH   2   3
ENDBRANCH   1   2
BRANCH   1   6
ATOM      6  C   UNL     1     119.390 118.257 117.455  1.00  0.00     0.000 C 
BRANCH   6   7
ATOM      7  C   UNL     1     119.626 119.745 117.753  1.00  0.00     0.008 C 
BRANCH   7   8
ATOM      8  C   UNL     1     120.171 119.972 119.170  1.00  0.00     0.072 C 
BRANCH   8   9
ATOM      9  C   UNL     1     121.011 118.821 119.643  1.00  0.00     0.224 C 
ATOM     10  O   UNL     1     120.798 118.303 120.728  1.00  0.00    -0.303 OA
ENDBRANCH   8   9
ENDBRANCH   7   8
ENDBRANCH   6   7
ENDBRANCH   1   6
TORSDOF 7
ENDMDL
MODEL 9
REMARK VINA RESULT:    -3.611      1.225      2.715
REMARK INTER + INTRA:          -5.913
REMARK INTER:                  -5.100
REMARK INTRA:                  -0.813
REMARK UNBOUND:                -0.824
REMARK SMILES CCCCCCCCC=O
REMARK SMILES IDX 5 1 4 2 3 3 2 4 1 5 6 6 7 7 8 8 9 9 10 10
REMARK H PARENT
REMARK Flexibility Score: inf
ROOT
ATOM      1  C   UNL     1     119.710 119.610 117.665  1.00  0.00     0.000 C 
ENDROOT
BRANCH   1   2
ATOM      2  C   UNL     1     120.002 120.321 118.996  1.00  0.00    -0.000 C 
BRANCH   2   3
ATOM      3  C   UNL     1     120.831 119.453 119.959  1.00  0.00    -0.000 C 
BRANCH   3   4
ATOM      4  C   UNL     1     121.282 118.131 119.318  1.00  0.00    -0.003 C 
ATOM      5  C   UNL     1     120.936 116.909 120.170  1.00  0.00     0.004 C 
ENDBRANCH   3   4
ENDBRANCH   2   3
ENDBRANCH   1   2
BRANCH   1   6
ATOM      6  C   UNL     1     118.219 119.290 117.477  1.00  0.00     0.000 C 
BRANCH   6   7
ATOM      7  C   UNL     1     117.914 117.840 117.883  1.00  0.00     0.008 C 
BRANCH   7   8
ATOM      8  C   UNL     1     117.363 117.743 119.313  1.00  0.00     0.072 C 
BRANCH   8   9
ATOM      9  C   UNL     1     116.493 118.916 119.663  1.00  0.00     0.224 C 
ATOM     10  O   UNL     1     116.734 119.592 120.651  1.00  0.00    -0.303 OA
ENDBRANCH   8   9
ENDBRANCH   7   8
ENDBRANCH   6   7
ENDBRANCH   1   6
TORSDOF 7
ENDMDL
