MODEL 1
REMARK VINA RESULT:    -5.959      0.000      0.000
REMARK INTER + INTRA:          -6.405
REMARK INTER:                  -6.307
REMARK INTRA:                  -0.097
REMARK UNBOUND:                -0.097
REMARK SMILES C=C(C)[C@H]1CC=C(C)C(=O)C1
REMARK SMILES IDX 8 1 7 2 6 3 5 4 4 5 11 6 9 7 10 8 2 9 1 10 3 11
REMARK H PARENT
REMARK Flexibility Score: inf
ROOT
ATOM      1  C   UNL     1      28.630 -11.373  25.799  1.00  0.00     0.048 C 
ATOM      2  C   UNL     1      28.074 -11.848  27.113  1.00  0.00    -0.012 C 
ATOM      3  C   UNL     1      27.436 -13.030  27.181  1.00  0.00    -0.019 C 
ATOM      4  C   UNL     1      26.845 -13.545  28.466  1.00  0.00     0.036 C 
ATOM      5  C   UNL     1      27.675 -13.088  29.681  1.00  0.00     0.025 C 
ATOM      6  C   UNL     1      27.824 -11.555  29.680  1.00  0.00     0.089 C 
ATOM      7  C   UNL     1      28.338 -11.074  28.351  1.00  0.00     0.158 C 
ATOM      8  O   UNL     1      28.967  -9.983  28.294  1.00  0.00    -0.295 OA
ENDROOT
BRANCH   5   9
ATOM      9  C   UNL     1      27.083 -13.594  30.989  1.00  0.00    -0.077 C 
ATOM     10  C   UNL     1      27.484 -13.102  32.175  1.00  0.00     0.008 C 
ATOM     11  C   UNL     1      26.023 -14.665  30.976  1.00  0.00     0.039 C 
ENDBRANCH   5   9
TORSDOF 1
ENDMDL
MODEL 2
REMARK VINA RESULT:    -5.942      2.136      4.712
REMARK INTER + INTRA:          -6.387
REMARK INTER:                  -6.291
REMARK INTRA:                  -0.096
REMARK UNBOUND:                -0.097
REMARK SMILES C=C(C)[C@H]1CC=C(C)C(=O)C1
REMARK SMILES IDX 8 1 7 2 6 3 5 4 4 5 11 6 9 7 10 8 2 9 1 10 3 11
REMARK H PARENT
REMARK Flexibility Score: inf
ROOT
ATOM      1  C   UNL     1      26.370 -14.997  32.119  1.00  0.00     0.048 C 
ATOM      2  C   UNL     1      26.748 -14.067  30.999  1.00  0.00    -0.012 C 
ATOM      3  C   UNL     1      27.749 -13.186  31.169  1.00  0.00    -0.019 C 
ATOM      4  C   UNL     1      28.156 -12.221  30.088  1.00  0.00     0.036 C 
ATOM      5  C   UNL     1      27.949 -12.834  28.690  1.00  0.00     0.025 C 
ATOM      6  C   UNL     1      26.494 -13.313  28.527  1.00  0.00     0.089 C 
ATOM      7  C   UNL     1      26.101 -14.208  29.670  1.00  0.00     0.158 C 
ATOM      8  O   UNL     1      25.186 -15.059  29.498  1.00  0.00    -0.295 OA
ENDROOT
BRANCH   5   9
ATOM      9  C   UNL     1      28.348 -11.865  27.586  1.00  0.00    -0.077 C 
ATOM     10  C   UNL     1      28.726 -10.605  27.863  1.00  0.00     0.008 C 
ATOM     11  C   UNL     1      28.327 -12.311  26.146  1.00  0.00     0.039 C 
ENDBRANCH   5   9
TORSDOF 1
ENDMDL
MODEL 3
REMARK VINA RESULT:    -5.940      2.660      4.071
REMARK INTER + INTRA:          -6.385
REMARK INTER:                  -6.289
REMARK INTRA:                  -0.095
REMARK UNBOUND:                -0.097
REMARK SMILES C=C(C)[C@H]1CC=C(C)C(=O)C1
REMARK SMILES IDX 8 1 7 2 6 3 5 4 4 5 11 6 9 7 10 8 2 9 1 10 3 11
REMARK H PARENT
REMARK Flexibility Score: inf
ROOT
ATOM      1  C   UNL     1      31.853 -12.495  31.355  1.00  0.00     0.048 C 
ATOM      2  C   UNL     1      30.703 -12.897  30.473  1.00  0.00    -0.012 C 
ATOM      3  C   UNL     1      29.447 -12.848  30.949  1.00  0.00    -0.019 C 
ATOM      4  C   UNL     1      28.261 -13.257  30.116  1.00  0.00     0.036 C 
ATOM      5  C   UNL     1      28.495 -12.940  28.626  1.00  0.00     0.025 C 
ATOM      6  C   UNL     1      29.803 -13.593  28.139  1.00  0.00     0.089 C 
ATOM      7  C   UNL     1      30.945 -13.227  29.046  1.00  0.00     0.158 C 
ATOM      8  O   UNL     1      32.120 -13.238  28.589  1.00  0.00    -0.295 OA
ENDROOT
BRANCH   5   9
ATOM      9  C   UNL     1      27.308 -13.357  27.769  1.00  0.00    -0.077 C 
ATOM     10  C   UNL     1      26.066 -13.430  28.280  1.00  0.00     0.008 C 
ATOM     11  C   UNL     1      27.508 -13.696  26.314  1.00  0.00     0.039 C 
ENDBRANCH   5   9
TORSDOF 1
ENDMDL
MODEL 4
REMARK VINA RESULT:    -5.837      1.800      4.478
REMARK INTER + INTRA:          -6.276
REMARK INTER:                  -6.180
REMARK INTRA:                  -0.095
REMARK UNBOUND:                -0.097
REMARK SMILES C=C(C)[C@H]1CC=C(C)C(=O)C1
REMARK SMILES IDX 8 1 7 2 6 3 5 4 4 5 11 6 9 7 10 8 2 9 1 10 3 11
REMARK H PARENT
REMARK Flexibility Score: inf
ROOT
ATOM      1  C   UNL     1      26.377 -14.259  32.441  1.00  0.00     0.048 C 
ATOM      2  C   UNL     1      26.840 -14.025  31.029  1.00  0.00    -0.012 C 
ATOM      3  C   UNL     1      26.001 -14.250  30.003  1.00  0.00    -0.019 C 
ATOM      4  C   UNL     1      26.419 -14.049  28.571  1.00  0.00     0.036 C 
ATOM      5  C   UNL     1      27.438 -12.900  28.447  1.00  0.00     0.025 C 
ATOM      6  C   UNL     1      28.641 -13.149  29.376  1.00  0.00     0.089 C 
ATOM      7  C   UNL     1      28.176 -13.428  30.780  1.00  0.00     0.158 C 
ATOM      8  O   UNL     1      28.951 -13.182  31.743  1.00  0.00    -0.295 OA
ENDROOT
BRANCH   5   9
ATOM      9  C   UNL     1      27.878 -12.691  27.004  1.00  0.00    -0.077 C 
ATOM     10  C   UNL     1      27.732 -13.658  26.081  1.00  0.00     0.008 C 
ATOM     11  C   UNL     1      28.489 -11.379  26.583  1.00  0.00     0.039 C 
ENDBRANCH   5   9
TORSDOF 1
ENDMDL
MODEL 5
REMARK VINA RESULT:    -5.701      2.294      3.578
REMARK INTER + INTRA:          -6.132
REMARK INTER:                  -6.039
REMARK INTRA:                  -0.093
REMARK UNBOUND:                -0.097
REMARK SMILES C=C(C)[C@H]1CC=C(C)C(=O)C1
REMARK SMILES IDX 8 1 7 2 6 3 5 4 4 5 11 6 9 7 10 8 2 9 1 10 3 11
REMARK H PARENT
REMARK Flexibility Score: inf
ROOT
ATOM      1  C   UNL     1      25.420 -14.389  27.996  1.00  0.00     0.048 C 
ATOM      2  C   UNL     1      26.616 -13.643  28.521  1.00  0.00    -0.012 C 
ATOM      3  C   UNL     1      26.763 -13.462  29.844  1.00  0.00    -0.019 C 
ATOM      4  C   UNL     1      27.931 -12.707  30.422  1.00  0.00     0.036 C 
ATOM      5  C   UNL     1      29.195 -12.899  29.563  1.00  0.00     0.025 C 
ATOM      6  C   UNL     1      28.912 -12.506  28.100  1.00  0.00     0.089 C 
ATOM      7  C   UNL     1      27.690 -13.219  27.588  1.00  0.00     0.158 C 
ATOM      8  O   UNL     1      27.571 -13.421  26.350  1.00  0.00    -0.295 OA
ENDROOT
BRANCH   5   9
ATOM      9  C   UNL     1      30.383 -12.133  30.129  1.00  0.00    -0.077 C 
ATOM     10  C   UNL     1      30.367 -10.792  30.230  1.00  0.00     0.008 C 
ATOM     11  C   UNL     1      31.610 -12.876  30.594  1.00  0.00     0.039 C 
ENDBRANCH   5   9
TORSDOF 1
ENDMDL
MODEL 6
REMARK VINA RESULT:    -5.696      2.432      3.867
REMARK INTER + INTRA:          -6.126
REMARK INTER:                  -6.036
REMARK INTRA:                  -0.090
REMARK UNBOUND:                -0.097
REMARK SMILES C=C(C)[C@H]1CC=C(C)C(=O)C1
REMARK SMILES IDX 8 1 7 2 6 3 5 4 4 5 11 6 9 7 10 8 2 9 1 10 3 11
REMARK H PARENT
REMARK Flexibility Score: inf
ROOT
ATOM      1  C   UNL     1      24.890 -14.746  28.476  1.00  0.00     0.048 C 
ATOM      2  C   UNL     1      26.119 -13.982  28.884  1.00  0.00    -0.012 C 
ATOM      3  C   UNL     1      26.730 -13.175  27.999  1.00  0.00    -0.019 C 
ATOM      4  C   UNL     1      27.974 -12.402  28.349  1.00  0.00     0.036 C 
ATOM      5  C   UNL     1      27.973 -11.995  29.835  1.00  0.00     0.025 C 
ATOM      6  C   UNL     1      27.786 -13.235  30.729  1.00  0.00     0.089 C 
ATOM      7  C   UNL     1      26.581 -14.024  30.294  1.00  0.00     0.158 C 
ATOM      8  O   UNL     1      25.988 -14.752  31.134  1.00  0.00    -0.295 OA
ENDROOT
BRANCH   5   9
ATOM      9  C   UNL     1      29.231 -11.221  30.207  1.00  0.00    -0.077 C 
ATOM     10  C   UNL     1      29.390  -9.933  29.854  1.00  0.00     0.008 C 
ATOM     11  C   UNL     1      30.330 -11.894  30.989  1.00  0.00     0.039 C 
ENDBRANCH   5   9
TORSDOF 1
ENDMDL
MODEL 7
REMARK VINA RESULT:    -5.652      2.625      4.450
REMARK INTER + INTRA:          -6.080
REMARK INTER:                  -5.990
REMARK INTRA:                  -0.090
REMARK UNBOUND:                -0.097
REMARK SMILES C=C(C)[C@H]1CC=C(C)C(=O)C1
REMARK SMILES IDX 8 1 7 2 6 3 5 4 4 5 11 6 9 7 10 8 2 9 1 10 3 11
REMARK H PARENT
REMARK Flexibility Score: inf
ROOT
ATOM      1  C   UNL     1      31.585 -12.499  31.607  1.00  0.00     0.048 C 
ATOM      2  C   UNL     1      30.926 -12.426  30.257  1.00  0.00    -0.012 C 
ATOM      3  C   UNL     1      31.103 -13.421  29.371  1.00  0.00    -0.019 C 
ATOM      4  C   UNL     1      30.482 -13.390  28.000  1.00  0.00     0.036 C 
ATOM      5  C   UNL     1      29.125 -12.660  28.022  1.00  0.00     0.025 C 
ATOM      6  C   UNL     1      29.286 -11.250  28.623  1.00  0.00     0.089 C 
ATOM      7  C   UNL     1      29.984 -11.319  29.953  1.00  0.00     0.158 C 
ATOM      8  O   UNL     1      29.789 -10.403  30.797  1.00  0.00    -0.295 OA
ENDROOT
BRANCH   5   9
ATOM      9  C   UNL     1      28.489 -12.612  26.640  1.00  0.00    -0.077 C 
ATOM     10  C   UNL     1      27.796 -13.655  26.150  1.00  0.00     0.008 C 
ATOM     11  C   UNL     1      28.625 -11.375  25.788  1.00  0.00     0.039 C 
ENDBRANCH   5   9
TORSDOF 1
ENDMDL
MODEL 8
REMARK VINA RESULT:    -5.473      1.308      3.217
REMARK INTER + INTRA:          -5.890
REMARK INTER:                  -5.794
REMARK INTRA:                  -0.096
REMARK UNBOUND:                -0.097
REMARK SMILES C=C(C)[C@H]1CC=C(C)C(=O)C1
REMARK SMILES IDX 8 1 7 2 6 3 5 4 4 5 11 6 9 7 10 8 2 9 1 10 3 11
REMARK H PARENT
REMARK Flexibility Score: inf
ROOT
ATOM      1  C   UNL     1      29.199 -10.187  31.055  1.00  0.00     0.048 C 
ATOM      2  C   UNL     1      28.571 -11.247  30.192  1.00  0.00    -0.012 C 
ATOM      3  C   UNL     1      28.011 -12.328  30.763  1.00  0.00    -0.019 C 
ATOM      4  C   UNL     1      27.385 -13.427  29.946  1.00  0.00     0.036 C 
ATOM      5  C   UNL     1      26.755 -12.870  28.656  1.00  0.00     0.025 C 
ATOM      6  C   UNL     1      27.800 -12.070  27.854  1.00  0.00     0.089 C 
ATOM      7  C   UNL     1      28.460 -11.039  28.727  1.00  0.00     0.158 C 
ATOM      8  O   UNL     1      28.954 -10.008  28.194  1.00  0.00    -0.295 OA
ENDROOT
BRANCH   5   9
ATOM      9  C   UNL     1      26.126 -13.972  27.814  1.00  0.00    -0.077 C 
ATOM     10  C   UNL     1      26.625 -14.305  26.610  1.00  0.00     0.008 C 
ATOM     11  C   UNL     1      24.920 -14.718  28.325  1.00  0.00     0.039 C 
ENDBRANCH   5   9
TORSDOF 1
ENDMDL
MODEL 9
REMARK VINA RESULT:    -5.300      1.930      4.424
REMARK INTER + INTRA:          -5.707
REMARK INTER:                  -5.613
REMARK INTRA:                  -0.094
REMARK UNBOUND:                -0.097
REMARK SMILES C=C(C)[C@H]1CC=C(C)C(=O)C1
REMARK SMILES IDX 8 1 7 2 6 3 5 4 4 5 11 6 9 7 10 8 2 9 1 10 3 11
REMARK H PARENT
REMARK Flexibility Score: inf
ROOT
ATOM      1  C   UNL     1      27.491 -11.064  32.301  1.00  0.00     0.048 C 
ATOM      2  C   UNL     1      27.498 -11.411  30.838  1.00  0.00    -0.012 C 
ATOM      3  C   UNL     1      27.570 -10.433  29.919  1.00  0.00    -0.019 C 
ATOM      4  C   UNL     1      27.561 -10.724  28.441  1.00  0.00     0.036 C 
ATOM      5  C   UNL     1      28.247 -12.069  28.137  1.00  0.00     0.025 C 
ATOM      6  C   UNL     1      27.596 -13.199  28.957  1.00  0.00     0.089 C 
ATOM      7  C   UNL     1      27.550 -12.833  30.416  1.00  0.00     0.158 C 
ATOM      8  O   UNL     1      27.519 -13.752  31.278  1.00  0.00    -0.295 OA
ENDROOT
BRANCH   5   9
ATOM      9  C   UNL     1      28.237 -12.381  26.646  1.00  0.00    -0.077 C 
ATOM     10  C   UNL     1      28.610 -11.464  25.736  1.00  0.00     0.008 C 
ATOM     11  C   UNL     1      27.806 -13.742  26.162  1.00  0.00     0.039 C 
ENDBRANCH   5   9
TORSDOF 1
ENDMDL
