MODEL 1
REMARK VINA RESULT:    -7.289      0.000      0.000
REMARK INTER + INTRA:          -7.737
REMARK INTER:                  -7.715
REMARK INTRA:                  -0.022
REMARK UNBOUND:                -0.022
REMARK SMILES CC1=CC[C@@H]2[C@H]3[C@@H](C(C)C)CC[C@]2(C)[C@@H]13
REMARK SMILES IDX 1 1 2 2 3 3 4 4 5 5 6 6 15 7 13 8 12 9 11 10 7 11 14 12 8 13
REMARK SMILES IDX 9 14 10 15
REMARK H PARENT
REMARK Flexibility Score: inf
ROOT
ATOM      1  C   UNL     1      -2.378 -15.548  12.682  1.00  0.00     0.039 C 
ATOM      2  C   UNL     1      -2.352 -14.853  11.354  1.00  0.00    -0.073 C 
ATOM      3  C   UNL     1      -2.170 -13.509  11.265  1.00  0.00    -0.027 C 
ATOM      4  C   UNL     1      -2.127 -12.857   9.878  1.00  0.00     0.031 C 
ATOM      5  C   UNL     1      -2.349 -13.932   8.764  1.00  0.00     0.003 C 
ATOM      6  C   UNL     1      -3.552 -14.806   9.194  1.00  0.00     0.004 C 
ATOM      7  C   UNL     1      -2.544 -15.617  10.039  1.00  0.00     0.024 C 
ATOM      8  C   UNL     1      -1.475 -15.191   9.011  1.00  0.00    -0.022 C 
ATOM      9  C   UNL     1      -1.539 -16.161   7.796  1.00  0.00     0.008 C 
ATOM     10  C   UNL     1      -2.918 -16.130   7.090  1.00  0.00     0.005 C 
ATOM     11  C   UNL     1      -4.094 -15.681   8.019  1.00  0.00    -0.005 C 
ATOM     12  C   UNL     1      -0.015 -15.011   9.493  1.00  0.00     0.012 C 
ENDROOT
BRANCH  11  13
ATOM     13  C   UNL     1      -5.222 -14.967   7.206  1.00  0.00    -0.014 C 
ATOM     14  C   UNL     1      -5.293 -15.457   5.747  1.00  0.00     0.007 C 
ATOM     15  C   UNL     1      -5.024 -13.439   7.203  1.00  0.00     0.007 C 
ENDBRANCH  11  13
TORSDOF 1
ENDMDL
MODEL 2
REMARK VINA RESULT:    -7.270      1.128      4.473
REMARK INTER + INTRA:          -7.717
REMARK INTER:                  -7.607
REMARK INTRA:                  -0.110
REMARK UNBOUND:                -0.022
REMARK SMILES CC1=CC[C@@H]2[C@H]3[C@@H](C(C)C)CC[C@]2(C)[C@@H]13
REMARK SMILES IDX 1 1 2 2 3 3 4 4 5 5 6 6 15 7 13 8 12 9 11 10 7 11 14 12 8 13
REMARK SMILES IDX 9 14 10 15
REMARK H PARENT
REMARK Flexibility Score: inf
ROOT
ATOM      1  C   UNL     1      -5.378 -15.503   5.571  1.00  0.00     0.039 C 
ATOM      2  C   UNL     1      -4.891 -15.744   6.968  1.00  0.00    -0.073 C 
ATOM      3  C   UNL     1      -5.731 -16.183   7.942  1.00  0.00    -0.027 C 
ATOM      4  C   UNL     1      -5.170 -16.436   9.346  1.00  0.00     0.031 C 
ATOM      5  C   UNL     1      -3.647 -16.084   9.396  1.00  0.00     0.003 C 
ATOM      6  C   UNL     1      -3.464 -14.713   8.702  1.00  0.00     0.004 C 
ATOM      7  C   UNL     1      -3.433 -15.493   7.369  1.00  0.00     0.024 C 
ATOM      8  C   UNL     1      -2.888 -16.686   8.182  1.00  0.00    -0.022 C 
ATOM      9  C   UNL     1      -1.351 -16.515   8.347  1.00  0.00     0.008 C 
ATOM     10  C   UNL     1      -0.979 -15.215   9.103  1.00  0.00     0.005 C 
ATOM     11  C   UNL     1      -2.061 -14.089   8.992  1.00  0.00    -0.005 C 
ATOM     12  C   UNL     1      -3.234 -18.121   7.714  1.00  0.00     0.012 C 
ENDROOT
BRANCH  11  13
ATOM     13  C   UNL     1      -2.059 -13.171  10.257  1.00  0.00    -0.014 C 
ATOM     14  C   UNL     1      -0.752 -12.366  10.396  1.00  0.00     0.007 C 
ATOM     15  C   UNL     1      -2.269 -13.994  11.543  1.00  0.00     0.007 C 
ENDBRANCH  11  13
TORSDOF 1
ENDMDL
MODEL 3
REMARK VINA RESULT:    -7.231      1.591      5.068
REMARK INTER + INTRA:          -7.676
REMARK INTER:                  -7.398
REMARK INTRA:                  -0.278
REMARK UNBOUND:                -0.022
REMARK SMILES CC1=CC[C@@H]2[C@H]3[C@@H](C(C)C)CC[C@]2(C)[C@@H]13
REMARK SMILES IDX 1 1 2 2 3 3 4 4 5 5 6 6 15 7 13 8 12 9 11 10 7 11 14 12 8 13
REMARK SMILES IDX 9 14 10 15
REMARK H PARENT
REMARK Flexibility Score: inf
ROOT
ATOM      1  C   UNL     1      -5.569 -16.564   8.616  1.00  0.00     0.039 C 
ATOM      2  C   UNL     1      -4.139 -16.359   9.015  1.00  0.00    -0.073 C 
ATOM      3  C   UNL     1      -3.119 -16.805   8.237  1.00  0.00    -0.027 C 
ATOM      4  C   UNL     1      -1.676 -16.544   8.685  1.00  0.00     0.031 C 
ATOM      5  C   UNL     1      -1.659 -15.795  10.058  1.00  0.00     0.003 C 
ATOM      6  C   UNL     1      -2.663 -16.513  10.991  1.00  0.00     0.004 C 
ATOM      7  C   UNL     1      -3.760 -15.654  10.323  1.00  0.00     0.024 C 
ATOM      8  C   UNL     1      -2.657 -14.605  10.065  1.00  0.00    -0.022 C 
ATOM      9  C   UNL     1      -2.484 -13.742  11.347  1.00  0.00     0.008 C 
ATOM     10  C   UNL     1      -2.060 -14.586  12.575  1.00  0.00     0.005 C 
ATOM     11  C   UNL     1      -2.486 -16.089  12.485  1.00  0.00    -0.005 C 
ATOM     12  C   UNL     1      -2.769 -13.708   8.809  1.00  0.00     0.012 C 
ENDROOT
BRANCH  11  13
ATOM     13  C   UNL     1      -1.488 -17.011  13.258  1.00  0.00    -0.014 C 
ATOM     14  C   UNL     1      -1.628 -18.492  12.860  1.00  0.00     0.007 C 
ATOM     15  C   UNL     1      -1.687 -16.891  14.782  1.00  0.00     0.007 C 
ENDBRANCH  11  13
TORSDOF 1
ENDMDL
MODEL 4
REMARK VINA RESULT:    -7.160      1.194      2.232
REMARK INTER + INTRA:          -7.601
REMARK INTER:                  -7.354
REMARK INTRA:                  -0.247
REMARK UNBOUND:                -0.022
REMARK SMILES CC1=CC[C@@H]2[C@H]3[C@@H](C(C)C)CC[C@]2(C)[C@@H]13
REMARK SMILES IDX 1 1 2 2 3 3 4 4 5 5 6 6 15 7 13 8 12 9 11 10 7 11 14 12 8 13
REMARK SMILES IDX 9 14 10 15
REMARK H PARENT
REMARK Flexibility Score: inf
ROOT
ATOM      1  C   UNL     1      -2.381 -14.246  12.173  1.00  0.00     0.039 C 
ATOM      2  C   UNL     1      -2.275 -14.835  10.799  1.00  0.00    -0.073 C 
ATOM      3  C   UNL     1      -1.080 -14.913  10.155  1.00  0.00    -0.027 C 
ATOM      4  C   UNL     1      -1.029 -15.549   8.761  1.00  0.00     0.031 C 
ATOM      5  C   UNL     1      -2.462 -15.983   8.308  1.00  0.00     0.003 C 
ATOM      6  C   UNL     1      -3.421 -14.807   8.610  1.00  0.00     0.004 C 
ATOM      7  C   UNL     1      -3.504 -15.362  10.049  1.00  0.00     0.024 C 
ATOM      8  C   UNL     1      -3.205 -16.747   9.437  1.00  0.00    -0.022 C 
ATOM      9  C   UNL     1      -4.537 -17.357   8.913  1.00  0.00     0.008 C 
ATOM     10  C   UNL     1      -5.194 -16.483   7.815  1.00  0.00     0.005 C 
ATOM     11  C   UNL     1      -4.799 -14.971   7.891  1.00  0.00    -0.005 C 
ATOM     12  C   UNL     1      -2.425 -17.779  10.287  1.00  0.00     0.012 C 
ENDROOT
BRANCH  11  13
ATOM     13  C   UNL     1      -4.825 -14.305   6.478  1.00  0.00    -0.014 C 
ATOM     14  C   UNL     1      -5.669 -13.016   6.451  1.00  0.00     0.007 C 
ATOM     15  C   UNL     1      -5.375 -15.275   5.414  1.00  0.00     0.007 C 
ENDBRANCH  11  13
TORSDOF 1
ENDMDL
MODEL 5
REMARK VINA RESULT:    -7.094      1.269      4.722
REMARK INTER + INTRA:          -7.530
REMARK INTER:                  -7.500
REMARK INTRA:                  -0.031
REMARK UNBOUND:                -0.022
REMARK SMILES CC1=CC[C@@H]2[C@H]3[C@@H](C(C)C)CC[C@]2(C)[C@@H]13
REMARK SMILES IDX 1 1 2 2 3 3 4 4 5 5 6 6 15 7 13 8 12 9 11 10 7 11 14 12 8 13
REMARK SMILES IDX 9 14 10 15
REMARK H PARENT
REMARK Flexibility Score: inf
ROOT
ATOM      1  C   UNL     1      -5.430 -16.085   7.035  1.00  0.00     0.039 C 
ATOM      2  C   UNL     1      -4.221 -16.357   7.877  1.00  0.00    -0.073 C 
ATOM      3  C   UNL     1      -3.595 -17.563   7.844  1.00  0.00    -0.027 C 
ATOM      4  C   UNL     1      -2.347 -17.775   8.709  1.00  0.00     0.031 C 
ATOM      5  C   UNL     1      -2.035 -16.487   9.540  1.00  0.00     0.003 C 
ATOM      6  C   UNL     1      -3.366 -16.007  10.169  1.00  0.00     0.004 C 
ATOM      7  C   UNL     1      -3.642 -15.299   8.823  1.00  0.00     0.024 C 
ATOM      8  C   UNL     1      -2.109 -15.212   8.657  1.00  0.00    -0.022 C 
ATOM      9  C   UNL     1      -1.595 -13.966   9.433  1.00  0.00     0.008 C 
ATOM     10  C   UNL     1      -1.905 -14.047  10.949  1.00  0.00     0.005 C 
ATOM     11  C   UNL     1      -3.136 -14.948  11.295  1.00  0.00    -0.005 C 
ATOM     12  C   UNL     1      -1.518 -15.252   7.227  1.00  0.00     0.012 C 
ENDROOT
BRANCH  11  13
ATOM     13  C   UNL     1      -2.988 -15.595  12.710  1.00  0.00    -0.014 C 
ATOM     14  C   UNL     1      -2.672 -14.555  13.801  1.00  0.00     0.007 C 
ATOM     15  C   UNL     1      -1.882 -16.669  12.718  1.00  0.00     0.007 C 
ENDBRANCH  11  13
TORSDOF 1
ENDMDL
MODEL 6
REMARK VINA RESULT:    -6.916      1.903      5.093
REMARK INTER + INTRA:          -7.343
REMARK INTER:                  -7.060
REMARK INTRA:                  -0.283
REMARK UNBOUND:                -0.022
REMARK SMILES CC1=CC[C@@H]2[C@H]3[C@@H](C(C)C)CC[C@]2(C)[C@@H]13
REMARK SMILES IDX 1 1 2 2 3 3 4 4 5 5 6 6 15 7 13 8 12 9 11 10 7 11 14 12 8 13
REMARK SMILES IDX 9 14 10 15
REMARK H PARENT
REMARK Flexibility Score: inf
ROOT
ATOM      1  C   UNL     1      -2.750 -19.125   7.647  1.00  0.00     0.039 C 
ATOM      2  C   UNL     1      -2.882 -17.771   8.277  1.00  0.00    -0.073 C 
ATOM      3  C   UNL     1      -2.378 -16.661   7.676  1.00  0.00    -0.027 C 
ATOM      4  C   UNL     1      -2.565 -15.300   8.356  1.00  0.00     0.031 C 
ATOM      5  C   UNL     1      -3.321 -15.469   9.714  1.00  0.00     0.003 C 
ATOM      6  C   UNL     1      -2.663 -16.650  10.468  1.00  0.00     0.004 C 
ATOM      7  C   UNL     1      -3.574 -17.575   9.630  1.00  0.00     0.024 C 
ATOM      8  C   UNL     1      -4.562 -16.390   9.560  1.00  0.00    -0.022 C 
ATOM      9  C   UNL     1      -5.423 -16.385  10.855  1.00  0.00     0.008 C 
ATOM     10  C   UNL     1      -4.566 -16.213  12.134  1.00  0.00     0.005 C 
ATOM     11  C   UNL     1      -3.086 -16.698  11.972  1.00  0.00    -0.005 C 
ATOM     12  C   UNL     1      -5.456 -16.246   8.305  1.00  0.00     0.012 C 
ENDROOT
BRANCH  11  13
ATOM     13  C   UNL     1      -2.119 -15.891  12.896  1.00  0.00    -0.014 C 
ATOM     14  C   UNL     1      -1.714 -16.682  14.155  1.00  0.00     0.007 C 
ATOM     15  C   UNL     1      -2.752 -14.556  13.337  1.00  0.00     0.007 C 
ENDBRANCH  11  13
TORSDOF 1
ENDMDL
MODEL 7
REMARK VINA RESULT:    -6.128      1.917      3.214
REMARK INTER + INTRA:          -6.509
REMARK INTER:                  -6.266
REMARK INTRA:                  -0.242
REMARK UNBOUND:                -0.022
REMARK SMILES CC1=CC[C@@H]2[C@H]3[C@@H](C(C)C)CC[C@]2(C)[C@@H]13
REMARK SMILES IDX 1 1 2 2 3 3 4 4 5 5 6 6 15 7 13 8 12 9 11 10 7 11 14 12 8 13
REMARK SMILES IDX 9 14 10 15
REMARK H PARENT
REMARK Flexibility Score: inf
ROOT
ATOM      1  C   UNL     1      -1.277 -16.962  14.305  1.00  0.00     0.039 C 
ATOM      2  C   UNL     1      -2.226 -16.505  13.239  1.00  0.00    -0.073 C 
ATOM      3  C   UNL     1      -3.500 -16.139  13.540  1.00  0.00    -0.027 C 
ATOM      4  C   UNL     1      -4.418 -15.655  12.410  1.00  0.00     0.031 C 
ATOM      5  C   UNL     1      -3.669 -15.711  11.038  1.00  0.00     0.003 C 
ATOM      6  C   UNL     1      -2.960 -17.084  10.952  1.00  0.00     0.004 C 
ATOM      7  C   UNL     1      -1.814 -16.441  11.765  1.00  0.00     0.024 C 
ATOM      8  C   UNL     1      -2.248 -15.096  11.144  1.00  0.00    -0.022 C 
ATOM      9  C   UNL     1      -1.593 -14.963   9.739  1.00  0.00     0.008 C 
ATOM     10  C   UNL     1      -2.030 -16.094   8.775  1.00  0.00     0.005 C 
ATOM     11  C   UNL     1      -2.475 -17.407   9.502  1.00  0.00    -0.005 C 
ATOM     12  C   UNL     1      -2.047 -13.802  11.969  1.00  0.00     0.012 C 
ENDROOT
BRANCH  11  13
ATOM     13  C   UNL     1      -3.544 -18.185   8.668  1.00  0.00    -0.014 C 
ATOM     14  C   UNL     1      -2.906 -19.121   7.624  1.00  0.00     0.007 C 
ATOM     15  C   UNL     1      -4.497 -17.215   7.942  1.00  0.00     0.007 C 
ENDBRANCH  11  13
TORSDOF 1
ENDMDL
MODEL 8
REMARK VINA RESULT:    -5.909      1.873      4.963
REMARK INTER + INTRA:          -6.277
REMARK INTER:                  -6.041
REMARK INTRA:                  -0.236
REMARK UNBOUND:                -0.022
REMARK SMILES CC1=CC[C@@H]2[C@H]3[C@@H](C(C)C)CC[C@]2(C)[C@@H]13
REMARK SMILES IDX 1 1 2 2 3 3 4 4 5 5 6 6 15 7 13 8 12 9 11 10 7 11 14 12 8 13
REMARK SMILES IDX 9 14 10 15
REMARK H PARENT
REMARK Flexibility Score: inf
ROOT
ATOM      1  C   UNL     1      -3.550 -15.027   6.643  1.00  0.00     0.039 C 
ATOM      2  C   UNL     1      -4.003 -15.679   7.914  1.00  0.00    -0.073 C 
ATOM      3  C   UNL     1      -5.322 -15.890   8.167  1.00  0.00    -0.027 C 
ATOM      4  C   UNL     1      -5.724 -16.585   9.473  1.00  0.00     0.031 C 
ATOM      5  C   UNL     1      -4.456 -16.907  10.332  1.00  0.00     0.003 C 
ATOM      6  C   UNL     1      -3.571 -15.638  10.347  1.00  0.00     0.004 C 
ATOM      7  C   UNL     1      -3.008 -16.124   8.992  1.00  0.00     0.024 C 
ATOM      8  C   UNL     1      -3.339 -17.554   9.469  1.00  0.00    -0.022 C 
ATOM      9  C   UNL     1      -2.171 -18.063  10.361  1.00  0.00     0.008 C 
ATOM     10  C   UNL     1      -1.960 -17.180  11.617  1.00  0.00     0.005 C 
ATOM     11  C   UNL     1      -2.461 -15.708  11.444  1.00  0.00    -0.005 C 
ATOM     12  C   UNL     1      -3.725 -18.616   8.410  1.00  0.00     0.012 C 
ENDROOT
BRANCH  11  13
ATOM     13  C   UNL     1      -2.923 -15.100  12.808  1.00  0.00    -0.014 C 
ATOM     14  C   UNL     1      -2.438 -13.651  13.000  1.00  0.00     0.007 C 
ATOM     15  C   UNL     1      -2.421 -15.948  13.994  1.00  0.00     0.007 C 
ENDBRANCH  11  13
TORSDOF 1
ENDMDL
