MODEL 1
REMARK VINA RESULT:    -5.968      0.000      0.000
REMARK INTER + INTRA:          -7.390
REMARK INTER:                  -7.189
REMARK INTRA:                  -0.201
REMARK UNBOUND:                -0.201
REMARK SMILES C=CCc1ccc(O)c(OC)c1
REMARK SMILES IDX 9 1 7 2 6 3 5 4 4 5 12 6 10 7 11 8 8 9 3 11 2 12 1 13
REMARK H PARENT 8 10
REMARK Flexibility Score: inf
ROOT
ATOM      1  C   UNL     1      11.285 -46.218  37.699  1.00  0.00     0.160 A 
ATOM      2  C   UNL     1      10.763 -46.732  38.901  1.00  0.00     0.157 A 
ATOM      3  C   UNL     1      11.616 -47.312  39.844  1.00  0.00     0.050 A 
ATOM      4  C   UNL     1      12.989 -47.389  39.604  1.00  0.00     0.008 A 
ATOM      5  C   UNL     1      13.526 -46.892  38.407  1.00  0.00    -0.040 A 
ATOM      6  C   UNL     1      12.673 -46.301  37.462  1.00  0.00     0.054 A 
ENDROOT
BRANCH   1   7
ATOM      7  O   UNL     1      10.406 -45.637  36.771  1.00  0.00    -0.493 OA
ATOM      8  C   UNL     1      10.343 -45.982  35.392  1.00  0.00     0.278 C 
ENDBRANCH   1   7
BRANCH   2   9
ATOM      9  O   UNL     1       9.397 -46.673  39.176  1.00  0.00    -0.504 OA
ATOM     10  H   UNL     1       9.000 -47.050  40.027  1.00  0.00     0.293 HD
ENDBRANCH   2   9
BRANCH   5  11
ATOM     11  C   UNL     1      15.009 -46.949  38.156  1.00  0.00     0.062 C 
BRANCH  11  12
ATOM     12  C   UNL     1      15.318 -47.849  36.992  1.00  0.00    -0.030 C 
ATOM     13  C   UNL     1      15.899 -47.386  35.881  1.00  0.00     0.004 C 
ENDBRANCH  11  12
ENDBRANCH   5  11
TORSDOF 4
ENDMDL
MODEL 2
REMARK VINA RESULT:    -5.944      2.321      4.262
REMARK INTER + INTRA:          -7.361
REMARK INTER:                  -7.212
REMARK INTRA:                  -0.149
REMARK UNBOUND:                -0.201
REMARK SMILES C=CCc1ccc(O)c(OC)c1
REMARK SMILES IDX 9 1 7 2 6 3 5 4 4 5 12 6 10 7 11 8 8 9 3 11 2 12 1 13
REMARK H PARENT 8 10
REMARK Flexibility Score: inf
ROOT
ATOM      1  C   UNL     1      13.947 -46.466  37.428  1.00  0.00     0.160 A 
ATOM      2  C   UNL     1      14.124 -47.072  38.686  1.00  0.00     0.157 A 
ATOM      3  C   UNL     1      13.024 -47.285  39.522  1.00  0.00     0.050 A 
ATOM      4  C   UNL     1      11.745 -46.898  39.121  1.00  0.00     0.008 A 
ATOM      5  C   UNL     1      11.551 -46.283  37.876  1.00  0.00    -0.040 A 
ATOM      6  C   UNL     1      12.652 -46.076  37.029  1.00  0.00     0.054 A 
ENDROOT
BRANCH   1   7
ATOM      7  O   UNL     1      15.068 -46.268  36.607  1.00  0.00    -0.493 OA
ATOM      8  C   UNL     1      15.707 -47.292  35.851  1.00  0.00     0.278 C 
ENDBRANCH   1   7
BRANCH   2   9
ATOM      9  O   UNL     1      15.388 -47.471  39.121  1.00  0.00    -0.504 OA
ATOM     10  H   UNL     1      15.860 -47.021  39.895  1.00  0.00     0.293 HD
ENDBRANCH   2   9
BRANCH   5  11
ATOM     11  C   UNL     1      10.168 -45.889  37.428  1.00  0.00     0.062 C 
BRANCH  11  12
ATOM     12  C   UNL     1       9.997 -46.132  35.954  1.00  0.00    -0.030 C 
ATOM     13  C   UNL     1       9.313 -47.181  35.489  1.00  0.00     0.004 C 
ENDBRANCH  11  12
ENDBRANCH   5  11
TORSDOF 4
ENDMDL
MODEL 3
REMARK VINA RESULT:    -5.819      2.011      4.218
REMARK INTER + INTRA:          -7.210
REMARK INTER:                  -6.967
REMARK INTRA:                  -0.243
REMARK UNBOUND:                -0.201
REMARK SMILES C=CCc1ccc(O)c(OC)c1
REMARK SMILES IDX 9 1 7 2 6 3 5 4 4 5 12 6 10 7 11 8 8 9 3 11 2 12 1 13
REMARK H PARENT 8 10
REMARK Flexibility Score: inf
ROOT
ATOM      1  C   UNL     1      13.131 -46.764  38.484  1.00  0.00     0.160 A 
ATOM      2  C   UNL     1      12.426 -47.207  39.618  1.00  0.00     0.157 A 
ATOM      3  C   UNL     1      11.028 -47.220  39.614  1.00  0.00     0.050 A 
ATOM      4  C   UNL     1      10.320 -46.792  38.490  1.00  0.00     0.008 A 
ATOM      5  C   UNL     1      11.005 -46.337  37.354  1.00  0.00    -0.040 A 
ATOM      6  C   UNL     1      12.410 -46.332  37.351  1.00  0.00     0.054 A 
ENDROOT
BRANCH   1   7
ATOM      7  O   UNL     1      14.535 -46.766  38.514  1.00  0.00    -0.493 OA
ATOM      8  C   UNL     1      15.364 -47.351  37.515  1.00  0.00     0.278 C 
ENDBRANCH   1   7
BRANCH   2   9
ATOM      9  O   UNL     1      13.099 -47.641  40.760  1.00  0.00    -0.504 OA
ATOM     10  H   UNL     1      12.675 -47.620  41.678  1.00  0.00     0.293 HD
ENDBRANCH   2   9
BRANCH   5  11
ATOM     11  C   UNL     1      10.246 -45.901  36.129  1.00  0.00     0.062 C 
BRANCH  11  12
ATOM     12  C   UNL     1       9.054 -46.789  35.898  1.00  0.00    -0.030 C 
ATOM     13  C   UNL     1       8.968 -47.586  34.829  1.00  0.00     0.004 C 
ENDBRANCH  11  12
ENDBRANCH   5  11
TORSDOF 4
ENDMDL
MODEL 4
REMARK VINA RESULT:    -5.772      1.047      1.336
REMARK INTER + INTRA:          -7.155
REMARK INTER:                  -6.901
REMARK INTRA:                  -0.254
REMARK UNBOUND:                -0.201
REMARK SMILES C=CCc1ccc(O)c(OC)c1
REMARK SMILES IDX 9 1 7 2 6 3 5 4 4 5 12 6 10 7 11 8 8 9 3 11 2 12 1 13
REMARK H PARENT 8 10
REMARK Flexibility Score: inf
ROOT
ATOM      1  C   UNL     1      10.098 -46.105  37.277  1.00  0.00     0.160 A 
ATOM      2  C   UNL     1       9.938 -46.628  38.574  1.00  0.00     0.157 A 
ATOM      3  C   UNL     1      11.061 -46.953  39.341  1.00  0.00     0.050 A 
ATOM      4  C   UNL     1      12.346 -46.765  38.829  1.00  0.00     0.008 A 
ATOM      5  C   UNL     1      12.524 -46.255  37.535  1.00  0.00    -0.040 A 
ATOM      6  C   UNL     1      11.398 -45.919  36.766  1.00  0.00     0.054 A 
ENDROOT
BRANCH   1   7
ATOM      7  O   UNL     1       8.953 -45.783  36.531  1.00  0.00    -0.493 OA
ATOM      8  C   UNL     1       8.616 -46.365  35.276  1.00  0.00     0.278 C 
ENDBRANCH   1   7
BRANCH   2   9
ATOM      9  O   UNL     1       8.670 -46.829  39.118  1.00  0.00    -0.504 OA
ATOM     10  H   UNL     1       7.999 -46.078  39.217  1.00  0.00     0.293 HD
ENDBRANCH   2   9
BRANCH   5  11
ATOM     11  C   UNL     1      13.909 -46.025  36.990  1.00  0.00     0.062 C 
BRANCH  11  12
ATOM     12  C   UNL     1      14.896 -46.956  37.637  1.00  0.00    -0.030 C 
ATOM     13  C   UNL     1      15.419 -47.994  36.978  1.00  0.00     0.004 C 
ENDBRANCH  11  12
ENDBRANCH   5  11
TORSDOF 4
ENDMDL
MODEL 5
REMARK VINA RESULT:    -5.677      2.617      4.999
REMARK INTER + INTRA:          -7.039
REMARK INTER:                  -6.864
REMARK INTRA:                  -0.175
REMARK UNBOUND:                -0.201
REMARK SMILES C=CCc1ccc(O)c(OC)c1
REMARK SMILES IDX 9 1 7 2 6 3 5 4 4 5 12 6 10 7 11 8 8 9 3 11 2 12 1 13
REMARK H PARENT 8 10
REMARK Flexibility Score: inf
ROOT
ATOM      1  C   UNL     1      10.848 -46.202  36.457  1.00  0.00     0.160 A 
ATOM      2  C   UNL     1      11.832 -46.045  37.452  1.00  0.00     0.157 A 
ATOM      3  C   UNL     1      11.589 -46.494  38.753  1.00  0.00     0.050 A 
ATOM      4  C   UNL     1      10.373 -47.097  39.078  1.00  0.00     0.008 A 
ATOM      5  C   UNL     1       9.377 -47.251  38.103  1.00  0.00    -0.040 A 
ATOM      6  C   UNL     1       9.621 -46.810  36.792  1.00  0.00     0.054 A 
ENDROOT
BRANCH   1   7
ATOM      7  O   UNL     1      11.120 -45.746  35.157  1.00  0.00    -0.493 OA
ATOM      8  C   UNL     1      10.127 -45.394  34.199  1.00  0.00     0.278 C 
ENDBRANCH   1   7
BRANCH   2   9
ATOM      9  O   UNL     1      13.058 -45.448  37.163  1.00  0.00    -0.504 OA
ATOM     10  H   UNL     1      13.908 -45.694  37.655  1.00  0.00     0.293 HD
ENDBRANCH   2   9
BRANCH   5  11
ATOM     11  C   UNL     1       8.075 -47.926  38.444  1.00  0.00     0.062 C 
BRANCH  11  12
ATOM     12  C   UNL     1       7.158 -46.979  39.168  1.00  0.00    -0.030 C 
ATOM     13  C   UNL     1       5.934 -47.346  39.556  1.00  0.00     0.004 C 
ENDBRANCH  11  12
ENDBRANCH   5  11
TORSDOF 4
ENDMDL
MODEL 6
REMARK VINA RESULT:    -5.595      3.285      4.956
REMARK INTER + INTRA:          -6.941
REMARK INTER:                  -6.719
REMARK INTRA:                  -0.222
REMARK UNBOUND:                -0.201
REMARK SMILES C=CCc1ccc(O)c(OC)c1
REMARK SMILES IDX 9 1 7 2 6 3 5 4 4 5 12 6 10 7 11 8 8 9 3 11 2 12 1 13
REMARK H PARENT 8 10
REMARK Flexibility Score: inf
ROOT
ATOM      1  C   UNL     1       9.523 -46.915  34.768  1.00  0.00     0.160 A 
ATOM      2  C   UNL     1       8.750 -47.992  34.296  1.00  0.00     0.157 A 
ATOM      3  C   UNL     1       8.125 -48.855  35.201  1.00  0.00     0.050 A 
ATOM      4  C   UNL     1       8.263 -48.659  36.576  1.00  0.00     0.008 A 
ATOM      5  C   UNL     1       9.038 -47.597  37.065  1.00  0.00    -0.040 A 
ATOM      6  C   UNL     1       9.660 -46.723  36.159  1.00  0.00     0.054 A 
ENDROOT
BRANCH   1   7
ATOM      7  O   UNL     1      10.137 -46.061  33.837  1.00  0.00    -0.493 OA
ATOM      8  C   UNL     1       9.773 -44.700  33.626  1.00  0.00     0.278 C 
ENDBRANCH   1   7
BRANCH   2   9
ATOM      9  O   UNL     1       8.591 -48.219  32.930  1.00  0.00    -0.504 OA
ATOM     10  H   UNL     1       8.166 -49.063  32.568  1.00  0.00     0.293 HD
ENDBRANCH   2   9
BRANCH   5  11
ATOM     11  C   UNL     1       9.166 -47.367  38.547  1.00  0.00     0.062 C 
BRANCH  11  12
ATOM     12  C   UNL     1      10.452 -46.655  38.866  1.00  0.00    -0.030 C 
ATOM     13  C   UNL     1      11.410 -47.229  39.599  1.00  0.00     0.004 C 
ENDBRANCH  11  12
ENDBRANCH   5  11
TORSDOF 4
ENDMDL
MODEL 7
REMARK VINA RESULT:    -5.594      6.740      8.768
REMARK INTER + INTRA:          -6.940
REMARK INTER:                  -6.752
REMARK INTRA:                  -0.188
REMARK UNBOUND:                -0.201
REMARK SMILES C=CCc1ccc(O)c(OC)c1
REMARK SMILES IDX 9 1 7 2 6 3 5 4 4 5 12 6 10 7 11 8 8 9 3 11 2 12 1 13
REMARK H PARENT 8 10
REMARK Flexibility Score: inf
ROOT
ATOM      1  C   UNL     1      12.926 -47.032  44.541  1.00  0.00     0.160 A 
ATOM      2  C   UNL     1      13.192 -48.269  43.924  1.00  0.00     0.157 A 
ATOM      3  C   UNL     1      13.277 -49.432  44.695  1.00  0.00     0.050 A 
ATOM      4  C   UNL     1      13.101 -49.378  46.078  1.00  0.00     0.008 A 
ATOM      5  C   UNL     1      12.846 -48.153  46.712  1.00  0.00    -0.040 A 
ATOM      6  C   UNL     1      12.751 -46.984  45.939  1.00  0.00     0.054 A 
ENDROOT
BRANCH   1   7
ATOM      7  O   UNL     1      12.842 -45.880  43.742  1.00  0.00    -0.493 OA
ATOM      8  C   UNL     1      12.573 -44.572  44.236  1.00  0.00     0.278 C 
ENDBRANCH   1   7
BRANCH   2   9
ATOM      9  O   UNL     1      13.373 -48.361  42.545  1.00  0.00    -0.504 OA
ATOM     10  H   UNL     1      12.888 -49.046  41.980  1.00  0.00     0.293 HD
ENDBRANCH   2   9
BRANCH   5  11
ATOM     11  C   UNL     1      12.629 -48.096  48.200  1.00  0.00     0.062 C 
BRANCH  11  12
ATOM     12  C   UNL     1      12.352 -46.686  48.644  1.00  0.00    -0.030 C 
ATOM     13  C   UNL     1      13.142 -46.056  49.518  1.00  0.00     0.004 C 
ENDBRANCH  11  12
ENDBRANCH   5  11
TORSDOF 4
ENDMDL
MODEL 8
REMARK VINA RESULT:    -5.574      7.190      8.900
REMARK INTER + INTRA:          -6.916
REMARK INTER:                  -6.711
REMARK INTRA:                  -0.205
REMARK UNBOUND:                -0.201
REMARK SMILES C=CCc1ccc(O)c(OC)c1
REMARK SMILES IDX 9 1 7 2 6 3 5 4 4 5 12 6 10 7 11 8 8 9 3 11 2 12 1 13
REMARK H PARENT 8 10
REMARK Flexibility Score: inf
ROOT
ATOM      1  C   UNL     1      13.488 -47.247  45.222  1.00  0.00     0.160 A 
ATOM      2  C   UNL     1      14.088 -47.244  46.495  1.00  0.00     0.157 A 
ATOM      3  C   UNL     1      13.538 -46.477  47.527  1.00  0.00     0.050 A 
ATOM      4  C   UNL     1      12.395 -45.708  47.305  1.00  0.00     0.008 A 
ATOM      5  C   UNL     1      11.789 -45.691  46.040  1.00  0.00    -0.040 A 
ATOM      6  C   UNL     1      12.334 -46.467  45.004  1.00  0.00     0.054 A 
ENDROOT
BRANCH   1   7
ATOM      7  O   UNL     1      14.058 -48.030  44.205  1.00  0.00    -0.493 OA
ATOM      8  C   UNL     1      13.816 -49.422  44.025  1.00  0.00     0.278 C 
ENDBRANCH   1   7
BRANCH   2   9
ATOM      9  O   UNL     1      15.231 -48.000  46.754  1.00  0.00    -0.504 OA
ATOM     10  H   UNL     1      16.127 -47.573  46.952  1.00  0.00     0.293 HD
ENDBRANCH   2   9
BRANCH   5  11
ATOM     11  C   UNL     1      10.540 -44.884  45.804  1.00  0.00     0.062 C 
BRANCH  11  12
ATOM     12  C   UNL     1      10.879 -43.444  45.537  1.00  0.00    -0.030 C 
ATOM     13  C   UNL     1      11.177 -43.008  44.310  1.00  0.00     0.004 C 
ENDBRANCH  11  12
ENDBRANCH   5  11
TORSDOF 4
ENDMDL
MODEL 9
REMARK VINA RESULT:    -5.518      4.938      8.734
REMARK INTER + INTRA:          -6.848
REMARK INTER:                  -6.641
REMARK INTRA:                  -0.208
REMARK UNBOUND:                -0.201
REMARK SMILES C=CCc1ccc(O)c(OC)c1
REMARK SMILES IDX 9 1 7 2 6 3 5 4 4 5 12 6 10 7 11 8 8 9 3 11 2 12 1 13
REMARK H PARENT 8 10
REMARK Flexibility Score: inf
ROOT
ATOM      1  C   UNL     1       8.876 -45.495  33.204  1.00  0.00     0.160 A 
ATOM      2  C   UNL     1       8.831 -44.117  32.919  1.00  0.00     0.157 A 
ATOM      3  C   UNL     1       7.711 -43.569  32.287  1.00  0.00     0.050 A 
ATOM      4  C   UNL     1       6.631 -44.379  31.933  1.00  0.00     0.008 A 
ATOM      5  C   UNL     1       6.663 -45.756  32.199  1.00  0.00    -0.040 A 
ATOM      6  C   UNL     1       7.783 -46.308  32.842  1.00  0.00     0.054 A 
ENDROOT
BRANCH   1   7
ATOM      7  O   UNL     1      10.012 -46.018  33.843  1.00  0.00    -0.493 OA
ATOM      8  C   UNL     1      10.140 -46.190  35.250  1.00  0.00     0.278 C 
ENDBRANCH   1   7
BRANCH   2   9
ATOM      9  O   UNL     1       9.891 -43.277  33.258  1.00  0.00    -0.504 OA
ATOM     10  H   UNL     1       9.771 -42.280  33.384  1.00  0.00     0.293 HD
ENDBRANCH   2   9
BRANCH   5  11
ATOM     11  C   UNL     1       5.489 -46.628  31.843  1.00  0.00     0.062 C 
BRANCH  11  12
ATOM     12  C   UNL     1       5.102 -46.438  30.402  1.00  0.00    -0.030 C 
ATOM     13  C   UNL     1       3.932 -45.892  30.055  1.00  0.00     0.004 C 
ENDBRANCH  11  12
ENDBRANCH   5  11
TORSDOF 4
ENDMDL
