MODEL 1
REMARK VINA RESULT:    -2.340      0.000      0.000
REMARK INTER + INTRA:          -2.340
REMARK INTER:                  -2.340
REMARK INTRA:                   0.000
REMARK UNBOUND:                 0.000
REMARK SMILES CC(=O)[O-]
REMARK SMILES IDX 1 1 2 2 3 3 4 4
REMARK H PARENT
REMARK Flexibility Score: inf
ROOT
ATOM      1  C   UNL     1       6.392   7.856  -5.921  1.00  0.00     0.063 C 
ATOM      2  C   UNL     1       6.130   8.046  -4.466  1.00  0.00     0.038 C 
ATOM      3  O   UNL     1       6.737   8.945  -3.826  1.00  0.00    -0.550 OA
ATOM      4  O   UNL     1       5.177   7.266  -3.822  1.00  0.00    -0.550 OA
ENDROOT
TORSDOF 0
ENDMDL
MODEL 2
REMARK VINA RESULT:    -2.273      1.455      1.792
REMARK INTER + INTRA:          -2.273
REMARK INTER:                  -2.273
REMARK INTRA:                   0.000
REMARK UNBOUND:                 0.000
REMARK SMILES CC(=O)[O-]
REMARK SMILES IDX 1 1 2 2 3 3 4 4
REMARK H PARENT
REMARK Flexibility Score: inf
ROOT
ATOM      1  C   UNL     1       5.599   7.213  -3.422  1.00  0.00     0.063 C 
ATOM      2  C   UNL     1       6.327   8.214  -4.253  1.00  0.00     0.038 C 
ATOM      3  O   UNL     1       6.968   9.147  -3.702  1.00  0.00    -0.550 OA
ATOM      4  O   UNL     1       6.343   8.090  -5.637  1.00  0.00    -0.550 OA
ENDROOT
TORSDOF 0
ENDMDL
MODEL 3
REMARK VINA RESULT:    -2.206      8.089      8.653
REMARK INTER + INTRA:          -2.206
REMARK INTER:                  -2.206
REMARK INTRA:                   0.000
REMARK UNBOUND:                 0.000
REMARK SMILES CC(=O)[O-]
REMARK SMILES IDX 1 1 2 2 3 3 4 4
REMARK H PARENT
REMARK Flexibility Score: inf
ROOT
ATOM      1  C   UNL     1      -0.639   6.479  -9.005  1.00  0.00     0.063 C 
ATOM      2  C   UNL     1      -0.264   5.059  -9.256  1.00  0.00     0.038 C 
ATOM      3  O   UNL     1       0.710   4.545  -8.645  1.00  0.00    -0.550 OA
ATOM      4  O   UNL     1      -1.020   4.282 -10.125  1.00  0.00    -0.550 OA
ENDROOT
TORSDOF 0
ENDMDL
MODEL 4
REMARK VINA RESULT:    -2.175     14.923     15.414
REMARK INTER + INTRA:          -2.175
REMARK INTER:                  -2.175
REMARK INTRA:                   0.000
REMARK UNBOUND:                 0.000
REMARK SMILES CC(=O)[O-]
REMARK SMILES IDX 1 1 2 2 3 3 4 4
REMARK H PARENT
REMARK Flexibility Score: inf
ROOT
ATOM      1  C   UNL     1       5.880  -6.608  -4.712  1.00  0.00     0.063 C 
ATOM      2  C   UNL     1       4.570  -7.239  -4.382  1.00  0.00     0.038 C 
ATOM      3  O   UNL     1       3.499  -6.605  -4.570  1.00  0.00    -0.550 OA
ATOM      4  O   UNL     1       4.525  -8.547  -3.916  1.00  0.00    -0.550 OA
ENDROOT
TORSDOF 0
ENDMDL
MODEL 5
REMARK VINA RESULT:    -2.163      8.593      8.984
REMARK INTER + INTRA:          -2.163
REMARK INTER:                  -2.163
REMARK INTRA:                   0.000
REMARK UNBOUND:                 0.000
REMARK SMILES CC(=O)[O-]
REMARK SMILES IDX 1 1 2 2 3 3 4 4
REMARK H PARENT
REMARK Flexibility Score: inf
ROOT
ATOM      1  C   UNL     1      -3.817   6.809  -6.725  1.00  0.00     0.063 C 
ATOM      2  C   UNL     1      -2.332   6.880  -6.620  1.00  0.00     0.038 C 
ATOM      3  O   UNL     1      -1.791   7.243  -5.543  1.00  0.00    -0.550 OA
ATOM      4  O   UNL     1      -1.539   6.497  -7.695  1.00  0.00    -0.550 OA
ENDROOT
TORSDOF 0
ENDMDL
MODEL 6
REMARK VINA RESULT:    -2.099      3.088      3.300
REMARK INTER + INTRA:          -2.099
REMARK INTER:                  -2.099
REMARK INTRA:                   0.000
REMARK UNBOUND:                 0.000
REMARK SMILES CC(=O)[O-]
REMARK SMILES IDX 1 1 2 2 3 3 4 4
REMARK H PARENT
REMARK Flexibility Score: inf
ROOT
ATOM      1  C   UNL     1       6.743   8.080  -6.023  1.00  0.00     0.063 C 
ATOM      2  C   UNL     1       6.142   7.594  -7.297  1.00  0.00     0.038 C 
ATOM      3  O   UNL     1       5.952   8.392  -8.251  1.00  0.00    -0.550 OA
ATOM      4  O   UNL     1       5.837   6.247  -7.454  1.00  0.00    -0.550 OA
ENDROOT
TORSDOF 0
ENDMDL
MODEL 7
REMARK VINA RESULT:    -2.092      1.968      2.752
REMARK INTER + INTRA:          -2.092
REMARK INTER:                  -2.092
REMARK INTRA:                   0.000
REMARK UNBOUND:                 0.000
REMARK SMILES CC(=O)[O-]
REMARK SMILES IDX 1 1 2 2 3 3 4 4
REMARK H PARENT
REMARK Flexibility Score: inf
ROOT
ATOM      1  C   UNL     1       5.986   7.960  -4.454  1.00  0.00     0.063 C 
ATOM      2  C   UNL     1       6.495   7.773  -5.842  1.00  0.00     0.038 C 
ATOM      3  O   UNL     1       5.961   6.923  -6.602  1.00  0.00    -0.550 OA
ATOM      4  O   UNL     1       7.528   8.571  -6.318  1.00  0.00    -0.550 OA
ENDROOT
TORSDOF 0
ENDMDL
MODEL 8
REMARK VINA RESULT:    -2.058      8.659      9.023
REMARK INTER + INTRA:          -2.058
REMARK INTER:                  -2.058
REMARK INTRA:                   0.000
REMARK UNBOUND:                 0.000
REMARK SMILES CC(=O)[O-]
REMARK SMILES IDX 1 1 2 2 3 3 4 4
REMARK H PARENT
REMARK Flexibility Score: inf
ROOT
ATOM      1  C   UNL     1      -3.337   7.319  -8.154  1.00  0.00     0.063 C 
ATOM      2  C   UNL     1      -2.207   6.771  -7.351  1.00  0.00     0.038 C 
ATOM      3  O   UNL     1      -1.154   6.385  -7.922  1.00  0.00    -0.550 OA
ATOM      4  O   UNL     1      -2.293   6.734  -5.964  1.00  0.00    -0.550 OA
ENDROOT
TORSDOF 0
ENDMDL
MODEL 9
REMARK VINA RESULT:    -1.958      4.050      4.355
REMARK INTER + INTRA:          -1.958
REMARK INTER:                  -1.958
REMARK INTRA:                   0.000
REMARK UNBOUND:                 0.000
REMARK SMILES CC(=O)[O-]
REMARK SMILES IDX 1 1 2 2 3 3 4 4
REMARK H PARENT
REMARK Flexibility Score: inf
ROOT
ATOM      1  C   UNL     1       6.002   6.796 -10.100  1.00  0.00     0.063 C 
ATOM      2  C   UNL     1       5.765   7.066  -8.654  1.00  0.00     0.038 C 
ATOM      3  O   UNL     1       5.643   8.250  -8.243  1.00  0.00    -0.550 OA
ATOM      4  O   UNL     1       5.625   6.009  -7.762  1.00  0.00    -0.550 OA
ENDROOT
TORSDOF 0
ENDMDL
