MODEL 1
REMARK VINA RESULT:    -3.399      0.000      0.000
REMARK INTER + INTRA:          -3.431
REMARK INTER:                  -4.194
REMARK INTRA:                   0.763
REMARK UNBOUND:                 0.763
REMARK SMILES CC1=CC=CC(C)(C)CC1=O
REMARK SMILES IDX 1 1 2 2 3 3 10 4 11 5 9 6 4 8 5 9 6 10 7 11 8 12
REMARK H PARENT
REMARK Flexibility Score: 80.00
ROOT
ATOM      1  C   UNL     1      -9.181  12.577  19.245  1.00  0.00     0.048 C 
ATOM      2  C   UNL     1     -10.188  11.552  18.781  1.00  0.00    -0.008 C 
ATOM      3  C   UNL     1     -11.180  11.972  17.966  1.00  0.00     0.007 C 
ENDROOT
BRANCH   2   4
ATOM      4  C   UNL     1     -10.050  10.176  19.322  1.00  0.00     0.159 C 
ATOM      5  O   UNL     1      -9.233   9.972  20.261  1.00  0.00    -0.295 OA
BRANCH   4   6
ATOM      6  C   UNL     1     -10.821   9.002  18.801  1.00  0.00     0.091 CG0
ATOM      7  G   UNL     1     -12.352   9.190  18.896  1.00  0.00     0.000 G0
ENDBRANCH   4   6
ENDBRANCH   2   4
BRANCH   3   8
ATOM      8  C   UNL     1     -12.312  11.219  17.378  1.00  0.00    -0.003 C 
ATOM      9  C   UNL     1     -12.834  10.046  17.760  1.00  0.00    -0.020 C 
BRANCH   9  10
ATOM     10  C   UNL     1     -12.356   9.179  18.900  1.00  0.00    -0.010 CG0
ATOM     11  C   UNL     1     -13.013   7.787  18.759  1.00  0.00     0.016 C 
ATOM     12  C   UNL     1     -12.806   9.784  20.249  1.00  0.00     0.016 C 
ATOM     13  G   UNL     1     -10.824   8.998  18.809  1.00  0.00     0.000 G0
ENDBRANCH   9  10
ENDBRANCH   3   8
TORSDOF 0
ENDMDL
MODEL 2
REMARK VINA RESULT:    -3.386     14.721     16.042
REMARK INTER + INTRA:          -3.414
REMARK INTER:                  -4.151
REMARK INTRA:                   0.737
REMARK UNBOUND:                 0.763
REMARK SMILES CC1=CC=CC(C)(C)CC1=O
REMARK SMILES IDX 1 1 2 2 3 3 10 4 11 5 9 6 4 8 5 9 6 10 7 11 8 12
REMARK H PARENT
REMARK Flexibility Score: 80.00
ROOT
ATOM      1  C   UNL     1      -2.515  -0.065  25.792  1.00  0.00     0.048 C 
ATOM      2  C   UNL     1      -1.855   0.780  26.856  1.00  0.00    -0.008 C 
ATOM      3  C   UNL     1      -1.002   0.165  27.703  1.00  0.00     0.007 C 
ENDROOT
BRANCH   2   4
ATOM      4  C   UNL     1      -2.258   2.207  26.933  1.00  0.00     0.159 C 
ATOM      5  O   UNL     1      -3.257   2.593  26.265  1.00  0.00    -0.295 OA
BRANCH   4   6
ATOM      6  C   UNL     1      -1.531   3.227  27.754  1.00  0.00     0.091 CG0
ATOM      7  G   UNL     1      -1.509   2.891  29.262  1.00  0.00     0.000 G0
ENDBRANCH   4   6
ENDBRANCH   2   4
BRANCH   3   8
ATOM      8  C   UNL     1      -0.236   0.714  28.847  1.00  0.00    -0.003 C 
ATOM      9  C   UNL     1      -0.431   1.852  29.525  1.00  0.00    -0.020 C 
BRANCH   9  10
ATOM     10  C   UNL     1      -1.497   2.886  29.254  1.00  0.00    -0.010 CG0
ATOM     11  C   UNL     1      -1.117   4.183  30.006  1.00  0.00     0.016 C 
ATOM     12  C   UNL     1      -2.858   2.399  29.802  1.00  0.00     0.016 C 
ATOM     13  G   UNL     1      -1.542   3.204  27.743  1.00  0.00     0.000 G0
ENDBRANCH   9  10
ENDBRANCH   3   8
TORSDOF 0
ENDMDL
MODEL 3
REMARK VINA RESULT:    -3.245     14.092     15.310
REMARK INTER + INTRA:          -3.240
REMARK INTER:                  -4.000
REMARK INTRA:                   0.759
REMARK UNBOUND:                 0.763
REMARK SMILES CC1=CC=CC(C)(C)CC1=O
REMARK SMILES IDX 1 1 2 2 3 3 10 4 11 5 9 6 4 8 5 9 6 10 7 11 8 12
REMARK H PARENT
REMARK Flexibility Score: 80.00
ROOT
ATOM      1  C   UNL     1      -4.991   2.109  25.198  1.00  0.00     0.048 C 
ATOM      2  C   UNL     1      -3.732   1.618  25.873  1.00  0.00    -0.008 C 
ATOM      3  C   UNL     1      -3.309   0.370  25.578  1.00  0.00     0.007 C 
ENDROOT
BRANCH   2   4
ATOM      4  C   UNL     1      -3.101   2.523  26.867  1.00  0.00     0.159 C 
ATOM      5  O   UNL     1      -3.738   3.542  27.252  1.00  0.00    -0.295 OA
BRANCH   4   6
ATOM      6  C   UNL     1      -1.733   2.301  27.435  1.00  0.00     0.091 CG0
ATOM      7  G   UNL     1      -1.596   0.957  28.185  1.00  0.00     0.000 G0
ENDBRANCH   4   6
ENDBRANCH   2   4
BRANCH   3   8
ATOM      8  C   UNL     1      -2.143  -0.386  26.092  1.00  0.00    -0.003 C 
ATOM      9  C   UNL     1      -1.417  -0.170  27.197  1.00  0.00    -0.020 C 
BRANCH   9  10
ATOM     10  C   UNL     1      -1.610   0.949  28.192  1.00  0.00    -0.010 CG0
ATOM     11  C   UNL     1      -0.354   1.019  29.092  1.00  0.00     0.016 C 
ATOM     12  C   UNL     1      -2.828   0.649  29.096  1.00  0.00     0.016 C 
ATOM     13  G   UNL     1      -1.740   2.295  27.444  1.00  0.00     0.000 G0
ENDBRANCH   9  10
ENDBRANCH   3   8
TORSDOF 0
ENDMDL
MODEL 4
REMARK VINA RESULT:    -3.165     15.145     16.270
REMARK INTER + INTRA:          -3.141
REMARK INTER:                  -3.894
REMARK INTRA:                   0.752
REMARK UNBOUND:                 0.763
REMARK SMILES CC1=CC=CC(C)(C)CC1=O
REMARK SMILES IDX 1 1 2 2 3 3 10 4 11 5 9 6 4 8 5 9 6 10 7 11 8 12
REMARK H PARENT
REMARK Flexibility Score: 80.00
ROOT
ATOM      1  C   UNL     1      -1.451  -0.302  25.914  1.00  0.00     0.048 C 
ATOM      2  C   UNL     1      -1.862   0.239  27.262  1.00  0.00    -0.008 C 
ATOM      3  C   UNL     1      -1.029   0.027  28.303  1.00  0.00     0.007 C 
ENDROOT
BRANCH   2   4
ATOM      4  C   UNL     1      -3.191   0.898  27.349  1.00  0.00     0.159 C 
ATOM      5  O   UNL     1      -3.985   0.795  26.375  1.00  0.00    -0.295 OA
BRANCH   4   6
ATOM      6  C   UNL     1      -3.641   1.696  28.534  1.00  0.00     0.091 CG0
ATOM      7  G   UNL     1      -3.677   0.875  29.843  1.00  0.00     0.000 G0
ENDBRANCH   4   6
ENDBRANCH   2   4
BRANCH   3   8
ATOM      8  C   UNL     1      -1.170   0.407  29.728  1.00  0.00    -0.003 C 
ATOM      9  C   UNL     1      -2.273   0.756  30.404  1.00  0.00    -0.020 C 
BRANCH   9  10
ATOM     10  C   UNL     1      -3.670   0.871  29.843  1.00  0.00    -0.010 CG0
ATOM     11  C   UNL     1      -4.542   1.637  30.864  1.00  0.00     0.016 C 
ATOM     12  C   UNL     1      -4.282  -0.536  29.655  1.00  0.00     0.016 C 
ATOM     13  G   UNL     1      -3.639   1.687  28.531  1.00  0.00     0.000 G0
ENDBRANCH   9  10
ENDBRANCH   3   8
TORSDOF 0
ENDMDL
MODEL 5
REMARK VINA RESULT:    -3.130     14.374     15.856
REMARK INTER + INTRA:          -3.099
REMARK INTER:                  -3.847
REMARK INTRA:                   0.748
REMARK UNBOUND:                 0.763
REMARK SMILES CC1=CC=CC(C)(C)CC1=O
REMARK SMILES IDX 1 1 2 2 3 3 10 4 11 5 9 6 4 8 5 9 6 10 7 11 8 12
REMARK H PARENT
REMARK Flexibility Score: 80.00
ROOT
ATOM      1  C   UNL     1     -14.086   1.701  35.107  1.00  0.00     0.048 C 
ATOM      2  C   UNL     1     -13.682   1.630  33.653  1.00  0.00    -0.008 C 
ATOM      3  C   UNL     1     -13.138   0.477  33.210  1.00  0.00     0.007 C 
ENDROOT
BRANCH   2   4
ATOM      4  C   UNL     1     -13.847   2.865  32.845  1.00  0.00     0.159 C 
ATOM      5  O   UNL     1     -14.142   3.941  33.434  1.00  0.00    -0.295 OA
BRANCH   4   6
ATOM      6  C   UNL     1     -13.694   2.905  31.356  1.00  0.00     0.091 CG0
ATOM      7  G   UNL     1     -12.301   2.440  30.875  1.00  0.00     0.000 G0
ENDBRANCH   4   6
ENDBRANCH   2   4
BRANCH   3   8
ATOM      8  C   UNL     1     -12.628   0.120  31.865  1.00  0.00    -0.003 C 
ATOM      9  C   UNL     1     -12.260   0.926  30.861  1.00  0.00    -0.020 C 
BRANCH   9  10
ATOM     10  C   UNL     1     -12.306   2.435  30.859  1.00  0.00    -0.010 CG0
ATOM     11  C   UNL     1     -12.144   2.923  29.401  1.00  0.00     0.016 C 
ATOM     12  C   UNL     1     -11.129   3.002  31.685  1.00  0.00     0.016 C 
ATOM     13  G   UNL     1     -13.682   2.915  31.375  1.00  0.00     0.000 G0
ENDBRANCH   9  10
ENDBRANCH   3   8
TORSDOF 0
ENDMDL
MODEL 6
REMARK VINA RESULT:    -3.118     15.312     16.409
REMARK INTER + INTRA:          -3.084
REMARK INTER:                  -3.836
REMARK INTRA:                   0.752
REMARK UNBOUND:                 0.763
REMARK SMILES CC1=CC=CC(C)(C)CC1=O
REMARK SMILES IDX 1 1 2 2 3 3 10 4 11 5 9 6 4 8 5 9 6 10 7 11 8 12
REMARK H PARENT
REMARK Flexibility Score: 80.00
ROOT
ATOM      1  C   UNL     1      -1.605   0.382  26.175  1.00  0.00     0.048 C 
ATOM      2  C   UNL     1      -2.129   0.415  27.591  1.00  0.00    -0.008 C 
ATOM      3  C   UNL     1      -3.044  -0.514  27.942  1.00  0.00     0.007 C 
ENDROOT
BRANCH   2   4
ATOM      4  C   UNL     1      -1.650   1.518  28.463  1.00  0.00     0.159 C 
ATOM      5  O   UNL     1      -0.985   2.457  27.945  1.00  0.00    -0.295 OA
BRANCH   4   6
ATOM      6  C   UNL     1      -1.904   1.574  29.938  1.00  0.00     0.091 CG0
ATOM      7  G   UNL     1      -3.406   1.572  30.298  1.00  0.00     0.000 G0
ENDBRANCH   4   6
ENDBRANCH   2   4
BRANCH   3   8
ATOM      8  C   UNL     1      -3.749  -0.715  29.229  1.00  0.00    -0.003 C 
ATOM      9  C   UNL     1      -3.925   0.146  30.239  1.00  0.00    -0.020 C 
BRANCH   9  10
ATOM     10  C   UNL     1      -3.404   1.561  30.313  1.00  0.00    -0.010 CG0
ATOM     11  C   UNL     1      -3.527   2.048  31.775  1.00  0.00     0.016 C 
ATOM     12  C   UNL     1      -4.267   2.489  29.427  1.00  0.00     0.016 C 
ATOM     13  G   UNL     1      -1.909   1.586  29.923  1.00  0.00     0.000 G0
ENDBRANCH   9  10
ENDBRANCH   3   8
TORSDOF 0
ENDMDL
MODEL 7
REMARK VINA RESULT:    -3.106     15.378     16.139
REMARK INTER + INTRA:          -3.069
REMARK INTER:                  -3.811
REMARK INTRA:                   0.742
REMARK UNBOUND:                 0.763
REMARK SMILES CC1=CC=CC(C)(C)CC1=O
REMARK SMILES IDX 1 1 2 2 3 3 10 4 11 5 9 6 4 8 5 9 6 10 7 11 8 12
REMARK H PARENT
REMARK Flexibility Score: 80.00
ROOT
ATOM      1  C   UNL     1      -1.450  -0.684  26.365  1.00  0.00     0.048 C 
ATOM      2  C   UNL     1      -1.954   0.438  27.242  1.00  0.00    -0.008 C 
ATOM      3  C   UNL     1      -1.377   1.650  27.101  1.00  0.00     0.007 C 
ENDROOT
BRANCH   2   4
ATOM      4  C   UNL     1      -2.995   0.097  28.244  1.00  0.00     0.159 C 
ATOM      5  O   UNL     1      -3.261  -1.119  28.454  1.00  0.00    -0.295 OA
BRANCH   4   6
ATOM      6  C   UNL     1      -3.764   1.123  29.018  1.00  0.00     0.091 CG0
ATOM      7  G   UNL     1      -2.862   2.050  29.863  1.00  0.00     0.000 G0
ENDBRANCH   4   6
ENDBRANCH   2   4
BRANCH   3   8
ATOM      8  C   UNL     1      -1.634   2.917  27.826  1.00  0.00    -0.003 C 
ATOM      9  C   UNL     1      -2.251   3.108  28.999  1.00  0.00    -0.020 C 
BRANCH   9  10
ATOM     10  C   UNL     1      -2.873   2.042  29.869  1.00  0.00    -0.010 CG0
ATOM     11  C   UNL     1      -3.787   2.735  30.906  1.00  0.00     0.016 C 
ATOM     12  C   UNL     1      -1.771   1.279  30.640  1.00  0.00     0.016 C 
ATOM     13  G   UNL     1      -3.750   1.109  29.004  1.00  0.00     0.000 G0
ENDBRANCH   9  10
ENDBRANCH   3   8
TORSDOF 0
ENDMDL
MODEL 8
REMARK VINA RESULT:    -2.982     10.990     12.526
REMARK INTER + INTRA:          -2.916
REMARK INTER:                  -3.676
REMARK INTRA:                   0.759
REMARK UNBOUND:                 0.763
REMARK SMILES CC1=CC=CC(C)(C)CC1=O
REMARK SMILES IDX 1 1 2 2 3 3 10 4 11 5 9 6 4 8 5 9 6 10 7 11 8 12
REMARK H PARENT
REMARK Flexibility Score: 80.00
ROOT
ATOM      1  C   UNL     1     -17.503  10.318  31.505  1.00  0.00     0.048 C 
ATOM      2  C   UNL     1     -16.027  10.421  31.201  1.00  0.00    -0.008 C 
ATOM      3  C   UNL     1     -15.549  11.624  30.816  1.00  0.00     0.007 C 
ENDROOT
BRANCH   2   4
ATOM      4  C   UNL     1     -15.232   9.169  31.279  1.00  0.00     0.159 C 
ATOM      5  O   UNL     1     -15.840   8.070  31.397  1.00  0.00    -0.295 OA
BRANCH   4   6
ATOM      6  C   UNL     1     -13.735   9.138  31.239  1.00  0.00     0.091 CG0
ATOM      7  G   UNL     1     -13.148   9.747  29.946  1.00  0.00     0.000 G0
ENDBRANCH   4   6
ENDBRANCH   2   4
BRANCH   3   8
ATOM      8  C   UNL     1     -14.176  12.024  30.431  1.00  0.00    -0.003 C 
ATOM      9  C   UNL     1     -13.147  11.254  30.054  1.00  0.00    -0.020 C 
BRANCH   9  10
ATOM     10  C   UNL     1     -13.143   9.747  29.955  1.00  0.00    -0.010 CG0
ATOM     11  C   UNL     1     -11.676   9.273  29.837  1.00  0.00     0.016 C 
ATOM     12  C   UNL     1     -13.893   9.299  28.679  1.00  0.00     0.016 C 
ATOM     13  G   UNL     1     -13.742   9.139  31.243  1.00  0.00     0.000 G0
ENDBRANCH   9  10
ENDBRANCH   3   8
TORSDOF 0
ENDMDL
MODEL 9
REMARK VINA RESULT:    -2.939     11.177     12.246
REMARK INTER + INTRA:          -2.863
REMARK INTER:                  -3.622
REMARK INTRA:                   0.759
REMARK UNBOUND:                 0.763
REMARK SMILES CC1=CC=CC(C)(C)CC1=O
REMARK SMILES IDX 1 1 2 2 3 3 10 4 11 5 9 6 4 8 5 9 6 10 7 11 8 12
REMARK H PARENT
REMARK Flexibility Score: 80.00
ROOT
ATOM      1  C   UNL     1     -14.501  12.752  31.075  1.00  0.00     0.048 C 
ATOM      2  C   UNL     1     -14.841  11.317  30.749  1.00  0.00    -0.008 C 
ATOM      3  C   UNL     1     -16.043  10.851  31.149  1.00  0.00     0.007 C 
ENDROOT
BRANCH   2   4
ATOM      4  C   UNL     1     -13.790  10.509  30.079  1.00  0.00     0.159 C 
ATOM      5  O   UNL     1     -12.618  10.973  30.010  1.00  0.00    -0.295 OA
BRANCH   4   6
ATOM      6  C   UNL     1     -14.045   9.168  29.463  1.00  0.00     0.091 CG0
ATOM      7  G   UNL     1     -14.559   8.121  30.476  1.00  0.00     0.000 G0
ENDBRANCH   4   6
ENDBRANCH   2   4
BRANCH   3   8
ATOM      8  C   UNL     1     -16.639   9.503  31.001  1.00  0.00    -0.003 C 
ATOM      9  C   UNL     1     -16.035   8.338  30.730  1.00  0.00    -0.020 C 
BRANCH   9  10
ATOM     10  C   UNL     1     -14.561   8.129  30.478  1.00  0.00    -0.010 CG0
ATOM     11  C   UNL     1     -14.370   6.728  29.854  1.00  0.00     0.016 C 
ATOM     12  C   UNL     1     -13.785   8.165  31.815  1.00  0.00     0.016 C 
ATOM     13  G   UNL     1     -14.052   9.179  29.465  1.00  0.00     0.000 G0
ENDBRANCH   9  10
ENDBRANCH   3   8
TORSDOF 0
ENDMDL
