MODEL 1
REMARK VINA RESULT:    -5.824      0.000      0.000
REMARK INTER + INTRA:          -7.418
REMARK INTER:                  -6.846
REMARK INTRA:                  -0.572
REMARK UNBOUND:                -0.572
REMARK SMILES C=C(C)[C@@H]1CC[C@@]2(CO)CC[C@@]3(C)[C@@H](CC[C@H]4[C@]5(C)CC[C@H](O)C(C)(C)[C@@H]5CC[C@@]43C)[C@@H]12
REMARK SMILES IDX 4 1 5 2 6 3 7 4 32 5 14 6 15 7 16 8 17 9 18 10 20 11 21 12
REMARK SMILES IDX 22 13 24 14 27 15 28 16 29 17 30 18 12 19 11 20 10 21 13 22
REMARK SMILES IDX 31 23 25 24 26 25 19 26 2 27 3 28 1 29 8 30 9 31 23 33
REMARK H PARENT 9 32 23 34
REMARK Flexibility Score: inf
ROOT
ATOM      1  C   UNL     1      69.510  56.546  25.490  1.00  0.00     0.018 C 
ATOM      2  C   UNL     1      68.794  57.736  26.128  1.00  0.00     0.009 C 
ATOM      3  C   UNL     1      67.801  58.221  25.086  1.00  0.00     0.010 C 
ATOM      4  C   UNL     1      67.332  56.962  24.325  1.00  0.00    -0.003 C 
ATOM      5  C   UNL     1      68.521  55.957  24.445  1.00  0.00     0.008 C 
ATOM      6  C   UNL     1      69.138  55.553  23.068  1.00  0.00    -0.000 C 
ATOM      7  C   UNL     1      70.346  54.602  23.211  1.00  0.00     0.005 C 
ATOM      8  C   UNL     1      70.771  54.011  21.860  1.00  0.00     0.005 C 
ATOM      9  C   UNL     1      70.960  55.082  20.738  1.00  0.00     0.002 C 
ATOM     10  C   UNL     1      71.595  54.500  19.381  1.00  0.00    -0.026 C 
ATOM     11  C   UNL     1      73.120  54.272  19.652  1.00  0.00     0.010 C 
ATOM     12  C   UNL     1      73.936  53.913  18.417  1.00  0.00     0.033 C 
ATOM     13  C   UNL     1      73.879  55.019  17.361  1.00  0.00     0.120 C 
ATOM     14  C   UNL     1      72.416  55.366  16.923  1.00  0.00    -0.006 C 
ATOM     15  C   UNL     1      71.399  55.514  18.164  1.00  0.00     0.003 C 
ATOM     16  C   UNL     1      71.255  56.963  18.713  1.00  0.00     0.005 C 
ATOM     17  C   UNL     1      69.946  57.128  19.490  1.00  0.00     0.008 C 
ATOM     18  C   UNL     1      69.692  56.026  20.588  1.00  0.00    -0.024 C 
ATOM     19  C   UNL     1      69.385  56.713  22.022  1.00  0.00    -0.024 C 
ATOM     20  C   UNL     1      68.128  57.665  21.946  1.00  0.00     0.008 C 
ATOM     21  C   UNL     1      66.948  57.270  22.848  1.00  0.00     0.010 C 
ATOM     22  C   UNL     1      70.589  57.616  22.485  1.00  0.00     0.012 C 
ATOM     23  C   UNL     1      68.463  55.183  20.087  1.00  0.00     0.012 C 
ATOM     24  C   UNL     1      72.464  56.651  16.042  1.00  0.00     0.014 C 
ATOM     25  C   UNL     1      71.921  54.253  15.944  1.00  0.00     0.014 C 
ATOM     26  C   UNL     1      70.950  53.119  19.051  1.00  0.00     0.012 C 
ENDROOT
BRANCH   1  27
ATOM     27  C   UNL     1      70.003  55.537  26.526  1.00  0.00    -0.077 C 
ATOM     28  C   UNL     1      69.015  54.653  27.246  1.00  0.00     0.039 C 
ATOM     29  C   UNL     1      71.309  55.398  26.812  1.00  0.00     0.008 C 
ENDBRANCH   1  27
BRANCH   4  30
ATOM     30  C   UNL     1      66.077  56.372  25.035  1.00  0.00     0.163 C 
BRANCH  30  31
ATOM     31  O   UNL     1      65.240  55.723  24.115  1.00  0.00    -0.396 OA
ATOM     32  H   UNL     1      65.031  56.394  23.414  1.00  0.00     0.210 HD
ENDBRANCH  30  31
ENDBRANCH   4  30
BRANCH  13  33
ATOM     33  O   UNL     1      74.619  56.139  17.792  1.00  0.00    -0.393 OA
ATOM     34  H   UNL     1      75.415  55.819  18.280  1.00  0.00     0.210 HD
ENDBRANCH  13  33
TORSDOF 4
ENDMDL
MODEL 2
REMARK VINA RESULT:    -5.585      3.394      4.767
REMARK INTER + INTRA:          -7.137
REMARK INTER:                  -6.599
REMARK INTRA:                  -0.539
REMARK UNBOUND:                -0.572
REMARK SMILES C=C(C)[C@@H]1CC[C@@]2(CO)CC[C@@]3(C)[C@@H](CC[C@H]4[C@]5(C)CC[C@H](O)C(C)(C)[C@@H]5CC[C@@]43C)[C@@H]12
REMARK SMILES IDX 4 1 5 2 6 3 7 4 32 5 14 6 15 7 16 8 17 9 18 10 20 11 21 12
REMARK SMILES IDX 22 13 24 14 27 15 28 16 29 17 30 18 12 19 11 20 10 21 13 22
REMARK SMILES IDX 31 23 25 24 26 25 19 26 2 27 3 28 1 29 8 30 9 31 23 33
REMARK H PARENT 9 32 23 34
REMARK Flexibility Score: inf
ROOT
ATOM      1  C   UNL     1      73.649  53.049  24.523  1.00  0.00     0.018 C 
ATOM      2  C   UNL     1      72.777  52.819  25.757  1.00  0.00     0.009 C 
ATOM      3  C   UNL     1      71.406  52.443  25.223  1.00  0.00     0.010 C 
ATOM      4  C   UNL     1      71.658  51.655  23.918  1.00  0.00    -0.003 C 
ATOM      5  C   UNL     1      73.027  52.190  23.387  1.00  0.00     0.008 C 
ATOM      6  C   UNL     1      72.928  52.872  21.986  1.00  0.00    -0.000 C 
ATOM      7  C   UNL     1      74.280  53.441  21.503  1.00  0.00     0.005 C 
ATOM      8  C   UNL     1      74.227  53.867  20.030  1.00  0.00     0.005 C 
ATOM      9  C   UNL     1      73.013  54.790  19.686  1.00  0.00     0.002 C 
ATOM     10  C   UNL     1      73.059  55.402  18.201  1.00  0.00    -0.026 C 
ATOM     11  C   UNL     1      74.134  56.539  18.209  1.00  0.00     0.010 C 
ATOM     12  C   UNL     1      74.179  57.378  16.938  1.00  0.00     0.033 C 
ATOM     13  C   UNL     1      72.847  58.088  16.683  1.00  0.00     0.120 C 
ATOM     14  C   UNL     1      71.636  57.099  16.600  1.00  0.00    -0.006 C 
ATOM     15  C   UNL     1      71.639  55.991  17.770  1.00  0.00     0.003 C 
ATOM     16  C   UNL     1      70.835  56.391  19.041  1.00  0.00     0.005 C 
ATOM     17  C   UNL     1      70.442  55.153  19.853  1.00  0.00     0.008 C 
ATOM     18  C   UNL     1      71.632  54.167  20.163  1.00  0.00    -0.024 C 
ATOM     19  C   UNL     1      71.720  53.865  21.751  1.00  0.00    -0.024 C 
ATOM     20  C   UNL     1      70.376  53.238  22.293  1.00  0.00     0.008 C 
ATOM     21  C   UNL     1      70.503  51.826  22.889  1.00  0.00     0.010 C 
ATOM     22  C   UNL     1      71.942  55.193  22.568  1.00  0.00     0.012 C 
ATOM     23  C   UNL     1      71.336  52.855  19.351  1.00  0.00     0.012 C 
ATOM     24  C   UNL     1      70.323  57.938  16.583  1.00  0.00     0.014 C 
ATOM     25  C   UNL     1      71.663  56.410  15.198  1.00  0.00     0.014 C 
ATOM     26  C   UNL     1      73.522  54.304  17.196  1.00  0.00     0.012 C 
ENDROOT
BRANCH   1  27
ATOM     27  C   UNL     1      75.126  52.761  24.789  1.00  0.00    -0.077 C 
ATOM     28  C   UNL     1      75.747  51.481  24.286  1.00  0.00     0.039 C 
ATOM     29  C   UNL     1      75.907  53.629  25.455  1.00  0.00     0.008 C 
ENDBRANCH   1  27
BRANCH   4  30
ATOM     30  C   UNL     1      71.784  50.139  24.251  1.00  0.00     0.163 C 
BRANCH  30  31
ATOM     31  O   UNL     1      70.875  49.383  23.495  1.00  0.00    -0.396 OA
ATOM     32  H   UNL     1      70.230  50.034  23.112  1.00  0.00     0.210 HD
ENDBRANCH  30  31
ENDBRANCH   4  30
BRANCH  13  33
ATOM     33  O   UNL     1      72.664  59.125  17.621  1.00  0.00    -0.393 OA
ATOM     34  H   UNL     1      71.706  59.170  17.855  1.00  0.00     0.210 HD
ENDBRANCH  13  33
TORSDOF 4
ENDMDL
MODEL 3
REMARK VINA RESULT:    -5.175      1.736      3.506
REMARK INTER + INTRA:          -6.655
REMARK INTER:                  -6.501
REMARK INTRA:                  -0.153
REMARK UNBOUND:                -0.572
REMARK SMILES C=C(C)[C@@H]1CC[C@@]2(CO)CC[C@@]3(C)[C@@H](CC[C@H]4[C@]5(C)CC[C@H](O)C(C)(C)[C@@H]5CC[C@@]43C)[C@@H]12
REMARK SMILES IDX 4 1 5 2 6 3 7 4 32 5 14 6 15 7 16 8 17 9 18 10 20 11 21 12
REMARK SMILES IDX 22 13 24 14 27 15 28 16 29 17 30 18 12 19 11 20 10 21 13 22
REMARK SMILES IDX 31 23 25 24 26 25 19 26 2 27 3 28 1 29 8 30 9 31 23 33
REMARK H PARENT 9 32 23 34
REMARK Flexibility Score: inf
ROOT
ATOM      1  C   UNL     1      67.291  56.351  24.622  1.00  0.00     0.018 C 
ATOM      2  C   UNL     1      67.431  56.104  26.123  1.00  0.00     0.009 C 
ATOM      3  C   UNL     1      68.846  56.529  26.477  1.00  0.00     0.010 C 
ATOM      4  C   UNL     1      69.182  57.712  25.542  1.00  0.00    -0.003 C 
ATOM      5  C   UNL     1      68.299  57.481  24.274  1.00  0.00     0.008 C 
ATOM      6  C   UNL     1      69.129  57.282  22.965  1.00  0.00    -0.000 C 
ATOM      7  C   UNL     1      68.241  57.003  21.733  1.00  0.00     0.005 C 
ATOM      8  C   UNL     1      69.041  57.072  20.425  1.00  0.00     0.005 C 
ATOM      9  C   UNL     1      70.352  56.222  20.445  1.00  0.00     0.002 C 
ATOM     10  C   UNL     1      71.089  56.127  19.020  1.00  0.00    -0.026 C 
ATOM     11  C   UNL     1      70.260  55.132  18.142  1.00  0.00     0.010 C 
ATOM     12  C   UNL     1      70.916  54.754  16.820  1.00  0.00     0.033 C 
ATOM     13  C   UNL     1      72.266  54.066  17.037  1.00  0.00     0.120 C 
ATOM     14  C   UNL     1      73.264  54.935  17.873  1.00  0.00    -0.006 C 
ATOM     15  C   UNL     1      72.590  55.604  19.175  1.00  0.00     0.003 C 
ATOM     16  C   UNL     1      72.713  54.756  20.474  1.00  0.00     0.005 C 
ATOM     17  C   UNL     1      72.543  55.632  21.719  1.00  0.00     0.008 C 
ATOM     18  C   UNL     1      71.263  56.551  21.704  1.00  0.00    -0.024 C 
ATOM     19  C   UNL     1      70.389  56.331  23.048  1.00  0.00    -0.024 C 
ATOM     20  C   UNL     1      71.235  56.646  24.343  1.00  0.00     0.008 C 
ATOM     21  C   UNL     1      70.701  57.795  25.214  1.00  0.00     0.010 C 
ATOM     22  C   UNL     1      69.929  54.830  23.184  1.00  0.00     0.012 C 
ATOM     23  C   UNL     1      71.786  58.030  21.603  1.00  0.00     0.012 C 
ATOM     24  C   UNL     1      74.496  54.051  18.234  1.00  0.00     0.014 C 
ATOM     25  C   UNL     1      73.853  56.040  16.938  1.00  0.00     0.014 C 
ATOM     26  C   UNL     1      71.067  57.522  18.324  1.00  0.00     0.012 C 
ENDROOT
BRANCH   1  27
ATOM     27  C   UNL     1      65.850  56.647  24.210  1.00  0.00    -0.077 C 
ATOM     28  C   UNL     1      65.472  58.027  23.732  1.00  0.00     0.039 C 
ATOM     29  C   UNL     1      64.895  55.702  24.246  1.00  0.00     0.008 C 
ENDBRANCH   1  27
BRANCH   4  30
ATOM     30  C   UNL     1      68.765  59.044  26.232  1.00  0.00     0.163 C 
BRANCH  30  31
ATOM     31  O   UNL     1      67.389  59.060  26.501  1.00  0.00    -0.396 OA
ATOM     32  H   UNL     1      67.186  59.973  26.836  1.00  0.00     0.210 HD
ENDBRANCH  30  31
ENDBRANCH   4  30
BRANCH  13  33
ATOM     33  O   UNL     1      72.072  52.772  17.560  1.00  0.00    -0.393 OA
ATOM     34  H   UNL     1      72.758  52.173  17.177  1.00  0.00     0.210 HD
ENDBRANCH  13  33
TORSDOF 4
ENDMDL
MODEL 4
REMARK VINA RESULT:    -5.173      1.973      3.064
REMARK INTER + INTRA:          -6.652
REMARK INTER:                  -6.026
REMARK INTRA:                  -0.626
REMARK UNBOUND:                -0.572
REMARK SMILES C=C(C)[C@@H]1CC[C@@]2(CO)CC[C@@]3(C)[C@@H](CC[C@H]4[C@]5(C)CC[C@H](O)C(C)(C)[C@@H]5CC[C@@]43C)[C@@H]12
REMARK SMILES IDX 4 1 5 2 6 3 7 4 32 5 14 6 15 7 16 8 17 9 18 10 20 11 21 12
REMARK SMILES IDX 22 13 24 14 27 15 28 16 29 17 30 18 12 19 11 20 10 21 13 22
REMARK SMILES IDX 31 23 25 24 26 25 19 26 2 27 3 28 1 29 8 30 9 31 23 33
REMARK H PARENT 9 32 23 34
REMARK Flexibility Score: inf
ROOT
ATOM      1  C   UNL     1      72.517  54.188  25.446  1.00  0.00     0.018 C 
ATOM      2  C   UNL     1      72.744  54.910  26.774  1.00  0.00     0.009 C 
ATOM      3  C   UNL     1      71.941  56.195  26.682  1.00  0.00     0.010 C 
ATOM      4  C   UNL     1      70.692  55.858  25.838  1.00  0.00    -0.003 C 
ATOM      5  C   UNL     1      71.139  54.677  24.919  1.00  0.00     0.008 C 
ATOM      6  C   UNL     1      71.066  55.010  23.395  1.00  0.00    -0.000 C 
ATOM      7  C   UNL     1      71.562  53.850  22.506  1.00  0.00     0.005 C 
ATOM      8  C   UNL     1      71.241  54.087  21.024  1.00  0.00     0.005 C 
ATOM      9  C   UNL     1      71.681  55.493  20.503  1.00  0.00     0.002 C 
ATOM     10  C   UNL     1      71.532  55.676  18.913  1.00  0.00    -0.026 C 
ATOM     11  C   UNL     1      72.704  54.879  18.251  1.00  0.00     0.010 C 
ATOM     12  C   UNL     1      72.852  55.099  16.750  1.00  0.00     0.033 C 
ATOM     13  C   UNL     1      73.130  56.567  16.420  1.00  0.00     0.120 C 
ATOM     14  C   UNL     1      72.029  57.534  16.972  1.00  0.00    -0.006 C 
ATOM     15  C   UNL     1      71.608  57.215  18.495  1.00  0.00     0.003 C 
ATOM     16  C   UNL     1      72.412  58.006  19.567  1.00  0.00     0.005 C 
ATOM     17  C   UNL     1      71.646  58.066  20.892  1.00  0.00     0.008 C 
ATOM     18  C   UNL     1      71.131  56.671  21.415  1.00  0.00    -0.024 C 
ATOM     19  C   UNL     1      71.619  56.419  22.938  1.00  0.00    -0.024 C 
ATOM     20  C   UNL     1      71.102  57.556  23.903  1.00  0.00     0.008 C 
ATOM     21  C   UNL     1      70.171  57.085  25.033  1.00  0.00     0.010 C 
ATOM     22  C   UNL     1      73.191  56.445  23.039  1.00  0.00     0.012 C 
ATOM     23  C   UNL     1      69.563  56.721  21.323  1.00  0.00     0.012 C 
ATOM     24  C   UNL     1      72.532  58.998  16.793  1.00  0.00     0.014 C 
ATOM     25  C   UNL     1      70.783  57.444  16.033  1.00  0.00     0.014 C 
ATOM     26  C   UNL     1      70.188  55.046  18.437  1.00  0.00     0.012 C 
ENDROOT
BRANCH   1  27
ATOM     27  C   UNL     1      72.636  52.671  25.577  1.00  0.00    -0.077 C 
ATOM     28  C   UNL     1      73.584  51.910  24.683  1.00  0.00     0.039 C 
ATOM     29  C   UNL     1      71.925  51.981  26.486  1.00  0.00     0.008 C 
ENDBRANCH   1  27
BRANCH   4  30
ATOM     30  C   UNL     1      69.549  55.382  26.781  1.00  0.00     0.163 C 
BRANCH  30  31
ATOM     31  O   UNL     1      69.083  54.113  26.403  1.00  0.00    -0.396 OA
ATOM     32  H   UNL     1      68.109  54.218  26.236  1.00  0.00     0.210 HD
ENDBRANCH  30  31
ENDBRANCH   4  30
BRANCH  13  33
ATOM     33  O   UNL     1      74.436  56.915  16.819  1.00  0.00    -0.393 OA
ATOM     34  H   UNL     1      75.030  56.860  16.032  1.00  0.00     0.210 HD
ENDBRANCH  13  33
TORSDOF 4
ENDMDL
MODEL 5
REMARK VINA RESULT:    -5.115      2.330      8.359
REMARK INTER + INTRA:          -6.584
REMARK INTER:                  -5.990
REMARK INTRA:                  -0.594
REMARK UNBOUND:                -0.572
REMARK SMILES C=C(C)[C@@H]1CC[C@@]2(CO)CC[C@@]3(C)[C@@H](CC[C@H]4[C@]5(C)CC[C@H](O)C(C)(C)[C@@H]5CC[C@@]43C)[C@@H]12
REMARK SMILES IDX 4 1 5 2 6 3 7 4 32 5 14 6 15 7 16 8 17 9 18 10 20 11 21 12
REMARK SMILES IDX 22 13 24 14 27 15 28 16 29 17 30 18 12 19 11 20 10 21 13 22
REMARK SMILES IDX 31 23 25 24 26 25 19 26 2 27 3 28 1 29 8 30 9 31 23 33
REMARK H PARENT 9 32 23 34
REMARK Flexibility Score: inf
ROOT
ATOM      1  C   UNL     1      73.072  56.297  17.709  1.00  0.00     0.018 C 
ATOM      2  C   UNL     1      74.247  57.018  17.049  1.00  0.00     0.009 C 
ATOM      3  C   UNL     1      75.474  56.612  17.845  1.00  0.00     0.010 C 
ATOM      4  C   UNL     1      75.221  55.160  18.307  1.00  0.00    -0.003 C 
ATOM      5  C   UNL     1      73.667  55.031  18.385  1.00  0.00     0.008 C 
ATOM      6  C   UNL     1      73.139  54.707  19.819  1.00  0.00    -0.000 C 
ATOM      7  C   UNL     1      71.599  54.636  19.887  1.00  0.00     0.005 C 
ATOM      8  C   UNL     1      71.111  54.063  21.225  1.00  0.00     0.005 C 
ATOM      9  C   UNL     1      71.751  54.751  22.473  1.00  0.00     0.002 C 
ATOM     10  C   UNL     1      71.101  54.299  23.872  1.00  0.00    -0.026 C 
ATOM     11  C   UNL     1      69.713  55.013  23.982  1.00  0.00     0.010 C 
ATOM     12  C   UNL     1      69.031  54.868  25.337  1.00  0.00     0.033 C 
ATOM     13  C   UNL     1      69.879  55.466  26.462  1.00  0.00     0.120 C 
ATOM     14  C   UNL     1      71.313  54.841  26.542  1.00  0.00    -0.006 C 
ATOM     15  C   UNL     1      72.030  54.708  25.104  1.00  0.00     0.003 C 
ATOM     16  C   UNL     1      72.912  55.927  24.708  1.00  0.00     0.005 C 
ATOM     17  C   UNL     1      73.940  55.535  23.641  1.00  0.00     0.008 C 
ATOM     18  C   UNL     1      73.337  54.782  22.395  1.00  0.00    -0.024 C 
ATOM     19  C   UNL     1      73.775  55.515  21.021  1.00  0.00    -0.024 C 
ATOM     20  C   UNL     1      75.346  55.576  20.876  1.00  0.00     0.008 C 
ATOM     21  C   UNL     1      75.923  54.836  19.659  1.00  0.00     0.010 C 
ATOM     22  C   UNL     1      73.277  57.010  20.994  1.00  0.00     0.012 C 
ATOM     23  C   UNL     1      73.896  53.314  22.459  1.00  0.00     0.012 C 
ATOM     24  C   UNL     1      72.156  55.682  27.547  1.00  0.00     0.014 C 
ATOM     25  C   UNL     1      71.198  53.439  27.223  1.00  0.00     0.014 C 
ATOM     26  C   UNL     1      70.855  52.759  23.861  1.00  0.00     0.012 C 
ENDROOT
BRANCH   1  27
ATOM     27  C   UNL     1      71.936  56.010  16.728  1.00  0.00    -0.077 C 
ATOM     28  C   UNL     1      72.002  54.795  15.835  1.00  0.00     0.039 C 
ATOM     29  C   UNL     1      70.857  56.806  16.642  1.00  0.00     0.008 C 
ENDBRANCH   1  27
BRANCH   4  30
ATOM     30  C   UNL     1      75.773  54.177  17.232  1.00  0.00     0.163 C 
BRANCH  30  31
ATOM     31  O   UNL     1      75.435  52.852  17.545  1.00  0.00    -0.396 OA
ATOM     32  H   UNL     1      75.288  52.830  18.527  1.00  0.00     0.210 HD
ENDBRANCH  30  31
ENDBRANCH   4  30
BRANCH  13  33
ATOM     33  O   UNL     1      69.883  56.872  26.371  1.00  0.00    -0.393 OA
ATOM     34  H   UNL     1      69.479  57.241  27.194  1.00  0.00     0.210 HD
ENDBRANCH  13  33
TORSDOF 4
ENDMDL
MODEL 6
REMARK VINA RESULT:    -5.077      3.007      5.447
REMARK INTER + INTRA:          -6.539
REMARK INTER:                  -5.860
REMARK INTRA:                  -0.679
REMARK UNBOUND:                -0.572
REMARK SMILES C=C(C)[C@@H]1CC[C@@]2(CO)CC[C@@]3(C)[C@@H](CC[C@H]4[C@]5(C)CC[C@H](O)C(C)(C)[C@@H]5CC[C@@]43C)[C@@H]12
REMARK SMILES IDX 4 1 5 2 6 3 7 4 32 5 14 6 15 7 16 8 17 9 18 10 20 11 21 12
REMARK SMILES IDX 22 13 24 14 27 15 28 16 29 17 30 18 12 19 11 20 10 21 13 22
REMARK SMILES IDX 31 23 25 24 26 25 19 26 2 27 3 28 1 29 8 30 9 31 23 33
REMARK H PARENT 9 32 23 34
REMARK Flexibility Score: inf
ROOT
ATOM      1  C   UNL     1      71.652  56.450  26.269  1.00  0.00     0.018 C 
ATOM      2  C   UNL     1      72.031  55.916  27.650  1.00  0.00     0.009 C 
ATOM      3  C   UNL     1      72.781  54.620  27.394  1.00  0.00     0.010 C 
ATOM      4  C   UNL     1      73.548  54.827  26.069  1.00  0.00    -0.003 C 
ATOM      5  C   UNL     1      72.705  55.880  25.280  1.00  0.00     0.008 C 
ATOM      6  C   UNL     1      72.152  55.344  23.921  1.00  0.00    -0.000 C 
ATOM      7  C   UNL     1      71.279  56.380  23.183  1.00  0.00     0.005 C 
ATOM      8  C   UNL     1      70.964  55.943  21.745  1.00  0.00     0.005 C 
ATOM      9  C   UNL     1      70.412  54.485  21.640  1.00  0.00     0.002 C 
ATOM     10  C   UNL     1      69.893  54.089  20.171  1.00  0.00    -0.026 C 
ATOM     11  C   UNL     1      68.516  54.804  19.965  1.00  0.00     0.010 C 
ATOM     12  C   UNL     1      67.767  54.386  18.706  1.00  0.00     0.033 C 
ATOM     13  C   UNL     1      67.444  52.890  18.711  1.00  0.00     0.120 C 
ATOM     14  C   UNL     1      68.719  51.993  18.869  1.00  0.00    -0.006 C 
ATOM     15  C   UNL     1      69.720  52.509  20.022  1.00  0.00     0.003 C 
ATOM     16  C   UNL     1      69.473  51.878  21.422  1.00  0.00     0.005 C 
ATOM     17  C   UNL     1      70.723  51.988  22.301  1.00  0.00     0.008 C 
ATOM     18  C   UNL     1      71.345  53.434  22.379  1.00  0.00    -0.024 C 
ATOM     19  C   UNL     1      71.524  53.893  23.920  1.00  0.00    -0.024 C 
ATOM     20  C   UNL     1      72.448  52.890  24.716  1.00  0.00     0.008 C 
ATOM     21  C   UNL     1      73.742  53.497  25.283  1.00  0.00     0.010 C 
ATOM     22  C   UNL     1      70.140  53.900  24.673  1.00  0.00     0.012 C 
ATOM     23  C   UNL     1      72.733  53.354  21.645  1.00  0.00     0.012 C 
ATOM     24  C   UNL     1      68.254  50.524  19.104  1.00  0.00     0.014 C 
ATOM     25  C   UNL     1      69.455  51.942  17.492  1.00  0.00     0.014 C 
ATOM     26  C   UNL     1      70.887  54.633  19.100  1.00  0.00     0.012 C 
ENDROOT
BRANCH   1  27
ATOM     27  C   UNL     1      71.528  57.973  26.245  1.00  0.00    -0.077 C 
ATOM     28  C   UNL     1      70.201  58.616  25.929  1.00  0.00     0.039 C 
ATOM     29  C   UNL     1      72.576  58.772  26.514  1.00  0.00     0.008 C 
ENDBRANCH   1  27
BRANCH   4  30
ATOM     30  C   UNL     1      74.957  55.412  26.378  1.00  0.00     0.163 C 
BRANCH  30  31
ATOM     31  O   UNL     1      75.200  56.564  25.615  1.00  0.00    -0.396 OA
ATOM     32  H   UNL     1      75.182  56.273  24.666  1.00  0.00     0.210 HD
ENDBRANCH  30  31
ENDBRANCH   4  30
BRANCH  13  33
ATOM     33  O   UNL     1      66.441  52.614  19.661  1.00  0.00    -0.393 OA
ATOM     34  H   UNL     1      66.302  53.421  20.214  1.00  0.00     0.210 HD
ENDBRANCH  13  33
TORSDOF 4
ENDMDL
MODEL 7
REMARK VINA RESULT:    -5.057      1.929      8.001
REMARK INTER + INTRA:          -6.517
REMARK INTER:                  -5.938
REMARK INTRA:                  -0.579
REMARK UNBOUND:                -0.572
REMARK SMILES C=C(C)[C@@H]1CC[C@@]2(CO)CC[C@@]3(C)[C@@H](CC[C@H]4[C@]5(C)CC[C@H](O)C(C)(C)[C@@H]5CC[C@@]43C)[C@@H]12
REMARK SMILES IDX 4 1 5 2 6 3 7 4 32 5 14 6 15 7 16 8 17 9 18 10 20 11 21 12
REMARK SMILES IDX 22 13 24 14 27 15 28 16 29 17 30 18 12 19 11 20 10 21 13 22
REMARK SMILES IDX 31 23 25 24 26 25 19 26 2 27 3 28 1 29 8 30 9 31 23 33
REMARK H PARENT 9 32 23 34
REMARK Flexibility Score: inf
ROOT
ATOM      1  C   UNL     1      72.617  57.175  18.035  1.00  0.00     0.018 C 
ATOM      2  C   UNL     1      74.123  56.938  18.139  1.00  0.00     0.009 C 
ATOM      3  C   UNL     1      74.285  55.739  19.057  1.00  0.00     0.010 C 
ATOM      4  C   UNL     1      73.065  54.829  18.789  1.00  0.00    -0.003 C 
ATOM      5  C   UNL     1      71.943  55.800  18.300  1.00  0.00     0.008 C 
ATOM      6  C   UNL     1      70.687  55.819  19.228  1.00  0.00    -0.000 C 
ATOM      7  C   UNL     1      69.613  56.823  18.758  1.00  0.00     0.005 C 
ATOM      8  C   UNL     1      68.291  56.643  19.517  1.00  0.00     0.005 C 
ATOM      9  C   UNL     1      68.458  56.603  21.070  1.00  0.00     0.002 C 
ATOM     10  C   UNL     1      67.068  56.616  21.876  1.00  0.00    -0.026 C 
ATOM     11  C   UNL     1      66.514  58.078  21.807  1.00  0.00     0.010 C 
ATOM     12  C   UNL     1      65.299  58.338  22.689  1.00  0.00     0.033 C 
ATOM     13  C   UNL     1      65.614  58.100  24.167  1.00  0.00     0.120 C 
ATOM     14  C   UNL     1      66.151  56.657  24.450  1.00  0.00    -0.006 C 
ATOM     15  C   UNL     1      67.274  56.178  23.398  1.00  0.00     0.003 C 
ATOM     16  C   UNL     1      68.737  56.480  23.833  1.00  0.00     0.005 C 
ATOM     17  C   UNL     1      69.727  55.573  23.095  1.00  0.00     0.008 C 
ATOM     18  C   UNL     1      69.545  55.540  21.530  1.00  0.00    -0.024 C 
ATOM     19  C   UNL     1      70.944  55.873  20.788  1.00  0.00    -0.024 C 
ATOM     20  C   UNL     1      72.072  54.847  21.198  1.00  0.00     0.008 C 
ATOM     21  C   UNL     1      72.649  54.009  20.046  1.00  0.00     0.010 C 
ATOM     22  C   UNL     1      71.478  57.296  21.202  1.00  0.00     0.012 C 
ATOM     23  C   UNL     1      69.046  54.091  21.178  1.00  0.00     0.012 C 
ATOM     24  C   UNL     1      66.661  56.606  25.922  1.00  0.00     0.014 C 
ATOM     25  C   UNL     1      64.937  55.672  24.435  1.00  0.00     0.014 C 
ATOM     26  C   UNL     1      66.044  55.676  21.171  1.00  0.00     0.012 C 
ENDROOT
BRANCH   1  27
ATOM     27  C   UNL     1      72.217  57.824  16.711  1.00  0.00    -0.077 C 
ATOM     28  C   UNL     1      72.463  57.098  15.411  1.00  0.00     0.039 C 
ATOM     29  C   UNL     1      71.632  59.034  16.664  1.00  0.00     0.008 C 
ENDBRANCH   1  27
BRANCH   4  30
ATOM     30  C   UNL     1      73.416  53.823  17.654  1.00  0.00     0.163 C 
BRANCH  30  31
ATOM     31  O   UNL     1      72.279  53.108  17.249  1.00  0.00    -0.396 OA
ATOM     32  H   UNL     1      71.961  53.546  16.416  1.00  0.00     0.210 HD
ENDBRANCH  30  31
ENDBRANCH   4  30
BRANCH  13  33
ATOM     33  O   UNL     1      66.457  59.120  24.654  1.00  0.00    -0.393 OA
ATOM     34  H   UNL     1      67.387  58.905  24.399  1.00  0.00     0.210 HD
ENDBRANCH  13  33
TORSDOF 4
ENDMDL
MODEL 8
REMARK VINA RESULT:    -5.048      1.859      2.534
REMARK INTER + INTRA:          -6.506
REMARK INTER:                  -5.842
REMARK INTRA:                  -0.664
REMARK UNBOUND:                -0.572
REMARK SMILES C=C(C)[C@@H]1CC[C@@]2(CO)CC[C@@]3(C)[C@@H](CC[C@H]4[C@]5(C)CC[C@H](O)C(C)(C)[C@@H]5CC[C@@]43C)[C@@H]12
REMARK SMILES IDX 4 1 5 2 6 3 7 4 32 5 14 6 15 7 16 8 17 9 18 10 20 11 21 12
REMARK SMILES IDX 22 13 24 14 27 15 28 16 29 17 30 18 12 19 11 20 10 21 13 22
REMARK SMILES IDX 31 23 25 24 26 25 19 26 2 27 3 28 1 29 8 30 9 31 23 33
REMARK H PARENT 9 32 23 34
REMARK Flexibility Score: inf
ROOT
ATOM      1  C   UNL     1      71.280  55.680  26.107  1.00  0.00     0.018 C 
ATOM      2  C   UNL     1      71.876  56.624  27.151  1.00  0.00     0.009 C 
ATOM      3  C   UNL     1      71.841  58.005  26.520  1.00  0.00     0.010 C 
ATOM      4  C   UNL     1      70.576  58.037  25.635  1.00  0.00    -0.003 C 
ATOM      5  C   UNL     1      70.334  56.547  25.231  1.00  0.00     0.008 C 
ATOM      6  C   UNL     1      70.405  56.299  23.690  1.00  0.00    -0.000 C 
ATOM      7  C   UNL     1      70.217  54.814  23.316  1.00  0.00     0.005 C 
ATOM      8  C   UNL     1      70.027  54.625  21.805  1.00  0.00     0.005 C 
ATOM      9  C   UNL     1      71.112  55.345  20.941  1.00  0.00     0.002 C 
ATOM     10  C   UNL     1      71.039  54.990  19.375  1.00  0.00    -0.026 C 
ATOM     11  C   UNL     1      71.623  53.548  19.206  1.00  0.00     0.010 C 
ATOM     12  C   UNL     1      71.827  53.111  17.761  1.00  0.00     0.033 C 
ATOM     13  C   UNL     1      72.809  54.028  17.028  1.00  0.00     0.120 C 
ATOM     14  C   UNL     1      72.370  55.531  17.050  1.00  0.00    -0.006 C 
ATOM     15  C   UNL     1      71.881  56.029  18.503  1.00  0.00     0.003 C 
ATOM     16  C   UNL     1      73.002  56.657  19.382  1.00  0.00     0.005 C 
ATOM     17  C   UNL     1      72.406  57.553  20.472  1.00  0.00     0.008 C 
ATOM     18  C   UNL     1      71.263  56.879  21.322  1.00  0.00    -0.024 C 
ATOM     19  C   UNL     1      71.590  56.990  22.903  1.00  0.00    -0.024 C 
ATOM     20  C   UNL     1      71.750  58.495  23.354  1.00  0.00     0.008 C 
ATOM     21  C   UNL     1      70.736  58.978  24.405  1.00  0.00     0.010 C 
ATOM     22  C   UNL     1      72.956  56.285  23.249  1.00  0.00     0.012 C 
ATOM     23  C   UNL     1      69.939  57.645  20.961  1.00  0.00     0.012 C 
ATOM     24  C   UNL     1      73.547  56.390  16.496  1.00  0.00     0.014 C 
ATOM     25  C   UNL     1      71.231  55.725  15.998  1.00  0.00     0.014 C 
ATOM     26  C   UNL     1      69.551  54.968  18.911  1.00  0.00     0.012 C 
ENDROOT
BRANCH   1  27
ATOM     27  C   UNL     1      70.610  54.460  26.736  1.00  0.00    -0.077 C 
ATOM     28  C   UNL     1      71.345  53.143  26.794  1.00  0.00     0.039 C 
ATOM     29  C   UNL     1      69.374  54.523  27.261  1.00  0.00     0.008 C 
ENDBRANCH   1  27
BRANCH   4  30
ATOM     30  C   UNL     1      69.372  58.551  26.478  1.00  0.00     0.163 C 
BRANCH  30  31
ATOM     31  O   UNL     1      68.252  57.724  26.309  1.00  0.00    -0.396 OA
ATOM     32  H   UNL     1      67.760  57.748  27.172  1.00  0.00     0.210 HD
ENDBRANCH  30  31
ENDBRANCH   4  30
BRANCH  13  33
ATOM     33  O   UNL     1      74.118  53.816  17.504  1.00  0.00    -0.393 OA
ATOM     34  H   UNL     1      74.469  54.673  17.848  1.00  0.00     0.210 HD
ENDBRANCH  13  33
TORSDOF 4
ENDMDL
MODEL 9
REMARK VINA RESULT:    -5.005      2.279      3.785
REMARK INTER + INTRA:          -6.456
REMARK INTER:                  -6.113
REMARK INTRA:                  -0.342
REMARK UNBOUND:                -0.572
REMARK SMILES C=C(C)[C@@H]1CC[C@@]2(CO)CC[C@@]3(C)[C@@H](CC[C@H]4[C@]5(C)CC[C@H](O)C(C)(C)[C@@H]5CC[C@@]43C)[C@@H]12
REMARK SMILES IDX 4 1 5 2 6 3 7 4 32 5 14 6 15 7 16 8 17 9 18 10 20 11 21 12
REMARK SMILES IDX 22 13 24 14 27 15 28 16 29 17 30 18 12 19 11 20 10 21 13 22
REMARK SMILES IDX 31 23 25 24 26 25 19 26 2 27 3 28 1 29 8 30 9 31 23 33
REMARK H PARENT 9 32 23 34
REMARK Flexibility Score: inf
ROOT
ATOM      1  C   UNL     1      70.634  55.348  26.410  1.00  0.00     0.018 C 
ATOM      2  C   UNL     1      71.693  55.369  27.512  1.00  0.00     0.009 C 
ATOM      3  C   UNL     1      72.854  56.169  26.947  1.00  0.00     0.010 C 
ATOM      4  C   UNL     1      72.226  57.244  26.034  1.00  0.00    -0.003 C 
ATOM      5  C   UNL     1      70.876  56.621  25.553  1.00  0.00     0.008 C 
ATOM      6  C   UNL     1      70.792  56.434  24.005  1.00  0.00    -0.000 C 
ATOM      7  C   UNL     1      69.474  55.768  23.556  1.00  0.00     0.005 C 
ATOM      8  C   UNL     1      69.292  55.831  22.033  1.00  0.00     0.005 C 
ATOM      9  C   UNL     1      70.538  55.333  21.231  1.00  0.00     0.002 C 
ATOM     10  C   UNL     1      70.286  55.206  19.649  1.00  0.00    -0.026 C 
ATOM     11  C   UNL     1      69.422  53.921  19.426  1.00  0.00     0.010 C 
ATOM     12  C   UNL     1      69.249  53.518  17.966  1.00  0.00     0.033 C 
ATOM     13  C   UNL     1      70.594  53.215  17.302  1.00  0.00     0.120 C 
ATOM     14  C   UNL     1      71.598  54.414  17.386  1.00  0.00    -0.006 C 
ATOM     15  C   UNL     1      71.663  55.088  18.849  1.00  0.00     0.003 C 
ATOM     16  C   UNL     1      72.759  54.499  19.783  1.00  0.00     0.005 C 
ATOM     17  C   UNL     1      73.114  55.485  20.900  1.00  0.00     0.008 C 
ATOM     18  C   UNL     1      71.875  56.056  21.689  1.00  0.00    -0.024 C 
ATOM     19  C   UNL     1      72.065  55.837  23.281  1.00  0.00    -0.024 C 
ATOM     20  C   UNL     1      73.379  56.536  23.807  1.00  0.00     0.008 C 
ATOM     21  C   UNL     1      73.162  57.641  24.854  1.00  0.00     0.010 C 
ATOM     22  C   UNL     1      72.218  54.307  23.626  1.00  0.00     0.012 C 
ATOM     23  C   UNL     1      71.797  57.586  21.332  1.00  0.00     0.012 C 
ATOM     24  C   UNL     1      72.993  53.916  16.902  1.00  0.00     0.014 C 
ATOM     25  C   UNL     1      71.183  55.475  16.316  1.00  0.00     0.014 C 
ATOM     26  C   UNL     1      69.467  56.435  19.148  1.00  0.00     0.012 C 
ENDROOT
BRANCH   1  27
ATOM     27  C   UNL     1      69.216  55.224  26.964  1.00  0.00    -0.077 C 
ATOM     28  C   UNL     1      68.148  56.195  26.524  1.00  0.00     0.039 C 
ATOM     29  C   UNL     1      68.877  54.255  27.832  1.00  0.00     0.008 C 
ENDBRANCH   1  27
BRANCH   4  30
ATOM     30  C   UNL     1      71.940  58.526  26.871  1.00  0.00     0.163 C 
BRANCH  30  31
ATOM     31  O   UNL     1      70.735  59.125  26.475  1.00  0.00    -0.396 OA
ATOM     32  H   UNL     1      70.754  60.047  26.844  1.00  0.00     0.210 HD
ENDBRANCH  30  31
ENDBRANCH   4  30
BRANCH  13  33
ATOM     33  O   UNL     1      71.119  52.006  17.800  1.00  0.00    -0.393 OA
ATOM     34  H   UNL     1      70.514  51.270  17.536  1.00  0.00     0.210 HD
ENDBRANCH  13  33
TORSDOF 4
ENDMDL
