MODEL 1
REMARK VINA RESULT:    -5.513      0.000      0.000
REMARK INTER + INTRA:         -12.298
REMARK INTER:                 -10.026
REMARK INTRA:                  -2.273
REMARK UNBOUND:                -2.273
REMARK SMILES CCCCCCCCCCCCCC[C@@H](C)C(=O)[O-]
REMARK SMILES IDX 9 1 10 2 11 3 12 4 13 5 14 6 15 7 16 8 17 9 18 10 19 11 8 12
REMARK SMILES IDX 7 13 6 14 5 15 4 16 3 17 2 18 1 19
REMARK H PARENT
REMARK Flexibility Score: inf
ROOT
ATOM      1  C   UNL     1    -100.058 -62.216 -67.254  1.00  0.00     0.000 C 
ENDROOT
BRANCH   1   2
ATOM      2  C   UNL     1     -99.299 -62.279 -68.590  1.00  0.00     0.000 C 
BRANCH   2   3
ATOM      3  C   UNL     1     -97.810 -61.913 -68.454  1.00  0.00     0.000 C 
BRANCH   3   4
ATOM      4  C   UNL     1     -97.051 -61.746 -69.784  1.00  0.00     0.000 C 
BRANCH   4   5
ATOM      5  C   UNL     1     -95.551 -61.478 -69.590  1.00  0.00     0.001 C 
BRANCH   5   6
ATOM      6  C   UNL     1     -95.155 -61.625 -68.110  1.00  0.00     0.009 C 
BRANCH   6   7
ATOM      7  C   UNL     1     -93.648 -61.877 -67.876  1.00  0.00     0.032 C 
ATOM      8  C   UNL     1     -93.154 -61.311 -66.536  1.00  0.00     0.014 C 
BRANCH   7   9
ATOM      9  C   UNL     1     -93.298 -63.334 -68.025  1.00  0.00     0.044 C 
ATOM     10  O   UNL     1     -93.265 -64.078 -67.009  1.00  0.00    -0.550 OA
ATOM     11  O   UNL     1     -92.958 -63.861 -69.266  1.00  0.00    -0.550 OA
ENDBRANCH   7   9
ENDBRANCH   6   7
ENDBRANCH   5   6
ENDBRANCH   4   5
ENDBRANCH   3   4
ENDBRANCH   2   3
ENDBRANCH   1   2
BRANCH   1  12
ATOM     12  C   UNL     1    -100.966 -60.978 -67.140  1.00  0.00     0.000 C 
BRANCH  12  13
ATOM     13  C   UNL     1    -100.346 -59.775 -66.400  1.00  0.00    -0.000 C 
BRANCH  13  14
ATOM     14  C   UNL     1     -99.434 -58.875 -67.258  1.00  0.00    -0.000 C 
BRANCH  14  15
ATOM     15  C   UNL     1     -98.275 -58.211 -66.493  1.00  0.00    -0.000 C 
BRANCH  15  16
ATOM     16  C   UNL     1     -97.020 -59.094 -66.426  1.00  0.00    -0.000 C 
BRANCH  16  17
ATOM     17  C   UNL     1     -96.848 -59.697 -65.024  1.00  0.00    -0.000 C 
BRANCH  17  18
ATOM     18  C   UNL     1     -96.978 -61.228 -65.020  1.00  0.00    -0.003 C 
ATOM     19  C   UNL     1     -98.042 -61.730 -64.045  1.00  0.00     0.004 C 
ENDBRANCH  17  18
ENDBRANCH  16  17
ENDBRANCH  15  16
ENDBRANCH  14  15
ENDBRANCH  13  14
ENDBRANCH  12  13
ENDBRANCH   1  12
TORSDOF 14
ENDMDL
MODEL 2
REMARK VINA RESULT:    -5.449      1.298      3.028
REMARK INTER + INTRA:         -12.181
REMARK INTER:                  -9.956
REMARK INTRA:                  -2.225
REMARK UNBOUND:                -2.273
REMARK SMILES CCCCCCCCCCCCCC[C@@H](C)C(=O)[O-]
REMARK SMILES IDX 9 1 10 2 11 3 12 4 13 5 14 6 15 7 16 8 17 9 18 10 19 11 8 12
REMARK SMILES IDX 7 13 6 14 5 15 4 16 3 17 2 18 1 19
REMARK H PARENT
REMARK Flexibility Score: inf
ROOT
ATOM      1  C   UNL     1    -100.746 -61.354 -65.966  1.00  0.00     0.000 C 
ENDROOT
BRANCH   1   2
ATOM      2  C   UNL     1    -100.744 -61.636 -67.477  1.00  0.00     0.000 C 
BRANCH   2   3
ATOM      3  C   UNL     1     -99.843 -62.822 -67.867  1.00  0.00     0.000 C 
BRANCH   3   4
ATOM      4  C   UNL     1     -98.833 -62.538 -68.994  1.00  0.00     0.000 C 
BRANCH   4   5
ATOM      5  C   UNL     1     -97.719 -61.568 -68.574  1.00  0.00     0.001 C 
BRANCH   5   6
ATOM      6  C   UNL     1     -96.848 -61.179 -69.782  1.00  0.00     0.009 C 
BRANCH   6   7
ATOM      7  C   UNL     1     -95.355 -61.553 -69.637  1.00  0.00     0.032 C 
ATOM      8  C   UNL     1     -94.934 -61.757 -68.175  1.00  0.00     0.014 C 
BRANCH   7   9
ATOM      9  C   UNL     1     -94.996 -62.743 -70.488  1.00  0.00     0.044 C 
ATOM     10  O   UNL     1     -95.709 -63.042 -71.482  1.00  0.00    -0.550 OA
ATOM     11  O   UNL     1     -93.912 -63.551 -70.161  1.00  0.00    -0.550 OA
ENDBRANCH   7   9
ENDBRANCH   6   7
ENDBRANCH   5   6
ENDBRANCH   4   5
ENDBRANCH   3   4
ENDBRANCH   2   3
ENDBRANCH   1   2
BRANCH   1  12
ATOM     12  C   UNL     1     -99.902 -62.364 -65.167  1.00  0.00     0.000 C 
BRANCH  12  13
ATOM     13  C   UNL     1     -99.041 -61.756 -64.042  1.00  0.00    -0.000 C 
BRANCH  13  14
ATOM     14  C   UNL     1     -97.546 -62.126 -64.087  1.00  0.00    -0.000 C 
BRANCH  14  15
ATOM     15  C   UNL     1     -96.699 -61.281 -65.056  1.00  0.00    -0.000 C 
BRANCH  15  16
ATOM     16  C   UNL     1     -96.994 -59.778 -64.952  1.00  0.00    -0.000 C 
BRANCH  16  17
ATOM     17  C   UNL     1     -96.721 -59.073 -66.289  1.00  0.00    -0.000 C 
BRANCH  17  18
ATOM     18  C   UNL     1     -97.740 -57.963 -66.590  1.00  0.00    -0.003 C 
ATOM     19  C   UNL     1     -99.045 -58.501 -67.176  1.00  0.00     0.004 C 
ENDBRANCH  17  18
ENDBRANCH  16  17
ENDBRANCH  15  16
ENDBRANCH  14  15
ENDBRANCH  13  14
ENDBRANCH  12  13
ENDBRANCH   1  12
TORSDOF 14
ENDMDL
MODEL 3
REMARK VINA RESULT:    -5.446      0.750      2.017
REMARK INTER + INTRA:         -12.176
REMARK INTER:                 -10.109
REMARK INTRA:                  -2.067
REMARK UNBOUND:                -2.273
REMARK SMILES CCCCCCCCCCCCCC[C@@H](C)C(=O)[O-]
REMARK SMILES IDX 9 1 10 2 11 3 12 4 13 5 14 6 15 7 16 8 17 9 18 10 19 11 8 12
REMARK SMILES IDX 7 13 6 14 5 15 4 16 3 17 2 18 1 19
REMARK H PARENT
REMARK Flexibility Score: inf
ROOT
ATOM      1  C   UNL     1     -99.996 -62.738 -67.399  1.00  0.00     0.000 C 
ENDROOT
BRANCH   1   2
ATOM      2  C   UNL     1     -99.249 -62.627 -68.737  1.00  0.00     0.000 C 
BRANCH   2   3
ATOM      3  C   UNL     1     -97.988 -61.747 -68.651  1.00  0.00     0.000 C 
BRANCH   3   4
ATOM      4  C   UNL     1     -97.112 -61.728 -69.917  1.00  0.00     0.000 C 
BRANCH   4   5
ATOM      5  C   UNL     1     -95.619 -61.530 -69.613  1.00  0.00     0.001 C 
BRANCH   5   6
ATOM      6  C   UNL     1     -95.344 -61.672 -68.105  1.00  0.00     0.009 C 
BRANCH   6   7
ATOM      7  C   UNL     1     -93.849 -61.817 -67.741  1.00  0.00     0.032 C 
ATOM      8  C   UNL     1     -93.541 -61.359 -66.309  1.00  0.00     0.014 C 
BRANCH   7   9
ATOM      9  C   UNL     1     -93.348 -63.215 -67.996  1.00  0.00     0.044 C 
ATOM     10  O   UNL     1     -93.285 -64.041 -67.047  1.00  0.00    -0.550 OA
ATOM     11  O   UNL     1     -92.904 -63.593 -69.258  1.00  0.00    -0.550 OA
ENDBRANCH   7   9
ENDBRANCH   6   7
ENDBRANCH   5   6
ENDBRANCH   4   5
ENDBRANCH   3   4
ENDBRANCH   2   3
ENDBRANCH   1   2
BRANCH   1  12
ATOM     12  C   UNL     1    -100.501 -61.379 -66.880  1.00  0.00     0.000 C 
BRANCH  12  13
ATOM     13  C   UNL     1    -100.418 -61.187 -65.352  1.00  0.00    -0.000 C 
BRANCH  13  14
ATOM     14  C   UNL     1     -99.648 -62.286 -64.593  1.00  0.00    -0.000 C 
BRANCH  14  15
ATOM     15  C   UNL     1     -98.323 -61.827 -63.958  1.00  0.00    -0.000 C 
BRANCH  15  16
ATOM     16  C   UNL     1     -97.251 -61.475 -64.999  1.00  0.00    -0.000 C 
BRANCH  16  17
ATOM     17  C   UNL     1     -96.985 -59.963 -65.022  1.00  0.00    -0.000 C 
BRANCH  17  18
ATOM     18  C   UNL     1     -97.492 -59.293 -66.310  1.00  0.00    -0.003 C 
ATOM     19  C   UNL     1     -97.410 -57.769 -66.256  1.00  0.00     0.004 C 
ENDBRANCH  17  18
ENDBRANCH  16  17
ENDBRANCH  15  16
ENDBRANCH  14  15
ENDBRANCH  13  14
ENDBRANCH  12  13
ENDBRANCH   1  12
TORSDOF 14
ENDMDL
MODEL 4
REMARK VINA RESULT:    -5.387      1.186      2.028
REMARK INTER + INTRA:         -12.068
REMARK INTER:                  -9.728
REMARK INTRA:                  -2.340
REMARK UNBOUND:                -2.273
REMARK SMILES CCCCCCCCCCCCCC[C@@H](C)C(=O)[O-]
REMARK SMILES IDX 9 1 10 2 11 3 12 4 13 5 14 6 15 7 16 8 17 9 18 10 19 11 8 12
REMARK SMILES IDX 7 13 6 14 5 15 4 16 3 17 2 18 1 19
REMARK H PARENT
REMARK Flexibility Score: inf
ROOT
ATOM      1  C   UNL     1    -100.850 -61.237 -66.504  1.00  0.00     0.000 C 
ENDROOT
BRANCH   1   2
ATOM      2  C   UNL     1     -99.648 -62.048 -67.014  1.00  0.00     0.000 C 
BRANCH   2   3
ATOM      3  C   UNL     1     -99.861 -62.613 -68.430  1.00  0.00     0.000 C 
BRANCH   3   4
ATOM      4  C   UNL     1     -98.605 -62.645 -69.321  1.00  0.00     0.000 C 
BRANCH   4   5
ATOM      5  C   UNL     1     -97.496 -61.702 -68.832  1.00  0.00     0.001 C 
BRANCH   5   6
ATOM      6  C   UNL     1     -96.587 -61.274 -69.998  1.00  0.00     0.009 C 
BRANCH   6   7
ATOM      7  C   UNL     1     -95.104 -61.678 -69.830  1.00  0.00     0.032 C 
ATOM      8  C   UNL     1     -94.658 -61.699 -68.362  1.00  0.00     0.014 C 
BRANCH   7   9
ATOM      9  C   UNL     1     -94.802 -62.983 -70.520  1.00  0.00     0.044 C 
ATOM     10  O   UNL     1     -93.922 -63.752 -70.050  1.00  0.00    -0.550 OA
ATOM     11  O   UNL     1     -95.447 -63.329 -71.702  1.00  0.00    -0.550 OA
ENDBRANCH   7   9
ENDBRANCH   6   7
ENDBRANCH   5   6
ENDBRANCH   4   5
ENDBRANCH   3   4
ENDBRANCH   2   3
ENDBRANCH   1   2
BRANCH   1  12
ATOM     12  C   UNL     1    -100.512 -59.754 -66.260  1.00  0.00     0.000 C 
BRANCH  12  13
ATOM     13  C   UNL     1     -99.593 -59.108 -67.316  1.00  0.00    -0.000 C 
BRANCH  13  14
ATOM     14  C   UNL     1     -98.489 -58.191 -66.753  1.00  0.00    -0.000 C 
BRANCH  14  15
ATOM     15  C   UNL     1     -97.125 -58.873 -66.544  1.00  0.00    -0.000 C 
BRANCH  15  16
ATOM     16  C   UNL     1     -97.021 -59.597 -65.193  1.00  0.00    -0.000 C 
BRANCH  16  17
ATOM     17  C   UNL     1     -96.277 -60.932 -65.344  1.00  0.00    -0.000 C 
BRANCH  17  18
ATOM     18  C   UNL     1     -96.854 -62.034 -64.442  1.00  0.00    -0.003 C 
ATOM     19  C   UNL     1     -98.197 -61.650 -63.823  1.00  0.00     0.004 C 
ENDBRANCH  17  18
ENDBRANCH  16  17
ENDBRANCH  15  16
ENDBRANCH  14  15
ENDBRANCH  13  14
ENDBRANCH  12  13
ENDBRANCH   1  12
TORSDOF 14
ENDMDL
MODEL 5
REMARK VINA RESULT:    -5.316      3.069      6.695
REMARK INTER + INTRA:         -11.939
REMARK INTER:                 -10.018
REMARK INTRA:                  -1.921
REMARK UNBOUND:                -2.273
REMARK SMILES CCCCCCCCCCCCCC[C@@H](C)C(=O)[O-]
REMARK SMILES IDX 9 1 10 2 11 3 12 4 13 5 14 6 15 7 16 8 17 9 18 10 19 11 8 12
REMARK SMILES IDX 7 13 6 14 5 15 4 16 3 17 2 18 1 19
REMARK H PARENT
REMARK Flexibility Score: inf
ROOT
ATOM      1  C   UNL     1     -95.786 -61.419 -66.512  1.00  0.00     0.000 C 
ENDROOT
BRANCH   1   2
ATOM      2  C   UNL     1     -96.528 -60.187 -65.968  1.00  0.00     0.000 C 
BRANCH   2   3
ATOM      3  C   UNL     1     -97.029 -60.374 -64.525  1.00  0.00     0.000 C 
BRANCH   3   4
ATOM      4  C   UNL     1     -97.688 -61.735 -64.229  1.00  0.00     0.000 C 
BRANCH   4   5
ATOM      5  C   UNL     1     -99.223 -61.680 -64.266  1.00  0.00     0.001 C 
BRANCH   5   6
ATOM      6  C   UNL     1     -99.769 -62.442 -65.487  1.00  0.00     0.009 C 
BRANCH   6   7
ATOM      7  C   UNL     1     -99.842 -61.601 -66.782  1.00  0.00     0.032 C 
ATOM      8  C   UNL     1    -100.517 -62.352 -67.938  1.00  0.00     0.014 C 
BRANCH   7   9
ATOM      9  C   UNL     1    -100.487 -60.262 -66.539  1.00  0.00     0.044 C 
ATOM     10  O   UNL     1     -99.842 -59.204 -66.772  1.00  0.00    -0.550 OA
ATOM     11  O   UNL     1    -101.770 -60.174 -66.011  1.00  0.00    -0.550 OA
ENDBRANCH   7   9
ENDBRANCH   6   7
ENDBRANCH   5   6
ENDBRANCH   4   5
ENDBRANCH   3   4
ENDBRANCH   2   3
ENDBRANCH   1   2
BRANCH   1  12
ATOM     12  C   UNL     1     -94.269 -61.368 -66.252  1.00  0.00     0.000 C 
BRANCH  12  13
ATOM     13  C   UNL     1     -93.385 -61.787 -67.444  1.00  0.00    -0.000 C 
BRANCH  13  14
ATOM     14  C   UNL     1     -93.298 -63.306 -67.695  1.00  0.00    -0.000 C 
BRANCH  14  15
ATOM     15  C   UNL     1     -93.202 -63.712 -69.177  1.00  0.00    -0.000 C 
BRANCH  15  16
ATOM     16  C   UNL     1     -93.598 -62.578 -70.134  1.00  0.00    -0.000 C 
BRANCH  16  17
ATOM     17  C   UNL     1     -95.050 -62.742 -70.607  1.00  0.00    -0.000 C 
BRANCH  17  18
ATOM     18  C   UNL     1     -95.904 -61.494 -70.333  1.00  0.00    -0.003 C 
ATOM     19  C   UNL     1     -97.266 -61.830 -69.728  1.00  0.00     0.004 C 
ENDBRANCH  17  18
ENDBRANCH  16  17
ENDBRANCH  15  16
ENDBRANCH  14  15
ENDBRANCH  13  14
ENDBRANCH  12  13
ENDBRANCH   1  12
TORSDOF 14
ENDMDL
MODEL 6
REMARK VINA RESULT:    -5.255      2.834      6.544
REMARK INTER + INTRA:         -11.829
REMARK INTER:                  -9.852
REMARK INTRA:                  -1.978
REMARK UNBOUND:                -2.273
REMARK SMILES CCCCCCCCCCCCCC[C@@H](C)C(=O)[O-]
REMARK SMILES IDX 9 1 10 2 11 3 12 4 13 5 14 6 15 7 16 8 17 9 18 10 19 11 8 12
REMARK SMILES IDX 7 13 6 14 5 15 4 16 3 17 2 18 1 19
REMARK H PARENT
REMARK Flexibility Score: inf
ROOT
ATOM      1  C   UNL     1     -95.028 -60.618 -66.757  1.00  0.00     0.000 C 
ENDROOT
BRANCH   1   2
ATOM      2  C   UNL     1     -96.033 -60.935 -65.637  1.00  0.00     0.000 C 
BRANCH   2   3
ATOM      3  C   UNL     1     -97.069 -59.816 -65.425  1.00  0.00     0.000 C 
BRANCH   3   4
ATOM      4  C   UNL     1     -97.324 -58.915 -66.648  1.00  0.00     0.000 C 
BRANCH   4   5
ATOM      5  C   UNL     1     -98.500 -59.394 -67.513  1.00  0.00     0.001 C 
BRANCH   5   6
ATOM      6  C   UNL     1     -99.776 -59.543 -66.666  1.00  0.00     0.009 C 
BRANCH   6   7
ATOM      7  C   UNL     1    -100.316 -60.990 -66.579  1.00  0.00     0.032 C 
ATOM      8  C   UNL     1     -99.609 -61.946 -67.550  1.00  0.00     0.014 C 
BRANCH   7   9
ATOM      9  C   UNL     1    -100.283 -61.510 -65.166  1.00  0.00     0.044 C 
ATOM     10  O   UNL     1     -99.478 -62.429 -64.854  1.00  0.00    -0.550 OA
ATOM     11  O   UNL     1    -101.167 -61.026 -64.207  1.00  0.00    -0.550 OA
ENDBRANCH   7   9
ENDBRANCH   6   7
ENDBRANCH   5   6
ENDBRANCH   4   5
ENDBRANCH   3   4
ENDBRANCH   2   3
ENDBRANCH   1   2
BRANCH   1  12
ATOM     12  C   UNL     1     -93.689 -61.359 -66.587  1.00  0.00     0.000 C 
BRANCH  12  13
ATOM     13  C   UNL     1     -93.788 -62.898 -66.568  1.00  0.00    -0.000 C 
BRANCH  13  14
ATOM     14  C   UNL     1     -93.032 -63.619 -67.702  1.00  0.00    -0.000 C 
BRANCH  14  15
ATOM     15  C   UNL     1     -93.053 -62.892 -69.058  1.00  0.00    -0.000 C 
BRANCH  15  16
ATOM     16  C   UNL     1     -93.573 -63.775 -70.202  1.00  0.00    -0.000 C 
BRANCH  16  17
ATOM     17  C   UNL     1     -94.805 -63.142 -70.865  1.00  0.00    -0.000 C 
BRANCH  17  18
ATOM     18  C   UNL     1     -95.204 -61.807 -70.218  1.00  0.00    -0.003 C 
ATOM     19  C   UNL     1     -96.686 -61.747 -69.848  1.00  0.00     0.004 C 
ENDBRANCH  17  18
ENDBRANCH  16  17
ENDBRANCH  15  16
ENDBRANCH  14  15
ENDBRANCH  13  14
ENDBRANCH  12  13
ENDBRANCH   1  12
TORSDOF 14
ENDMDL
MODEL 7
REMARK VINA RESULT:    -5.227      3.146      6.252
REMARK INTER + INTRA:         -11.777
REMARK INTER:                 -10.079
REMARK INTRA:                  -1.698
REMARK UNBOUND:                -2.273
REMARK SMILES CCCCCCCCCCCCCC[C@@H](C)C(=O)[O-]
REMARK SMILES IDX 9 1 10 2 11 3 12 4 13 5 14 6 15 7 16 8 17 9 18 10 19 11 8 12
REMARK SMILES IDX 7 13 6 14 5 15 4 16 3 17 2 18 1 19
REMARK H PARENT
REMARK Flexibility Score: inf
ROOT
ATOM      1  C   UNL     1     -97.063 -60.123 -67.682  1.00  0.00     0.000 C 
ENDROOT
BRANCH   1   2
ATOM      2  C   UNL     1     -96.194 -60.229 -66.418  1.00  0.00     0.000 C 
BRANCH   2   3
ATOM      3  C   UNL     1     -97.022 -60.266 -65.120  1.00  0.00     0.000 C 
BRANCH   3   4
ATOM      4  C   UNL     1     -97.513 -61.662 -64.693  1.00  0.00     0.000 C 
BRANCH   4   5
ATOM      5  C   UNL     1     -98.995 -61.683 -64.293  1.00  0.00     0.001 C 
BRANCH   5   6
ATOM      6  C   UNL     1     -99.850 -62.334 -65.395  1.00  0.00     0.009 C 
BRANCH   6   7
ATOM      7  C   UNL     1    -100.078 -61.441 -66.636  1.00  0.00     0.032 C 
ATOM      8  C   UNL     1    -100.851 -62.161 -67.750  1.00  0.00     0.014 C 
BRANCH   7   9
ATOM      9  C   UNL     1    -100.728 -60.133 -66.267  1.00  0.00     0.044 C 
ATOM     10  O   UNL     1    -100.178 -59.046 -66.589  1.00  0.00    -0.550 OA
ATOM     11  O   UNL     1    -101.905 -60.106 -65.527  1.00  0.00    -0.550 OA
ENDBRANCH   7   9
ENDBRANCH   6   7
ENDBRANCH   5   6
ENDBRANCH   4   5
ENDBRANCH   3   4
ENDBRANCH   2   3
ENDBRANCH   1   2
BRANCH   1  12
ATOM     12  C   UNL     1     -97.094 -61.429 -68.498  1.00  0.00     0.000 C 
BRANCH  12  13
ATOM     13  C   UNL     1     -97.014 -61.249 -70.027  1.00  0.00    -0.000 C 
BRANCH  13  14
ATOM     14  C   UNL     1     -95.594 -61.309 -70.622  1.00  0.00    -0.000 C 
BRANCH  14  15
ATOM     15  C   UNL     1     -94.803 -62.586 -70.285  1.00  0.00    -0.000 C 
BRANCH  15  16
ATOM     16  C   UNL     1     -93.732 -62.359 -69.208  1.00  0.00    -0.000 C 
BRANCH  16  17
ATOM     17  C   UNL     1     -93.147 -63.694 -68.726  1.00  0.00    -0.000 C 
BRANCH  17  18
ATOM     18  C   UNL     1     -93.084 -63.793 -67.194  1.00  0.00    -0.003 C 
ATOM     19  C   UNL     1     -93.697 -62.579 -66.497  1.00  0.00     0.004 C 
ENDBRANCH  17  18
ENDBRANCH  16  17
ENDBRANCH  15  16
ENDBRANCH  14  15
ENDBRANCH  13  14
ENDBRANCH  12  13
ENDBRANCH   1  12
TORSDOF 14
ENDMDL
MODEL 8
REMARK VINA RESULT:    -5.014      2.138      4.647
REMARK INTER + INTRA:         -11.391
REMARK INTER:                  -9.351
REMARK INTRA:                  -2.040
REMARK UNBOUND:                -2.273
REMARK SMILES CCCCCCCCCCCCCC[C@@H](C)C(=O)[O-]
REMARK SMILES IDX 9 1 10 2 11 3 12 4 13 5 14 6 15 7 16 8 17 9 18 10 19 11 8 12
REMARK SMILES IDX 7 13 6 14 5 15 4 16 3 17 2 18 1 19
REMARK H PARENT
REMARK Flexibility Score: inf
ROOT
ATOM      1  C   UNL     1    -100.256 -61.979 -67.166  1.00  0.00     0.000 C 
ENDROOT
BRANCH   1   2
ATOM      2  C   UNL     1    -100.980 -60.623 -67.150  1.00  0.00     0.000 C 
BRANCH   2   3
ATOM      3  C   UNL     1    -100.190 -59.528 -66.412  1.00  0.00     0.000 C 
BRANCH   3   4
ATOM      4  C   UNL     1     -99.245 -58.691 -67.294  1.00  0.00     0.000 C 
BRANCH   4   5
ATOM      5  C   UNL     1     -97.803 -59.220 -67.301  1.00  0.00     0.001 C 
BRANCH   5   6
ATOM      6  C   UNL     1     -97.367 -59.639 -65.886  1.00  0.00     0.009 C 
BRANCH   6   7
ATOM      7  C   UNL     1     -96.880 -61.103 -65.778  1.00  0.00     0.032 C 
ATOM      8  C   UNL     1     -95.363 -61.238 -65.970  1.00  0.00     0.014 C 
BRANCH   7   9
ATOM      9  C   UNL     1     -97.336 -61.746 -64.495  1.00  0.00     0.044 C 
ATOM     10  O   UNL     1     -98.495 -61.520 -64.057  1.00  0.00    -0.550 OA
ATOM     11  O   UNL     1     -96.474 -62.550 -63.756  1.00  0.00    -0.550 OA
ENDBRANCH   7   9
ENDBRANCH   6   7
ENDBRANCH   5   6
ENDBRANCH   4   5
ENDBRANCH   3   4
ENDBRANCH   2   3
ENDBRANCH   1   2
BRANCH   1  12
ATOM     12  C   UNL     1    -100.509 -62.779 -68.457  1.00  0.00     0.000 C 
BRANCH  12  13
ATOM     13  C   UNL     1     -99.245 -63.149 -69.259  1.00  0.00    -0.000 C 
BRANCH  13  14
ATOM     14  C   UNL     1     -98.067 -62.164 -69.119  1.00  0.00    -0.000 C 
BRANCH  14  15
ATOM     15  C   UNL     1     -97.520 -61.616 -70.450  1.00  0.00    -0.000 C 
BRANCH  15  16
ATOM     16  C   UNL     1     -96.119 -61.001 -70.311  1.00  0.00    -0.000 C 
BRANCH  16  17
ATOM     17  C   UNL     1     -95.273 -61.787 -69.299  1.00  0.00    -0.000 C 
BRANCH  17  18
ATOM     18  C   UNL     1     -94.058 -62.469 -69.949  1.00  0.00    -0.003 C 
ATOM     19  C   UNL     1     -93.319 -63.400 -68.989  1.00  0.00     0.004 C 
ENDBRANCH  17  18
ENDBRANCH  16  17
ENDBRANCH  15  16
ENDBRANCH  14  15
ENDBRANCH  13  14
ENDBRANCH  12  13
ENDBRANCH   1  12
TORSDOF 14
ENDMDL
MODEL 9
REMARK VINA RESULT:    -4.995      1.925      4.286
REMARK INTER + INTRA:         -11.355
REMARK INTER:                  -9.745
REMARK INTRA:                  -1.610
REMARK UNBOUND:                -2.273
REMARK SMILES CCCCCCCCCCCCCC[C@@H](C)C(=O)[O-]
REMARK SMILES IDX 9 1 10 2 11 3 12 4 13 5 14 6 15 7 16 8 17 9 18 10 19 11 8 12
REMARK SMILES IDX 7 13 6 14 5 15 4 16 3 17 2 18 1 19
REMARK H PARENT
REMARK Flexibility Score: inf
ROOT
ATOM      1  C   UNL     1     -95.876 -60.664 -65.848  1.00  0.00     0.000 C 
ENDROOT
BRANCH   1   2
ATOM      2  C   UNL     1     -94.464 -61.000 -66.354  1.00  0.00     0.000 C 
BRANCH   2   3
ATOM      3  C   UNL     1     -94.112 -62.492 -66.209  1.00  0.00     0.000 C 
BRANCH   3   4
ATOM      4  C   UNL     1     -92.885 -62.960 -67.014  1.00  0.00     0.000 C 
BRANCH   4   5
ATOM      5  C   UNL     1     -93.256 -63.603 -68.358  1.00  0.00     0.001 C 
BRANCH   5   6
ATOM      6  C   UNL     1     -93.697 -62.534 -69.373  1.00  0.00     0.009 C 
BRANCH   6   7
ATOM      7  C   UNL     1     -95.173 -62.651 -69.820  1.00  0.00     0.032 C 
ATOM      8  C   UNL     1     -95.995 -61.400 -69.478  1.00  0.00     0.014 C 
BRANCH   7   9
ATOM      9  C   UNL     1     -95.285 -63.006 -71.279  1.00  0.00     0.044 C 
ATOM     10  O   UNL     1     -94.768 -64.073 -71.706  1.00  0.00    -0.550 OA
ATOM     11  O   UNL     1     -95.909 -62.146 -72.176  1.00  0.00    -0.550 OA
ENDBRANCH   7   9
ENDBRANCH   6   7
ENDBRANCH   5   6
ENDBRANCH   4   5
ENDBRANCH   3   4
ENDBRANCH   2   3
ENDBRANCH   1   2
BRANCH   1  12
ATOM     12  C   UNL     1     -96.462 -61.759 -64.938  1.00  0.00     0.000 C 
BRANCH  12  13
ATOM     13  C   UNL     1     -97.712 -61.345 -64.134  1.00  0.00    -0.000 C 
BRANCH  13  14
ATOM     14  C   UNL     1     -98.994 -62.135 -64.461  1.00  0.00    -0.000 C 
BRANCH  14  15
ATOM     15  C   UNL     1    -100.105 -61.314 -65.141  1.00  0.00    -0.000 C 
BRANCH  15  16
ATOM     16  C   UNL     1     -99.647 -60.661 -66.454  1.00  0.00    -0.000 C 
BRANCH  16  17
ATOM     17  C   UNL     1     -99.192 -61.724 -67.465  1.00  0.00    -0.000 C 
BRANCH  17  18
ATOM     18  C   UNL     1    -100.364 -62.545 -68.026  1.00  0.00    -0.003 C 
ATOM     19  C   UNL     1     -99.929 -63.537 -69.104  1.00  0.00     0.004 C 
ENDBRANCH  17  18
ENDBRANCH  16  17
ENDBRANCH  15  16
ENDBRANCH  14  15
ENDBRANCH  13  14
ENDBRANCH  12  13
ENDBRANCH   1  12
TORSDOF 14
ENDMDL
