MODEL 1
REMARK VINA RESULT:    -5.318      0.000      0.000
REMARK INTER + INTRA:          -5.826
REMARK INTER:                  -5.785
REMARK INTRA:                  -0.041
REMARK UNBOUND:                -0.041
REMARK SMILES COc1ccccc1O
REMARK SMILES IDX 3 1 4 2 5 3 6 4 7 5 8 6 2 7 1 8 9 9
REMARK H PARENT 9 10
REMARK Flexibility Score: inf
ROOT
ATOM      1  C   UNL     1     -23.914  17.885  20.129  1.00  0.00     0.160 A 
ATOM      2  C   UNL     1     -23.273  18.196  18.913  1.00  0.00     0.050 A 
ATOM      3  C   UNL     1     -22.417  19.298  18.830  1.00  0.00     0.004 A 
ATOM      4  C   UNL     1     -22.193  20.097  19.952  1.00  0.00     0.004 A 
ATOM      5  C   UNL     1     -22.823  19.797  21.162  1.00  0.00     0.050 A 
ATOM      6  C   UNL     1     -23.683  18.693  21.253  1.00  0.00     0.157 A 
ENDROOT
BRANCH   1   7
ATOM      7  O   UNL     1     -24.781  16.788  20.259  1.00  0.00    -0.493 OA
ATOM      8  C   UNL     1     -24.403  15.433  20.038  1.00  0.00     0.278 C 
ENDBRANCH   1   7
BRANCH   6   9
ATOM      9  O   UNL     1     -24.312  18.392  22.460  1.00  0.00    -0.504 OA
ATOM     10  H   UNL     1     -24.236  17.475  22.884  1.00  0.00     0.293 HD
ENDBRANCH   6   9
TORSDOF 2
ENDMDL
MODEL 2
REMARK VINA RESULT:    -4.705      1.966      2.647
REMARK INTER + INTRA:          -5.158
REMARK INTER:                  -5.131
REMARK INTRA:                  -0.027
REMARK UNBOUND:                -0.041
REMARK SMILES COc1ccccc1O
REMARK SMILES IDX 3 1 4 2 5 3 6 4 7 5 8 6 2 7 1 8 9 9
REMARK H PARENT 9 10
REMARK Flexibility Score: inf
ROOT
ATOM      1  C   UNL     1     -23.714  18.281  19.307  1.00  0.00     0.160 A 
ATOM      2  C   UNL     1     -24.210  17.803  20.537  1.00  0.00     0.050 A 
ATOM      3  C   UNL     1     -23.891  18.462  21.728  1.00  0.00     0.004 A 
ATOM      4  C   UNL     1     -23.079  19.597  21.706  1.00  0.00     0.004 A 
ATOM      5  C   UNL     1     -22.583  20.078  20.492  1.00  0.00     0.050 A 
ATOM      6  C   UNL     1     -22.898  19.422  19.292  1.00  0.00     0.157 A 
ENDROOT
BRANCH   1   7
ATOM      7  O   UNL     1     -24.008  17.652  18.087  1.00  0.00    -0.493 OA
ATOM      8  C   UNL     1     -25.022  16.666  17.913  1.00  0.00     0.278 C 
ENDBRANCH   1   7
BRANCH   6   9
ATOM      9  O   UNL     1     -22.405  19.901  18.080  1.00  0.00    -0.504 OA
ATOM     10  H   UNL     1     -22.790  20.729  17.639  1.00  0.00     0.293 HD
ENDBRANCH   6   9
TORSDOF 2
ENDMDL
MODEL 3
REMARK VINA RESULT:    -4.570      2.344      4.250
REMARK INTER + INTRA:          -5.012
REMARK INTER:                  -4.985
REMARK INTRA:                  -0.027
REMARK UNBOUND:                -0.041
REMARK SMILES COc1ccccc1O
REMARK SMILES IDX 3 1 4 2 5 3 6 4 7 5 8 6 2 7 1 8 9 9
REMARK H PARENT 9 10
REMARK Flexibility Score: inf
ROOT
ATOM      1  C   UNL     1     -23.491  17.194  18.797  1.00  0.00     0.160 A 
ATOM      2  C   UNL     1     -24.749  16.865  18.251  1.00  0.00     0.050 A 
ATOM      3  C   UNL     1     -24.954  15.618  17.654  1.00  0.00     0.004 A 
ATOM      4  C   UNL     1     -23.913  14.690  17.594  1.00  0.00     0.004 A 
ATOM      5  C   UNL     1     -22.663  15.006  18.132  1.00  0.00     0.050 A 
ATOM      6  C   UNL     1     -22.449  16.256  18.733  1.00  0.00     0.157 A 
ENDROOT
BRANCH   1   7
ATOM      7  O   UNL     1     -23.240  18.433  19.406  1.00  0.00    -0.493 OA
ATOM      8  C   UNL     1     -22.794  19.595  18.714  1.00  0.00     0.278 C 
ENDBRANCH   1   7
BRANCH   6   9
ATOM      9  O   UNL     1     -21.203  16.572  19.270  1.00  0.00    -0.504 OA
ATOM     10  H   UNL     1     -20.755  15.979  19.959  1.00  0.00     0.293 HD
ENDBRANCH   6   9
TORSDOF 2
ENDMDL
MODEL 4
REMARK VINA RESULT:    -4.533      1.643      3.282
REMARK INTER + INTRA:          -4.972
REMARK INTER:                  -4.943
REMARK INTRA:                  -0.029
REMARK UNBOUND:                -0.041
REMARK SMILES COc1ccccc1O
REMARK SMILES IDX 3 1 4 2 5 3 6 4 7 5 8 6 2 7 1 8 9 9
REMARK H PARENT 9 10
REMARK Flexibility Score: inf
ROOT
ATOM      1  C   UNL     1     -23.634  18.106  19.702  1.00  0.00     0.160 A 
ATOM      2  C   UNL     1     -23.868  17.575  18.418  1.00  0.00     0.050 A 
ATOM      3  C   UNL     1     -24.926  16.687  18.204  1.00  0.00     0.004 A 
ATOM      4  C   UNL     1     -25.758  16.321  19.264  1.00  0.00     0.004 A 
ATOM      5  C   UNL     1     -25.535  16.842  20.540  1.00  0.00     0.050 A 
ATOM      6  C   UNL     1     -24.475  17.733  20.762  1.00  0.00     0.157 A 
ENDROOT
BRANCH   1   7
ATOM      7  O   UNL     1     -22.585  19.001  19.962  1.00  0.00    -0.493 OA
ATOM      8  C   UNL     1     -21.991  19.852  18.986  1.00  0.00     0.278 C 
ENDBRANCH   1   7
BRANCH   6   9
ATOM      9  O   UNL     1     -24.251  18.254  22.035  1.00  0.00    -0.504 OA
ATOM     10  H   UNL     1     -24.496  17.737  22.872  1.00  0.00     0.293 HD
ENDBRANCH   6   9
TORSDOF 2
ENDMDL
MODEL 5
REMARK VINA RESULT:    -4.365      1.384      2.320
REMARK INTER + INTRA:          -4.789
REMARK INTER:                  -4.749
REMARK INTRA:                  -0.040
REMARK UNBOUND:                -0.041
REMARK SMILES COc1ccccc1O
REMARK SMILES IDX 3 1 4 2 5 3 6 4 7 5 8 6 2 7 1 8 9 9
REMARK H PARENT 9 10
REMARK Flexibility Score: inf
ROOT
ATOM      1  C   UNL     1     -23.679  17.316  20.151  1.00  0.00     0.160 A 
ATOM      2  C   UNL     1     -24.238  18.362  20.914  1.00  0.00     0.050 A 
ATOM      3  C   UNL     1     -23.652  19.631  20.904  1.00  0.00     0.004 A 
ATOM      4  C   UNL     1     -22.509  19.869  20.140  1.00  0.00     0.004 A 
ATOM      5  C   UNL     1     -21.948  18.840  19.380  1.00  0.00     0.050 A 
ATOM      6  C   UNL     1     -22.530  17.564  19.385  1.00  0.00     0.157 A 
ENDROOT
BRANCH   1   7
ATOM      7  O   UNL     1     -24.234  16.027  20.130  1.00  0.00    -0.493 OA
ATOM      8  C   UNL     1     -25.565  15.730  19.719  1.00  0.00     0.278 C 
ENDBRANCH   1   7
BRANCH   6   9
ATOM      9  O   UNL     1     -21.972  16.535  18.627  1.00  0.00    -0.504 OA
ATOM     10  H   UNL     1     -21.443  16.723  17.783  1.00  0.00     0.293 HD
ENDBRANCH   6   9
TORSDOF 2
ENDMDL
MODEL 6
REMARK VINA RESULT:    -4.196      2.319      3.278
REMARK INTER + INTRA:          -4.605
REMARK INTER:                  -4.562
REMARK INTRA:                  -0.043
REMARK UNBOUND:                -0.041
REMARK SMILES COc1ccccc1O
REMARK SMILES IDX 3 1 4 2 5 3 6 4 7 5 8 6 2 7 1 8 9 9
REMARK H PARENT 9 10
REMARK Flexibility Score: inf
ROOT
ATOM      1  C   UNL     1     -24.075  15.894  19.145  1.00  0.00     0.160 A 
ATOM      2  C   UNL     1     -24.617  16.903  19.967  1.00  0.00     0.050 A 
ATOM      3  C   UNL     1     -23.844  18.013  20.321  1.00  0.00     0.004 A 
ATOM      4  C   UNL     1     -22.531  18.128  19.863  1.00  0.00     0.004 A 
ATOM      5  C   UNL     1     -21.986  17.133  19.048  1.00  0.00     0.050 A 
ATOM      6  C   UNL     1     -22.754  16.016  18.688  1.00  0.00     0.157 A 
ENDROOT
BRANCH   1   7
ATOM      7  O   UNL     1     -24.814  14.763  18.764  1.00  0.00    -0.493 OA
ATOM      8  C   UNL     1     -25.980  14.801  17.946  1.00  0.00     0.278 C 
ENDBRANCH   1   7
BRANCH   6   9
ATOM      9  O   UNL     1     -22.211  15.024  17.874  1.00  0.00    -0.504 OA
ATOM     10  H   UNL     1     -22.743  14.201  17.613  1.00  0.00     0.293 HD
ENDBRANCH   6   9
TORSDOF 2
ENDMDL
MODEL 7
REMARK VINA RESULT:    -4.175      1.368      1.904
REMARK INTER + INTRA:          -4.582
REMARK INTER:                  -4.538
REMARK INTRA:                  -0.044
REMARK UNBOUND:                -0.041
REMARK SMILES COc1ccccc1O
REMARK SMILES IDX 3 1 4 2 5 3 6 4 7 5 8 6 2 7 1 8 9 9
REMARK H PARENT 9 10
REMARK Flexibility Score: inf
ROOT
ATOM      1  C   UNL     1     -23.722  17.502  19.041  1.00  0.00     0.160 A 
ATOM      2  C   UNL     1     -22.622  18.370  18.891  1.00  0.00     0.050 A 
ATOM      3  C   UNL     1     -22.249  19.221  19.936  1.00  0.00     0.004 A 
ATOM      4  C   UNL     1     -22.966  19.215  21.134  1.00  0.00     0.004 A 
ATOM      5  C   UNL     1     -24.057  18.358  21.292  1.00  0.00     0.050 A 
ATOM      6  C   UNL     1     -24.438  17.502  20.248  1.00  0.00     0.157 A 
ENDROOT
BRANCH   1   7
ATOM      7  O   UNL     1     -24.132  16.631  18.019  1.00  0.00    -0.493 OA
ATOM      8  C   UNL     1     -23.538  15.364  17.755  1.00  0.00     0.278 C 
ENDBRANCH   1   7
BRANCH   6   9
ATOM      9  O   UNL     1     -25.527  16.646  20.404  1.00  0.00    -0.504 OA
ATOM     10  H   UNL     1     -25.424  15.639  20.344  1.00  0.00     0.293 HD
ENDBRANCH   6   9
TORSDOF 2
ENDMDL
MODEL 8
REMARK VINA RESULT:    -4.107      1.979      4.104
REMARK INTER + INTRA:          -4.508
REMARK INTER:                  -4.478
REMARK INTRA:                  -0.030
REMARK UNBOUND:                -0.041
REMARK SMILES COc1ccccc1O
REMARK SMILES IDX 3 1 4 2 5 3 6 4 7 5 8 6 2 7 1 8 9 9
REMARK H PARENT 9 10
REMARK Flexibility Score: inf
ROOT
ATOM      1  C   UNL     1     -24.524  16.591  19.466  1.00  0.00     0.160 A 
ATOM      2  C   UNL     1     -23.233  16.177  19.078  1.00  0.00     0.050 A 
ATOM      3  C   UNL     1     -23.068  15.296  18.005  1.00  0.00     0.004 A 
ATOM      4  C   UNL     1     -24.183  14.820  17.312  1.00  0.00     0.004 A 
ATOM      5  C   UNL     1     -25.465  15.225  17.689  1.00  0.00     0.050 A 
ATOM      6  C   UNL     1     -25.639  16.108  18.764  1.00  0.00     0.157 A 
ENDROOT
BRANCH   1   7
ATOM      7  O   UNL     1     -24.736  17.474  20.536  1.00  0.00    -0.493 OA
ATOM      8  C   UNL     1     -23.845  18.523  20.904  1.00  0.00     0.278 C 
ENDBRANCH   1   7
BRANCH   6   9
ATOM      9  O   UNL     1     -26.918  16.513  19.141  1.00  0.00    -0.504 OA
ATOM     10  H   UNL     1     -27.405  17.258  18.655  1.00  0.00     0.293 HD
ENDBRANCH   6   9
TORSDOF 2
ENDMDL
MODEL 9
REMARK VINA RESULT:    -3.851      1.513      1.915
REMARK INTER + INTRA:          -4.229
REMARK INTER:                  -4.202
REMARK INTRA:                  -0.027
REMARK UNBOUND:                -0.041
REMARK SMILES COc1ccccc1O
REMARK SMILES IDX 3 1 4 2 5 3 6 4 7 5 8 6 2 7 1 8 9 9
REMARK H PARENT 9 10
REMARK Flexibility Score: inf
ROOT
ATOM      1  C   UNL     1     -24.330  17.057  20.047  1.00  0.00     0.160 A 
ATOM      2  C   UNL     1     -23.600  16.112  19.298  1.00  0.00     0.050 A 
ATOM      3  C   UNL     1     -22.265  16.358  18.963  1.00  0.00     0.004 A 
ATOM      4  C   UNL     1     -21.648  17.543  19.368  1.00  0.00     0.004 A 
ATOM      5  C   UNL     1     -22.363  18.485  20.111  1.00  0.00     0.050 A 
ATOM      6  C   UNL     1     -23.702  18.245  20.451  1.00  0.00     0.157 A 
ENDROOT
BRANCH   1   7
ATOM      7  O   UNL     1     -25.671  16.852  20.406  1.00  0.00    -0.493 OA
ATOM      8  C   UNL     1     -26.525  15.881  19.810  1.00  0.00     0.278 C 
ENDBRANCH   1   7
BRANCH   6   9
ATOM      9  O   UNL     1     -24.417  19.185  21.192  1.00  0.00    -0.504 OA
ATOM     10  H   UNL     1     -25.426  19.253  21.132  1.00  0.00     0.293 HD
ENDBRANCH   6   9
TORSDOF 2
ENDMDL
