MODEL 1
REMARK VINA RESULT:    -3.176      0.000      0.000
REMARK INTER + INTRA:          -3.454
REMARK INTER:                  -3.454
REMARK INTRA:                   0.000
REMARK UNBOUND:                 0.000
REMARK SMILES [NH3+]CC(=O)[O-]
REMARK SMILES IDX 2 1 1 2 3 6 4 7 5 8
REMARK H PARENT 1 3 1 4 1 5
REMARK Flexibility Score: inf
ROOT
ATOM      1  C   UNL     1     135.865 122.495 130.883  1.00  0.00     0.312 C 
ENDROOT
BRANCH   1   2
ATOM      2  N   UNL     1     135.586 121.061 130.861  1.00  0.00    -0.353 N 
ATOM      3  H   UNL     1     134.665 120.867 131.318  1.00  0.00     0.344 HD
ATOM      4  H   UNL     1     136.344 120.540 131.360  1.00  0.00     0.344 HD
ATOM      5  H   UNL     1     135.548 120.735 129.869  1.00  0.00     0.344 HD
ENDBRANCH   1   2
BRANCH   1   6
ATOM      6  C   UNL     1     137.243 122.758 131.409  1.00  0.00     0.096 C 
ATOM      7  O   UNL     1     137.688 123.935 131.454  1.00  0.00    -0.544 OA
ATOM      8  O   UNL     1     138.051 121.699 131.801  1.00  0.00    -0.544 OA
ENDBRANCH   1   6
TORSDOF 2
ENDMDL
MODEL 2
REMARK VINA RESULT:    -2.754     11.883     12.398
REMARK INTER + INTRA:          -2.995
REMARK INTER:                  -2.995
REMARK INTRA:                   0.000
REMARK UNBOUND:                 0.000
REMARK SMILES [NH3+]CC(=O)[O-]
REMARK SMILES IDX 2 1 1 2 3 6 4 7 5 8
REMARK H PARENT 1 3 1 4 1 5
REMARK Flexibility Score: inf
ROOT
ATOM      1  C   UNL     1     134.398 134.461 133.216  1.00  0.00     0.312 C 
ENDROOT
BRANCH   1   2
ATOM      2  N   UNL     1     133.655 133.209 133.345  1.00  0.00    -0.353 N 
ATOM      3  H   UNL     1     134.067 132.481 132.716  1.00  0.00     0.344 HD
ATOM      4  H   UNL     1     132.650 133.361 133.098  1.00  0.00     0.344 HD
ATOM      5  H   UNL     1     133.714 132.876 134.334  1.00  0.00     0.344 HD
ENDBRANCH   1   2
BRANCH   1   6
ATOM      6  C   UNL     1     134.875 134.651 131.809  1.00  0.00     0.096 C 
ATOM      7  O   UNL     1     135.400 133.692 131.184  1.00  0.00    -0.544 OA
ATOM      8  O   UNL     1     134.786 135.900 131.208  1.00  0.00    -0.544 OA
ENDBRANCH   1   6
TORSDOF 2
ENDMDL
MODEL 3
REMARK VINA RESULT:    -2.745     12.628     12.963
REMARK INTER + INTRA:          -2.986
REMARK INTER:                  -2.986
REMARK INTRA:                   0.000
REMARK UNBOUND:                 0.000
REMARK SMILES [NH3+]CC(=O)[O-]
REMARK SMILES IDX 2 1 1 2 3 6 4 7 5 8
REMARK H PARENT 1 3 1 4 1 5
REMARK Flexibility Score: inf
ROOT
ATOM      1  C   UNL     1     134.802 133.936 131.834  1.00  0.00     0.312 C 
ENDROOT
BRANCH   1   2
ATOM      2  N   UNL     1     134.416 133.477 133.166  1.00  0.00    -0.353 N 
ATOM      3  H   UNL     1     133.717 132.702 133.090  1.00  0.00     0.344 HD
ATOM      4  H   UNL     1     134.007 134.269 133.714  1.00  0.00     0.344 HD
ATOM      5  H   UNL     1     135.264 133.122 133.665  1.00  0.00     0.344 HD
ENDBRANCH   1   2
BRANCH   1   6
ATOM      6  C   UNL     1     134.590 135.413 131.701  1.00  0.00     0.096 C 
ATOM      7  O   UNL     1     133.905 136.033 132.556  1.00  0.00    -0.544 OA
ATOM      8  O   UNL     1     135.107 136.094 130.607  1.00  0.00    -0.544 OA
ENDBRANCH   1   6
TORSDOF 2
ENDMDL
MODEL 4
REMARK VINA RESULT:    -2.734     17.495     17.833
REMARK INTER + INTRA:          -2.974
REMARK INTER:                  -2.974
REMARK INTRA:                   0.000
REMARK UNBOUND:                 0.000
REMARK SMILES [NH3+]CC(=O)[O-]
REMARK SMILES IDX 2 1 1 2 3 6 4 7 5 8
REMARK H PARENT 1 3 1 4 1 5
REMARK Flexibility Score: inf
ROOT
ATOM      1  C   UNL     1     118.606 123.573 130.513  1.00  0.00     0.312 C 
ENDROOT
BRANCH   1   2
ATOM      2  N   UNL     1     118.810 124.893 131.105  1.00  0.00    -0.353 N 
ATOM      3  H   UNL     1     118.434 125.634 130.468  1.00  0.00     0.344 HD
ATOM      4  H   UNL     1     119.829 125.057 131.274  1.00  0.00     0.344 HD
ATOM      5  H   UNL     1     118.303 124.941 132.017  1.00  0.00     0.344 HD
ENDBRANCH   1   2
BRANCH   1   6
ATOM      6  C   UNL     1     119.303 122.519 131.317  1.00  0.00     0.096 C 
ATOM      7  O   UNL     1     118.740 121.414 131.535  1.00  0.00    -0.544 OA
ATOM      8  O   UNL     1     120.552 122.777 131.867  1.00  0.00    -0.544 OA
ENDBRANCH   1   6
TORSDOF 2
ENDMDL
MODEL 5
REMARK VINA RESULT:    -2.708      7.395      7.778
REMARK INTER + INTRA:          -2.945
REMARK INTER:                  -2.945
REMARK INTRA:                   0.000
REMARK UNBOUND:                 0.000
REMARK SMILES [NH3+]CC(=O)[O-]
REMARK SMILES IDX 2 1 1 2 3 6 4 7 5 8
REMARK H PARENT 1 3 1 4 1 5
REMARK Flexibility Score: inf
ROOT
ATOM      1  C   UNL     1     131.500 118.296 132.101  1.00  0.00     0.312 C 
ENDROOT
BRANCH   1   2
ATOM      2  N   UNL     1     132.448 118.745 133.119  1.00  0.00    -0.353 N 
ATOM      3  H   UNL     1     133.209 119.310 132.676  1.00  0.00     0.344 HD
ATOM      4  H   UNL     1     132.861 117.920 133.613  1.00  0.00     0.344 HD
ATOM      5  H   UNL     1     131.945 119.340 133.816  1.00  0.00     0.344 HD
ENDBRANCH   1   2
BRANCH   1   6
ATOM      6  C   UNL     1     130.117 118.776 132.417  1.00  0.00     0.096 C 
ATOM      7  O   UNL     1     129.900 119.432 133.469  1.00  0.00    -0.544 OA
ATOM      8  O   UNL     1     129.061 118.454 131.575  1.00  0.00    -0.544 OA
ENDBRANCH   1   6
TORSDOF 2
ENDMDL
MODEL 6
REMARK VINA RESULT:    -2.685     12.512     12.922
REMARK INTER + INTRA:          -2.921
REMARK INTER:                  -2.921
REMARK INTRA:                   0.000
REMARK UNBOUND:                 0.000
REMARK SMILES [NH3+]CC(=O)[O-]
REMARK SMILES IDX 2 1 1 2 3 6 4 7 5 8
REMARK H PARENT 1 3 1 4 1 5
REMARK Flexibility Score: inf
ROOT
ATOM      1  C   UNL     1     134.346 135.830 132.275  1.00  0.00     0.312 C 
ENDROOT
BRANCH   1   2
ATOM      2  N   UNL     1     133.224 136.366 133.042  1.00  0.00    -0.353 N 
ATOM      3  H   UNL     1     133.069 135.791 133.902  1.00  0.00     0.344 HD
ATOM      4  H   UNL     1     132.356 136.365 132.456  1.00  0.00     0.344 HD
ATOM      5  H   UNL     1     133.441 137.348 133.325  1.00  0.00     0.344 HD
ENDBRANCH   1   2
BRANCH   1   6
ATOM      6  C   UNL     1     134.473 134.352 132.485  1.00  0.00     0.096 C 
ATOM      7  O   UNL     1     133.986 133.816 133.515  1.00  0.00    -0.544 OA
ATOM      8  O   UNL     1     135.173 133.578 131.570  1.00  0.00    -0.544 OA
ENDBRANCH   1   6
TORSDOF 2
ENDMDL
MODEL 7
REMARK VINA RESULT:    -2.564     13.296     13.738
REMARK INTER + INTRA:          -2.789
REMARK INTER:                  -2.789
REMARK INTRA:                   0.000
REMARK UNBOUND:                 0.000
REMARK SMILES [NH3+]CC(=O)[O-]
REMARK SMILES IDX 2 1 1 2 3 6 4 7 5 8
REMARK H PARENT 1 3 1 4 1 5
REMARK Flexibility Score: inf
ROOT
ATOM      1  C   UNL     1     136.693 136.494 129.811  1.00  0.00     0.312 C 
ENDROOT
BRANCH   1   2
ATOM      2  N   UNL     1     136.253 136.598 128.421  1.00  0.00    -0.353 N 
ATOM      3  H   UNL     1     135.373 137.161 128.365  1.00  0.00     0.344 HD
ATOM      4  H   UNL     1     136.089 135.644 128.025  1.00  0.00     0.344 HD
ATOM      5  H   UNL     1     136.997 137.075 127.862  1.00  0.00     0.344 HD
ENDBRANCH   1   2
BRANCH   1   6
ATOM      6  C   UNL     1     135.707 135.712 130.621  1.00  0.00     0.096 C 
ATOM      7  O   UNL     1     134.683 136.276 131.089  1.00  0.00    -0.544 OA
ATOM      8  O   UNL     1     135.944 134.372 130.902  1.00  0.00    -0.544 OA
ENDBRANCH   1   6
TORSDOF 2
ENDMDL
MODEL 8
REMARK VINA RESULT:    -2.506     14.252     14.585
REMARK INTER + INTRA:          -2.726
REMARK INTER:                  -2.726
REMARK INTRA:                   0.000
REMARK UNBOUND:                 0.000
REMARK SMILES [NH3+]CC(=O)[O-]
REMARK SMILES IDX 2 1 1 2 3 6 4 7 5 8
REMARK H PARENT 1 3 1 4 1 5
REMARK Flexibility Score: inf
ROOT
ATOM      1  C   UNL     1     136.884 136.410 129.755  1.00  0.00     0.312 C 
ENDROOT
BRANCH   1   2
ATOM      2  N   UNL     1     136.263 136.606 128.447  1.00  0.00    -0.353 N 
ATOM      3  H   UNL     1     135.583 135.834 128.253  1.00  0.00     0.344 HD
ATOM      4  H   UNL     1     136.996 136.627 127.701  1.00  0.00     0.344 HD
ATOM      5  H   UNL     1     135.751 137.517 128.444  1.00  0.00     0.344 HD
ENDBRANCH   1   2
BRANCH   1   6
ATOM      6  C   UNL     1     135.936 136.781 130.853  1.00  0.00     0.096 C 
ATOM      7  O   UNL     1     134.804 136.234 130.921  1.00  0.00    -0.544 OA
ATOM      8  O   UNL     1     136.283 137.765 131.768  1.00  0.00    -0.544 OA
ENDBRANCH   1   6
TORSDOF 2
ENDMDL
MODEL 9
REMARK VINA RESULT:    -1.721      7.785      8.191
REMARK INTER + INTRA:          -1.872
REMARK INTER:                  -1.872
REMARK INTRA:                   0.000
REMARK UNBOUND:                 0.000
REMARK SMILES [NH3+]CC(=O)[O-]
REMARK SMILES IDX 2 1 1 2 3 6 4 7 5 8
REMARK H PARENT 1 3 1 4 1 5
REMARK Flexibility Score: inf
ROOT
ATOM      1  C   UNL     1     130.063 118.614 133.338  1.00  0.00     0.312 C 
ENDROOT
BRANCH   1   2
ATOM      2  N   UNL     1     129.574 119.981 133.500  1.00  0.00    -0.353 N 
ATOM      3  H   UNL     1     130.311 120.663 133.206  1.00  0.00     0.344 HD
ATOM      4  H   UNL     1     129.311 120.152 134.498  1.00  0.00     0.344 HD
ATOM      5  H   UNL     1     128.729 120.116 132.899  1.00  0.00     0.344 HD
ENDBRANCH   1   2
BRANCH   1   6
ATOM      6  C   UNL     1     130.150 118.251 131.887  1.00  0.00     0.096 C 
ATOM      7  O   UNL     1     129.112 118.240 131.175  1.00  0.00    -0.544 OA
ATOM      8  O   UNL     1     131.368 117.875 131.337  1.00  0.00    -0.544 OA
ENDBRANCH   1   6
TORSDOF 2
ENDMDL
