MODEL 1
REMARK VINA RESULT:    -0.856      0.000      0.000
REMARK INTER + INTRA:          -1.441
REMARK INTER:                  -1.607
REMARK INTRA:                   0.166
REMARK UNBOUND:                 0.166
REMARK SMILES O=C([O-])CCCCCCCCCCCCCCC(=O)[O-]
REMARK SMILES IDX 10 1 9 2 8 3 7 4 6 5 5 6 4 7 2 8 1 9 3 10 11 11 12 12 13 13
REMARK SMILES IDX 14 14 15 15 16 16 17 17 18 18 19 19 20 20
REMARK H PARENT
REMARK Flexibility Score: inf
ROOT
ATOM      1  C   UNL     1       3.315  43.208   9.887  1.00  0.00     0.000 C 
ENDROOT
BRANCH   1   2
ATOM      2  C   UNL     1       1.847  43.262  10.344  1.00  0.00     0.000 C 
BRANCH   2   3
ATOM      3  C   UNL     1       1.705  43.616  11.834  1.00  0.00     0.000 C 
BRANCH   3   4
ATOM      4  C   UNL     1       0.246  43.589  12.314  1.00  0.00     0.000 C 
BRANCH   4   5
ATOM      5  C   UNL     1       0.129  44.147  13.740  1.00  0.00     0.000 C 
BRANCH   5   6
ATOM      6  C   UNL     1      -1.052  45.119  13.901  1.00  0.00     0.006 C 
BRANCH   6   7
ATOM      7  C   UNL     1      -2.187  44.535  14.752  1.00  0.00     0.053 C 
BRANCH   7   8
ATOM      8  C   UNL     1      -2.069  43.045  14.825  1.00  0.00     0.041 C 
ATOM      9  O   UNL     1      -2.890  42.312  14.212  1.00  0.00    -0.550 OA
ATOM     10  O   UNL     1      -1.023  42.465  15.532  1.00  0.00    -0.550 OA
ENDBRANCH   7   8
ENDBRANCH   6   7
ENDBRANCH   5   6
ENDBRANCH   4   5
ENDBRANCH   3   4
ENDBRANCH   2   3
ENDBRANCH   1   2
BRANCH   1  11
ATOM     11  C   UNL     1       4.245  44.062  10.768  1.00  0.00     0.000 C 
BRANCH  11  12
ATOM     12  C   UNL     1       5.397  44.765  10.020  1.00  0.00     0.000 C 
BRANCH  12  13
ATOM     13  C   UNL     1       6.714  43.971   9.957  1.00  0.00     0.000 C 
BRANCH  13  14
ATOM     14  C   UNL     1       6.507  42.458  10.119  1.00  0.00     0.000 C 
BRANCH  14  15
ATOM     15  C   UNL     1       7.623  41.838  10.974  1.00  0.00     0.000 C 
BRANCH  15  16
ATOM     16  C   UNL     1       7.982  42.687  12.205  1.00  0.00     0.006 C 
BRANCH  16  17
ATOM     17  C   UNL     1       7.405  42.149  13.527  1.00  0.00     0.053 C 
BRANCH  17  18
ATOM     18  C   UNL     1       6.125  42.824  13.917  1.00  0.00     0.041 C 
ATOM     19  O   UNL     1       5.360  42.294  14.766  1.00  0.00    -0.550 OA
ATOM     20  O   UNL     1       5.759  44.022  13.317  1.00  0.00    -0.550 OA
ENDBRANCH  17  18
ENDBRANCH  16  17
ENDBRANCH  15  16
ENDBRANCH  14  15
ENDBRANCH  13  14
ENDBRANCH  12  13
ENDBRANCH  11  12
ENDBRANCH   1  11
TORSDOF 15
ENDMDL
MODEL 2
REMARK VINA RESULT:    -0.402      1.586      2.427
REMARK INTER + INTRA:          -0.589
REMARK INTER:                  -1.452
REMARK INTRA:                   0.863
REMARK UNBOUND:                 0.166
REMARK SMILES O=C([O-])CCCCCCCCCCCCCCC(=O)[O-]
REMARK SMILES IDX 10 1 9 2 8 3 7 4 6 5 5 6 4 7 2 8 1 9 3 10 11 11 12 12 13 13
REMARK SMILES IDX 14 14 15 15 16 16 17 17 18 18 19 19 20 20
REMARK H PARENT
REMARK Flexibility Score: inf
ROOT
ATOM      1  C   UNL     1       1.833  43.249  10.768  1.00  0.00     0.000 C 
ENDROOT
BRANCH   1   2
ATOM      2  C   UNL     1       1.897  44.023  12.096  1.00  0.00     0.000 C 
BRANCH   2   3
ATOM      3  C   UNL     1       0.568  43.978  12.870  1.00  0.00     0.000 C 
BRANCH   3   4
ATOM      4  C   UNL     1       0.433  45.125  13.883  1.00  0.00     0.000 C 
BRANCH   4   5
ATOM      5  C   UNL     1      -0.644  44.805  14.930  1.00  0.00     0.000 C 
BRANCH   5   6
ATOM      6  C   UNL     1      -2.071  44.964  14.380  1.00  0.00     0.006 C 
BRANCH   6   7
ATOM      7  C   UNL     1      -3.080  44.042  15.078  1.00  0.00     0.053 C 
BRANCH   7   8
ATOM      8  C   UNL     1      -2.776  42.610  14.771  1.00  0.00     0.041 C 
ATOM      9  O   UNL     1      -1.586  42.239  14.589  1.00  0.00    -0.550 OA
ATOM     10  O   UNL     1      -3.803  41.674  14.732  1.00  0.00    -0.550 OA
ENDBRANCH   7   8
ENDBRANCH   6   7
ENDBRANCH   5   6
ENDBRANCH   4   5
ENDBRANCH   3   4
ENDBRANCH   2   3
ENDBRANCH   1   2
BRANCH   1  11
ATOM     11  C   UNL     1       3.112  43.405   9.925  1.00  0.00     0.000 C 
BRANCH  11  12
ATOM     12  C   UNL     1       3.797  44.784  10.017  1.00  0.00     0.000 C 
BRANCH  12  13
ATOM     13  C   UNL     1       4.397  45.124  11.392  1.00  0.00     0.000 C 
BRANCH  13  14
ATOM     14  C   UNL     1       5.930  45.034  11.413  1.00  0.00     0.000 C 
BRANCH  14  15
ATOM     15  C   UNL     1       6.503  45.060   9.989  1.00  0.00     0.000 C 
BRANCH  15  16
ATOM     16  C   UNL     1       7.884  44.390   9.881  1.00  0.00     0.006 C 
BRANCH  16  17
ATOM     17  C   UNL     1       8.352  43.708  11.179  1.00  0.00     0.053 C 
BRANCH  17  18
ATOM     18  C   UNL     1       7.690  42.383  11.409  1.00  0.00     0.041 C 
ATOM     19  O   UNL     1       7.827  41.786  12.509  1.00  0.00    -0.550 OA
ATOM     20  O   UNL     1       6.948  41.791  10.394  1.00  0.00    -0.550 OA
ENDBRANCH  17  18
ENDBRANCH  16  17
ENDBRANCH  15  16
ENDBRANCH  14  15
ENDBRANCH  13  14
ENDBRANCH  12  13
ENDBRANCH  11  12
ENDBRANCH   1  11
TORSDOF 15
ENDMDL
MODEL 3
REMARK VINA RESULT:    -0.165      1.595      2.480
REMARK INTER + INTRA:          -0.144
REMARK INTER:                   0.766
REMARK INTRA:                  -0.910
REMARK UNBOUND:                 0.166
REMARK SMILES O=C([O-])CCCCCCCCCCCCCCC(=O)[O-]
REMARK SMILES IDX 10 1 9 2 8 3 7 4 6 5 5 6 4 7 2 8 1 9 3 10 11 11 12 12 13 13
REMARK SMILES IDX 14 14 15 15 16 16 17 17 18 18 19 19 20 20
REMARK H PARENT
REMARK Flexibility Score: inf
ROOT
ATOM      1  C   UNL     1       1.143  42.558  10.586  1.00  0.00     0.000 C 
ENDROOT
BRANCH   1   2
ATOM      2  C   UNL     1       0.562  43.222  11.847  1.00  0.00     0.000 C 
BRANCH   2   3
ATOM      3  C   UNL     1       1.573  44.146  12.547  1.00  0.00     0.000 C 
BRANCH   3   4
ATOM      4  C   UNL     1       0.904  45.125  13.524  1.00  0.00     0.000 C 
BRANCH   4   5
ATOM      5  C   UNL     1      -0.601  44.840  13.640  1.00  0.00     0.000 C 
BRANCH   5   6
ATOM      6  C   UNL     1      -0.952  44.005  14.882  1.00  0.00     0.006 C 
BRANCH   6   7
ATOM      7  C   UNL     1      -1.542  42.634  14.527  1.00  0.00     0.053 C 
BRANCH   7   8
ATOM      8  C   UNL     1      -3.014  42.616  14.795  1.00  0.00     0.041 C 
ATOM      9  O   UNL     1      -3.620  43.683  15.081  1.00  0.00    -0.550 OA
ATOM     10  O   UNL     1      -3.727  41.428  14.682  1.00  0.00    -0.550 OA
ENDBRANCH   7   8
ENDBRANCH   6   7
ENDBRANCH   5   6
ENDBRANCH   4   5
ENDBRANCH   3   4
ENDBRANCH   2   3
ENDBRANCH   1   2
BRANCH   1  11
ATOM     11  C   UNL     1       2.213  43.423   9.897  1.00  0.00     0.000 C 
BRANCH  11  12
ATOM     12  C   UNL     1       3.634  42.824   9.881  1.00  0.00     0.000 C 
BRANCH  12  13
ATOM     13  C   UNL     1       4.769  43.829  10.149  1.00  0.00     0.000 C 
BRANCH  13  14
ATOM     14  C   UNL     1       4.782  44.341  11.596  1.00  0.00     0.000 C 
BRANCH  14  15
ATOM     15  C   UNL     1       6.161  44.909  11.967  1.00  0.00     0.000 C 
BRANCH  15  16
ATOM     16  C   UNL     1       7.223  44.672  10.879  1.00  0.00     0.006 C 
BRANCH  16  17
ATOM     17  C   UNL     1       8.315  43.664  11.279  1.00  0.00     0.053 C 
BRANCH  17  18
ATOM     18  C   UNL     1       7.756  42.329  11.671  1.00  0.00     0.041 C 
ATOM     19  O   UNL     1       7.483  41.471  10.790  1.00  0.00    -0.550 OA
ATOM     20  O   UNL     1       7.503  42.046  13.007  1.00  0.00    -0.550 OA
ENDBRANCH  17  18
ENDBRANCH  16  17
ENDBRANCH  15  16
ENDBRANCH  14  15
ENDBRANCH  13  14
ENDBRANCH  12  13
ENDBRANCH  11  12
ENDBRANCH   1  11
TORSDOF 15
ENDMDL
MODEL 4
REMARK VINA RESULT:     1.214      1.749      7.524
REMARK INTER + INTRA:           2.445
REMARK INTER:                   1.660
REMARK INTRA:                   0.785
REMARK UNBOUND:                 0.166
REMARK SMILES O=C([O-])CCCCCCCCCCCCCCC(=O)[O-]
REMARK SMILES IDX 10 1 9 2 8 3 7 4 6 5 5 6 4 7 2 8 1 9 3 10 11 11 12 12 13 13
REMARK SMILES IDX 14 14 15 15 16 16 17 17 18 18 19 19 20 20
REMARK H PARENT
REMARK Flexibility Score: inf
ROOT
ATOM      1  C   UNL     1       3.636  44.791  12.196  1.00  0.00     0.000 C 
ENDROOT
BRANCH   1   2
ATOM      2  C   UNL     1       5.036  45.030  11.605  1.00  0.00     0.000 C 
BRANCH   2   3
ATOM      3  C   UNL     1       5.142  44.581  10.137  1.00  0.00     0.000 C 
BRANCH   3   4
ATOM      4  C   UNL     1       6.362  43.684   9.878  1.00  0.00     0.000 C 
BRANCH   4   5
ATOM      5  C   UNL     1       7.662  44.499   9.931  1.00  0.00     0.000 C 
BRANCH   5   6
ATOM      6  C   UNL     1       8.644  43.982  10.996  1.00  0.00     0.006 C 
BRANCH   6   7
ATOM      7  C   UNL     1       7.948  43.614  12.313  1.00  0.00     0.053 C 
BRANCH   7   8
ATOM      8  C   UNL     1       7.856  42.128  12.455  1.00  0.00     0.041 C 
ATOM      9  O   UNL     1       7.985  41.385  11.446  1.00  0.00    -0.550 OA
ATOM     10  O   UNL     1       7.676  41.559  13.710  1.00  0.00    -0.550 OA
ENDBRANCH   7   8
ENDBRANCH   6   7
ENDBRANCH   5   6
ENDBRANCH   4   5
ENDBRANCH   3   4
ENDBRANCH   2   3
ENDBRANCH   1   2
BRANCH   1  11
ATOM     11  C   UNL     1       3.118  43.364  11.941  1.00  0.00     0.000 C 
BRANCH  11  12
ATOM     12  C   UNL     1       2.636  43.086  10.502  1.00  0.00     0.000 C 
BRANCH  12  13
ATOM     13  C   UNL     1       1.643  41.918  10.362  1.00  0.00     0.000 C 
BRANCH  13  14
ATOM     14  C   UNL     1       0.198  42.320  10.690  1.00  0.00     0.000 C 
BRANCH  14  15
ATOM     15  C   UNL     1       0.147  43.710  11.341  1.00  0.00     0.000 C 
BRANCH  15  16
ATOM     16  C   UNL     1       0.172  43.659  12.878  1.00  0.00     0.006 C 
BRANCH  16  17
ATOM     17  C   UNL     1      -1.220  43.548  13.524  1.00  0.00     0.053 C 
BRANCH  17  18
ATOM     18  C   UNL     1      -1.421  44.527  14.641  1.00  0.00     0.041 C 
ATOM     19  O   UNL     1      -2.583  44.837  15.013  1.00  0.00    -0.550 OA
ATOM     20  O   UNL     1      -0.324  45.125  15.247  1.00  0.00    -0.550 OA
ENDBRANCH  17  18
ENDBRANCH  16  17
ENDBRANCH  15  16
ENDBRANCH  14  15
ENDBRANCH  13  14
ENDBRANCH  12  13
ENDBRANCH  11  12
ENDBRANCH   1  11
TORSDOF 15
ENDMDL
MODEL 5
REMARK VINA RESULT:     1.763      1.661      8.094
REMARK INTER + INTRA:           3.474
REMARK INTER:                   3.141
REMARK INTRA:                   0.333
REMARK UNBOUND:                 0.166
REMARK SMILES O=C([O-])CCCCCCCCCCCCCCC(=O)[O-]
REMARK SMILES IDX 10 1 9 2 8 3 7 4 6 5 5 6 4 7 2 8 1 9 3 10 11 11 12 12 13 13
REMARK SMILES IDX 14 14 15 15 16 16 17 17 18 18 19 19 20 20
REMARK H PARENT
REMARK Flexibility Score: inf
ROOT
ATOM      1  C   UNL     1       2.459  42.912  10.843  1.00  0.00     0.000 C 
ENDROOT
BRANCH   1   2
ATOM      2  C   UNL     1       3.637  43.237   9.909  1.00  0.00     0.000 C 
BRANCH   2   3
ATOM      3  C   UNL     1       4.224  44.636  10.163  1.00  0.00     0.000 C 
BRANCH   3   4
ATOM      4  C   UNL     1       4.670  44.836  11.619  1.00  0.00     0.000 C 
BRANCH   4   5
ATOM      5  C   UNL     1       6.191  45.037  11.702  1.00  0.00     0.000 C 
BRANCH   5   6
ATOM      6  C   UNL     1       6.867  45.017  10.322  1.00  0.00     0.006 C 
BRANCH   6   7
ATOM      7  C   UNL     1       8.006  43.993  10.236  1.00  0.00     0.053 C 
BRANCH   7   8
ATOM      8  C   UNL     1       7.702  42.803  11.089  1.00  0.00     0.041 C 
ATOM      9  O   UNL     1       7.184  41.773  10.581  1.00  0.00    -0.550 OA
ATOM     10  O   UNL     1       8.034  42.811  12.439  1.00  0.00    -0.550 OA
ENDBRANCH   7   8
ENDBRANCH   6   7
ENDBRANCH   5   6
ENDBRANCH   4   5
ENDBRANCH   3   4
ENDBRANCH   2   3
ENDBRANCH   1   2
BRANCH   1  11
ATOM     11  C   UNL     1       2.044  44.109  11.717  1.00  0.00     0.000 C 
BRANCH  11  12
ATOM     12  C   UNL     1       0.716  43.937  12.482  1.00  0.00     0.000 C 
BRANCH  12  13
ATOM     13  C   UNL     1       0.438  45.005  13.555  1.00  0.00     0.000 C 
BRANCH  13  14
ATOM     14  C   UNL     1      -1.052  45.125  13.907  1.00  0.00     0.000 C 
BRANCH  14  15
ATOM     15  C   UNL     1      -1.401  44.260  15.127  1.00  0.00     0.000 C 
BRANCH  15  16
ATOM     16  C   UNL     1      -2.915  44.057  15.311  1.00  0.00     0.006 C 
BRANCH  16  17
ATOM     17  C   UNL     1      -3.456  42.769  14.665  1.00  0.00     0.053 C 
BRANCH  17  18
ATOM     18  C   UNL     1      -2.396  41.728  14.470  1.00  0.00     0.041 C 
ATOM     19  O   UNL     1      -1.897  41.135  15.462  1.00  0.00    -0.550 OA
ATOM     20  O   UNL     1      -1.933  41.437  13.193  1.00  0.00    -0.550 OA
ENDBRANCH  17  18
ENDBRANCH  16  17
ENDBRANCH  15  16
ENDBRANCH  14  15
ENDBRANCH  13  14
ENDBRANCH  12  13
ENDBRANCH  11  12
ENDBRANCH   1  11
TORSDOF 15
ENDMDL
MODEL 6
REMARK VINA RESULT:     1.877      2.952      4.889
REMARK INTER + INTRA:           3.690
REMARK INTER:                   4.002
REMARK INTRA:                  -0.312
REMARK UNBOUND:                 0.166
REMARK SMILES O=C([O-])CCCCCCCCCCCCCCC(=O)[O-]
REMARK SMILES IDX 10 1 9 2 8 3 7 4 6 5 5 6 4 7 2 8 1 9 3 10 11 11 12 12 13 13
REMARK SMILES IDX 14 14 15 15 16 16 17 17 18 18 19 19 20 20
REMARK H PARENT
REMARK Flexibility Score: inf
ROOT
ATOM      1  C   UNL     1       5.724  42.156  13.417  1.00  0.00     0.000 C 
ENDROOT
BRANCH   1   2
ATOM      2  C   UNL     1       5.038  43.522  13.588  1.00  0.00     0.000 C 
BRANCH   2   3
ATOM      3  C   UNL     1       5.788  44.654  12.865  1.00  0.00     0.000 C 
BRANCH   3   4
ATOM      4  C   UNL     1       5.074  45.116  11.585  1.00  0.00     0.000 C 
BRANCH   4   5
ATOM      5  C   UNL     1       5.007  43.978  10.555  1.00  0.00     0.000 C 
BRANCH   5   6
ATOM      6  C   UNL     1       3.624  43.308  10.502  1.00  0.00     0.006 C 
BRANCH   6   7
ATOM      7  C   UNL     1       2.514  44.196  11.079  1.00  0.00     0.053 C 
BRANCH   7   8
ATOM      8  C   UNL     1       1.282  43.388  11.334  1.00  0.00     0.041 C 
ATOM      9  O   UNL     1       0.566  43.624  12.343  1.00  0.00    -0.550 OA
ATOM     10  O   UNL     1       0.896  42.403  10.432  1.00  0.00    -0.550 OA
ENDBRANCH   7   8
ENDBRANCH   6   7
ENDBRANCH   5   6
ENDBRANCH   4   5
ENDBRANCH   3   4
ENDBRANCH   2   3
ENDBRANCH   1   2
BRANCH   1  11
ATOM     11  C   UNL     1       7.209  42.180  13.818  1.00  0.00     0.000 C 
BRANCH  11  12
ATOM     12  C   UNL     1       8.208  41.980  12.660  1.00  0.00     0.000 C 
BRANCH  12  13
ATOM     13  C   UNL     1       8.601  43.264  11.909  1.00  0.00     0.000 C 
BRANCH  13  14
ATOM     14  C   UNL     1       8.325  43.182  10.400  1.00  0.00     0.000 C 
BRANCH  14  15
ATOM     15  C   UNL     1       7.047  42.378  10.117  1.00  0.00     0.000 C 
BRANCH  15  16
ATOM     16  C   UNL     1       7.315  40.883   9.875  1.00  0.00     0.006 C 
BRANCH  16  17
ATOM     17  C   UNL     1       6.058  39.999   9.959  1.00  0.00     0.053 C 
BRANCH  17  18
ATOM     18  C   UNL     1       6.372  38.536   9.889  1.00  0.00     0.041 C 
ATOM     19  O   UNL     1       5.443  37.686   9.875  1.00  0.00    -0.550 OA
ATOM     20  O   UNL     1       7.693  38.108   9.875  1.00  0.00    -0.550 OA
ENDBRANCH  17  18
ENDBRANCH  16  17
ENDBRANCH  15  16
ENDBRANCH  14  15
ENDBRANCH  13  14
ENDBRANCH  12  13
ENDBRANCH  11  12
ENDBRANCH   1  11
TORSDOF 15
ENDMDL
