MODEL 1
REMARK VINA RESULT:    -4.101      0.000      0.000
REMARK INTER + INTRA:         -15.381
REMARK INTER:                 -10.334
REMARK INTRA:                  -5.047
REMARK UNBOUND:                -5.047
REMARK SMILES CCCCCCCCCCCCCCCCCCCCCCCCCCCC(=O)[O-]
REMARK SMILES IDX 15 1 16 2 17 3 18 4 19 5 20 6 21 7 22 8 23 9 24 10 25 11
REMARK SMILES IDX 26 12 27 13 28 14 29 15 30 16 14 17 13 18 12 19 11 20 10 21
REMARK SMILES IDX 9 22 8 23 7 24 6 25 5 26 4 27 3 28 2 29 1 30
REMARK H PARENT
REMARK Flexibility Score: inf
ROOT
ATOM      1  C   UNL     1      30.213   9.664  27.722  1.00  0.00     0.000 C 
ENDROOT
BRANCH   1   2
ATOM      2  C   UNL     1      31.636   9.210  28.093  1.00  0.00     0.000 C 
BRANCH   2   3
ATOM      3  C   UNL     1      31.714   8.025  29.078  1.00  0.00     0.000 C 
BRANCH   3   4
ATOM      4  C   UNL     1      30.387   7.285  29.326  1.00  0.00     0.000 C 
BRANCH   4   5
ATOM      5  C   UNL     1      30.342   6.580  30.692  1.00  0.00     0.000 C 
BRANCH   5   6
ATOM      6  C   UNL     1      31.477   7.021  31.632  1.00  0.00     0.000 C 
BRANCH   6   7
ATOM      7  C   UNL     1      31.356   6.537  33.092  1.00  0.00     0.000 C 
BRANCH   7   8
ATOM      8  C   UNL     1      31.273   7.652  34.151  1.00  0.00     0.000 C 
BRANCH   8   9
ATOM      9  C   UNL     1      32.657   8.106  34.648  1.00  0.00     0.000 C 
BRANCH   9  10
ATOM     10  C   UNL     1      33.459   6.952  35.275  1.00  0.00     0.000 C 
BRANCH  10  11
ATOM     11  C   UNL     1      34.855   6.804  34.647  1.00  0.00     0.000 C 
BRANCH  11  12
ATOM     12  C   UNL     1      35.075   7.759  33.463  1.00  0.00     0.006 C 
BRANCH  12  13
ATOM     13  C   UNL     1      35.297   7.021  32.135  1.00  0.00     0.053 C 
BRANCH  13  14
ATOM     14  C   UNL     1      36.628   7.381  31.551  1.00  0.00     0.041 C 
ATOM     15  O   UNL     1      36.704   8.210  30.604  1.00  0.00    -0.550 OA
ATOM     16  O   UNL     1      37.784   6.780  32.034  1.00  0.00    -0.550 OA
ENDBRANCH  13  14
ENDBRANCH  12  13
ENDBRANCH  11  12
ENDBRANCH  10  11
ENDBRANCH   9  10
ENDBRANCH   8   9
ENDBRANCH   7   8
ENDBRANCH   6   7
ENDBRANCH   5   6
ENDBRANCH   4   5
ENDBRANCH   3   4
ENDBRANCH   2   3
ENDBRANCH   1   2
BRANCH   1  17
ATOM     17  C   UNL     1      29.939  11.128  28.102  1.00  0.00     0.000 C 
BRANCH  17  18
ATOM     18  C   UNL     1      28.437  11.443  28.225  1.00  0.00     0.000 C 
BRANCH  18  19
ATOM     19  C   UNL     1      27.898  11.545  29.667  1.00  0.00     0.000 C 
BRANCH  19  20
ATOM     20  C   UNL     1      28.741  12.404  30.627  1.00  0.00     0.000 C 
BRANCH  20  21
ATOM     21  C   UNL     1      29.149  11.650  31.903  1.00  0.00     0.000 C 
BRANCH  21  22
ATOM     22  C   UNL     1      30.058  10.441  31.617  1.00  0.00    -0.000 C 
BRANCH  22  23
ATOM     23  C   UNL     1      31.511  10.579  32.115  1.00  0.00    -0.000 C 
BRANCH  23  24
ATOM     24  C   UNL     1      32.516  11.099  31.072  1.00  0.00    -0.000 C 
BRANCH  24  25
ATOM     25  C   UNL     1      33.868  10.374  31.133  1.00  0.00    -0.000 C 
BRANCH  25  26
ATOM     26  C   UNL     1      34.948  11.270  31.753  1.00  0.00    -0.000 C 
BRANCH  26  27
ATOM     27  C   UNL     1      34.564  11.680  33.181  1.00  0.00    -0.000 C 
BRANCH  27  28
ATOM     28  C   UNL     1      34.743  13.185  33.439  1.00  0.00    -0.000 C 
BRANCH  28  29
ATOM     29  C   UNL     1      34.402  14.066  32.218  1.00  0.00    -0.003 C 
ATOM     30  C   UNL     1      32.958  14.565  32.250  1.00  0.00     0.004 C 
ENDBRANCH  28  29
ENDBRANCH  27  28
ENDBRANCH  26  27
ENDBRANCH  25  26
ENDBRANCH  24  25
ENDBRANCH  23  24
ENDBRANCH  22  23
ENDBRANCH  21  22
ENDBRANCH  20  21
ENDBRANCH  19  20
ENDBRANCH  18  19
ENDBRANCH  17  18
ENDBRANCH   1  17
TORSDOF 26
ENDMDL
MODEL 2
REMARK VINA RESULT:    -4.044      1.436      4.256
REMARK INTER + INTRA:         -15.238
REMARK INTER:                  -9.419
REMARK INTRA:                  -5.818
REMARK UNBOUND:                -5.047
REMARK SMILES CCCCCCCCCCCCCCCCCCCCCCCCCCCC(=O)[O-]
REMARK SMILES IDX 15 1 16 2 17 3 18 4 19 5 20 6 21 7 22 8 23 9 24 10 25 11
REMARK SMILES IDX 26 12 27 13 28 14 29 15 30 16 14 17 13 18 12 19 11 20 10 21
REMARK SMILES IDX 9 22 8 23 7 24 6 25 5 26 4 27 3 28 2 29 1 30
REMARK H PARENT
REMARK Flexibility Score: inf
ROOT
ATOM      1  C   UNL     1      33.781   9.952  30.422  1.00  0.00     0.000 C 
ENDROOT
BRANCH   1   2
ATOM      2  C   UNL     1      33.922   8.646  29.619  1.00  0.00     0.000 C 
BRANCH   2   3
ATOM      3  C   UNL     1      32.890   8.452  28.487  1.00  0.00     0.000 C 
BRANCH   3   4
ATOM      4  C   UNL     1      31.647   9.356  28.567  1.00  0.00     0.000 C 
BRANCH   4   5
ATOM      5  C   UNL     1      30.331   8.561  28.623  1.00  0.00     0.000 C 
BRANCH   5   6
ATOM      6  C   UNL     1      29.958   8.121  30.050  1.00  0.00     0.000 C 
BRANCH   6   7
ATOM      7  C   UNL     1      30.380   6.687  30.433  1.00  0.00     0.000 C 
BRANCH   7   8
ATOM      8  C   UNL     1      31.203   6.567  31.729  1.00  0.00     0.000 C 
BRANCH   8   9
ATOM      9  C   UNL     1      31.260   7.885  32.522  1.00  0.00     0.000 C 
BRANCH   9  10
ATOM     10  C   UNL     1      32.620   8.094  33.210  1.00  0.00     0.000 C 
BRANCH  10  11
ATOM     11  C   UNL     1      33.107   6.828  33.937  1.00  0.00     0.000 C 
BRANCH  11  12
ATOM     12  C   UNL     1      34.634   6.670  33.889  1.00  0.00     0.006 C 
BRANCH  12  13
ATOM     13  C   UNL     1      35.224   6.991  32.508  1.00  0.00     0.053 C 
BRANCH  13  14
ATOM     14  C   UNL     1      36.696   7.247  32.612  1.00  0.00     0.041 C 
ATOM     15  O   UNL     1      37.282   7.144  33.724  1.00  0.00    -0.550 OA
ATOM     16  O   UNL     1      37.416   7.628  31.487  1.00  0.00    -0.550 OA
ENDBRANCH  13  14
ENDBRANCH  12  13
ENDBRANCH  11  12
ENDBRANCH  10  11
ENDBRANCH   9  10
ENDBRANCH   8   9
ENDBRANCH   7   8
ENDBRANCH   6   7
ENDBRANCH   5   6
ENDBRANCH   4   5
ENDBRANCH   3   4
ENDBRANCH   2   3
ENDBRANCH   1   2
BRANCH   1  17
ATOM     17  C   UNL     1      35.126  10.466  30.958  1.00  0.00     0.000 C 
BRANCH  17  18
ATOM     18  C   UNL     1      35.099  10.740  32.473  1.00  0.00     0.000 C 
BRANCH  18  19
ATOM     19  C   UNL     1      35.592  12.138  32.902  1.00  0.00     0.000 C 
BRANCH  19  20
ATOM     20  C   UNL     1      35.275  13.280  31.918  1.00  0.00     0.000 C 
BRANCH  20  21
ATOM     21  C   UNL     1      33.956  14.000  32.243  1.00  0.00     0.000 C 
BRANCH  21  22
ATOM     22  C   UNL     1      33.782  14.278  33.747  1.00  0.00    -0.000 C 
BRANCH  22  23
ATOM     23  C   UNL     1      32.375  13.989  34.311  1.00  0.00    -0.000 C 
BRANCH  23  24
ATOM     24  C   UNL     1      32.229  12.650  35.054  1.00  0.00    -0.000 C 
BRANCH  24  25
ATOM     25  C   UNL     1      31.895  11.480  34.116  1.00  0.00    -0.000 C 
BRANCH  25  26
ATOM     26  C   UNL     1      30.692  11.814  33.225  1.00  0.00    -0.000 C 
BRANCH  26  27
ATOM     27  C   UNL     1      30.913  11.304  31.794  1.00  0.00    -0.000 C 
BRANCH  27  28
ATOM     28  C   UNL     1      30.918  12.434  30.751  1.00  0.00    -0.000 C 
BRANCH  28  29
ATOM     29  C   UNL     1      29.752  12.349  29.744  1.00  0.00    -0.003 C 
ATOM     30  C   UNL     1      28.577  11.536  30.286  1.00  0.00     0.004 C 
ENDBRANCH  28  29
ENDBRANCH  27  28
ENDBRANCH  26  27
ENDBRANCH  25  26
ENDBRANCH  24  25
ENDBRANCH  23  24
ENDBRANCH  22  23
ENDBRANCH  21  22
ENDBRANCH  20  21
ENDBRANCH  19  20
ENDBRANCH  18  19
ENDBRANCH  17  18
ENDBRANCH   1  17
TORSDOF 26
ENDMDL
MODEL 3
REMARK VINA RESULT:    -4.002      2.612      5.704
REMARK INTER + INTRA:         -15.132
REMARK INTER:                  -9.516
REMARK INTRA:                  -5.616
REMARK UNBOUND:                -5.047
REMARK SMILES CCCCCCCCCCCCCCCCCCCCCCCCCCCC(=O)[O-]
REMARK SMILES IDX 15 1 16 2 17 3 18 4 19 5 20 6 21 7 22 8 23 9 24 10 25 11
REMARK SMILES IDX 26 12 27 13 28 14 29 15 30 16 14 17 13 18 12 19 11 20 10 21
REMARK SMILES IDX 9 22 8 23 7 24 6 25 5 26 4 27 3 28 2 29 1 30
REMARK H PARENT
REMARK Flexibility Score: inf
ROOT
ATOM      1  C   UNL     1      30.230   6.839  30.233  1.00  0.00     0.000 C 
ENDROOT
BRANCH   1   2
ATOM      2  C   UNL     1      30.276   7.343  28.779  1.00  0.00     0.000 C 
BRANCH   2   3
ATOM      3  C   UNL     1      31.564   8.097  28.383  1.00  0.00     0.000 C 
BRANCH   3   4
ATOM      4  C   UNL     1      31.364   9.564  27.961  1.00  0.00     0.000 C 
BRANCH   4   5
ATOM      5  C   UNL     1      29.885   9.928  27.743  1.00  0.00     0.000 C 
BRANCH   5   6
ATOM      6  C   UNL     1      29.410  11.075  28.652  1.00  0.00     0.000 C 
BRANCH   6   7
ATOM      7  C   UNL     1      28.907  10.650  30.047  1.00  0.00     0.000 C 
BRANCH   7   8
ATOM      8  C   UNL     1      29.904  10.870  31.201  1.00  0.00     0.000 C 
BRANCH   8   9
ATOM      9  C   UNL     1      31.019  11.868  30.842  1.00  0.00     0.000 C 
BRANCH   9  10
ATOM     10  C   UNL     1      31.407  12.762  32.033  1.00  0.00     0.000 C 
BRANCH  10  11
ATOM     11  C   UNL     1      32.470  13.808  31.655  1.00  0.00     0.000 C 
BRANCH  11  12
ATOM     12  C   UNL     1      33.485  14.051  32.782  1.00  0.00     0.006 C 
BRANCH  12  13
ATOM     13  C   UNL     1      33.252  13.147  34.001  1.00  0.00     0.053 C 
BRANCH  13  14
ATOM     14  C   UNL     1      32.891  13.966  35.201  1.00  0.00     0.041 C 
ATOM     15  O   UNL     1      31.686  14.249  35.439  1.00  0.00    -0.550 OA
ATOM     16  O   UNL     1      33.889  14.443  36.042  1.00  0.00    -0.550 OA
ENDBRANCH  13  14
ENDBRANCH  12  13
ENDBRANCH  11  12
ENDBRANCH  10  11
ENDBRANCH   9  10
ENDBRANCH   8   9
ENDBRANCH   7   8
ENDBRANCH   6   7
ENDBRANCH   5   6
ENDBRANCH   4   5
ENDBRANCH   3   4
ENDBRANCH   2   3
ENDBRANCH   1   2
BRANCH   1  17
ATOM     17  C   UNL     1      31.198   7.597  31.155  1.00  0.00     0.000 C 
BRANCH  17  18
ATOM     18  C   UNL     1      31.355   6.931  32.534  1.00  0.00     0.000 C 
BRANCH  18  19
ATOM     19  C   UNL     1      31.430   7.899  33.733  1.00  0.00     0.000 C 
BRANCH  19  20
ATOM     20  C   UNL     1      32.347   9.121  33.537  1.00  0.00     0.000 C 
BRANCH  20  21
ATOM     21  C   UNL     1      33.713   8.959  34.224  1.00  0.00     0.000 C 
BRANCH  21  22
ATOM     22  C   UNL     1      34.004   7.505  34.639  1.00  0.00    -0.000 C 
BRANCH  22  23
ATOM     23  C   UNL     1      35.055   6.774  33.779  1.00  0.00    -0.000 C 
BRANCH  23  24
ATOM     24  C   UNL     1      36.052   7.688  33.045  1.00  0.00    -0.000 C 
BRANCH  24  25
ATOM     25  C   UNL     1      36.109   7.416  31.534  1.00  0.00    -0.000 C 
BRANCH  25  26
ATOM     26  C   UNL     1      34.759   7.709  30.869  1.00  0.00    -0.000 C 
BRANCH  26  27
ATOM     27  C   UNL     1      34.835   8.975  30.007  1.00  0.00    -0.000 C 
BRANCH  27  28
ATOM     28  C   UNL     1      34.209  10.202  30.689  1.00  0.00    -0.000 C 
BRANCH  28  29
ATOM     29  C   UNL     1      35.221  11.046  31.492  1.00  0.00    -0.003 C 
ATOM     30  C   UNL     1      36.523  11.272  30.724  1.00  0.00     0.004 C 
ENDBRANCH  28  29
ENDBRANCH  27  28
ENDBRANCH  26  27
ENDBRANCH  25  26
ENDBRANCH  24  25
ENDBRANCH  23  24
ENDBRANCH  22  23
ENDBRANCH  21  22
ENDBRANCH  20  21
ENDBRANCH  19  20
ENDBRANCH  18  19
ENDBRANCH  17  18
ENDBRANCH   1  17
TORSDOF 26
ENDMDL
MODEL 4
REMARK VINA RESULT:    -4.000      3.071      7.290
REMARK INTER + INTRA:         -15.128
REMARK INTER:                  -9.426
REMARK INTRA:                  -5.702
REMARK UNBOUND:                -5.047
REMARK SMILES CCCCCCCCCCCCCCCCCCCCCCCCCCCC(=O)[O-]
REMARK SMILES IDX 15 1 16 2 17 3 18 4 19 5 20 6 21 7 22 8 23 9 24 10 25 11
REMARK SMILES IDX 26 12 27 13 28 14 29 15 30 16 14 17 13 18 12 19 11 20 10 21
REMARK SMILES IDX 9 22 8 23 7 24 6 25 5 26 4 27 3 28 2 29 1 30
REMARK H PARENT
REMARK Flexibility Score: inf
ROOT
ATOM      1  C   UNL     1      34.605   9.602  30.500  1.00  0.00     0.000 C 
ENDROOT
BRANCH   1   2
ATOM      2  C   UNL     1      34.270   9.977  31.955  1.00  0.00     0.000 C 
BRANCH   2   3
ATOM      3  C   UNL     1      35.120  11.117  32.555  1.00  0.00     0.000 C 
BRANCH   3   4
ATOM      4  C   UNL     1      34.852  11.426  34.040  1.00  0.00     0.000 C 
BRANCH   4   5
ATOM      5  C   UNL     1      33.703  10.588  34.627  1.00  0.00     0.000 C 
BRANCH   5   6
ATOM      6  C   UNL     1      32.713  11.427  35.455  1.00  0.00     0.000 C 
BRANCH   6   7
ATOM      7  C   UNL     1      31.265  11.459  34.923  1.00  0.00     0.000 C 
BRANCH   7   8
ATOM      8  C   UNL     1      30.824  10.208  34.140  1.00  0.00     0.000 C 
BRANCH   8   9
ATOM      9  C   UNL     1      30.290  10.542  32.736  1.00  0.00     0.000 C 
BRANCH   9  10
ATOM     10  C   UNL     1      31.022  11.737  32.101  1.00  0.00     0.000 C 
BRANCH  10  11
ATOM     11  C   UNL     1      31.422  11.467  30.641  1.00  0.00     0.000 C 
BRANCH  11  12
ATOM     12  C   UNL     1      30.337  11.897  29.642  1.00  0.00     0.006 C 
BRANCH  12  13
ATOM     13  C   UNL     1      29.307  12.856  30.257  1.00  0.00     0.053 C 
BRANCH  13  14
ATOM     14  C   UNL     1      27.958  12.208  30.318  1.00  0.00     0.041 C 
ATOM     15  O   UNL     1      27.640  11.320  29.480  1.00  0.00    -0.550 OA
ATOM     16  O   UNL     1      27.039  12.605  31.282  1.00  0.00    -0.550 OA
ENDBRANCH  13  14
ENDBRANCH  12  13
ENDBRANCH  11  12
ENDBRANCH  10  11
ENDBRANCH   9  10
ENDBRANCH   8   9
ENDBRANCH   7   8
ENDBRANCH   6   7
ENDBRANCH   5   6
ENDBRANCH   4   5
ENDBRANCH   3   4
ENDBRANCH   2   3
ENDBRANCH   1   2
BRANCH   1  17
ATOM     17  C   UNL     1      35.427   8.308  30.395  1.00  0.00     0.000 C 
BRANCH  17  18
ATOM     18  C   UNL     1      36.945   8.558  30.463  1.00  0.00     0.000 C 
BRANCH  18  19
ATOM     19  C   UNL     1      37.660   7.957  31.690  1.00  0.00     0.000 C 
BRANCH  19  20
ATOM     20  C   UNL     1      36.790   7.056  32.586  1.00  0.00     0.000 C 
BRANCH  20  21
ATOM     21  C   UNL     1      36.456   7.703  33.940  1.00  0.00     0.000 C 
BRANCH  21  22
ATOM     22  C   UNL     1      35.164   7.147  34.566  1.00  0.00    -0.000 C 
BRANCH  22  23
ATOM     23  C   UNL     1      34.027   6.848  33.568  1.00  0.00    -0.000 C 
BRANCH  23  24
ATOM     24  C   UNL     1      32.603   7.065  34.111  1.00  0.00    -0.000 C 
BRANCH  24  25
ATOM     25  C   UNL     1      31.514   6.650  33.111  1.00  0.00    -0.000 C 
BRANCH  25  26
ATOM     26  C   UNL     1      31.695   7.368  31.768  1.00  0.00    -0.000 C 
BRANCH  26  27
ATOM     27  C   UNL     1      30.576   6.989  30.789  1.00  0.00    -0.000 C 
BRANCH  27  28
ATOM     28  C   UNL     1      30.514   7.917  29.564  1.00  0.00    -0.000 C 
BRANCH  28  29
ATOM     29  C   UNL     1      31.849   8.015  28.796  1.00  0.00    -0.003 C 
ATOM     30  C   UNL     1      31.813   9.091  27.711  1.00  0.00     0.004 C 
ENDBRANCH  28  29
ENDBRANCH  27  28
ENDBRANCH  26  27
ENDBRANCH  25  26
ENDBRANCH  24  25
ENDBRANCH  23  24
ENDBRANCH  22  23
ENDBRANCH  21  22
ENDBRANCH  20  21
ENDBRANCH  19  20
ENDBRANCH  18  19
ENDBRANCH  17  18
ENDBRANCH   1  17
TORSDOF 26
ENDMDL
MODEL 5
REMARK VINA RESULT:    -3.992      2.433      6.009
REMARK INTER + INTRA:         -15.108
REMARK INTER:                  -9.822
REMARK INTRA:                  -5.286
REMARK UNBOUND:                -5.047
REMARK SMILES CCCCCCCCCCCCCCCCCCCCCCCCCCCC(=O)[O-]
REMARK SMILES IDX 15 1 16 2 17 3 18 4 19 5 20 6 21 7 22 8 23 9 24 10 25 11
REMARK SMILES IDX 26 12 27 13 28 14 29 15 30 16 14 17 13 18 12 19 11 20 10 21
REMARK SMILES IDX 9 22 8 23 7 24 6 25 5 26 4 27 3 28 2 29 1 30
REMARK H PARENT
REMARK Flexibility Score: inf
ROOT
ATOM      1  C   UNL     1      31.445   7.719  32.018  1.00  0.00     0.000 C 
ENDROOT
BRANCH   1   2
ATOM      2  C   UNL     1      31.134   7.731  30.510  1.00  0.00     0.000 C 
BRANCH   2   3
ATOM      3  C   UNL     1      32.249   8.308  29.611  1.00  0.00     0.000 C 
BRANCH   3   4
ATOM      4  C   UNL     1      31.761   9.131  28.405  1.00  0.00     0.000 C 
BRANCH   4   5
ATOM      5  C   UNL     1      30.227   9.202  28.310  1.00  0.00     0.000 C 
BRANCH   5   6
ATOM      6  C   UNL     1      29.735  10.346  27.406  1.00  0.00     0.000 C 
BRANCH   6   7
ATOM      7  C   UNL     1      28.605  11.217  27.994  1.00  0.00     0.000 C 
BRANCH   7   8
ATOM      8  C   UNL     1      28.481  11.184  29.529  1.00  0.00     0.000 C 
BRANCH   8   9
ATOM      9  C   UNL     1      28.709  12.562  30.175  1.00  0.00     0.000 C 
BRANCH   9  10
ATOM     10  C   UNL     1      30.201  12.861  30.399  1.00  0.00     0.000 C 
BRANCH  10  11
ATOM     11  C   UNL     1      30.951  11.665  31.009  1.00  0.00     0.000 C 
BRANCH  11  12
ATOM     12  C   UNL     1      30.961  11.695  32.546  1.00  0.00     0.006 C 
BRANCH  12  13
ATOM     13  C   UNL     1      29.821  10.875  33.166  1.00  0.00     0.053 C 
BRANCH  13  14
ATOM     14  C   UNL     1      30.211  10.376  34.523  1.00  0.00     0.041 C 
ATOM     15  O   UNL     1      31.397  10.504  34.930  1.00  0.00    -0.550 OA
ATOM     16  O   UNL     1      29.271   9.744  35.327  1.00  0.00    -0.550 OA
ENDBRANCH  13  14
ENDBRANCH  12  13
ENDBRANCH  11  12
ENDBRANCH  10  11
ENDBRANCH   9  10
ENDBRANCH   8   9
ENDBRANCH   7   8
ENDBRANCH   6   7
ENDBRANCH   5   6
ENDBRANCH   4   5
ENDBRANCH   3   4
ENDBRANCH   2   3
ENDBRANCH   1   2
BRANCH   1  17
ATOM     17  C   UNL     1      32.773   8.415  32.356  1.00  0.00     0.000 C 
BRANCH  17  18
ATOM     18  C   UNL     1      33.429   7.863  33.634  1.00  0.00     0.000 C 
BRANCH  18  19
ATOM     19  C   UNL     1      34.860   7.314  33.461  1.00  0.00     0.000 C 
BRANCH  19  20
ATOM     20  C   UNL     1      35.266   6.976  32.014  1.00  0.00     0.000 C 
BRANCH  20  21
ATOM     21  C   UNL     1      36.778   7.111  31.771  1.00  0.00     0.000 C 
BRANCH  21  22
ATOM     22  C   UNL     1      37.117   8.111  30.651  1.00  0.00    -0.000 C 
BRANCH  22  23
ATOM     23  C   UNL     1      35.999   9.117  30.308  1.00  0.00    -0.000 C 
BRANCH  23  24
ATOM     24  C   UNL     1      36.266  10.568  30.747  1.00  0.00    -0.000 C 
BRANCH  24  25
ATOM     25  C   UNL     1      36.420  10.712  32.268  1.00  0.00    -0.000 C 
BRANCH  25  26
ATOM     26  C   UNL     1      35.103  11.157  32.916  1.00  0.00    -0.000 C 
BRANCH  26  27
ATOM     27  C   UNL     1      34.480  12.327  32.143  1.00  0.00    -0.000 C 
BRANCH  27  28
ATOM     28  C   UNL     1      34.275  13.577  33.014  1.00  0.00    -0.000 C 
BRANCH  28  29
ATOM     29  C   UNL     1      33.779  14.806  32.223  1.00  0.00    -0.003 C 
ATOM     30  C   UNL     1      32.369  15.228  32.633  1.00  0.00     0.004 C 
ENDBRANCH  28  29
ENDBRANCH  27  28
ENDBRANCH  26  27
ENDBRANCH  25  26
ENDBRANCH  24  25
ENDBRANCH  23  24
ENDBRANCH  22  23
ENDBRANCH  21  22
ENDBRANCH  20  21
ENDBRANCH  19  20
ENDBRANCH  18  19
ENDBRANCH  17  18
ENDBRANCH   1  17
TORSDOF 26
ENDMDL
MODEL 6
REMARK VINA RESULT:    -3.990      1.908      5.050
REMARK INTER + INTRA:         -15.101
REMARK INTER:                  -9.968
REMARK INTRA:                  -5.133
REMARK UNBOUND:                -5.047
REMARK SMILES CCCCCCCCCCCCCCCCCCCCCCCCCCCC(=O)[O-]
REMARK SMILES IDX 15 1 16 2 17 3 18 4 19 5 20 6 21 7 22 8 23 9 24 10 25 11
REMARK SMILES IDX 26 12 27 13 28 14 29 15 30 16 14 17 13 18 12 19 11 20 10 21
REMARK SMILES IDX 9 22 8 23 7 24 6 25 5 26 4 27 3 28 2 29 1 30
REMARK H PARENT
REMARK Flexibility Score: inf
ROOT
ATOM      1  C   UNL     1      32.814   9.279  31.704  1.00  0.00     0.000 C 
ENDROOT
BRANCH   1   2
ATOM      2  C   UNL     1      33.707   9.770  30.551  1.00  0.00     0.000 C 
BRANCH   2   3
ATOM      3  C   UNL     1      34.659   8.710  29.956  1.00  0.00     0.000 C 
BRANCH   3   4
ATOM      4  C   UNL     1      36.082   8.700  30.544  1.00  0.00     0.000 C 
BRANCH   4   5
ATOM      5  C   UNL     1      36.445   7.360  31.207  1.00  0.00     0.000 C 
BRANCH   5   6
ATOM      6  C   UNL     1      37.679   7.459  32.121  1.00  0.00     0.000 C 
BRANCH   6   7
ATOM      7  C   UNL     1      37.495   6.897  33.547  1.00  0.00     0.000 C 
BRANCH   7   8
ATOM      8  C   UNL     1      36.038   6.823  34.041  1.00  0.00     0.000 C 
BRANCH   8   9
ATOM      9  C   UNL     1      35.834   7.517  35.399  1.00  0.00     0.000 C 
BRANCH   9  10
ATOM     10  C   UNL     1      36.075   9.034  35.322  1.00  0.00     0.000 C 
BRANCH  10  11
ATOM     11  C   UNL     1      35.255   9.699  34.203  1.00  0.00     0.000 C 
BRANCH  11  12
ATOM     12  C   UNL     1      36.009  10.853  33.524  1.00  0.00     0.006 C 
BRANCH  12  13
ATOM     13  C   UNL     1      35.077  11.974  33.044  1.00  0.00     0.053 C 
BRANCH  13  14
ATOM     14  C   UNL     1      35.767  12.833  32.030  1.00  0.00     0.041 C 
ATOM     15  O   UNL     1      35.842  14.080  32.197  1.00  0.00    -0.550 OA
ATOM     16  O   UNL     1      36.304  12.259  30.884  1.00  0.00    -0.550 OA
ENDBRANCH  13  14
ENDBRANCH  12  13
ENDBRANCH  11  12
ENDBRANCH  10  11
ENDBRANCH   9  10
ENDBRANCH   8   9
ENDBRANCH   7   8
ENDBRANCH   6   7
ENDBRANCH   5   6
ENDBRANCH   4   5
ENDBRANCH   3   4
ENDBRANCH   2   3
ENDBRANCH   1   2
BRANCH   1  17
ATOM     17  C   UNL     1      32.810   7.748  31.842  1.00  0.00     0.000 C 
BRANCH  17  18
ATOM     18  C   UNL     1      31.397   7.169  32.037  1.00  0.00     0.000 C 
BRANCH  18  19
ATOM     19  C   UNL     1      30.684   6.714  30.748  1.00  0.00     0.000 C 
BRANCH  19  20
ATOM     20  C   UNL     1      30.146   7.848  29.856  1.00  0.00     0.000 C 
BRANCH  20  21
ATOM     21  C   UNL     1      30.710   7.803  28.426  1.00  0.00     0.000 C 
BRANCH  21  22
ATOM     22  C   UNL     1      31.217   9.173  27.941  1.00  0.00    -0.000 C 
BRANCH  22  23
ATOM     23  C   UNL     1      30.623  10.392  28.677  1.00  0.00    -0.000 C 
BRANCH  23  24
ATOM     24  C   UNL     1      29.568  11.185  27.885  1.00  0.00    -0.000 C 
BRANCH  24  25
ATOM     25  C   UNL     1      28.434  11.721  28.773  1.00  0.00    -0.000 C 
BRANCH  25  26
ATOM     26  C   UNL     1      28.388  10.980  30.115  1.00  0.00    -0.000 C 
BRANCH  26  27
ATOM     27  C   UNL     1      28.757  11.919  31.272  1.00  0.00    -0.000 C 
BRANCH  27  28
ATOM     28  C   UNL     1      29.787  11.305  32.235  1.00  0.00    -0.000 C 
BRANCH  28  29
ATOM     29  C   UNL     1      31.029  12.194  32.458  1.00  0.00    -0.003 C 
ATOM     30  C   UNL     1      31.399  12.994  31.210  1.00  0.00     0.004 C 
ENDBRANCH  28  29
ENDBRANCH  27  28
ENDBRANCH  26  27
ENDBRANCH  25  26
ENDBRANCH  24  25
ENDBRANCH  23  24
ENDBRANCH  22  23
ENDBRANCH  21  22
ENDBRANCH  20  21
ENDBRANCH  19  20
ENDBRANCH  18  19
ENDBRANCH  17  18
ENDBRANCH   1  17
TORSDOF 26
ENDMDL
MODEL 7
REMARK VINA RESULT:    -3.956      2.861      6.586
REMARK INTER + INTRA:         -15.015
REMARK INTER:                  -9.823
REMARK INTRA:                  -5.192
REMARK UNBOUND:                -5.047
REMARK SMILES CCCCCCCCCCCCCCCCCCCCCCCCCCCC(=O)[O-]
REMARK SMILES IDX 15 1 16 2 17 3 18 4 19 5 20 6 21 7 22 8 23 9 24 10 25 11
REMARK SMILES IDX 26 12 27 13 28 14 29 15 30 16 14 17 13 18 12 19 11 20 10 21
REMARK SMILES IDX 9 22 8 23 7 24 6 25 5 26 4 27 3 28 2 29 1 30
REMARK H PARENT
REMARK Flexibility Score: inf
ROOT
ATOM      1  C   UNL     1      34.370   8.639  29.986  1.00  0.00     0.000 C 
ENDROOT
BRANCH   1   2
ATOM      2  C   UNL     1      33.689   9.835  30.676  1.00  0.00     0.000 C 
BRANCH   2   3
ATOM      3  C   UNL     1      33.027   9.523  32.035  1.00  0.00     0.000 C 
BRANCH   3   4
ATOM      4  C   UNL     1      31.592   8.970  31.956  1.00  0.00     0.000 C 
BRANCH   4   5
ATOM      5  C   UNL     1      31.532   7.440  32.105  1.00  0.00     0.000 C 
BRANCH   5   6
ATOM      6  C   UNL     1      30.858   6.747  30.908  1.00  0.00     0.000 C 
BRANCH   6   7
ATOM      7  C   UNL     1      30.021   7.668  29.995  1.00  0.00     0.000 C 
BRANCH   7   8
ATOM      8  C   UNL     1      30.362   7.592  28.495  1.00  0.00     0.000 C 
BRANCH   8   9
ATOM      9  C   UNL     1      31.270   8.744  28.031  1.00  0.00     0.000 C 
BRANCH   9  10
ATOM     10  C   UNL     1      30.744  10.119  28.479  1.00  0.00     0.000 C 
BRANCH  10  11
ATOM     11  C   UNL     1      29.509  10.561  27.675  1.00  0.00     0.000 C 
BRANCH  11  12
ATOM     12  C   UNL     1      28.294  10.851  28.571  1.00  0.00     0.006 C 
BRANCH  12  13
ATOM     13  C   UNL     1      28.669  11.000  30.053  1.00  0.00     0.053 C 
BRANCH  13  14
ATOM     14  C   UNL     1      28.609  12.438  30.467  1.00  0.00     0.041 C 
ATOM     15  O   UNL     1      29.654  13.144  30.465  1.00  0.00    -0.550 OA
ATOM     16  O   UNL     1      27.405  12.992  30.883  1.00  0.00    -0.550 OA
ENDBRANCH  13  14
ENDBRANCH  12  13
ENDBRANCH  11  12
ENDBRANCH  10  11
ENDBRANCH   9  10
ENDBRANCH   8   9
ENDBRANCH   7   8
ENDBRANCH   6   7
ENDBRANCH   5   6
ENDBRANCH   4   5
ENDBRANCH   3   4
ENDBRANCH   2   3
ENDBRANCH   1   2
BRANCH   1  17
ATOM     17  C   UNL     1      35.787   8.374  30.520  1.00  0.00     0.000 C 
BRANCH  17  18
ATOM     18  C   UNL     1      35.844   7.192  31.504  1.00  0.00     0.000 C 
BRANCH  18  19
ATOM     19  C   UNL     1      36.665   7.437  32.787  1.00  0.00     0.000 C 
BRANCH  19  20
ATOM     20  C   UNL     1      36.013   8.377  33.818  1.00  0.00     0.000 C 
BRANCH  20  21
ATOM     21  C   UNL     1      36.796   9.685  34.014  1.00  0.00     0.000 C 
BRANCH  21  22
ATOM     22  C   UNL     1      36.037  10.920  33.494  1.00  0.00    -0.000 C 
BRANCH  22  23
ATOM     23  C   UNL     1      36.629  11.570  32.227  1.00  0.00    -0.000 C 
BRANCH  23  24
ATOM     24  C   UNL     1      36.126  12.993  31.925  1.00  0.00    -0.000 C 
BRANCH  24  25
ATOM     25  C   UNL     1      34.593  13.096  31.927  1.00  0.00    -0.000 C 
BRANCH  25  26
ATOM     26  C   UNL     1      34.134  14.483  32.393  1.00  0.00    -0.000 C 
BRANCH  26  27
ATOM     27  C   UNL     1      32.788  14.398  33.124  1.00  0.00    -0.000 C 
BRANCH  27  28
ATOM     28  C   UNL     1      32.174  12.988  33.085  1.00  0.00    -0.000 C 
BRANCH  28  29
ATOM     29  C   UNL     1      31.702  12.482  34.464  1.00  0.00    -0.003 C 
ATOM     30  C   UNL     1      32.691  11.498  35.089  1.00  0.00     0.004 C 
ENDBRANCH  28  29
ENDBRANCH  27  28
ENDBRANCH  26  27
ENDBRANCH  25  26
ENDBRANCH  24  25
ENDBRANCH  23  24
ENDBRANCH  22  23
ENDBRANCH  21  22
ENDBRANCH  20  21
ENDBRANCH  19  20
ENDBRANCH  18  19
ENDBRANCH  17  18
ENDBRANCH   1  17
TORSDOF 26
ENDMDL
MODEL 8
REMARK VINA RESULT:    -3.890      2.893      7.243
REMARK INTER + INTRA:         -14.849
REMARK INTER:                  -9.831
REMARK INTRA:                  -5.019
REMARK UNBOUND:                -5.047
REMARK SMILES CCCCCCCCCCCCCCCCCCCCCCCCCCCC(=O)[O-]
REMARK SMILES IDX 15 1 16 2 17 3 18 4 19 5 20 6 21 7 22 8 23 9 24 10 25 11
REMARK SMILES IDX 26 12 27 13 28 14 29 15 30 16 14 17 13 18 12 19 11 20 10 21
REMARK SMILES IDX 9 22 8 23 7 24 6 25 5 26 4 27 3 28 2 29 1 30
REMARK H PARENT
REMARK Flexibility Score: inf
ROOT
ATOM      1  C   UNL     1      36.901   8.107  34.244  1.00  0.00     0.000 C 
ENDROOT
BRANCH   1   2
ATOM      2  C   UNL     1      35.481   7.819  34.764  1.00  0.00     0.000 C 
BRANCH   2   3
ATOM      3  C   UNL     1      34.768   6.619  34.106  1.00  0.00     0.000 C 
BRANCH   3   4
ATOM      4  C   UNL     1      33.536   6.972  33.253  1.00  0.00     0.000 C 
BRANCH   4   5
ATOM      5  C   UNL     1      32.208   6.623  33.948  1.00  0.00     0.000 C 
BRANCH   5   6
ATOM      6  C   UNL     1      31.068   7.590  33.581  1.00  0.00     0.000 C 
BRANCH   6   7
ATOM      7  C   UNL     1      30.741   8.662  34.642  1.00  0.00     0.000 C 
BRANCH   7   8
ATOM      8  C   UNL     1      31.907   9.597  35.015  1.00  0.00     0.000 C 
BRANCH   8   9
ATOM      9  C   UNL     1      31.948  10.871  34.154  1.00  0.00     0.000 C 
BRANCH   9  10
ATOM     10  C   UNL     1      30.583  11.191  33.520  1.00  0.00     0.000 C 
BRANCH  10  11
ATOM     11  C   UNL     1      30.721  11.783  32.107  1.00  0.00     0.000 C 
BRANCH  11  12
ATOM     12  C   UNL     1      29.628  11.284  31.148  1.00  0.00     0.006 C 
BRANCH  12  13
ATOM     13  C   UNL     1      29.516  12.137  29.876  1.00  0.00     0.053 C 
BRANCH  13  14
ATOM     14  C   UNL     1      28.882  11.350  28.771  1.00  0.00     0.041 C 
ATOM     15  O   UNL     1      27.660  11.045  28.827  1.00  0.00    -0.550 OA
ATOM     16  O   UNL     1      29.649  10.928  27.692  1.00  0.00    -0.550 OA
ENDBRANCH  13  14
ENDBRANCH  12  13
ENDBRANCH  11  12
ENDBRANCH  10  11
ENDBRANCH   9  10
ENDBRANCH   8   9
ENDBRANCH   7   8
ENDBRANCH   6   7
ENDBRANCH   5   6
ENDBRANCH   4   5
ENDBRANCH   3   4
ENDBRANCH   2   3
ENDBRANCH   1   2
BRANCH   1  17
ATOM     17  C   UNL     1      37.455   6.970  33.370  1.00  0.00     0.000 C 
BRANCH  17  18
ATOM     18  C   UNL     1      37.807   7.432  31.944  1.00  0.00     0.000 C 
BRANCH  18  19
ATOM     19  C   UNL     1      36.604   7.761  31.037  1.00  0.00     0.000 C 
BRANCH  19  20
ATOM     20  C   UNL     1      36.623   9.162  30.399  1.00  0.00     0.000 C 
BRANCH  20  21
ATOM     21  C   UNL     1      36.268  10.278  31.395  1.00  0.00     0.000 C 
BRANCH  21  22
ATOM     22  C   UNL     1      34.808  10.203  31.879  1.00  0.00    -0.000 C 
BRANCH  22  23
ATOM     23  C   UNL     1      33.741  10.324  30.772  1.00  0.00    -0.000 C 
BRANCH  23  24
ATOM     24  C   UNL     1      32.944   9.039  30.488  1.00  0.00    -0.000 C 
BRANCH  24  25
ATOM     25  C   UNL     1      32.636   8.846  28.995  1.00  0.00    -0.000 C 
BRANCH  25  26
ATOM     26  C   UNL     1      31.345   8.041  28.797  1.00  0.00    -0.000 C 
BRANCH  26  27
ATOM     27  C   UNL     1      30.578   7.904  30.119  1.00  0.00    -0.000 C 
BRANCH  27  28
ATOM     28  C   UNL     1      29.515   6.793  30.081  1.00  0.00    -0.000 C 
BRANCH  28  29
ATOM     29  C   UNL     1      30.074   5.393  30.413  1.00  0.00    -0.003 C 
ATOM     30  C   UNL     1      29.272   4.277  29.745  1.00  0.00     0.004 C 
ENDBRANCH  28  29
ENDBRANCH  27  28
ENDBRANCH  26  27
ENDBRANCH  25  26
ENDBRANCH  24  25
ENDBRANCH  23  24
ENDBRANCH  22  23
ENDBRANCH  21  22
ENDBRANCH  20  21
ENDBRANCH  19  20
ENDBRANCH  18  19
ENDBRANCH  17  18
ENDBRANCH   1  17
TORSDOF 26
ENDMDL
MODEL 9
REMARK VINA RESULT:    -3.889      2.871      6.795
REMARK INTER + INTRA:         -14.847
REMARK INTER:                  -9.706
REMARK INTRA:                  -5.141
REMARK UNBOUND:                -5.047
REMARK SMILES CCCCCCCCCCCCCCCCCCCCCCCCCCCC(=O)[O-]
REMARK SMILES IDX 15 1 16 2 17 3 18 4 19 5 20 6 21 7 22 8 23 9 24 10 25 11
REMARK SMILES IDX 26 12 27 13 28 14 29 15 30 16 14 17 13 18 12 19 11 20 10 21
REMARK SMILES IDX 9 22 8 23 7 24 6 25 5 26 4 27 3 28 2 29 1 30
REMARK H PARENT
REMARK Flexibility Score: inf
ROOT
ATOM      1  C   UNL     1      36.885  10.192  30.314  1.00  0.00     0.000 C 
ENDROOT
BRANCH   1   2
ATOM      2  C   UNL     1      35.521  10.149  31.027  1.00  0.00     0.000 C 
BRANCH   2   3
ATOM      3  C   UNL     1      34.364   9.544  30.204  1.00  0.00     0.000 C 
BRANCH   3   4
ATOM      4  C   UNL     1      33.936   8.124  30.616  1.00  0.00     0.000 C 
BRANCH   4   5
ATOM      5  C   UNL     1      33.013   8.111  31.847  1.00  0.00     0.000 C 
BRANCH   5   6
ATOM      6  C   UNL     1      31.651   7.452  31.566  1.00  0.00     0.000 C 
BRANCH   6   7
ATOM      7  C   UNL     1      30.645   8.317  30.777  1.00  0.00     0.000 C 
BRANCH   7   8
ATOM      8  C   UNL     1      30.373   7.856  29.333  1.00  0.00     0.000 C 
BRANCH   8   9
ATOM      9  C   UNL     1      31.065   8.743  28.284  1.00  0.00     0.000 C 
BRANCH   9  10
ATOM     10  C   UNL     1      30.769  10.238  28.496  1.00  0.00     0.000 C 
BRANCH  10  11
ATOM     11  C   UNL     1      29.519  10.700  27.728  1.00  0.00     0.000 C 
BRANCH  11  12
ATOM     12  C   UNL     1      28.435  11.273  28.654  1.00  0.00     0.006 C 
BRANCH  12  13
ATOM     13  C   UNL     1      28.993  12.272  29.678  1.00  0.00     0.053 C 
BRANCH  13  14
ATOM     14  C   UNL     1      28.319  12.096  31.004  1.00  0.00     0.041 C 
ATOM     15  O   UNL     1      28.878  11.432  31.919  1.00  0.00    -0.550 OA
ATOM     16  O   UNL     1      27.060  12.642  31.220  1.00  0.00    -0.550 OA
ENDBRANCH  13  14
ENDBRANCH  12  13
ENDBRANCH  11  12
ENDBRANCH  10  11
ENDBRANCH   9  10
ENDBRANCH   8   9
ENDBRANCH   7   8
ENDBRANCH   6   7
ENDBRANCH   5   6
ENDBRANCH   4   5
ENDBRANCH   3   4
ENDBRANCH   2   3
ENDBRANCH   1   2
BRANCH   1  17
ATOM     17  C   UNL     1      37.602   8.833  30.323  1.00  0.00     0.000 C 
BRANCH  17  18
ATOM     18  C   UNL     1      37.859   8.302  31.745  1.00  0.00     0.000 C 
BRANCH  18  19
ATOM     19  C   UNL     1      37.161   6.971  32.091  1.00  0.00     0.000 C 
BRANCH  19  20
ATOM     20  C   UNL     1      36.256   7.005  33.337  1.00  0.00     0.000 C 
BRANCH  20  21
ATOM     21  C   UNL     1      36.506   8.236  34.224  1.00  0.00     0.000 C 
BRANCH  21  22
ATOM     22  C   UNL     1      35.210   8.980  34.593  1.00  0.00    -0.000 C 
BRANCH  22  23
ATOM     23  C   UNL     1      35.354  10.505  34.768  1.00  0.00    -0.000 C 
BRANCH  23  24
ATOM     24  C   UNL     1      34.274  11.350  34.069  1.00  0.00    -0.000 C 
BRANCH  24  25
ATOM     25  C   UNL     1      32.855  10.804  34.289  1.00  0.00    -0.000 C 
BRANCH  25  26
ATOM     26  C   UNL     1      31.868  11.413  33.285  1.00  0.00    -0.000 C 
BRANCH  26  27
ATOM     27  C   UNL     1      32.611  12.025  32.090  1.00  0.00    -0.000 C 
BRANCH  27  28
ATOM     28  C   UNL     1      31.928  13.291  31.546  1.00  0.00    -0.000 C 
BRANCH  28  29
ATOM     29  C   UNL     1      32.573  14.602  32.042  1.00  0.00    -0.003 C 
ATOM     30  C   UNL     1      34.078  14.458  32.263  1.00  0.00     0.004 C 
ENDBRANCH  28  29
ENDBRANCH  27  28
ENDBRANCH  26  27
ENDBRANCH  25  26
ENDBRANCH  24  25
ENDBRANCH  23  24
ENDBRANCH  22  23
ENDBRANCH  21  22
ENDBRANCH  20  21
ENDBRANCH  19  20
ENDBRANCH  18  19
ENDBRANCH  17  18
ENDBRANCH   1  17
TORSDOF 26
ENDMDL
