MODEL 1
REMARK VINA RESULT:    23.017      0.000      0.000
REMARK INTER + INTRA:          25.039
REMARK INTER:                  25.036
REMARK INTRA:                   0.003
REMARK UNBOUND:                 0.003
REMARK SMILES C=C(C)[C@@H]1CC[C@]2(C)CC[C@]3(C)[C@@H](CC[C@@H]4[C@]5(C)CC[C@@H](O)C(C)(C)[C@@H]5CC[C@@]43C)[C@@H]12
REMARK SMILES IDX 4 1 5 2 6 3 7 4 31 5 13 6 14 7 15 8 16 9 17 10 19 11 20 12
REMARK SMILES IDX 21 13 23 14 26 15 27 16 28 17 29 18 11 19 10 20 9 21 12 22
REMARK SMILES IDX 30 23 24 24 25 25 18 26 8 27 2 28 3 29 1 30 22 31
REMARK H PARENT 22 32
REMARK Flexibility Score: inf
ROOT
ATOM      1  C   UNL     1     137.398 126.673 146.524  1.00  0.00     0.018 C 
ATOM      2  C   UNL     1     137.067 127.992 147.268  1.00  0.00     0.009 C 
ATOM      3  C   UNL     1     135.807 128.574 146.596  1.00  0.00     0.008 C 
ATOM      4  C   UNL     1     135.698 127.845 145.245  1.00  0.00    -0.029 C 
ATOM      5  C   UNL     1     136.167 126.445 145.638  1.00  0.00     0.006 C 
ATOM      6  C   UNL     1     136.162 125.365 144.511  1.00  0.00    -0.000 C 
ATOM      7  C   UNL     1     137.396 125.346 143.635  1.00  0.00     0.005 C 
ATOM      8  C   UNL     1     137.452 124.033 142.863  1.00  0.00     0.005 C 
ATOM      9  C   UNL     1     136.116 123.468 142.277  1.00  0.00     0.002 C 
ATOM     10  C   UNL     1     136.403 122.636 140.926  1.00  0.00    -0.026 C 
ATOM     11  C   UNL     1     137.682 121.704 141.094  1.00  0.00     0.010 C 
ATOM     12  C   UNL     1     139.002 122.169 140.469  1.00  0.00     0.033 C 
ATOM     13  C   UNL     1     138.835 122.656 139.029  1.00  0.00     0.120 C 
ATOM     14  C   UNL     1     137.864 123.871 138.914  1.00  0.00    -0.006 C 
ATOM     15  C   UNL     1     136.465 123.561 139.620  1.00  0.00     0.003 C 
ATOM     16  C   UNL     1     135.505 124.790 139.658  1.00  0.00     0.005 C 
ATOM     17  C   UNL     1     135.325 125.498 141.018  1.00  0.00     0.008 C 
ATOM     18  C   UNL     1     134.964 124.564 142.220  1.00  0.00    -0.024 C 
ATOM     19  C   UNL     1     134.810 125.332 143.675  1.00  0.00    -0.024 C 
ATOM     20  C   UNL     1     134.210 126.785 143.478  1.00  0.00     0.008 C 
ATOM     21  C   UNL     1     134.259 127.719 144.709  1.00  0.00     0.007 C 
ATOM     22  C   UNL     1     133.799 124.554 144.599  1.00  0.00     0.012 C 
ATOM     23  C   UNL     1     133.562 123.948 141.878  1.00  0.00     0.012 C 
ATOM     24  C   UNL     1     137.631 124.124 137.389  1.00  0.00     0.014 C 
ATOM     25  C   UNL     1     138.579 125.152 139.435  1.00  0.00     0.014 C 
ATOM     26  C   UNL     1     135.239 121.598 140.733  1.00  0.00     0.012 C 
ATOM     27  C   UNL     1     136.608 128.600 144.231  1.00  0.00     0.011 C 
ENDROOT
BRANCH   1  28
ATOM     28  C   UNL     1     137.680 125.503 147.461  1.00  0.00    -0.077 C 
ATOM     29  C   UNL     1     138.141 125.719 148.883  1.00  0.00     0.039 C 
ATOM     30  C   UNL     1     137.478 124.245 147.038  1.00  0.00     0.008 C 
ENDBRANCH   1  28
BRANCH  13  31
ATOM     31  O   UNL     1     138.477 121.585 138.183  1.00  0.00    -0.393 OA
ATOM     32  H   UNL     1     137.979 121.949 137.408  1.00  0.00     0.210 HD
ENDBRANCH  13  31
TORSDOF 2
ENDMDL
MODEL 2
REMARK VINA RESULT:    23.708      2.349      7.187
REMARK INTER + INTRA:          25.790
REMARK INTER:                  26.161
REMARK INTRA:                  -0.370
REMARK UNBOUND:                 0.003
REMARK SMILES C=C(C)[C@@H]1CC[C@]2(C)CC[C@]3(C)[C@@H](CC[C@@H]4[C@]5(C)CC[C@@H](O)C(C)(C)[C@@H]5CC[C@@]43C)[C@@H]12
REMARK SMILES IDX 4 1 5 2 6 3 7 4 31 5 13 6 14 7 15 8 16 9 17 10 19 11 20 12
REMARK SMILES IDX 21 13 23 14 26 15 27 16 28 17 29 18 11 19 10 20 9 21 12 22
REMARK SMILES IDX 30 23 24 24 25 25 18 26 8 27 2 28 3 29 1 30 22 31
REMARK H PARENT 22 32
REMARK Flexibility Score: inf
ROOT
ATOM      1  C   UNL     1     137.275 122.534 139.684  1.00  0.00     0.018 C 
ATOM      2  C   UNL     1     136.599 121.499 138.750  1.00  0.00     0.009 C 
ATOM      3  C   UNL     1     135.088 121.545 139.059  1.00  0.00     0.008 C 
ATOM      4  C   UNL     1     134.978 122.253 140.421  1.00  0.00    -0.029 C 
ATOM      5  C   UNL     1     136.091 123.292 140.294  1.00  0.00     0.006 C 
ATOM      6  C   UNL     1     136.278 124.265 141.499  1.00  0.00    -0.000 C 
ATOM      7  C   UNL     1     137.139 123.734 142.626  1.00  0.00     0.005 C 
ATOM      8  C   UNL     1     137.569 124.886 143.525  1.00  0.00     0.005 C 
ATOM      9  C   UNL     1     136.513 125.992 143.856  1.00  0.00     0.002 C 
ATOM     10  C   UNL     1     136.790 126.614 145.318  1.00  0.00    -0.026 C 
ATOM     11  C   UNL     1     138.344 126.873 145.539  1.00  0.00     0.010 C 
ATOM     12  C   UNL     1     139.131 125.869 146.389  1.00  0.00     0.033 C 
ATOM     13  C   UNL     1     138.420 125.516 147.695  1.00  0.00     0.120 C 
ATOM     14  C   UNL     1     137.021 124.865 147.462  1.00  0.00    -0.006 C 
ATOM     15  C   UNL     1     136.119 125.765 146.500  1.00  0.00     0.003 C 
ATOM     16  C   UNL     1     134.763 125.096 146.118  1.00  0.00     0.005 C 
ATOM     17  C   UNL     1     134.633 124.537 144.685  1.00  0.00     0.008 C 
ATOM     18  C   UNL     1     135.024 125.529 143.539  1.00  0.00    -0.024 C 
ATOM     19  C   UNL     1     134.915 124.905 142.013  1.00  0.00    -0.024 C 
ATOM     20  C   UNL     1     133.715 123.875 141.915  1.00  0.00     0.008 C 
ATOM     21  C   UNL     1     133.655 123.012 140.634  1.00  0.00     0.007 C 
ATOM     22  C   UNL     1     134.606 126.049 140.976  1.00  0.00     0.012 C 
ATOM     23  C   UNL     1     133.993 126.709 143.624  1.00  0.00     0.012 C 
ATOM     24  C   UNL     1     136.334 124.750 148.861  1.00  0.00     0.014 C 
ATOM     25  C   UNL     1     137.212 123.396 146.979  1.00  0.00     0.014 C 
ATOM     26  C   UNL     1     136.186 128.064 145.356  1.00  0.00     0.012 C 
ATOM     27  C   UNL     1     135.187 121.175 141.526  1.00  0.00     0.011 C 
ENDROOT
BRANCH   1  28
ATOM     28  C   UNL     1     138.259 123.448 138.963  1.00  0.00    -0.077 C 
ATOM     29  C   UNL     1     137.885 124.853 138.555  1.00  0.00     0.039 C 
ATOM     30  C   UNL     1     139.508 123.022 138.715  1.00  0.00     0.008 C 
ENDBRANCH   1  28
BRANCH  13  31
ATOM     31  O   UNL     1     138.367 126.637 148.550  1.00  0.00    -0.393 OA
ATOM     32  H   UNL     1     138.477 126.326 149.484  1.00  0.00     0.210 HD
ENDBRANCH  13  31
TORSDOF 2
ENDMDL
