MODEL 1
REMARK VINA RESULT:    -4.026      0.000      0.000
REMARK INTER + INTRA:          -8.879
REMARK INTER:                  -6.967
REMARK INTRA:                  -1.911
REMARK UNBOUND:                -1.911
REMARK SMILES OC[C@@H]1O[C@@H](O[C@H]2[C@@H](O)[C@@H](O)[C@H](O)O[C@@H]2CO)[C@H](O)[C@H](O)[C@@H]1O[C@H]1O[C@H](CO)[C@H](O)[C@H](O)[C@H]1O
REMARK SMILES IDX 22 1 3 2 4 3 5 4 18 5 20 6 23 7 24 8 26 9 29 10 25 11 31 12
REMARK SMILES IDX 33 13 27 14 28 15 30 17 32 19 34 21 2 23 1 24 21 26 19 28
REMARK SMILES IDX 6 30 7 31 15 32 8 33 14 34 10 35 12 36 16 37 17 38 9 40
REMARK SMILES IDX 11 42 13 44
REMARK H PARENT 28 16 30 18 32 20 34 22 1 25 21 27 19 29 17 39 9 41 11 43
REMARK H PARENT 13 45
REMARK Flexibility Score: inf
ROOT
ATOM      1  C   UNL     1     -34.997 -13.402  49.830  1.00  0.00     0.184 C 
ATOM      2  C   UNL     1     -35.384 -11.946  50.121  1.00  0.00     0.178 C 
ATOM      3  O   UNL     1     -36.490 -11.469  49.364  1.00  0.00    -0.341 OA
ATOM      4  C   UNL     1     -37.362 -12.466  48.816  1.00  0.00     0.282 C 
ATOM      5  C   UNL     1     -37.559 -13.730  49.718  1.00  0.00     0.202 C 
ATOM      6  C   UNL     1     -36.193 -14.362  50.116  1.00  0.00     0.180 C 
ENDROOT
BRANCH   1   7
ATOM      7  O   UNL     1     -33.814 -13.743  50.574  1.00  0.00    -0.341 OA
BRANCH   7   8
ATOM      8  C   UNL     1     -32.767 -14.499  49.891  1.00  0.00     0.282 C 
ATOM      9  C   UNL     1     -30.949 -13.589  48.559  1.00  0.00     0.178 C 
ATOM     10  C   UNL     1     -30.223 -13.201  49.863  1.00  0.00     0.177 C 
ATOM     11  O   UNL     1     -32.346 -13.784  48.736  1.00  0.00    -0.341 OA
ATOM     12  C   UNL     1     -30.454 -14.202  51.037  1.00  0.00     0.179 C 
ATOM     13  C   UNL     1     -31.602 -15.181  50.699  1.00  0.00     0.202 C 
BRANCH   9  14
ATOM     14  C   UNL     1     -30.312 -14.750  47.732  1.00  0.00     0.191 C 
BRANCH  14  15
ATOM     15  O   UNL     1     -29.221 -14.314  46.947  1.00  0.00    -0.394 OA
ATOM     16  H   UNL     1     -28.934 -13.442  47.293  1.00  0.00     0.210 HD
ENDBRANCH  14  15
ENDBRANCH   9  14
BRANCH  10  17
ATOM     17  O   UNL     1     -28.852 -13.037  49.603  1.00  0.00    -0.387 OA
ATOM     18  H   UNL     1     -28.518 -12.416  50.303  1.00  0.00     0.211 HD
ENDBRANCH  10  17
BRANCH  12  19
ATOM     19  O   UNL     1     -29.291 -14.932  51.372  1.00  0.00    -0.387 OA
ATOM     20  H   UNL     1     -29.358 -15.124  52.347  1.00  0.00     0.211 HD
ENDBRANCH  12  19
BRANCH  13  21
ATOM     21  O   UNL     1     -32.085 -15.840  51.835  1.00  0.00    -0.385 OA
ATOM     22  H   UNL     1     -31.776 -16.777  51.834  1.00  0.00     0.211 HD
ENDBRANCH  13  21
ENDBRANCH   7   8
ENDBRANCH   1   7
BRANCH   2  23
ATOM     23  C   UNL     1     -35.624 -11.652  51.620  1.00  0.00     0.191 C 
BRANCH  23  24
ATOM     24  O   UNL     1     -36.850 -10.989  51.826  1.00  0.00    -0.394 OA
ATOM     25  H   UNL     1     -37.457 -11.672  52.223  1.00  0.00     0.210 HD
ENDBRANCH  23  24
ENDBRANCH   2  23
BRANCH   6  26
ATOM     26  O   UNL     1     -36.249 -14.769  51.460  1.00  0.00    -0.387 OA
ATOM     27  H   UNL     1     -37.155 -14.677  51.788  1.00  0.00     0.211 HD
ENDBRANCH   6  26
BRANCH   5  28
ATOM     28  O   UNL     1     -38.381 -13.460  50.823  1.00  0.00    -0.385 OA
ATOM     29  H   UNL     1     -39.301 -13.835  50.649  1.00  0.00     0.211 HD
ENDBRANCH   5  28
BRANCH   4  30
ATOM     30  O   UNL     1     -37.015 -12.891  47.489  1.00  0.00    -0.341 OA
BRANCH  30  31
ATOM     31  C   UNL     1     -36.721 -11.862  46.551  1.00  0.00     0.184 C 
ATOM     32  C   UNL     1     -37.942 -10.857  46.349  1.00  0.00     0.178 C 
ATOM     33  C   UNL     1     -36.319 -12.537  45.221  1.00  0.00     0.180 C 
ATOM     34  O   UNL     1     -38.842 -11.339  45.361  1.00  0.00    -0.342 OA
ATOM     35  C   UNL     1     -36.745 -11.678  43.994  1.00  0.00     0.201 C 
ATOM     36  C   UNL     1     -38.285 -11.457  44.051  1.00  0.00     0.279 C 
BRANCH  32  37
ATOM     37  C   UNL     1     -37.599  -9.352  46.135  1.00  0.00     0.191 C 
BRANCH  37  38
ATOM     38  O   UNL     1     -38.739  -8.606  45.832  1.00  0.00    -0.394 OA
ATOM     39  H   UNL     1     -38.436  -7.677  45.631  1.00  0.00     0.210 HD
ENDBRANCH  37  38
ENDBRANCH  32  37
BRANCH  33  40
ATOM     40  O   UNL     1     -36.882 -13.824  45.152  1.00  0.00    -0.387 OA
ATOM     41  H   UNL     1     -36.424 -14.317  44.452  1.00  0.00     0.211 HD
ENDBRANCH  33  40
BRANCH  35  42
ATOM     42  O   UNL     1     -36.385 -12.248  42.758  1.00  0.00    -0.385 OA
ATOM     43  H   UNL     1     -36.617 -11.609  42.018  1.00  0.00     0.211 HD
ENDBRANCH  35  42
BRANCH  36  44
ATOM     44  O   UNL     1     -38.629 -10.345  43.269  1.00  0.00    -0.366 OA
ATOM     45  H   UNL     1     -38.378 -10.572  42.317  1.00  0.00     0.213 HD
ENDBRANCH  36  44
ENDBRANCH  30  31
ENDBRANCH   4  30
TORSDOF 18
ENDMDL
MODEL 2
REMARK VINA RESULT:    -3.942      2.801      6.268
REMARK INTER + INTRA:          -8.735
REMARK INTER:                  -6.455
REMARK INTRA:                  -2.280
REMARK UNBOUND:                -1.911
REMARK SMILES OC[C@@H]1O[C@@H](O[C@H]2[C@@H](O)[C@@H](O)[C@H](O)O[C@@H]2CO)[C@H](O)[C@H](O)[C@@H]1O[C@H]1O[C@H](CO)[C@H](O)[C@H](O)[C@H]1O
REMARK SMILES IDX 22 1 3 2 4 3 5 4 18 5 20 6 23 7 24 8 26 9 29 10 25 11 31 12
REMARK SMILES IDX 33 13 27 14 28 15 30 17 32 19 34 21 2 23 1 24 21 26 19 28
REMARK SMILES IDX 6 30 7 31 15 32 8 33 14 34 10 35 12 36 16 37 17 38 9 40
REMARK SMILES IDX 11 42 13 44
REMARK H PARENT 28 16 30 18 32 20 34 22 1 25 21 27 19 29 17 39 9 41 11 43
REMARK H PARENT 13 45
REMARK Flexibility Score: inf
ROOT
ATOM      1  C   UNL     1     -37.196 -12.269  48.649  1.00  0.00     0.184 C 
ATOM      2  C   UNL     1     -35.744 -11.820  48.868  1.00  0.00     0.178 C 
ATOM      3  O   UNL     1     -35.594 -10.748  49.790  1.00  0.00    -0.341 OA
ATOM      4  C   UNL     1     -36.673 -10.546  50.712  1.00  0.00     0.282 C 
ATOM      5  C   UNL     1     -37.374 -11.860  51.196  1.00  0.00     0.202 C 
ATOM      6  C   UNL     1     -37.843 -12.729  49.991  1.00  0.00     0.180 C 
ENDROOT
BRANCH   1   7
ATOM      7  O   UNL     1     -37.237 -13.284  47.630  1.00  0.00    -0.341 OA
BRANCH   7   8
ATOM      8  C   UNL     1     -37.993 -13.004  46.412  1.00  0.00     0.282 C 
ATOM      9  C   UNL     1     -37.797 -11.040  44.995  1.00  0.00     0.178 C 
ATOM     10  C   UNL     1     -36.501 -11.629  44.403  1.00  0.00     0.177 C 
ATOM     11  O   UNL     1     -38.137 -11.598  46.258  1.00  0.00    -0.341 OA
ATOM     12  C   UNL     1     -36.509 -13.184  44.287  1.00  0.00     0.179 C 
ATOM     13  C   UNL     1     -37.696 -13.782  45.077  1.00  0.00     0.202 C 
BRANCH   9  14
ATOM     14  C   UNL     1     -39.033 -10.991  44.042  1.00  0.00     0.191 C 
BRANCH  14  15
ATOM     15  O   UNL     1     -38.825 -10.137  42.936  1.00  0.00    -0.394 OA
ATOM     16  H   UNL     1     -38.872  -9.212  43.260  1.00  0.00     0.210 HD
ENDBRANCH  14  15
ENDBRANCH   9  14
BRANCH  10  17
ATOM     17  O   UNL     1     -36.244 -11.032  43.158  1.00  0.00    -0.387 OA
ATOM     18  H   UNL     1     -35.296 -11.244  42.948  1.00  0.00     0.211 HD
ENDBRANCH  10  17
BRANCH  12  19
ATOM     19  O   UNL     1     -36.556 -13.634  42.948  1.00  0.00    -0.387 OA
ATOM     20  H   UNL     1     -37.134 -12.986  42.460  1.00  0.00     0.211 HD
ENDBRANCH  12  19
BRANCH  13  21
ATOM     21  O   UNL     1     -37.538 -15.154  45.308  1.00  0.00    -0.385 OA
ATOM     22  H   UNL     1     -36.868 -15.298  46.017  1.00  0.00     0.211 HD
ENDBRANCH  13  21
ENDBRANCH   7   8
ENDBRANCH   1   7
BRANCH   2  23
ATOM     23  C   UNL     1     -34.788 -12.970  49.257  1.00  0.00     0.191 C 
BRANCH  23  24
ATOM     24  O   UNL     1     -34.062 -12.664  50.426  1.00  0.00    -0.394 OA
ATOM     25  H   UNL     1     -34.523 -13.155  51.160  1.00  0.00     0.210 HD
ENDBRANCH  23  24
ENDBRANCH   2  23
BRANCH   6  26
ATOM     26  O   UNL     1     -37.591 -14.082  50.277  1.00  0.00    -0.387 OA
ATOM     27  H   UNL     1     -36.706 -14.319  49.963  1.00  0.00     0.211 HD
ENDBRANCH   6  26
BRANCH   5  28
ATOM     28  O   UNL     1     -36.580 -12.570  52.109  1.00  0.00    -0.385 OA
ATOM     29  H   UNL     1     -37.144 -13.275  52.558  1.00  0.00     0.211 HD
ENDBRANCH   5  28
BRANCH   4  30
ATOM     30  O   UNL     1     -37.676  -9.623  50.258  1.00  0.00    -0.341 OA
BRANCH  30  31
ATOM     31  C   UNL     1     -37.250  -8.632  49.330  1.00  0.00     0.184 C 
ATOM     32  C   UNL     1     -37.579  -7.154  49.829  1.00  0.00     0.178 C 
ATOM     33  C   UNL     1     -37.926  -8.934  47.975  1.00  0.00     0.180 C 
ATOM     34  O   UNL     1     -38.896  -6.770  49.457  1.00  0.00    -0.342 OA
ATOM     35  C   UNL     1     -38.218  -7.628  47.179  1.00  0.00     0.201 C 
ATOM     36  C   UNL     1     -39.125  -6.708  48.048  1.00  0.00     0.279 C 
BRANCH  32  37
ATOM     37  C   UNL     1     -36.538  -6.042  49.500  1.00  0.00     0.191 C 
BRANCH  37  38
ATOM     38  O   UNL     1     -35.427  -6.562  48.834  1.00  0.00    -0.394 OA
ATOM     39  H   UNL     1     -35.750  -7.322  48.276  1.00  0.00     0.210 HD
ENDBRANCH  37  38
ENDBRANCH  32  37
BRANCH  33  40
ATOM     40  O   UNL     1     -39.106  -9.668  48.185  1.00  0.00    -0.387 OA
ATOM     41  H   UNL     1     -39.009 -10.530  47.748  1.00  0.00     0.211 HD
ENDBRANCH  33  40
BRANCH  35  42
ATOM     42  O   UNL     1     -38.820  -7.855  45.928  1.00  0.00    -0.385 OA
ATOM     43  H   UNL     1     -39.238  -8.769  45.921  1.00  0.00     0.211 HD
ENDBRANCH  35  42
BRANCH  36  44
ATOM     44  O   UNL     1     -39.026  -5.385  47.593  1.00  0.00    -0.366 OA
ATOM     45  H   UNL     1     -39.935  -5.136  47.227  1.00  0.00     0.213 HD
ENDBRANCH  36  44
ENDBRANCH  30  31
ENDBRANCH   4  30
TORSDOF 18
ENDMDL
MODEL 3
REMARK VINA RESULT:    -3.932     10.610     14.572
REMARK INTER + INTRA:          -8.716
REMARK INTER:                  -7.084
REMARK INTRA:                  -1.633
REMARK UNBOUND:                -1.911
REMARK SMILES OC[C@@H]1O[C@@H](O[C@H]2[C@@H](O)[C@@H](O)[C@H](O)O[C@@H]2CO)[C@H](O)[C@H](O)[C@@H]1O[C@H]1O[C@H](CO)[C@H](O)[C@H](O)[C@H]1O
REMARK SMILES IDX 22 1 3 2 4 3 5 4 18 5 20 6 23 7 24 8 26 9 29 10 25 11 31 12
REMARK SMILES IDX 33 13 27 14 28 15 30 17 32 19 34 21 2 23 1 24 21 26 19 28
REMARK SMILES IDX 6 30 7 31 15 32 8 33 14 34 10 35 12 36 16 37 17 38 9 40
REMARK SMILES IDX 11 42 13 44
REMARK H PARENT 28 16 30 18 32 20 34 22 1 25 21 27 19 29 17 39 9 41 11 43
REMARK H PARENT 13 45
REMARK Flexibility Score: inf
ROOT
ATOM      1  C   UNL     1     -21.092 -13.690  45.988  1.00  0.00     0.184 C 
ATOM      2  C   UNL     1     -21.979 -14.913  45.720  1.00  0.00     0.178 C 
ATOM      3  O   UNL     1     -22.004 -15.335  44.362  1.00  0.00    -0.341 OA
ATOM      4  C   UNL     1     -20.904 -14.912  43.546  1.00  0.00     0.282 C 
ATOM      5  C   UNL     1     -19.526 -14.846  44.287  1.00  0.00     0.202 C 
ATOM      6  C   UNL     1     -19.616 -13.973  45.573  1.00  0.00     0.180 C 
ENDROOT
BRANCH   1   7
ATOM      7  O   UNL     1     -21.221 -13.294  47.365  1.00  0.00    -0.341 OA
BRANCH   7   8
ATOM      8  C   UNL     1     -22.334 -12.420  47.728  1.00  0.00     0.282 C 
ATOM      9  C   UNL     1     -23.607 -12.469  49.798  1.00  0.00     0.178 C 
ATOM     10  C   UNL     1     -22.436 -11.756  50.504  1.00  0.00     0.177 C 
ATOM     11  O   UNL     1     -23.219 -13.119  48.594  1.00  0.00    -0.341 OA
ATOM     12  C   UNL     1     -21.676 -10.739  49.597  1.00  0.00     0.179 C 
ATOM     13  C   UNL     1     -22.089 -10.916  48.118  1.00  0.00     0.202 C 
BRANCH   9  14
ATOM     14  C   UNL     1     -24.908 -11.630  49.598  1.00  0.00     0.191 C 
BRANCH  14  15
ATOM     15  O   UNL     1     -25.934 -12.372  48.971  1.00  0.00    -0.394 OA
ATOM     16  H   UNL     1     -26.121 -13.156  49.532  1.00  0.00     0.210 HD
ENDBRANCH  14  15
ENDBRANCH   9  14
BRANCH  10  17
ATOM     17  O   UNL     1     -22.905 -11.135  51.673  1.00  0.00    -0.387 OA
ATOM     18  H   UNL     1     -22.299 -10.363  51.829  1.00  0.00     0.211 HD
ENDBRANCH  10  17
BRANCH  12  19
ATOM     19  O   UNL     1     -21.878  -9.397  49.990  1.00  0.00    -0.387 OA
ATOM     20  H   UNL     1     -22.545  -9.424  50.730  1.00  0.00     0.211 HD
ENDBRANCH  12  19
BRANCH  13  21
ATOM     21  O   UNL     1     -21.187 -10.301  47.242  1.00  0.00    -0.385 OA
ATOM     22  H   UNL     1     -20.719  -9.567  47.705  1.00  0.00     0.211 HD
ENDBRANCH  13  21
ENDBRANCH   7   8
ENDBRANCH   1   7
BRANCH   2  23
ATOM     23  C   UNL     1     -21.663 -16.123  46.628  1.00  0.00     0.191 C 
BRANCH  23  24
ATOM     24  O   UNL     1     -22.052 -15.885  47.961  1.00  0.00    -0.394 OA
ATOM     25  H   UNL     1     -21.454 -15.156  48.284  1.00  0.00     0.210 HD
ENDBRANCH  23  24
ENDBRANCH   2  23
BRANCH   6  26
ATOM     26  O   UNL     1     -18.875 -14.588  46.597  1.00  0.00    -0.387 OA
ATOM     27  H   UNL     1     -19.055 -14.142  47.438  1.00  0.00     0.211 HD
ENDBRANCH   6  26
BRANCH   5  28
ATOM     28  O   UNL     1     -19.000 -16.125  44.526  1.00  0.00    -0.385 OA
ATOM     29  H   UNL     1     -18.704 -16.529  43.651  1.00  0.00     0.211 HD
ENDBRANCH   5  28
BRANCH   4  30
ATOM     30  O   UNL     1     -21.121 -13.672  42.855  1.00  0.00    -0.341 OA
BRANCH  30  31
ATOM     31  C   UNL     1     -21.054 -13.718  41.435  1.00  0.00     0.184 C 
ATOM     32  C   UNL     1     -20.864 -12.272  40.789  1.00  0.00     0.178 C 
ATOM     33  C   UNL     1     -22.342 -14.399  40.924  1.00  0.00     0.180 C 
ATOM     34  O   UNL     1     -22.117 -11.632  40.593  1.00  0.00    -0.342 OA
ATOM     35  C   UNL     1     -22.778 -13.831  39.541  1.00  0.00     0.201 C 
ATOM     36  C   UNL     1     -22.991 -12.295  39.678  1.00  0.00     0.279 C 
BRANCH  32  37
ATOM     37  C   UNL     1     -19.956 -12.168  39.526  1.00  0.00     0.191 C 
BRANCH  37  38
ATOM     38  O   UNL     1     -19.335 -10.921  39.444  1.00  0.00    -0.394 OA
ATOM     39  H   UNL     1     -19.894 -10.355  38.842  1.00  0.00     0.210 HD
ENDBRANCH  37  38
ENDBRANCH  32  37
BRANCH  33  40
ATOM     40  O   UNL     1     -23.368 -14.250  41.873  1.00  0.00    -0.387 OA
ATOM     41  H   UNL     1     -23.862 -13.442  41.659  1.00  0.00     0.211 HD
ENDBRANCH  33  40
BRANCH  35  42
ATOM     42  O   UNL     1     -23.940 -14.436  39.027  1.00  0.00    -0.385 OA
ATOM     43  H   UNL     1     -23.951 -15.407  39.283  1.00  0.00     0.211 HD
ENDBRANCH  35  42
BRANCH  36  44
ATOM     44  O   UNL     1     -22.923 -11.696  38.411  1.00  0.00    -0.366 OA
ATOM     45  H   UNL     1     -22.527 -10.777  38.547  1.00  0.00     0.213 HD
ENDBRANCH  36  44
ENDBRANCH  30  31
ENDBRANCH   4  30
TORSDOF 18
ENDMDL
MODEL 4
REMARK VINA RESULT:    -3.912      1.246      2.016
REMARK INTER + INTRA:          -8.681
REMARK INTER:                  -7.005
REMARK INTRA:                  -1.676
REMARK UNBOUND:                -1.911
REMARK SMILES OC[C@@H]1O[C@@H](O[C@H]2[C@@H](O)[C@@H](O)[C@H](O)O[C@@H]2CO)[C@H](O)[C@H](O)[C@@H]1O[C@H]1O[C@H](CO)[C@H](O)[C@H](O)[C@H]1O
REMARK SMILES IDX 22 1 3 2 4 3 5 4 18 5 20 6 23 7 24 8 26 9 29 10 25 11 31 12
REMARK SMILES IDX 33 13 27 14 28 15 30 17 32 19 34 21 2 23 1 24 21 26 19 28
REMARK SMILES IDX 6 30 7 31 15 32 8 33 14 34 10 35 12 36 16 37 17 38 9 40
REMARK SMILES IDX 11 42 13 44
REMARK H PARENT 28 16 30 18 32 20 34 22 1 25 21 27 19 29 17 39 9 41 11 43
REMARK H PARENT 13 45
REMARK Flexibility Score: inf
ROOT
ATOM      1  C   UNL     1     -34.580 -13.731  49.429  1.00  0.00     0.184 C 
ATOM      2  C   UNL     1     -35.151 -12.382  49.888  1.00  0.00     0.178 C 
ATOM      3  O   UNL     1     -36.268 -11.930  49.133  1.00  0.00    -0.341 OA
ATOM      4  C   UNL     1     -36.988 -12.930  48.402  1.00  0.00     0.282 C 
ATOM      5  C   UNL     1     -37.076 -14.324  49.112  1.00  0.00     0.202 C 
ATOM      6  C   UNL     1     -35.665 -14.849  49.507  1.00  0.00     0.180 C 
ENDROOT
BRANCH   1   7
ATOM      7  O   UNL     1     -33.401 -14.039  50.194  1.00  0.00    -0.341 OA
BRANCH   7   8
ATOM      8  C   UNL     1     -32.257 -13.137  50.088  1.00  0.00     0.282 C 
ATOM      9  C   UNL     1     -30.670 -12.587  51.844  1.00  0.00     0.178 C 
ATOM     10  C   UNL     1     -29.986 -13.950  51.617  1.00  0.00     0.177 C 
ATOM     11  O   UNL     1     -32.005 -12.545  51.355  1.00  0.00    -0.341 OA
ATOM     12  C   UNL     1     -30.001 -14.425  50.131  1.00  0.00     0.179 C 
ATOM     13  C   UNL     1     -30.966 -13.556  49.292  1.00  0.00     0.202 C 
BRANCH   9  14
ATOM     14  C   UNL     1     -29.862 -11.326  51.403  1.00  0.00     0.191 C 
BRANCH  14  15
ATOM     15  O   UNL     1     -30.682 -10.183  51.268  1.00  0.00    -0.394 OA
ATOM     16  H   UNL     1     -30.234  -9.438  51.723  1.00  0.00     0.210 HD
ENDBRANCH  14  15
ENDBRANCH   9  14
BRANCH  10  17
ATOM     17  O   UNL     1     -28.675 -13.903  52.118  1.00  0.00    -0.387 OA
ATOM     18  H   UNL     1     -28.649 -13.121  52.730  1.00  0.00     0.211 HD
ENDBRANCH  10  17
BRANCH  12  19
ATOM     19  O   UNL     1     -28.717 -14.414  49.540  1.00  0.00    -0.387 OA
ATOM     20  H   UNL     1     -28.174 -15.074  50.051  1.00  0.00     0.211 HD
ENDBRANCH  12  19
BRANCH  13  21
ATOM     21  O   UNL     1     -31.290 -14.157  48.071  1.00  0.00    -0.385 OA
ATOM     22  H   UNL     1     -30.947 -15.081  48.052  1.00  0.00     0.211 HD
ENDBRANCH  13  21
ENDBRANCH   7   8
ENDBRANCH   1   7
BRANCH   2  23
ATOM     23  C   UNL     1     -35.496 -12.331  51.394  1.00  0.00     0.191 C 
BRANCH  23  24
ATOM     24  O   UNL     1     -34.682 -11.406  52.079  1.00  0.00    -0.394 OA
ATOM     25  H   UNL     1     -33.900 -11.931  52.404  1.00  0.00     0.210 HD
ENDBRANCH  23  24
ENDBRANCH   2  23
BRANCH   6  26
ATOM     26  O   UNL     1     -35.736 -15.445  50.778  1.00  0.00    -0.387 OA
ATOM     27  H   UNL     1     -35.069 -16.144  50.845  1.00  0.00     0.211 HD
ENDBRANCH   6  26
BRANCH   5  28
ATOM     28  O   UNL     1     -37.976 -14.305  50.188  1.00  0.00    -0.385 OA
ATOM     29  H   UNL     1     -38.846 -14.724  49.898  1.00  0.00     0.211 HD
ENDBRANCH   5  28
BRANCH   4  30
ATOM     30  O   UNL     1     -36.531 -13.124  47.054  1.00  0.00    -0.341 OA
BRANCH  30  31
ATOM     31  C   UNL     1     -36.420 -11.955  46.250  1.00  0.00     0.184 C 
ATOM     32  C   UNL     1     -37.736 -11.055  46.303  1.00  0.00     0.178 C 
ATOM     33  C   UNL     1     -36.102 -12.404  44.807  1.00  0.00     0.180 C 
ATOM     34  O   UNL     1     -38.688 -11.486  45.341  1.00  0.00    -0.342 OA
ATOM     35  C   UNL     1     -36.721 -11.434  43.758  1.00  0.00     0.201 C 
ATOM     36  C   UNL     1     -38.260 -11.374  43.983  1.00  0.00     0.279 C 
BRANCH  32  37
ATOM     37  C   UNL     1     -37.544  -9.509  46.276  1.00  0.00     0.191 C 
BRANCH  37  38
ATOM     38  O   UNL     1     -38.760  -8.845  46.101  1.00  0.00    -0.394 OA
ATOM     39  H   UNL     1     -38.629  -7.908  46.414  1.00  0.00     0.210 HD
ENDBRANCH  37  38
ENDBRANCH  32  37
BRANCH  33  40
ATOM     40  O   UNL     1     -36.559 -13.718  44.606  1.00  0.00    -0.387 OA
ATOM     41  H   UNL     1     -36.834 -13.804  43.679  1.00  0.00     0.211 HD
ENDBRANCH  33  40
BRANCH  35  42
ATOM     42  O   UNL     1     -36.442 -11.796  42.426  1.00  0.00    -0.385 OA
ATOM     43  H   UNL     1     -35.461 -11.992  42.333  1.00  0.00     0.211 HD
ENDBRANCH  35  42
BRANCH  36  44
ATOM     44  O   UNL     1     -38.774 -10.206  43.401  1.00  0.00    -0.366 OA
ATOM     45  H   UNL     1     -39.707 -10.428  43.082  1.00  0.00     0.213 HD
ENDBRANCH  36  44
ENDBRANCH  30  31
ENDBRANCH   4  30
TORSDOF 18
ENDMDL
MODEL 5
REMARK VINA RESULT:    -3.891      4.841      9.442
REMARK INTER + INTRA:          -8.646
REMARK INTER:                  -6.815
REMARK INTRA:                  -1.830
REMARK UNBOUND:                -1.911
REMARK SMILES OC[C@@H]1O[C@@H](O[C@H]2[C@@H](O)[C@@H](O)[C@H](O)O[C@@H]2CO)[C@H](O)[C@H](O)[C@@H]1O[C@H]1O[C@H](CO)[C@H](O)[C@H](O)[C@H]1O
REMARK SMILES IDX 22 1 3 2 4 3 5 4 18 5 20 6 23 7 24 8 26 9 29 10 25 11 31 12
REMARK SMILES IDX 33 13 27 14 28 15 30 17 32 19 34 21 2 23 1 24 21 26 19 28
REMARK SMILES IDX 6 30 7 31 15 32 8 33 14 34 10 35 12 36 16 37 17 38 9 40
REMARK SMILES IDX 11 42 13 44
REMARK H PARENT 28 16 30 18 32 20 34 22 1 25 21 27 19 29 17 39 9 41 11 43
REMARK H PARENT 13 45
REMARK Flexibility Score: inf
ROOT
ATOM      1  C   UNL     1     -26.278 -13.632  50.073  1.00  0.00     0.184 C 
ATOM      2  C   UNL     1     -26.361 -15.071  50.601  1.00  0.00     0.178 C 
ATOM      3  O   UNL     1     -27.669 -15.483  50.978  1.00  0.00    -0.341 OA
ATOM      4  C   UNL     1     -28.757 -14.743  50.410  1.00  0.00     0.282 C 
ATOM      5  C   UNL     1     -28.519 -14.251  48.942  1.00  0.00     0.202 C 
ATOM      6  C   UNL     1     -27.191 -13.445  48.823  1.00  0.00     0.180 C 
ENDROOT
BRANCH   1   7
ATOM      7  O   UNL     1     -24.903 -13.292  49.818  1.00  0.00    -0.341 OA
BRANCH   7   8
ATOM      8  C   UNL     1     -24.500 -11.896  49.972  1.00  0.00     0.282 C 
ATOM      9  C   UNL     1     -22.552 -11.067  51.165  1.00  0.00     0.178 C 
ATOM     10  C   UNL     1     -21.673 -11.493  49.973  1.00  0.00     0.177 C 
ATOM     11  O   UNL     1     -23.805 -11.739  51.202  1.00  0.00    -0.341 OA
ATOM     12  C   UNL     1     -22.372 -11.344  48.587  1.00  0.00     0.179 C 
ATOM     13  C   UNL     1     -23.887 -11.093  48.766  1.00  0.00     0.202 C 
BRANCH   9  14
ATOM     14  C   UNL     1     -22.724  -9.531  51.385  1.00  0.00     0.191 C 
BRANCH  14  15
ATOM     15  O   UNL     1     -21.813  -8.773  50.614  1.00  0.00    -0.394 OA
ATOM     16  H   UNL     1     -21.056  -9.356  50.390  1.00  0.00     0.210 HD
ENDBRANCH  14  15
ENDBRANCH   9  14
BRANCH  10  17
ATOM     17  O   UNL     1     -20.464 -10.779  50.007  1.00  0.00    -0.387 OA
ATOM     18  H   UNL     1     -20.720  -9.820  50.059  1.00  0.00     0.211 HD
ENDBRANCH  10  17
BRANCH  12  19
ATOM     19  O   UNL     1     -21.810 -10.315  47.797  1.00  0.00    -0.387 OA
ATOM     20  H   UNL     1     -21.242  -9.776  48.412  1.00  0.00     0.211 HD
ENDBRANCH  12  19
BRANCH  13  21
ATOM     21  O   UNL     1     -24.603 -11.317  47.584  1.00  0.00    -0.385 OA
ATOM     22  H   UNL     1     -24.464 -12.245  47.282  1.00  0.00     0.211 HD
ENDBRANCH  13  21
ENDBRANCH   7   8
ENDBRANCH   1   7
BRANCH   2  23
ATOM     23  C   UNL     1     -25.747 -16.121  49.648  1.00  0.00     0.191 C 
BRANCH  23  24
ATOM     24  O   UNL     1     -24.342 -16.015  49.599  1.00  0.00    -0.394 OA
ATOM     25  H   UNL     1     -24.064 -16.547  48.804  1.00  0.00     0.210 HD
ENDBRANCH  23  24
ENDBRANCH   2  23
BRANCH   6  26
ATOM     26  O   UNL     1     -26.547 -13.797  47.625  1.00  0.00    -0.387 OA
ATOM     27  H   UNL     1     -26.724 -13.123  46.952  1.00  0.00     0.211 HD
ENDBRANCH   6  26
BRANCH   5  28
ATOM     28  O   UNL     1     -28.607 -15.303  48.018  1.00  0.00    -0.385 OA
ATOM     29  H   UNL     1     -28.131 -16.110  48.391  1.00  0.00     0.211 HD
ENDBRANCH   5  28
BRANCH   4  30
ATOM     30  O   UNL     1     -29.198 -13.632  51.207  1.00  0.00    -0.341 OA
BRANCH  30  31
ATOM     31  C   UNL     1     -30.487 -13.750  51.797  1.00  0.00     0.184 C 
ATOM     32  C   UNL     1     -31.442 -14.731  50.980  1.00  0.00     0.178 C 
ATOM     33  C   UNL     1     -31.090 -12.332  51.900  1.00  0.00     0.180 C 
ATOM     34  O   UNL     1     -32.112 -14.039  49.935  1.00  0.00    -0.342 OA
ATOM     35  C   UNL     1     -32.639 -12.357  51.746  1.00  0.00     0.201 C 
ATOM     36  C   UNL     1     -32.992 -13.002  50.373  1.00  0.00     0.279 C 
BRANCH  32  37
ATOM     37  C   UNL     1     -32.419 -15.624  51.802  1.00  0.00     0.191 C 
BRANCH  37  38
ATOM     38  O   UNL     1     -33.450 -16.125  51.004  1.00  0.00    -0.394 OA
ATOM     39  H   UNL     1     -34.308 -15.850  51.428  1.00  0.00     0.210 HD
ENDBRANCH  37  38
ENDBRANCH  32  37
BRANCH  33  40
ATOM     40  O   UNL     1     -30.503 -11.495  50.935  1.00  0.00    -0.387 OA
ATOM     41  H   UNL     1     -29.660 -11.893  50.661  1.00  0.00     0.211 HD
ENDBRANCH  33  40
BRANCH  35  42
ATOM     42  O   UNL     1     -33.235 -11.086  51.848  1.00  0.00    -0.385 OA
ATOM     43  H   UNL     1     -34.234 -11.182  51.801  1.00  0.00     0.211 HD
ENDBRANCH  35  42
BRANCH  36  44
ATOM     44  O   UNL     1     -34.318 -13.460  50.396  1.00  0.00    -0.366 OA
ATOM     45  H   UNL     1     -34.617 -13.432  51.360  1.00  0.00     0.213 HD
ENDBRANCH  36  44
ENDBRANCH  30  31
ENDBRANCH   4  30
TORSDOF 18
ENDMDL
MODEL 6
REMARK VINA RESULT:    -3.825      6.716     11.586
REMARK INTER + INTRA:          -8.531
REMARK INTER:                  -7.096
REMARK INTRA:                  -1.435
REMARK UNBOUND:                -1.911
REMARK SMILES OC[C@@H]1O[C@@H](O[C@H]2[C@@H](O)[C@@H](O)[C@H](O)O[C@@H]2CO)[C@H](O)[C@H](O)[C@@H]1O[C@H]1O[C@H](CO)[C@H](O)[C@H](O)[C@H]1O
REMARK SMILES IDX 22 1 3 2 4 3 5 4 18 5 20 6 23 7 24 8 26 9 29 10 25 11 31 12
REMARK SMILES IDX 33 13 27 14 28 15 30 17 32 19 34 21 2 23 1 24 21 26 19 28
REMARK SMILES IDX 6 30 7 31 15 32 8 33 14 34 10 35 12 36 16 37 17 38 9 40
REMARK SMILES IDX 11 42 13 44
REMARK H PARENT 28 16 30 18 32 20 34 22 1 25 21 27 19 29 17 39 9 41 11 43
REMARK H PARENT 13 45
REMARK Flexibility Score: inf
ROOT
ATOM      1  C   UNL     1     -23.877 -11.934  48.556  1.00  0.00     0.184 C 
ATOM      2  C   UNL     1     -23.407 -13.301  49.072  1.00  0.00     0.178 C 
ATOM      3  O   UNL     1     -24.284 -13.907  50.012  1.00  0.00    -0.341 OA
ATOM      4  C   UNL     1     -25.641 -13.445  50.006  1.00  0.00     0.282 C 
ATOM      5  C   UNL     1     -26.199 -13.071  48.591  1.00  0.00     0.202 C 
ATOM      6  C   UNL     1     -25.272 -12.050  47.868  1.00  0.00     0.180 C 
ENDROOT
BRANCH   1   7
ATOM      7  O   UNL     1     -22.872 -11.373  47.693  1.00  0.00    -0.341 OA
BRANCH   7   8
ATOM      8  C   UNL     1     -21.787 -10.611  48.307  1.00  0.00     0.282 C 
ATOM      9  C   UNL     1     -21.543 -10.063  50.662  1.00  0.00     0.178 C 
ATOM     10  C   UNL     1     -21.066 -11.506  50.921  1.00  0.00     0.177 C 
ATOM     11  O   UNL     1     -22.279  -9.929  49.452  1.00  0.00    -0.341 OA
ATOM     12  C   UNL     1     -20.238 -12.118  49.749  1.00  0.00     0.179 C 
ATOM     13  C   UNL     1     -20.355 -11.238  48.484  1.00  0.00     0.202 C 
BRANCH   9  14
ATOM     14  C   UNL     1     -20.465  -8.942  50.800  1.00  0.00     0.191 C 
BRANCH  14  15
ATOM     15  O   UNL     1     -21.004  -7.651  50.601  1.00  0.00    -0.394 OA
ATOM     16  H   UNL     1     -21.980  -7.723  50.668  1.00  0.00     0.210 HD
ENDBRANCH  14  15
ENDBRANCH   9  14
BRANCH  10  17
ATOM     17  O   UNL     1     -20.343 -11.549  52.125  1.00  0.00    -0.387 OA
ATOM     18  H   UNL     1     -20.536 -10.690  52.585  1.00  0.00     0.211 HD
ENDBRANCH  10  17
BRANCH  12  19
ATOM     19  O   UNL     1     -18.875 -12.300  50.077  1.00  0.00    -0.387 OA
ATOM     20  H   UNL     1     -18.409 -12.493  49.218  1.00  0.00     0.211 HD
ENDBRANCH  12  19
BRANCH  13  21
ATOM     21  O   UNL     1     -19.947 -11.917  47.330  1.00  0.00    -0.385 OA
ATOM     22  H   UNL     1     -20.277 -12.846  47.355  1.00  0.00     0.211 HD
ENDBRANCH  13  21
ENDBRANCH   7   8
ENDBRANCH   1   7
BRANCH   2  23
ATOM     23  C   UNL     1     -23.080 -14.312  47.949  1.00  0.00     0.191 C 
BRANCH  23  24
ATOM     24  O   UNL     1     -22.384 -13.698  46.888  1.00  0.00    -0.394 OA
ATOM     25  H   UNL     1     -21.437 -13.638  47.192  1.00  0.00     0.210 HD
ENDBRANCH  23  24
ENDBRANCH   2  23
BRANCH   6  26
ATOM     26  O   UNL     1     -25.177 -12.398  46.509  1.00  0.00    -0.387 OA
ATOM     27  H   UNL     1     -25.529 -13.290  46.379  1.00  0.00     0.211 HD
ENDBRANCH   6  26
BRANCH   5  28
ATOM     28  O   UNL     1     -26.468 -14.211  47.818  1.00  0.00    -0.385 OA
ATOM     29  H   UNL     1     -25.829 -14.946  48.081  1.00  0.00     0.211 HD
ENDBRANCH   5  28
BRANCH   4  30
ATOM     30  O   UNL     1     -25.901 -12.359  50.909  1.00  0.00    -0.341 OA
BRANCH  30  31
ATOM     31  C   UNL     1     -27.106 -12.436  51.662  1.00  0.00     0.184 C 
ATOM     32  C   UNL     1     -28.139 -13.483  51.046  1.00  0.00     0.178 C 
ATOM     33  C   UNL     1     -27.713 -11.017  51.728  1.00  0.00     0.180 C 
ATOM     34  O   UNL     1     -28.942 -12.879  50.042  1.00  0.00    -0.342 OA
ATOM     35  C   UNL     1     -29.269 -11.063  51.767  1.00  0.00     0.201 C 
ATOM     36  C   UNL     1     -29.777 -11.816  50.502  1.00  0.00     0.279 C 
BRANCH  32  37
ATOM     37  C   UNL     1     -28.995 -14.315  52.049  1.00  0.00     0.191 C 
BRANCH  37  38
ATOM     38  O   UNL     1     -29.695 -15.335  51.402  1.00  0.00    -0.394 OA
ATOM     39  H   UNL     1     -30.449 -15.597  51.999  1.00  0.00     0.210 HD
ENDBRANCH  37  38
ENDBRANCH  32  37
BRANCH  33  40
ATOM     40  O   UNL     1     -27.261 -10.256  50.635  1.00  0.00    -0.387 OA
ATOM     41  H   UNL     1     -27.820 -10.466  49.869  1.00  0.00     0.211 HD
ENDBRANCH  33  40
BRANCH  35  42
ATOM     42  O   UNL     1     -29.866  -9.791  51.844  1.00  0.00    -0.385 OA
ATOM     43  H   UNL     1     -29.747  -9.314  50.967  1.00  0.00     0.211 HD
ENDBRANCH  35  42
BRANCH  36  44
ATOM     44  O   UNL     1     -31.083 -12.278  50.724  1.00  0.00    -0.366 OA
ATOM     45  H   UNL     1     -31.704 -11.529  50.452  1.00  0.00     0.213 HD
ENDBRANCH  36  44
ENDBRANCH  30  31
ENDBRANCH   4  30
TORSDOF 18
ENDMDL
MODEL 7
REMARK VINA RESULT:    -3.717      3.140      6.212
REMARK INTER + INTRA:          -8.344
REMARK INTER:                  -6.526
REMARK INTRA:                  -1.818
REMARK UNBOUND:                -1.911
REMARK SMILES OC[C@@H]1O[C@@H](O[C@H]2[C@@H](O)[C@@H](O)[C@H](O)O[C@@H]2CO)[C@H](O)[C@H](O)[C@@H]1O[C@H]1O[C@H](CO)[C@H](O)[C@H](O)[C@H]1O
REMARK SMILES IDX 22 1 3 2 4 3 5 4 18 5 20 6 23 7 24 8 26 9 29 10 25 11 31 12
REMARK SMILES IDX 33 13 27 14 28 15 30 17 32 19 34 21 2 23 1 24 21 26 19 28
REMARK SMILES IDX 6 30 7 31 15 32 8 33 14 34 10 35 12 36 16 37 17 38 9 40
REMARK SMILES IDX 11 42 13 44
REMARK H PARENT 28 16 30 18 32 20 34 22 1 25 21 27 19 29 17 39 9 41 11 43
REMARK H PARENT 13 45
REMARK Flexibility Score: inf
ROOT
ATOM      1  C   UNL     1     -30.590 -13.567  51.389  1.00  0.00     0.184 C 
ATOM      2  C   UNL     1     -31.066 -14.827  52.125  1.00  0.00     0.178 C 
ATOM      3  O   UNL     1     -32.476 -15.015  52.114  1.00  0.00    -0.341 OA
ATOM      4  C   UNL     1     -33.201 -14.332  51.083  1.00  0.00     0.282 C 
ATOM      5  C   UNL     1     -32.447 -14.225  49.715  1.00  0.00     0.202 C 
ATOM      6  C   UNL     1     -31.033 -13.597  49.894  1.00  0.00     0.180 C 
ENDROOT
BRANCH   1   7
ATOM      7  O   UNL     1     -29.167 -13.427  51.548  1.00  0.00    -0.341 OA
BRANCH   7   8
ATOM      8  C   UNL     1     -28.521 -12.255  50.960  1.00  0.00     0.282 C 
ATOM      9  C   UNL     1     -27.055 -10.681  52.091  1.00  0.00     0.178 C 
ATOM     10  C   UNL     1     -25.916 -11.716  51.998  1.00  0.00     0.177 C 
ATOM     11  O   UNL     1     -28.347 -11.261  51.962  1.00  0.00    -0.341 OA
ATOM     12  C   UNL     1     -25.957 -12.587  50.705  1.00  0.00     0.179 C 
ATOM     13  C   UNL     1     -27.307 -12.410  49.972  1.00  0.00     0.202 C 
BRANCH   9  14
ATOM     14  C   UNL     1     -26.909  -9.410  51.195  1.00  0.00     0.191 C 
BRANCH  14  15
ATOM     15  O   UNL     1     -26.091  -8.425  51.791  1.00  0.00    -0.394 OA
ATOM     16  H   UNL     1     -25.357  -8.885  52.252  1.00  0.00     0.210 HD
ENDBRANCH  14  15
ENDBRANCH   9  14
BRANCH  10  17
ATOM     17  O   UNL     1     -24.680 -11.062  52.125  1.00  0.00    -0.387 OA
ATOM     18  H   UNL     1     -23.992 -11.739  51.889  1.00  0.00     0.211 HD
ENDBRANCH  10  17
BRANCH  12  19
ATOM     19  O   UNL     1     -24.894 -12.303  49.817  1.00  0.00    -0.387 OA
ATOM     20  H   UNL     1     -25.154 -11.470  49.336  1.00  0.00     0.211 HD
ENDBRANCH  12  19
BRANCH  13  21
ATOM     21  O   UNL     1     -27.536 -13.423  49.035  1.00  0.00    -0.385 OA
ATOM     22  H   UNL     1     -28.228 -13.135  48.394  1.00  0.00     0.211 HD
ENDBRANCH  13  21
ENDBRANCH   7   8
ENDBRANCH   1   7
BRANCH   2  23
ATOM     23  C   UNL     1     -30.372 -16.125  51.654  1.00  0.00     0.191 C 
BRANCH  23  24
ATOM     24  O   UNL     1     -29.016 -15.901  51.341  1.00  0.00    -0.394 OA
ATOM     25  H   UNL     1     -29.022 -15.233  50.602  1.00  0.00     0.210 HD
ENDBRANCH  23  24
ENDBRANCH   2  23
BRANCH   6  26
ATOM     26  O   UNL     1     -30.120 -14.280  49.073  1.00  0.00    -0.387 OA
ATOM     27  H   UNL     1     -29.737 -13.663  48.432  1.00  0.00     0.211 HD
ENDBRANCH   6  26
BRANCH   5  28
ATOM     28  O   UNL     1     -32.420 -15.452  49.035  1.00  0.00    -0.385 OA
ATOM     29  H   UNL     1     -31.887 -16.116  49.576  1.00  0.00     0.211 HD
ENDBRANCH   5  28
BRANCH   4  30
ATOM     30  O   UNL     1     -33.675 -13.029  51.456  1.00  0.00    -0.341 OA
BRANCH  30  31
ATOM     31  C   UNL     1     -35.068 -12.915  51.724  1.00  0.00     0.184 C 
ATOM     32  C   UNL     1     -35.949 -13.814  50.745  1.00  0.00     0.178 C 
ATOM     33  C   UNL     1     -35.448 -11.422  51.614  1.00  0.00     0.180 C 
ATOM     34  O   UNL     1     -36.242 -13.121  49.540  1.00  0.00    -0.342 OA
ATOM     35  C   UNL     1     -36.904 -11.241  51.092  1.00  0.00     0.201 C 
ATOM     36  C   UNL     1     -37.026 -11.939  49.705  1.00  0.00     0.279 C 
BRANCH  32  37
ATOM     37  C   UNL     1     -37.217 -14.492  51.346  1.00  0.00     0.191 C 
BRANCH  37  38
ATOM     38  O   UNL     1     -38.030 -15.033  50.349  1.00  0.00    -0.394 OA
ATOM     39  H   UNL     1     -38.036 -16.021  50.481  1.00  0.00     0.210 HD
ENDBRANCH  37  38
ENDBRANCH  32  37
BRANCH  33  40
ATOM     40  O   UNL     1     -34.531 -10.758  50.782  1.00  0.00    -0.387 OA
ATOM     41  H   UNL     1     -35.001 -10.469  49.983  1.00  0.00     0.211 HD
ENDBRANCH  33  40
BRANCH  35  42
ATOM     42  O   UNL     1     -37.301  -9.895  50.991  1.00  0.00    -0.385 OA
ATOM     43  H   UNL     1     -38.296  -9.831  51.115  1.00  0.00     0.211 HD
ENDBRANCH  35  42
BRANCH  36  44
ATOM     44  O   UNL     1     -38.376 -12.202  49.428  1.00  0.00    -0.366 OA
ATOM     45  H   UNL     1     -38.851 -11.310  49.433  1.00  0.00     0.213 HD
ENDBRANCH  36  44
ENDBRANCH  30  31
ENDBRANCH   4  30
TORSDOF 18
ENDMDL
MODEL 8
REMARK VINA RESULT:    -3.626      6.458     11.621
REMARK INTER + INTRA:          -8.187
REMARK INTER:                  -6.928
REMARK INTRA:                  -1.259
REMARK UNBOUND:                -1.911
REMARK SMILES OC[C@@H]1O[C@@H](O[C@H]2[C@@H](O)[C@@H](O)[C@H](O)O[C@@H]2CO)[C@H](O)[C@H](O)[C@@H]1O[C@H]1O[C@H](CO)[C@H](O)[C@H](O)[C@H]1O
REMARK SMILES IDX 22 1 3 2 4 3 5 4 18 5 20 6 23 7 24 8 26 9 29 10 25 11 31 12
REMARK SMILES IDX 33 13 27 14 28 15 30 17 32 19 34 21 2 23 1 24 21 26 19 28
REMARK SMILES IDX 6 30 7 31 15 32 8 33 14 34 10 35 12 36 16 37 17 38 9 40
REMARK SMILES IDX 11 42 13 44
REMARK H PARENT 28 16 30 18 32 20 34 22 1 25 21 27 19 29 17 39 9 41 11 43
REMARK H PARENT 13 45
REMARK Flexibility Score: inf
ROOT
ATOM      1  C   UNL     1     -23.271 -13.274  49.446  1.00  0.00     0.184 C 
ATOM      2  C   UNL     1     -23.814 -14.683  49.166  1.00  0.00     0.178 C 
ATOM      3  O   UNL     1     -25.210 -14.731  48.902  1.00  0.00    -0.341 OA
ATOM      4  C   UNL     1     -25.820 -13.507  48.474  1.00  0.00     0.282 C 
ATOM      5  C   UNL     1     -24.914 -12.609  47.565  1.00  0.00     0.202 C 
ATOM      6  C   UNL     1     -23.539 -12.326  48.238  1.00  0.00     0.180 C 
ENDROOT
BRANCH   1   7
ATOM      7  O   UNL     1     -21.878 -13.357  49.796  1.00  0.00    -0.341 OA
BRANCH   7   8
ATOM      8  C   UNL     1     -21.390 -12.508  50.880  1.00  0.00     0.282 C 
ATOM      9  C   UNL     1     -20.196 -10.403  50.655  1.00  0.00     0.178 C 
ATOM     10  C   UNL     1     -21.533  -9.710  50.325  1.00  0.00     0.177 C 
ATOM     11  O   UNL     1     -20.230 -11.810  50.446  1.00  0.00    -0.341 OA
ATOM     12  C   UNL     1     -22.759 -10.309  51.081  1.00  0.00     0.179 C 
ATOM     13  C   UNL     1     -22.383 -11.652  51.749  1.00  0.00     0.202 C 
BRANCH   9  14
ATOM     14  C   UNL     1     -19.555 -10.049  52.034  1.00  0.00     0.191 C 
BRANCH  14  15
ATOM     15  O   UNL     1     -18.976  -8.759  52.042  1.00  0.00    -0.394 OA
ATOM     16  H   UNL     1     -19.695  -8.109  51.886  1.00  0.00     0.210 HD
ENDBRANCH  14  15
ENDBRANCH   9  14
BRANCH  10  17
ATOM     17  O   UNL     1     -21.416  -8.332  50.566  1.00  0.00    -0.387 OA
ATOM     18  H   UNL     1     -22.149  -8.106  51.198  1.00  0.00     0.211 HD
ENDBRANCH  10  17
BRANCH  12  19
ATOM     19  O   UNL     1     -23.288  -9.428  52.051  1.00  0.00    -0.387 OA
ATOM     20  H   UNL     1     -23.022  -8.511  51.764  1.00  0.00     0.211 HD
ENDBRANCH  12  19
BRANCH  13  21
ATOM     21  O   UNL     1     -23.513 -12.393  52.115  1.00  0.00    -0.385 OA
ATOM     22  H   UNL     1     -24.173 -12.379  51.383  1.00  0.00     0.211 HD
ENDBRANCH  13  21
ENDBRANCH   7   8
ENDBRANCH   1   7
BRANCH   2  23
ATOM     23  C   UNL     1     -23.054 -15.434  48.050  1.00  0.00     0.191 C 
BRANCH  23  24
ATOM     24  O   UNL     1     -21.827 -15.948  48.516  1.00  0.00    -0.394 OA
ATOM     25  H   UNL     1     -21.918 -15.989  49.508  1.00  0.00     0.210 HD
ENDBRANCH  23  24
ENDBRANCH   2  23
BRANCH   6  26
ATOM     26  O   UNL     1     -22.528 -12.394  47.263  1.00  0.00    -0.387 OA
ATOM     27  H   UNL     1     -21.747 -12.827  47.637  1.00  0.00     0.211 HD
ENDBRANCH   6  26
BRANCH   5  28
ATOM     28  O   UNL     1     -24.794 -13.131  46.268  1.00  0.00    -0.385 OA
ATOM     29  H   UNL     1     -24.304 -12.467  45.689  1.00  0.00     0.211 HD
ENDBRANCH   5  28
BRANCH   4  30
ATOM     30  O   UNL     1     -26.350 -12.704  49.540  1.00  0.00    -0.341 OA
BRANCH  30  31
ATOM     31  C   UNL     1     -27.249 -13.352  50.433  1.00  0.00     0.184 C 
ATOM     32  C   UNL     1     -28.175 -14.418  49.693  1.00  0.00     0.178 C 
ATOM     33  C   UNL     1     -28.090 -12.260  51.129  1.00  0.00     0.180 C 
ATOM     34  O   UNL     1     -29.337 -13.801  49.157  1.00  0.00    -0.342 OA
ATOM     35  C   UNL     1     -29.527 -12.766  51.453  1.00  0.00     0.201 C 
ATOM     36  C   UNL     1     -30.207 -13.217  50.127  1.00  0.00     0.279 C 
BRANCH  32  37
ATOM     37  C   UNL     1     -28.520 -15.724  50.471  1.00  0.00     0.191 C 
BRANCH  37  38
ATOM     38  O   UNL     1     -27.878 -15.767  51.710  1.00  0.00    -0.394 OA
ATOM     39  H   UNL     1     -28.521 -15.413  52.384  1.00  0.00     0.210 HD
ENDBRANCH  37  38
ENDBRANCH  32  37
BRANCH  33  40
ATOM     40  O   UNL     1     -28.135 -11.108  50.324  1.00  0.00    -0.387 OA
ATOM     41  H   UNL     1     -28.087 -10.331  50.904  1.00  0.00     0.211 HD
ENDBRANCH  33  40
BRANCH  35  42
ATOM     42  O   UNL     1     -30.326 -11.808  52.104  1.00  0.00    -0.385 OA
ATOM     43  H   UNL     1     -29.803 -11.394  52.855  1.00  0.00     0.211 HD
ENDBRANCH  35  42
BRANCH  36  44
ATOM     44  O   UNL     1     -31.272 -14.083  50.417  1.00  0.00    -0.366 OA
ATOM     45  H   UNL     1     -31.147 -14.900  49.836  1.00  0.00     0.213 HD
ENDBRANCH  36  44
ENDBRANCH  30  31
ENDBRANCH   4  30
TORSDOF 18
ENDMDL
MODEL 9
REMARK VINA RESULT:    -3.622      8.885     14.113
REMARK INTER + INTRA:          -8.180
REMARK INTER:                  -6.430
REMARK INTRA:                  -1.749
REMARK UNBOUND:                -1.911
REMARK SMILES OC[C@@H]1O[C@@H](O[C@H]2[C@@H](O)[C@@H](O)[C@H](O)O[C@@H]2CO)[C@H](O)[C@H](O)[C@@H]1O[C@H]1O[C@H](CO)[C@H](O)[C@H](O)[C@H]1O
REMARK SMILES IDX 22 1 3 2 4 3 5 4 18 5 20 6 23 7 24 8 26 9 29 10 25 11 31 12
REMARK SMILES IDX 33 13 27 14 28 15 30 17 32 19 34 21 2 23 1 24 21 26 19 28
REMARK SMILES IDX 6 30 7 31 15 32 8 33 14 34 10 35 12 36 16 37 17 38 9 40
REMARK SMILES IDX 11 42 13 44
REMARK H PARENT 28 16 30 18 32 20 34 22 1 25 21 27 19 29 17 39 9 41 11 43
REMARK H PARENT 13 45
REMARK Flexibility Score: inf
ROOT
ATOM      1  C   UNL     1     -22.191 -13.969  46.981  1.00  0.00     0.184 C 
ATOM      2  C   UNL     1     -22.218 -15.503  47.009  1.00  0.00     0.178 C 
ATOM      3  O   UNL     1     -21.786 -16.119  45.802  1.00  0.00    -0.341 OA
ATOM      4  C   UNL     1     -20.973 -15.319  44.935  1.00  0.00     0.282 C 
ATOM      5  C   UNL     1     -19.994 -14.343  45.672  1.00  0.00     0.202 C 
ATOM      6  C   UNL     1     -20.752 -13.443  46.692  1.00  0.00     0.180 C 
ENDROOT
BRANCH   1   7
ATOM      7  O   UNL     1     -22.738 -13.457  48.210  1.00  0.00    -0.341 OA
BRANCH   7   8
ATOM      8  C   UNL     1     -24.184 -13.263  48.290  1.00  0.00     0.282 C 
ATOM      9  C   UNL     1     -25.638 -13.910  50.127  1.00  0.00     0.178 C 
ATOM     10  C   UNL     1     -25.138 -12.685  50.920  1.00  0.00     0.177 C 
ATOM     11  O   UNL     1     -24.754 -14.297  49.083  1.00  0.00    -0.341 OA
ATOM     12  C   UNL     1     -24.823 -11.443  50.031  1.00  0.00     0.179 C 
ATOM     13  C   UNL     1     -24.798 -11.836  48.536  1.00  0.00     0.202 C 
BRANCH   9  14
ATOM     14  C   UNL     1     -27.117 -13.854  49.630  1.00  0.00     0.191 C 
BRANCH  14  15
ATOM     15  O   UNL     1     -27.724 -12.604  49.887  1.00  0.00    -0.394 OA
ATOM     16  H   UNL     1     -27.323 -11.948  49.278  1.00  0.00     0.210 HD
ENDBRANCH  14  15
ENDBRANCH   9  14
BRANCH  10  17
ATOM     17  O   UNL     1     -26.069 -12.365  51.921  1.00  0.00    -0.387 OA
ATOM     18  H   UNL     1     -25.657 -12.661  52.776  1.00  0.00     0.211 HD
ENDBRANCH  10  17
BRANCH  12  19
ATOM     19  O   UNL     1     -25.736 -10.382  50.228  1.00  0.00    -0.387 OA
ATOM     20  H   UNL     1     -25.254  -9.703  50.775  1.00  0.00     0.211 HD
ENDBRANCH  12  19
BRANCH  13  21
ATOM     21  O   UNL     1     -24.171 -10.866  47.745  1.00  0.00    -0.385 OA
ATOM     22  H   UNL     1     -24.796 -10.125  47.566  1.00  0.00     0.211 HD
ENDBRANCH  13  21
ENDBRANCH   7   8
ENDBRANCH   1   7
BRANCH   2  23
ATOM     23  C   UNL     1     -21.452 -16.119  48.202  1.00  0.00     0.191 C 
BRANCH  23  24
ATOM     24  O   UNL     1     -22.189 -16.015  49.398  1.00  0.00    -0.394 OA
ATOM     25  H   UNL     1     -21.529 -16.158  50.130  1.00  0.00     0.210 HD
ENDBRANCH  23  24
ENDBRANCH   2  23
BRANCH   6  26
ATOM     26  O   UNL     1     -19.977 -13.319  47.858  1.00  0.00    -0.387 OA
ATOM     27  H   UNL     1     -19.691 -14.196  48.152  1.00  0.00     0.211 HD
ENDBRANCH   6  26
BRANCH   5  28
ATOM     28  O   UNL     1     -18.908 -15.026  46.242  1.00  0.00    -0.385 OA
ATOM     29  H   UNL     1     -19.124 -15.243  47.203  1.00  0.00     0.211 HD
ENDBRANCH   5  28
BRANCH   4  30
ATOM     30  O   UNL     1     -21.709 -14.580  43.947  1.00  0.00    -0.341 OA
BRANCH  30  31
ATOM     31  C   UNL     1     -21.389 -14.850  42.587  1.00  0.00     0.184 C 
ATOM     32  C   UNL     1     -20.080 -14.076  42.107  1.00  0.00     0.178 C 
ATOM     33  C   UNL     1     -22.616 -14.470  41.730  1.00  0.00     0.180 C 
ATOM     34  O   UNL     1     -20.398 -12.769  41.652  1.00  0.00    -0.342 OA
ATOM     35  C   UNL     1     -22.192 -13.953  40.324  1.00  0.00     0.201 C 
ATOM     36  C   UNL     1     -21.252 -12.725  40.508  1.00  0.00     0.279 C 
BRANCH  32  37
ATOM     37  C   UNL     1     -19.134 -14.820  41.116  1.00  0.00     0.191 C 
BRANCH  37  38
ATOM     38  O   UNL     1     -19.573 -16.122  40.870  1.00  0.00    -0.394 OA
ATOM     39  H   UNL     1     -18.807 -16.618  40.469  1.00  0.00     0.210 HD
ENDBRANCH  37  38
ENDBRANCH  32  37
BRANCH  33  40
ATOM     40  O   UNL     1     -23.388 -13.509  42.405  1.00  0.00    -0.387 OA
ATOM     41  H   UNL     1     -23.460 -12.725  41.837  1.00  0.00     0.211 HD
ENDBRANCH  33  40
BRANCH  35  42
ATOM     42  O   UNL     1     -23.280 -13.609  39.500  1.00  0.00    -0.385 OA
ATOM     43  H   UNL     1     -23.791 -14.441  39.261  1.00  0.00     0.211 HD
ENDBRANCH  35  42
BRANCH  36  44
ATOM     44  O   UNL     1     -20.500 -12.530  39.340  1.00  0.00    -0.366 OA
ATOM     45  H   UNL     1     -20.375 -11.533  39.239  1.00  0.00     0.213 HD
ENDBRANCH  36  44
ENDBRANCH  30  31
ENDBRANCH   4  30
TORSDOF 18
ENDMDL
