MODEL 1
REMARK VINA RESULT:    -7.163      0.000      0.000
REMARK INTER + INTRA:          -8.497
REMARK INTER:                  -8.628
REMARK INTRA:                   0.131
REMARK UNBOUND:                 0.131
REMARK SMILES O=c1c(O)c(-c2ccc(O)c(O)c2)oc2cc(O)cc(O)c12
REMARK SMILES IDX 5 1 3 2 2 3 1 4 22 5 20 6 19 7 17 8 16 9 15 10 14 11 6 12
REMARK SMILES IDX 7 13 8 14 9 15 13 16 11 17 10 18 12 20 4 22 21 24 18 26
REMARK H PARENT 10 19 12 21 4 23 21 25 18 27
REMARK Flexibility Score: inf
ROOT
ATOM      1  C   UNL     1      15.941  21.899 -12.670  1.00  0.00     0.180 A 
ATOM      2  C   UNL     1      14.645  21.626 -12.200  1.00  0.00     0.208 A 
ATOM      3  C   UNL     1      13.705  22.669 -12.152  1.00  0.00     0.238 A 
ATOM      4  O   UNL     1      12.531  22.407 -11.782  1.00  0.00    -0.285 OA
ATOM      5  C   UNL     1      14.077  23.973 -12.558  1.00  0.00     0.111 A 
ATOM      6  C   UNL     1      13.219  25.112 -12.513  1.00  0.00     0.134 A 
ATOM      7  C   UNL     1      13.652  26.325 -13.061  1.00  0.00     0.093 A 
ATOM      8  C   UNL     1      14.937  26.457 -13.595  1.00  0.00     0.123 A 
ATOM      9  C   UNL     1      15.802  25.367 -13.589  1.00  0.00     0.094 A 
ATOM     10  C   UNL     1      15.387  24.134 -13.082  1.00  0.00     0.146 A 
ATOM     11  O   UNL     1      16.240  23.118 -13.105  1.00  0.00    -0.452 OA
ENDROOT
BRANCH   1  12
ATOM     12  C   UNL     1      16.993  20.859 -12.727  1.00  0.00     0.025 A 
ATOM     13  C   UNL     1      17.917  20.868 -13.784  1.00  0.00     0.016 A 
ATOM     14  C   UNL     1      18.932  19.908 -13.845  1.00  0.00     0.051 A 
ATOM     15  C   UNL     1      19.046  18.935 -12.848  1.00  0.00     0.157 A 
ATOM     16  C   UNL     1      17.124  19.892 -11.713  1.00  0.00     0.062 A 
ATOM     17  C   UNL     1      18.142  18.929 -11.773  1.00  0.00     0.158 A 
BRANCH  15  18
ATOM     18  O   UNL     1      20.067  17.989 -12.937  1.00  0.00    -0.504 OA
ATOM     19  H   UNL     1      21.033  18.253 -13.087  1.00  0.00     0.293 HD
ENDBRANCH  15  18
BRANCH  17  20
ATOM     20  O   UNL     1      18.258  17.971 -10.767  1.00  0.00    -0.504 OA
ATOM     21  H   UNL     1      19.109  17.434 -10.641  1.00  0.00     0.293 HD
ENDBRANCH  17  20
ENDBRANCH   1  12
BRANCH   2  22
ATOM     22  O   UNL     1      14.291  20.327 -11.825  1.00  0.00    -0.502 OA
ATOM     23  H   UNL     1      14.765  19.508 -12.188  1.00  0.00     0.293 HD
ENDBRANCH   2  22
BRANCH   6  24
ATOM     24  O   UNL     1      11.952  25.112 -11.919  1.00  0.00    -0.507 OA
ATOM     25  H   UNL     1      11.683  25.693 -11.140  1.00  0.00     0.293 HD
ENDBRANCH   6  24
BRANCH   8  26
ATOM     26  O   UNL     1      15.364  27.673 -14.125  1.00  0.00    -0.508 OA
ATOM     27  H   UNL     1      14.870  28.537 -13.935  1.00  0.00     0.293 HD
ENDBRANCH   8  26
TORSDOF 6
ENDMDL
MODEL 2
REMARK VINA RESULT:    -7.023      2.836      4.374
REMARK INTER + INTRA:          -8.329
REMARK INTER:                  -8.008
REMARK INTRA:                  -0.321
REMARK UNBOUND:                 0.131
REMARK SMILES O=c1c(O)c(-c2ccc(O)c(O)c2)oc2cc(O)cc(O)c12
REMARK SMILES IDX 5 1 3 2 2 3 1 4 22 5 20 6 19 7 17 8 16 9 15 10 14 11 6 12
REMARK SMILES IDX 7 13 8 14 9 15 13 16 11 17 10 18 12 20 4 22 21 24 18 26
REMARK H PARENT 10 19 12 21 4 23 21 25 18 27
REMARK Flexibility Score: inf
ROOT
ATOM      1  C   UNL     1      12.680  23.367 -12.206  1.00  0.00     0.180 A 
ATOM      2  C   UNL     1      11.559  23.109 -13.013  1.00  0.00     0.208 A 
ATOM      3  C   UNL     1      10.341  23.737 -12.707  1.00  0.00     0.238 A 
ATOM      4  O   UNL     1       9.354  23.545 -13.465  1.00  0.00    -0.285 OA
ATOM      5  C   UNL     1      10.254  24.602 -11.590  1.00  0.00     0.111 A 
ATOM      6  C   UNL     1       9.063  25.261 -11.164  1.00  0.00     0.134 A 
ATOM      7  C   UNL     1       9.123  26.195 -10.124  1.00  0.00     0.093 A 
ATOM      8  C   UNL     1      10.322  26.447  -9.450  1.00  0.00     0.123 A 
ATOM      9  C   UNL     1      11.478  25.765  -9.820  1.00  0.00     0.094 A 
ATOM     10  C   UNL     1      11.457  24.854 -10.878  1.00  0.00     0.146 A 
ATOM     11  O   UNL     1      12.584  24.234 -11.204  1.00  0.00    -0.452 OA
ENDROOT
BRANCH   1  12
ATOM     12  C   UNL     1      13.991  22.723 -12.450  1.00  0.00     0.025 A 
ATOM     13  C   UNL     1      14.999  23.440 -13.114  1.00  0.00     0.016 A 
ATOM     14  C   UNL     1      16.251  22.859 -13.336  1.00  0.00     0.051 A 
ATOM     15  C   UNL     1      16.519  21.563 -12.886  1.00  0.00     0.157 A 
ATOM     16  C   UNL     1      14.270  21.427 -11.980  1.00  0.00     0.062 A 
ATOM     17  C   UNL     1      15.526  20.844 -12.201  1.00  0.00     0.158 A 
BRANCH  15  18
ATOM     18  O   UNL     1      17.777  21.009 -13.124  1.00  0.00    -0.504 OA
ATOM     19  H   UNL     1      18.230  20.398 -12.456  1.00  0.00     0.293 HD
ENDBRANCH  15  18
BRANCH  17  20
ATOM     20  O   UNL     1      15.791  19.555 -11.737  1.00  0.00    -0.504 OA
ATOM     21  H   UNL     1      15.078  18.836 -11.733  1.00  0.00     0.293 HD
ENDBRANCH  17  20
ENDBRANCH   1  12
BRANCH   2  22
ATOM     22  O   UNL     1      11.671  22.269 -14.125  1.00  0.00    -0.502 OA
ATOM     23  H   UNL     1      12.555  22.093 -14.587  1.00  0.00     0.293 HD
ENDBRANCH   2  22
BRANCH   6  24
ATOM     24  O   UNL     1       7.798  25.013 -11.707  1.00  0.00    -0.507 OA
ATOM     25  H   UNL     1       7.153  24.315 -11.367  1.00  0.00     0.293 HD
ENDBRANCH   6  24
BRANCH   8  26
ATOM     26  O   UNL     1      10.370  27.368  -8.406  1.00  0.00    -0.508 OA
ATOM     27  H   UNL     1       9.752  27.295  -7.606  1.00  0.00     0.293 HD
ENDBRANCH   8  26
TORSDOF 6
ENDMDL
MODEL 3
REMARK VINA RESULT:    -6.886      4.155      9.843
REMARK INTER + INTRA:          -8.164
REMARK INTER:                  -7.865
REMARK INTRA:                  -0.299
REMARK UNBOUND:                 0.131
REMARK SMILES O=c1c(O)c(-c2ccc(O)c(O)c2)oc2cc(O)cc(O)c12
REMARK SMILES IDX 5 1 3 2 2 3 1 4 22 5 20 6 19 7 17 8 16 9 15 10 14 11 6 12
REMARK SMILES IDX 7 13 8 14 9 15 13 16 11 17 10 18 12 20 4 22 21 24 18 26
REMARK H PARENT 10 19 12 21 4 23 21 25 18 27
REMARK Flexibility Score: inf
ROOT
ATOM      1  C   UNL     1      19.742  17.298 -11.311  1.00  0.00     0.180 A 
ATOM      2  C   UNL     1      20.789  17.484 -10.391  1.00  0.00     0.208 A 
ATOM      3  C   UNL     1      21.414  16.357  -9.834  1.00  0.00     0.238 A 
ATOM      4  O   UNL     1      22.386  16.529  -9.053  1.00  0.00    -0.285 OA
ATOM      5  C   UNL     1      20.977  15.059 -10.192  1.00  0.00     0.111 A 
ATOM      6  C   UNL     1      21.512  13.848  -9.661  1.00  0.00     0.134 A 
ATOM      7  C   UNL     1      21.092  12.619 -10.183  1.00  0.00     0.093 A 
ATOM      8  C   UNL     1      20.108  12.556 -11.174  1.00  0.00     0.123 A 
ATOM      9  C   UNL     1      19.538  13.730 -11.657  1.00  0.00     0.094 A 
ATOM     10  C   UNL     1      19.962  14.973 -11.181  1.00  0.00     0.146 A 
ATOM     11  O   UNL     1      19.399  16.068 -11.676  1.00  0.00    -0.452 OA
ENDROOT
BRANCH   1  12
ATOM     12  C   UNL     1      19.018  18.436 -11.921  1.00  0.00     0.025 A 
ATOM     13  C   UNL     1      19.564  19.082 -13.041  1.00  0.00     0.016 A 
ATOM     14  C   UNL     1      18.887  20.145 -13.645  1.00  0.00     0.051 A 
ATOM     15  C   UNL     1      17.650  20.568 -13.150  1.00  0.00     0.157 A 
ATOM     16  C   UNL     1      17.763  18.849 -11.438  1.00  0.00     0.062 A 
ATOM     17  C   UNL     1      17.081  19.915 -12.044  1.00  0.00     0.158 A 
BRANCH  15  18
ATOM     18  O   UNL     1      16.998  21.632 -13.772  1.00  0.00    -0.504 OA
ATOM     19  H   UNL     1      17.442  22.186 -14.495  1.00  0.00     0.293 HD
ENDBRANCH  15  18
BRANCH  17  20
ATOM     20  O   UNL     1      15.841  20.322 -11.554  1.00  0.00    -0.504 OA
ATOM     21  H   UNL     1      14.981  19.876 -11.850  1.00  0.00     0.293 HD
ENDBRANCH  17  20
ENDBRANCH   1  12
BRANCH   2  22
ATOM     22  O   UNL     1      21.220  18.774 -10.068  1.00  0.00    -0.502 OA
ATOM     23  H   UNL     1      21.142  19.551 -10.713  1.00  0.00     0.293 HD
ENDBRANCH   2  22
BRANCH   6  24
ATOM     24  O   UNL     1      22.430  13.796  -8.607  1.00  0.00    -0.507 OA
ATOM     25  H   UNL     1      22.182  13.728  -7.631  1.00  0.00     0.293 HD
ENDBRANCH   6  24
BRANCH   8  26
ATOM     26  O   UNL     1      19.685  11.327 -11.678  1.00  0.00    -0.508 OA
ATOM     27  H   UNL     1      19.885  10.459 -11.194  1.00  0.00     0.293 HD
ENDBRANCH   8  26
TORSDOF 6
ENDMDL
MODEL 4
REMARK VINA RESULT:    -6.780     11.393     13.489
REMARK INTER + INTRA:          -8.036
REMARK INTER:                  -7.747
REMARK INTRA:                  -0.289
REMARK UNBOUND:                 0.131
REMARK SMILES O=c1c(O)c(-c2ccc(O)c(O)c2)oc2cc(O)cc(O)c12
REMARK SMILES IDX 5 1 3 2 2 3 1 4 22 5 20 6 19 7 17 8 16 9 15 10 14 11 6 12
REMARK SMILES IDX 7 13 8 14 9 15 13 16 11 17 10 18 12 20 4 22 21 24 18 26
REMARK H PARENT 10 19 12 21 4 23 21 25 18 27
REMARK Flexibility Score: inf
ROOT
ATOM      1  C   UNL     1       7.826  14.608  -9.255  1.00  0.00     0.180 A 
ATOM      2  C   UNL     1       7.520  14.537 -10.626  1.00  0.00     0.208 A 
ATOM      3  C   UNL     1       8.280  13.692 -11.450  1.00  0.00     0.238 A 
ATOM      4  O   UNL     1       7.967  13.592 -12.665  1.00  0.00    -0.285 OA
ATOM      5  C   UNL     1       9.345  12.940 -10.899  1.00  0.00     0.111 A 
ATOM      6  C   UNL     1      10.205  12.082 -11.647  1.00  0.00     0.134 A 
ATOM      7  C   UNL     1      11.142  11.288 -10.977  1.00  0.00     0.093 A 
ATOM      8  C   UNL     1      11.294  11.368  -9.590  1.00  0.00     0.123 A 
ATOM      9  C   UNL     1      10.500  12.245  -8.858  1.00  0.00     0.094 A 
ATOM     10  C   UNL     1       9.531  13.025  -9.493  1.00  0.00     0.146 A 
ATOM     11  O   UNL     1       8.788  13.841  -8.756  1.00  0.00    -0.452 OA
ENDROOT
BRANCH   1  12
ATOM     12  C   UNL     1       7.086  15.494  -8.328  1.00  0.00     0.025 A 
ATOM     13  C   UNL     1       7.629  16.742  -7.986  1.00  0.00     0.016 A 
ATOM     14  C   UNL     1       6.937  17.604  -7.129  1.00  0.00     0.051 A 
ATOM     15  C   UNL     1       5.690  17.238  -6.615  1.00  0.00     0.157 A 
ATOM     16  C   UNL     1       5.821  15.137  -7.826  1.00  0.00     0.062 A 
ATOM     17  C   UNL     1       5.125  16.002  -6.968  1.00  0.00     0.158 A 
BRANCH  15  18
ATOM     18  O   UNL     1       5.025  18.117  -5.761  1.00  0.00    -0.504 OA
ATOM     19  H   UNL     1       4.809  19.070  -6.031  1.00  0.00     0.293 HD
ENDBRANCH  15  18
BRANCH  17  20
ATOM     20  O   UNL     1       3.875  15.636  -6.470  1.00  0.00    -0.504 OA
ATOM     21  H   UNL     1       3.333  16.261  -5.885  1.00  0.00     0.293 HD
ENDBRANCH  17  20
ENDBRANCH   1  12
BRANCH   2  22
ATOM     22  O   UNL     1       6.450  15.271 -11.146  1.00  0.00    -0.502 OA
ATOM     23  H   UNL     1       6.233  15.289 -12.135  1.00  0.00     0.293 HD
ENDBRANCH   2  22
BRANCH   6  24
ATOM     24  O   UNL     1      10.199  11.997 -13.043  1.00  0.00    -0.507 OA
ATOM     25  H   UNL     1      10.267  11.137 -13.566  1.00  0.00     0.293 HD
ENDBRANCH   6  24
BRANCH   8  26
ATOM     26  O   UNL     1      12.240  10.584  -8.932  1.00  0.00    -0.508 OA
ATOM     27  H   UNL     1      13.232  10.684  -9.117  1.00  0.00     0.293 HD
ENDBRANCH   8  26
TORSDOF 6
ENDMDL
MODEL 5
REMARK VINA RESULT:    -6.680     12.277     14.678
REMARK INTER + INTRA:          -7.915
REMARK INTER:                  -7.606
REMARK INTRA:                  -0.309
REMARK UNBOUND:                 0.131
REMARK SMILES O=c1c(O)c(-c2ccc(O)c(O)c2)oc2cc(O)cc(O)c12
REMARK SMILES IDX 5 1 3 2 2 3 1 4 22 5 20 6 19 7 17 8 16 9 15 10 14 11 6 12
REMARK SMILES IDX 7 13 8 14 9 15 13 16 11 17 10 18 12 20 4 22 21 24 18 26
REMARK H PARENT 10 19 12 21 4 23 21 25 18 27
REMARK Flexibility Score: inf
ROOT
ATOM      1  C   UNL     1      11.684  11.681  -5.567  1.00  0.00     0.180 A 
ATOM      2  C   UNL     1      12.700  12.094  -6.446  1.00  0.00     0.208 A 
ATOM      3  C   UNL     1      13.864  12.674  -5.916  1.00  0.00     0.238 A 
ATOM      4  O   UNL     1      14.793  12.992  -6.703  1.00  0.00    -0.285 OA
ATOM      5  C   UNL     1      13.991  12.849  -4.517  1.00  0.00     0.111 A 
ATOM      6  C   UNL     1      15.108  13.462  -3.874  1.00  0.00     0.134 A 
ATOM      7  C   UNL     1      15.184  13.465  -2.476  1.00  0.00     0.093 A 
ATOM      8  C   UNL     1      14.152  12.934  -1.697  1.00  0.00     0.123 A 
ATOM      9  C   UNL     1      13.031  12.388  -2.315  1.00  0.00     0.094 A 
ATOM     10  C   UNL     1      12.941  12.338  -3.708  1.00  0.00     0.146 A 
ATOM     11  O   UNL     1      11.860  11.799  -4.256  1.00  0.00    -0.452 OA
ENDROOT
BRANCH   1  12
ATOM     12  C   UNL     1      10.418  11.084  -6.051  1.00  0.00     0.025 A 
ATOM     13  C   UNL     1      10.231   9.696  -5.961  1.00  0.00     0.016 A 
ATOM     14  C   UNL     1       9.035   9.114  -6.392  1.00  0.00     0.051 A 
ATOM     15  C   UNL     1       8.007   9.909  -6.906  1.00  0.00     0.157 A 
ATOM     16  C   UNL     1       9.374  11.885  -6.548  1.00  0.00     0.062 A 
ATOM     17  C   UNL     1       8.173  11.302  -6.981  1.00  0.00     0.158 A 
BRANCH  15  18
ATOM     18  O   UNL     1       6.827   9.300  -7.331  1.00  0.00    -0.504 OA
ATOM     19  H   UNL     1       6.533   8.395  -6.983  1.00  0.00     0.293 HD
ENDBRANCH  15  18
BRANCH  17  20
ATOM     20  O   UNL     1       7.146  12.103  -7.479  1.00  0.00    -0.504 OA
ATOM     21  H   UNL     1       6.271  12.215  -6.981  1.00  0.00     0.293 HD
ENDBRANCH  17  20
ENDBRANCH   1  12
BRANCH   2  22
ATOM     22  O   UNL     1      12.565  11.891  -7.822  1.00  0.00    -0.502 OA
ATOM     23  H   UNL     1      12.919  11.064  -8.287  1.00  0.00     0.293 HD
ENDBRANCH   2  22
BRANCH   6  24
ATOM     24  O   UNL     1      16.147  14.102  -4.557  1.00  0.00    -0.507 OA
ATOM     25  H   UNL     1      16.214  15.099  -4.696  1.00  0.00     0.293 HD
ENDBRANCH   6  24
BRANCH   8  26
ATOM     26  O   UNL     1      14.230  12.955  -0.306  1.00  0.00    -0.508 OA
ATOM     27  H   UNL     1      14.759  12.258   0.206  1.00  0.00     0.293 HD
ENDBRANCH   8  26
TORSDOF 6
ENDMDL
MODEL 6
REMARK VINA RESULT:    -6.639     12.473     14.502
REMARK INTER + INTRA:          -7.867
REMARK INTER:                  -8.100
REMARK INTRA:                   0.233
REMARK UNBOUND:                 0.131
REMARK SMILES O=c1c(O)c(-c2ccc(O)c(O)c2)oc2cc(O)cc(O)c12
REMARK SMILES IDX 5 1 3 2 2 3 1 4 22 5 20 6 19 7 17 8 16 9 15 10 14 11 6 12
REMARK SMILES IDX 7 13 8 14 9 15 13 16 11 17 10 18 12 20 4 22 21 24 18 26
REMARK H PARENT 10 19 12 21 4 23 21 25 18 27
REMARK Flexibility Score: inf
ROOT
ATOM      1  C   UNL     1      15.247  12.702  -3.152  1.00  0.00     0.180 A 
ATOM      2  C   UNL     1      15.038  13.113  -4.480  1.00  0.00     0.208 A 
ATOM      3  C   UNL     1      13.784  12.893  -5.071  1.00  0.00     0.238 A 
ATOM      4  O   UNL     1      13.585  13.312  -6.241  1.00  0.00    -0.285 OA
ATOM      5  C   UNL     1      12.759  12.252  -4.334  1.00  0.00     0.111 A 
ATOM      6  C   UNL     1      11.463  11.943  -4.845  1.00  0.00     0.134 A 
ATOM      7  C   UNL     1      10.487  11.425  -3.987  1.00  0.00     0.093 A 
ATOM      8  C   UNL     1      10.779  11.144  -2.649  1.00  0.00     0.123 A 
ATOM      9  C   UNL     1      12.058  11.387  -2.156  1.00  0.00     0.094 A 
ATOM     10  C   UNL     1      13.044  11.937  -2.979  1.00  0.00     0.146 A 
ATOM     11  O   UNL     1      14.247  12.163  -2.466  1.00  0.00    -0.452 OA
ENDROOT
BRANCH   1  12
ATOM     12  C   UNL     1      16.549  12.876  -2.470  1.00  0.00     0.025 A 
ATOM     13  C   UNL     1      17.737  12.754  -3.207  1.00  0.00     0.016 A 
ATOM     14  C   UNL     1      18.977  12.936  -2.587  1.00  0.00     0.051 A 
ATOM     15  C   UNL     1      19.048  13.258  -1.228  1.00  0.00     0.157 A 
ATOM     16  C   UNL     1      16.622  13.221  -1.108  1.00  0.00     0.062 A 
ATOM     17  C   UNL     1      17.866  13.406  -0.485  1.00  0.00     0.158 A 
BRANCH  15  18
ATOM     18  O   UNL     1      20.299  13.431  -0.637  1.00  0.00    -0.504 OA
ATOM     19  H   UNL     1      20.564  14.297  -0.184  1.00  0.00     0.293 HD
ENDBRANCH  15  18
BRANCH  17  20
ATOM     20  O   UNL     1      17.928  13.740   0.868  1.00  0.00    -0.504 OA
ATOM     21  H   UNL     1      17.260  13.375   1.536  1.00  0.00     0.293 HD
ENDBRANCH  17  20
ENDBRANCH   1  12
BRANCH   2  22
ATOM     22  O   UNL     1      16.056  13.764  -5.183  1.00  0.00    -0.502 OA
ATOM     23  H   UNL     1      17.037  13.628  -4.971  1.00  0.00     0.293 HD
ENDBRANCH   2  22
BRANCH   6  24
ATOM     24  O   UNL     1      11.096  12.098  -6.186  1.00  0.00    -0.507 OA
ATOM     25  H   UNL     1      10.759  11.355  -6.779  1.00  0.00     0.293 HD
ENDBRANCH   6  24
BRANCH   8  26
ATOM     26  O   UNL     1       9.805  10.615  -1.805  1.00  0.00    -0.508 OA
ATOM     27  H   UNL     1       9.888  10.676  -0.797  1.00  0.00     0.293 HD
ENDBRANCH   8  26
TORSDOF 6
ENDMDL
MODEL 7
REMARK VINA RESULT:    -6.562     14.934     17.619
REMARK INTER + INTRA:          -7.774
REMARK INTER:                  -7.440
REMARK INTRA:                  -0.334
REMARK UNBOUND:                 0.131
REMARK SMILES O=c1c(O)c(-c2ccc(O)c(O)c2)oc2cc(O)cc(O)c12
REMARK SMILES IDX 5 1 3 2 2 3 1 4 22 5 20 6 19 7 17 8 16 9 15 10 14 11 6 12
REMARK SMILES IDX 7 13 8 14 9 15 13 16 11 17 10 18 12 20 4 22 21 24 18 26
REMARK H PARENT 10 19 12 21 4 23 21 25 18 27
REMARK Flexibility Score: inf
ROOT
ATOM      1  C   UNL     1      13.283  12.029   0.950  1.00  0.00     0.180 A 
ATOM      2  C   UNL     1      12.403  12.113  -0.144  1.00  0.00     0.208 A 
ATOM      3  C   UNL     1      12.899  12.543  -1.385  1.00  0.00     0.238 A 
ATOM      4  O   UNL     1      12.120  12.564  -2.373  1.00  0.00    -0.285 OA
ATOM      5  C   UNL     1      14.264  12.897  -1.515  1.00  0.00     0.111 A 
ATOM      6  C   UNL     1      14.865  13.383  -2.714  1.00  0.00     0.134 A 
ATOM      7  C   UNL     1      16.250  13.579  -2.762  1.00  0.00     0.093 A 
ATOM      8  C   UNL     1      17.048  13.368  -1.633  1.00  0.00     0.123 A 
ATOM      9  C   UNL     1      16.461  12.951  -0.442  1.00  0.00     0.094 A 
ATOM     10  C   UNL     1      15.087  12.713  -0.372  1.00  0.00     0.146 A 
ATOM     11  O   UNL     1      14.570  12.306   0.781  1.00  0.00    -0.452 OA
ENDROOT
BRANCH   1  12
ATOM     12  C   UNL     1      12.829  11.609   2.295  1.00  0.00     0.025 A 
ATOM     13  C   UNL     1      12.949  10.263   2.675  1.00  0.00     0.016 A 
ATOM     14  C   UNL     1      12.546   9.849   3.948  1.00  0.00     0.051 A 
ATOM     15  C   UNL     1      12.033  10.773   4.863  1.00  0.00     0.157 A 
ATOM     16  C   UNL     1      12.332  12.541   3.225  1.00  0.00     0.062 A 
ATOM     17  C   UNL     1      11.929  12.126   4.503  1.00  0.00     0.158 A 
BRANCH  15  18
ATOM     18  O   UNL     1      11.638  10.330   6.125  1.00  0.00    -0.504 OA
ATOM     19  H   UNL     1      10.769   9.830   6.272  1.00  0.00     0.293 HD
ENDBRANCH  15  18
BRANCH  17  20
ATOM     20  O   UNL     1      11.431  13.056   5.415  1.00  0.00    -0.504 OA
ATOM     21  H   UNL     1      11.023  12.769   6.297  1.00  0.00     0.293 HD
ENDBRANCH  17  20
ENDBRANCH   1  12
BRANCH   2  22
ATOM     22  O   UNL     1      11.064  11.737   0.000  1.00  0.00    -0.502 OA
ATOM     23  H   UNL     1      10.775  10.976   0.603  1.00  0.00     0.293 HD
ENDBRANCH   2  22
BRANCH   6  24
ATOM     24  O   UNL     1      14.148  13.713  -3.868  1.00  0.00    -0.507 OA
ATOM     25  H   UNL     1      14.457  13.525  -4.810  1.00  0.00     0.293 HD
ENDBRANCH   6  24
BRANCH   8  26
ATOM     26  O   UNL     1      18.424  13.580  -1.686  1.00  0.00    -0.508 OA
ATOM     27  H   UNL     1      18.846  14.419  -1.304  1.00  0.00     0.293 HD
ENDBRANCH   8  26
TORSDOF 6
ENDMDL
MODEL 8
REMARK VINA RESULT:    -6.501     10.683     11.958
REMARK INTER + INTRA:          -7.700
REMARK INTER:                  -7.400
REMARK INTRA:                  -0.300
REMARK UNBOUND:                 0.131
REMARK SMILES O=c1c(O)c(-c2ccc(O)c(O)c2)oc2cc(O)cc(O)c12
REMARK SMILES IDX 5 1 3 2 2 3 1 4 22 5 20 6 19 7 17 8 16 9 15 10 14 11 6 12
REMARK SMILES IDX 7 13 8 14 9 15 13 16 11 17 10 18 12 20 4 22 21 24 18 26
REMARK H PARENT 10 19 12 21 4 23 21 25 18 27
REMARK Flexibility Score: inf
ROOT
ATOM      1  C   UNL     1       8.797  13.525  -9.274  1.00  0.00     0.180 A 
ATOM      2  C   UNL     1       7.614  12.862  -9.643  1.00  0.00     0.208 A 
ATOM      3  C   UNL     1       6.379  13.421  -9.277  1.00  0.00     0.238 A 
ATOM      4  O   UNL     1       5.322  12.852  -9.655  1.00  0.00    -0.285 OA
ATOM      5  C   UNL     1       6.342  14.626  -8.535  1.00  0.00     0.111 A 
ATOM      6  C   UNL     1       5.149  15.260  -8.076  1.00  0.00     0.134 A 
ATOM      7  C   UNL     1       5.225  16.516  -7.464  1.00  0.00     0.093 A 
ATOM      8  C   UNL     1       6.459  17.132  -7.234  1.00  0.00     0.123 A 
ATOM      9  C   UNL     1       7.632  16.494  -7.625  1.00  0.00     0.094 A 
ATOM     10  C   UNL     1       7.587  15.256  -8.271  1.00  0.00     0.146 A 
ATOM     11  O   UNL     1       8.729  14.687  -8.636  1.00  0.00    -0.452 OA
ENDROOT
BRANCH   1  12
ATOM     12  C   UNL     1      10.137  12.986  -9.602  1.00  0.00     0.025 A 
ATOM     13  C   UNL     1      10.827  12.223  -8.647  1.00  0.00     0.016 A 
ATOM     14  C   UNL     1      12.083  11.686  -8.943  1.00  0.00     0.051 A 
ATOM     15  C   UNL     1      12.661  11.890 -10.200  1.00  0.00     0.157 A 
ATOM     16  C   UNL     1      10.710  13.171 -10.874  1.00  0.00     0.062 A 
ATOM     17  C   UNL     1      11.970  12.632 -11.173  1.00  0.00     0.158 A 
BRANCH  15  18
ATOM     18  O   UNL     1      13.916  11.344 -10.466  1.00  0.00    -0.504 OA
ATOM     19  H   UNL     1      14.633  11.272  -9.755  1.00  0.00     0.293 HD
ENDBRANCH  15  18
BRANCH  17  20
ATOM     20  O   UNL     1      12.534  12.827 -12.433  1.00  0.00    -0.504 OA
ATOM     21  H   UNL     1      13.279  12.235 -12.779  1.00  0.00     0.293 HD
ENDBRANCH  17  20
ENDBRANCH   1  12
BRANCH   2  22
ATOM     22  O   UNL     1       7.672  11.685 -10.394  1.00  0.00    -0.502 OA
ATOM     23  H   UNL     1       6.934  11.410 -11.032  1.00  0.00     0.293 HD
ENDBRANCH   2  22
BRANCH   6  24
ATOM     24  O   UNL     1       3.875  14.689  -8.172  1.00  0.00    -0.507 OA
ATOM     25  H   UNL     1       3.634  13.921  -8.780  1.00  0.00     0.293 HD
ENDBRANCH   6  24
BRANCH   8  26
ATOM     26  O   UNL     1       6.527  18.376  -6.610  1.00  0.00    -0.508 OA
ATOM     27  H   UNL     1       5.690  18.874  -6.329  1.00  0.00     0.293 HD
ENDBRANCH   8  26
TORSDOF 6
ENDMDL
MODEL 9
REMARK VINA RESULT:    -6.407     11.272     13.267
REMARK INTER + INTRA:          -7.587
REMARK INTER:                  -7.252
REMARK INTRA:                  -0.335
REMARK UNBOUND:                 0.131
REMARK SMILES O=c1c(O)c(-c2ccc(O)c(O)c2)oc2cc(O)cc(O)c12
REMARK SMILES IDX 5 1 3 2 2 3 1 4 22 5 20 6 19 7 17 8 16 9 15 10 14 11 6 12
REMARK SMILES IDX 7 13 8 14 9 15 13 16 11 17 10 18 12 20 4 22 21 24 18 26
REMARK H PARENT 10 19 12 21 4 23 21 25 18 27
REMARK Flexibility Score: inf
ROOT
ATOM      1  C   UNL     1      13.623  12.131  -6.936  1.00  0.00     0.180 A 
ATOM      2  C   UNL     1      14.948  12.588  -6.830  1.00  0.00     0.208 A 
ATOM      3  C   UNL     1      15.419  13.025  -5.582  1.00  0.00     0.238 A 
ATOM      4  O   UNL     1      16.622  13.382  -5.481  1.00  0.00    -0.285 OA
ATOM      5  C   UNL     1      14.558  13.014  -4.459  1.00  0.00     0.111 A 
ATOM      6  C   UNL     1      14.917  13.470  -3.156  1.00  0.00     0.134 A 
ATOM      7  C   UNL     1      14.026  13.291  -2.091  1.00  0.00     0.093 A 
ATOM      8  C   UNL     1      12.762  12.731  -2.295  1.00  0.00     0.123 A 
ATOM      9  C   UNL     1      12.380  12.337  -3.574  1.00  0.00     0.094 A 
ATOM     10  C   UNL     1      13.260  12.469  -4.651  1.00  0.00     0.146 A 
ATOM     11  O   UNL     1      12.859  12.071  -5.851  1.00  0.00    -0.452 OA
ENDROOT
BRANCH   1  12
ATOM     12  C   UNL     1      13.047  11.678  -8.223  1.00  0.00     0.025 A 
ATOM     13  C   UNL     1      13.087  10.315  -8.556  1.00  0.00     0.016 A 
ATOM     14  C   UNL     1      12.530   9.863  -9.756  1.00  0.00     0.051 A 
ATOM     15  C   UNL     1      11.912  10.762 -10.631  1.00  0.00     0.157 A 
ATOM     16  C   UNL     1      12.406  12.577  -9.095  1.00  0.00     0.062 A 
ATOM     17  C   UNL     1      11.845  12.125 -10.299  1.00  0.00     0.158 A 
BRANCH  15  18
ATOM     18  O   UNL     1      11.367  10.282 -11.822  1.00  0.00    -0.504 OA
ATOM     19  H   UNL     1      11.081   9.317 -11.932  1.00  0.00     0.293 HD
ENDBRANCH  15  18
BRANCH  17  20
ATOM     20  O   UNL     1      11.219  13.025 -11.160  1.00  0.00    -0.504 OA
ATOM     21  H   UNL     1      11.216  14.021 -10.977  1.00  0.00     0.293 HD
ENDBRANCH  17  20
ENDBRANCH   1  12
BRANCH   2  22
ATOM     22  O   UNL     1      15.790  12.570  -7.946  1.00  0.00    -0.502 OA
ATOM     23  H   UNL     1      15.437  12.637  -8.894  1.00  0.00     0.293 HD
ENDBRANCH   2  22
BRANCH   6  24
ATOM     24  O   UNL     1      16.116  14.127  -2.862  1.00  0.00    -0.507 OA
ATOM     25  H   UNL     1      16.956  13.672  -2.538  1.00  0.00     0.293 HD
ENDBRANCH   6  24
BRANCH   8  26
ATOM     26  O   UNL     1      11.876  12.570  -1.232  1.00  0.00    -0.508 OA
ATOM     27  H   UNL     1      11.608  13.350  -0.643  1.00  0.00     0.293 HD
ENDBRANCH   8  26
TORSDOF 6
ENDMDL
