MODEL 1
REMARK VINA RESULT:    -6.038      0.000      0.000
REMARK INTER + INTRA:          -7.219
REMARK INTER:                  -6.921
REMARK INTRA:                  -0.298
REMARK UNBOUND:                -0.298
REMARK SMILES O=C1C[C@@H](c2ccc(O)cc2)Oc2cc(O)cc(O)c21
REMARK SMILES IDX 3 1 4 2 12 3 13 4 14 5 15 6 17 7 18 8 20 9 2 10 1 11 5 12
REMARK SMILES IDX 6 13 11 14 7 15 10 16 8 17 9 18 19 20 16 22
REMARK H PARENT 9 19 19 21 16 23
REMARK Flexibility Score: inf
ROOT
ATOM      1  C   UNL     1       2.767   4.214  10.446  1.00  0.00     0.131 C 
ATOM      2  C   UNL     1       3.161   4.045   8.974  1.00  0.00     0.211 C 
ATOM      3  O   UNL     1       2.728   2.773   8.494  1.00  0.00    -0.484 OA
ATOM      4  C   UNL     1       1.446   2.281   8.764  1.00  0.00     0.138 A 
ATOM      5  C   UNL     1       0.968   1.202   8.017  1.00  0.00     0.093 A 
ATOM      6  C   UNL     1      -0.314   0.705   8.241  1.00  0.00     0.123 A 
ATOM      7  C   UNL     1      -1.130   1.301   9.207  1.00  0.00     0.093 A 
ATOM      8  C   UNL     1      -0.675   2.388   9.963  1.00  0.00     0.133 A 
ATOM      9  C   UNL     1       0.655   2.863   9.780  1.00  0.00     0.102 A 
ATOM     10  C   UNL     1       1.313   3.886  10.645  1.00  0.00     0.174 C 
ATOM     11  O   UNL     1       0.716   4.411  11.620  1.00  0.00    -0.294 OA
ENDROOT
BRANCH   2  12
ATOM     12  C   UNL     1       4.654   4.186   8.799  1.00  0.00    -0.007 A 
ATOM     13  C   UNL     1       5.219   5.443   8.527  1.00  0.00     0.011 A 
ATOM     14  C   UNL     1       5.502   3.075   8.960  1.00  0.00     0.011 A 
ATOM     15  C   UNL     1       6.603   5.584   8.395  1.00  0.00     0.046 A 
ATOM     16  C   UNL     1       6.886   3.218   8.827  1.00  0.00     0.046 A 
ATOM     17  C   UNL     1       7.440   4.470   8.542  1.00  0.00     0.115 A 
BRANCH  17  18
ATOM     18  O   UNL     1       8.821   4.597   8.412  1.00  0.00    -0.508 OA
ATOM     19  H   UNL     1       9.415   3.791   8.254  1.00  0.00     0.293 HD
ENDBRANCH  17  18
ENDBRANCH   2  12
BRANCH   8  20
ATOM     20  O   UNL     1      -1.584   2.959  10.859  1.00  0.00    -0.507 OA
ATOM     21  H   UNL     1      -2.303   2.447  11.346  1.00  0.00     0.293 HD
ENDBRANCH   8  20
BRANCH   6  22
ATOM     22  O   UNL     1      -0.773  -0.376   7.491  1.00  0.00    -0.508 OA
ATOM     23  H   UNL     1      -0.255  -1.246   7.445  1.00  0.00     0.293 HD
ENDBRANCH   6  22
TORSDOF 4
ENDMDL
MODEL 2
REMARK VINA RESULT:    -5.982     12.462     15.766
REMARK INTER + INTRA:          -7.153
REMARK INTER:                  -6.840
REMARK INTRA:                  -0.314
REMARK UNBOUND:                -0.298
REMARK SMILES O=C1C[C@@H](c2ccc(O)cc2)Oc2cc(O)cc(O)c21
REMARK SMILES IDX 3 1 4 2 12 3 13 4 14 5 15 6 17 7 18 8 20 9 2 10 1 11 5 12
REMARK SMILES IDX 6 13 11 14 7 15 10 16 8 17 9 18 19 20 16 22
REMARK H PARENT 9 19 19 21 16 23
REMARK Flexibility Score: inf
ROOT
ATOM      1  C   UNL     1      -7.916  -4.266   2.804  1.00  0.00     0.131 C 
ATOM      2  C   UNL     1      -8.755  -5.474   3.237  1.00  0.00     0.211 C 
ATOM      3  O   UNL     1      -8.223  -6.034   4.438  1.00  0.00    -0.484 OA
ATOM      4  C   UNL     1      -7.843  -5.233   5.519  1.00  0.00     0.138 A 
ATOM      5  C   UNL     1      -7.640  -5.832   6.763  1.00  0.00     0.093 A 
ATOM      6  C   UNL     1      -7.286  -5.060   7.868  1.00  0.00     0.123 A 
ATOM      7  C   UNL     1      -7.153  -3.675   7.731  1.00  0.00     0.093 A 
ATOM      8  C   UNL     1      -7.359  -3.050   6.495  1.00  0.00     0.133 A 
ATOM      9  C   UNL     1      -7.662  -3.841   5.350  1.00  0.00     0.102 A 
ATOM     10  C   UNL     1      -7.723  -3.317   3.954  1.00  0.00     0.174 C 
ATOM     11  O   UNL     1      -7.505  -2.106   3.691  1.00  0.00    -0.294 OA
ENDROOT
BRANCH   2  12
ATOM     12  C   UNL     1      -8.793  -6.519   2.148  1.00  0.00    -0.007 A 
ATOM     13  C   UNL     1      -8.608  -6.150   0.806  1.00  0.00     0.011 A 
ATOM     14  C   UNL     1      -8.956  -7.880   2.468  1.00  0.00     0.011 A 
ATOM     15  C   UNL     1      -8.612  -7.118  -0.202  1.00  0.00     0.046 A 
ATOM     16  C   UNL     1      -8.960  -8.847   1.458  1.00  0.00     0.046 A 
ATOM     17  C   UNL     1      -8.790  -8.470   0.122  1.00  0.00     0.115 A 
BRANCH  17  18
ATOM     18  O   UNL     1      -8.796  -9.444  -0.874  1.00  0.00    -0.508 OA
ATOM     19  H   UNL     1      -8.923 -10.425  -0.654  1.00  0.00     0.293 HD
ENDBRANCH  17  18
ENDBRANCH   2  12
BRANCH   8  20
ATOM     20  O   UNL     1      -7.267  -1.656   6.470  1.00  0.00    -0.507 OA
ATOM     21  H   UNL     1      -7.695  -1.067   5.772  1.00  0.00     0.293 HD
ENDBRANCH   8  20
BRANCH   6  22
ATOM     22  O   UNL     1      -7.081  -5.676   9.101  1.00  0.00    -0.508 OA
ATOM     23  H   UNL     1      -7.156  -6.681   9.209  1.00  0.00     0.293 HD
ENDBRANCH   6  22
TORSDOF 4
ENDMDL
MODEL 3
REMARK VINA RESULT:    -5.906      2.491      5.509
REMARK INTER + INTRA:          -7.067
REMARK INTER:                  -6.772
REMARK INTRA:                  -0.295
REMARK UNBOUND:                -0.298
REMARK SMILES O=C1C[C@@H](c2ccc(O)cc2)Oc2cc(O)cc(O)c21
REMARK SMILES IDX 3 1 4 2 12 3 13 4 14 5 15 6 17 7 18 8 20 9 2 10 1 11 5 12
REMARK SMILES IDX 6 13 11 14 7 15 10 16 8 17 9 18 19 20 16 22
REMARK H PARENT 9 19 19 21 16 23
REMARK Flexibility Score: inf
ROOT
ATOM      1  C   UNL     1       3.288   4.769   9.999  1.00  0.00     0.131 C 
ATOM      2  C   UNL     1       2.640   3.512  10.593  1.00  0.00     0.211 C 
ATOM      3  O   UNL     1       1.710   2.956   9.664  1.00  0.00    -0.484 OA
ATOM      4  C   UNL     1       2.021   2.807   8.309  1.00  0.00     0.138 A 
ATOM      5  C   UNL     1       1.220   1.978   7.521  1.00  0.00     0.093 A 
ATOM      6  C   UNL     1       1.518   1.786   6.173  1.00  0.00     0.123 A 
ATOM      7  C   UNL     1       2.634   2.414   5.613  1.00  0.00     0.093 A 
ATOM      8  C   UNL     1       3.456   3.244   6.385  1.00  0.00     0.133 A 
ATOM      9  C   UNL     1       3.123   3.491   7.747  1.00  0.00     0.102 A 
ATOM     10  C   UNL     1       3.810   4.492   8.616  1.00  0.00     0.174 C 
ATOM     11  O   UNL     1       4.755   5.203   8.188  1.00  0.00    -0.294 OA
ENDROOT
BRANCH   2  12
ATOM     12  C   UNL     1       1.948   3.829  11.896  1.00  0.00    -0.007 A 
ATOM     13  C   UNL     1       0.624   4.296  11.898  1.00  0.00     0.011 A 
ATOM     14  C   UNL     1       2.598   3.608  13.124  1.00  0.00     0.011 A 
ATOM     15  C   UNL     1      -0.031   4.562  13.104  1.00  0.00     0.046 A 
ATOM     16  C   UNL     1       1.941   3.875  14.329  1.00  0.00     0.046 A 
ATOM     17  C   UNL     1       0.627   4.354  14.323  1.00  0.00     0.115 A 
BRANCH  17  18
ATOM     18  O   UNL     1      -0.015   4.615  15.531  1.00  0.00    -0.508 OA
ATOM     19  H   UNL     1       0.034   5.527  15.970  1.00  0.00     0.293 HD
ENDBRANCH  17  18
ENDBRANCH   2  12
BRANCH   8  20
ATOM     20  O   UNL     1       4.585   3.776   5.755  1.00  0.00    -0.507 OA
ATOM     21  H   UNL     1       4.731   4.758   5.579  1.00  0.00     0.293 HD
ENDBRANCH   8  20
BRANCH   6  22
ATOM     22  O   UNL     1       0.703   0.960   5.400  1.00  0.00    -0.508 OA
ATOM     23  H   UNL     1       0.545   1.143   4.417  1.00  0.00     0.293 HD
ENDBRANCH   6  22
TORSDOF 4
ENDMDL
MODEL 4
REMARK VINA RESULT:    -5.896      1.834      3.316
REMARK INTER + INTRA:          -7.055
REMARK INTER:                  -6.774
REMARK INTRA:                  -0.281
REMARK UNBOUND:                -0.298
REMARK SMILES O=C1C[C@@H](c2ccc(O)cc2)Oc2cc(O)cc(O)c21
REMARK SMILES IDX 3 1 4 2 12 3 13 4 14 5 15 6 17 7 18 8 20 9 2 10 1 11 5 12
REMARK SMILES IDX 6 13 11 14 7 15 10 16 8 17 9 18 19 20 16 22
REMARK H PARENT 9 19 19 21 16 23
REMARK Flexibility Score: inf
ROOT
ATOM      1  C   UNL     1       2.014   3.802   8.776  1.00  0.00     0.131 C 
ATOM      2  C   UNL     1       3.160   3.375   9.700  1.00  0.00     0.211 C 
ATOM      3  O   UNL     1       2.961   3.911  11.008  1.00  0.00    -0.484 OA
ATOM      4  C   UNL     1       1.715   3.860  11.643  1.00  0.00     0.138 A 
ATOM      5  C   UNL     1       1.650   4.098  13.017  1.00  0.00     0.093 A 
ATOM      6  C   UNL     1       0.429   4.029  13.686  1.00  0.00     0.123 A 
ATOM      7  C   UNL     1      -0.732   3.703  12.979  1.00  0.00     0.093 A 
ATOM      8  C   UNL     1      -0.689   3.452  11.601  1.00  0.00     0.133 A 
ATOM      9  C   UNL     1       0.545   3.579  10.903  1.00  0.00     0.102 A 
ATOM     10  C   UNL     1       0.684   3.518   9.417  1.00  0.00     0.174 C 
ATOM     11  O   UNL     1      -0.310   3.344   8.666  1.00  0.00    -0.294 OA
ENDROOT
BRANCH   2  12
ATOM     12  C   UNL     1       4.491   3.828   9.150  1.00  0.00    -0.007 A 
ATOM     13  C   UNL     1       4.710   5.184   8.856  1.00  0.00     0.011 A 
ATOM     14  C   UNL     1       5.544   2.911   8.978  1.00  0.00     0.011 A 
ATOM     15  C   UNL     1       5.951   5.612   8.376  1.00  0.00     0.046 A 
ATOM     16  C   UNL     1       6.784   3.341   8.498  1.00  0.00     0.046 A 
ATOM     17  C   UNL     1       6.991   4.691   8.193  1.00  0.00     0.115 A 
BRANCH  17  18
ATOM     18  O   UNL     1       8.232   5.105   7.715  1.00  0.00    -0.508 OA
ATOM     19  H   UNL     1       8.791   4.514   7.111  1.00  0.00     0.293 HD
ENDBRANCH  17  18
ENDBRANCH   2  12
BRANCH   8  20
ATOM     20  O   UNL     1      -1.888   3.070  10.993  1.00  0.00    -0.507 OA
ATOM     21  H   UNL     1      -2.063   3.107  10.001  1.00  0.00     0.293 HD
ENDBRANCH   8  20
BRANCH   6  22
ATOM     22  O   UNL     1       0.381   4.277  15.057  1.00  0.00    -0.508 OA
ATOM     23  H   UNL     1       0.983   4.966  15.491  1.00  0.00     0.293 HD
ENDBRANCH   6  22
TORSDOF 4
ENDMDL
MODEL 5
REMARK VINA RESULT:    -5.893      5.164     10.258
REMARK INTER + INTRA:          -7.052
REMARK INTER:                  -6.751
REMARK INTRA:                  -0.301
REMARK UNBOUND:                -0.298
REMARK SMILES O=C1C[C@@H](c2ccc(O)cc2)Oc2cc(O)cc(O)c21
REMARK SMILES IDX 3 1 4 2 12 3 13 4 14 5 15 6 17 7 18 8 20 9 2 10 1 11 5 12
REMARK SMILES IDX 6 13 11 14 7 15 10 16 8 17 9 18 19 20 16 22
REMARK H PARENT 9 19 19 21 16 23
REMARK Flexibility Score: inf
ROOT
ATOM      1  C   UNL     1      -2.542  -3.394  10.634  1.00  0.00     0.131 C 
ATOM      2  C   UNL     1      -3.052  -3.153   9.208  1.00  0.00     0.211 C 
ATOM      3  O   UNL     1      -2.765  -1.815   8.805  1.00  0.00    -0.484 OA
ATOM      4  C   UNL     1      -1.515  -1.228   9.030  1.00  0.00     0.138 A 
ATOM      5  C   UNL     1      -1.186  -0.059   8.343  1.00  0.00     0.093 A 
ATOM      6  C   UNL     1       0.061   0.537   8.525  1.00  0.00     0.123 A 
ATOM      7  C   UNL     1       0.991  -0.051   9.386  1.00  0.00     0.093 A 
ATOM      8  C   UNL     1       0.686  -1.229  10.081  1.00  0.00     0.133 A 
ATOM      9  C   UNL     1      -0.607  -1.808   9.945  1.00  0.00     0.102 A 
ATOM     10  C   UNL     1      -1.112  -2.949  10.766  1.00  0.00     0.174 C 
ATOM     11  O   UNL     1      -0.404  -3.487  11.656  1.00  0.00    -0.294 OA
ENDROOT
BRANCH   2  12
ATOM     12  C   UNL     1      -4.535  -3.418   9.117  1.00  0.00    -0.007 A 
ATOM     13  C   UNL     1      -5.447  -2.350   9.144  1.00  0.00     0.011 A 
ATOM     14  C   UNL     1      -5.020  -4.728   8.946  1.00  0.00     0.011 A 
ATOM     15  C   UNL     1      -6.819  -2.588   9.029  1.00  0.00     0.046 A 
ATOM     16  C   UNL     1      -6.393  -4.964   8.831  1.00  0.00     0.046 A 
ATOM     17  C   UNL     1      -7.296  -3.897   8.875  1.00  0.00     0.115 A 
BRANCH  17  18
ATOM     18  O   UNL     1      -8.662  -4.147   8.759  1.00  0.00    -0.508 OA
ATOM     19  H   UNL     1      -9.281  -3.495   8.292  1.00  0.00     0.293 HD
ENDBRANCH  17  18
ENDBRANCH   2  12
BRANCH   8  20
ATOM     20  O   UNL     1       1.702  -1.777  10.869  1.00  0.00    -0.507 OA
ATOM     21  H   UNL     1       2.641  -1.416  10.923  1.00  0.00     0.293 HD
ENDBRANCH   8  20
BRANCH   6  22
ATOM     22  O   UNL     1       0.370   1.708   7.835  1.00  0.00    -0.508 OA
ATOM     23  H   UNL     1       0.875   2.466   8.279  1.00  0.00     0.293 HD
ENDBRANCH   6  22
TORSDOF 4
ENDMDL
MODEL 6
REMARK VINA RESULT:    -5.889      7.517     10.926
REMARK INTER + INTRA:          -7.047
REMARK INTER:                  -6.767
REMARK INTRA:                  -0.280
REMARK UNBOUND:                -0.298
REMARK SMILES O=C1C[C@@H](c2ccc(O)cc2)Oc2cc(O)cc(O)c21
REMARK SMILES IDX 3 1 4 2 12 3 13 4 14 5 15 6 17 7 18 8 20 9 2 10 1 11 5 12
REMARK SMILES IDX 6 13 11 14 7 15 10 16 8 17 9 18 19 20 16 22
REMARK H PARENT 9 19 19 21 16 23
REMARK Flexibility Score: inf
ROOT
ATOM      1  C   UNL     1      -1.999  -3.347   9.232  1.00  0.00     0.131 C 
ATOM      2  C   UNL     1      -3.160  -2.806  10.073  1.00  0.00     0.211 C 
ATOM      3  O   UNL     1      -3.010  -3.210  11.433  1.00  0.00    -0.484 OA
ATOM      4  C   UNL     1      -1.782  -3.120  12.098  1.00  0.00     0.138 A 
ATOM      5  C   UNL     1      -1.760  -3.220  13.490  1.00  0.00     0.093 A 
ATOM      6  C   UNL     1      -0.558  -3.107  14.185  1.00  0.00     0.123 A 
ATOM      7  C   UNL     1       0.629  -2.877  13.484  1.00  0.00     0.093 A 
ATOM      8  C   UNL     1       0.631  -2.767  12.088  1.00  0.00     0.133 A 
ATOM      9  C   UNL     1      -0.585  -2.939  11.368  1.00  0.00     0.102 A 
ATOM     10  C   UNL     1      -0.681  -3.027   9.881  1.00  0.00     0.174 C 
ATOM     11  O   UNL     1       0.337  -2.950   9.146  1.00  0.00    -0.294 OA
ENDROOT
BRANCH   2  12
ATOM     12  C   UNL     1      -4.485  -3.286   9.531  1.00  0.00    -0.007 A 
ATOM     13  C   UNL     1      -4.693  -4.652   9.280  1.00  0.00     0.011 A 
ATOM     14  C   UNL     1      -5.544  -2.382   9.325  1.00  0.00     0.011 A 
ATOM     15  C   UNL     1      -5.929  -5.104   8.808  1.00  0.00     0.046 A 
ATOM     16  C   UNL     1      -6.778  -2.837   8.852  1.00  0.00     0.046 A 
ATOM     17  C   UNL     1      -6.974  -4.197   8.590  1.00  0.00     0.115 A 
BRANCH  17  18
ATOM     18  O   UNL     1      -8.209  -4.635   8.120  1.00  0.00    -0.508 OA
ATOM     19  H   UNL     1      -8.924  -3.982   7.820  1.00  0.00     0.293 HD
ENDBRANCH  17  18
ENDBRANCH   2  12
BRANCH   8  20
ATOM     20  O   UNL     1       1.855  -2.472  11.480  1.00  0.00    -0.507 OA
ATOM     21  H   UNL     1       2.755  -2.743  11.846  1.00  0.00     0.293 HD
ENDBRANCH   8  20
BRANCH   6  22
ATOM     22  O   UNL     1      -0.554  -3.215  15.575  1.00  0.00    -0.508 OA
ATOM     23  H   UNL     1      -0.033  -2.568  16.155  1.00  0.00     0.293 HD
ENDBRANCH   6  22
TORSDOF 4
ENDMDL
MODEL 7
REMARK VINA RESULT:    -5.870      6.083      9.177
REMARK INTER + INTRA:          -7.025
REMARK INTER:                  -6.715
REMARK INTRA:                  -0.310
REMARK UNBOUND:                -0.298
REMARK SMILES O=C1C[C@@H](c2ccc(O)cc2)Oc2cc(O)cc(O)c21
REMARK SMILES IDX 3 1 4 2 12 3 13 4 14 5 15 6 17 7 18 8 20 9 2 10 1 11 5 12
REMARK SMILES IDX 6 13 11 14 7 15 10 16 8 17 9 18 19 20 16 22
REMARK H PARENT 9 19 19 21 16 23
REMARK Flexibility Score: inf
ROOT
ATOM      1  C   UNL     1       7.869   4.118   2.375  1.00  0.00     0.131 C 
ATOM      2  C   UNL     1       8.756   5.281   2.836  1.00  0.00     0.211 C 
ATOM      3  O   UNL     1       8.296   5.779   4.091  1.00  0.00    -0.484 OA
ATOM      4  C   UNL     1       7.949   4.924   5.142  1.00  0.00     0.138 A 
ATOM      5  C   UNL     1       7.819   5.453   6.427  1.00  0.00     0.093 A 
ATOM      6  C   UNL     1       7.500   4.624   7.501  1.00  0.00     0.123 A 
ATOM      7  C   UNL     1       7.327   3.253   7.291  1.00  0.00     0.093 A 
ATOM      8  C   UNL     1       7.459   2.698   6.011  1.00  0.00     0.133 A 
ATOM      9  C   UNL     1       7.726   3.549   4.901  1.00  0.00     0.102 A 
ATOM     10  C   UNL     1       7.708   3.107   3.475  1.00  0.00     0.174 C 
ATOM     11  O   UNL     1       7.449   1.919   3.154  1.00  0.00    -0.294 OA
ENDROOT
BRANCH   2  12
ATOM     12  C   UNL     1       8.768   6.387   1.809  1.00  0.00    -0.007 A 
ATOM     13  C   UNL     1       8.940   7.722   2.210  1.00  0.00     0.011 A 
ATOM     14  C   UNL     1       8.663   6.092   0.437  1.00  0.00     0.011 A 
ATOM     15  C   UNL     1       8.982   8.747   1.260  1.00  0.00     0.046 A 
ATOM     16  C   UNL     1       8.706   7.118  -0.511  1.00  0.00     0.046 A 
ATOM     17  C   UNL     1       8.863   8.447  -0.104  1.00  0.00     0.115 A 
BRANCH  17  18
ATOM     18  O   UNL     1       8.903   9.459  -1.060  1.00  0.00    -0.508 OA
ATOM     19  H   UNL     1       9.779   9.769  -1.466  1.00  0.00     0.293 HD
ENDBRANCH  17  18
ENDBRANCH   2  12
BRANCH   8  20
ATOM     20  O   UNL     1       7.332   1.309   5.910  1.00  0.00    -0.507 OA
ATOM     21  H   UNL     1       6.695   0.838   5.287  1.00  0.00     0.293 HD
ENDBRANCH   8  20
BRANCH   6  22
ATOM     22  O   UNL     1       7.368   5.170   8.776  1.00  0.00    -0.508 OA
ATOM     23  H   UNL     1       8.031   5.849   9.132  1.00  0.00     0.293 HD
ENDBRANCH   6  22
TORSDOF 4
ENDMDL
MODEL 8
REMARK VINA RESULT:    -5.865      6.598     10.002
REMARK INTER + INTRA:          -7.020
REMARK INTER:                  -6.734
REMARK INTRA:                  -0.286
REMARK UNBOUND:                -0.298
REMARK SMILES O=C1C[C@@H](c2ccc(O)cc2)Oc2cc(O)cc(O)c21
REMARK SMILES IDX 3 1 4 2 12 3 13 4 14 5 15 6 17 7 18 8 20 9 2 10 1 11 5 12
REMARK SMILES IDX 6 13 11 14 7 15 10 16 8 17 9 18 19 20 16 22
REMARK H PARENT 9 19 19 21 16 23
REMARK Flexibility Score: inf
ROOT
ATOM      1  C   UNL     1       8.489   3.573   3.469  1.00  0.00     0.131 C 
ATOM      2  C   UNL     1       7.886   4.674   4.349  1.00  0.00     0.211 C 
ATOM      3  O   UNL     1       8.437   5.941   3.993  1.00  0.00    -0.484 OA
ATOM      4  C   UNL     1       8.572   6.338   2.659  1.00  0.00     0.138 A 
ATOM      5  C   UNL     1       8.808   7.685   2.377  1.00  0.00     0.093 A 
ATOM      6  C   UNL     1       8.922   8.119   1.058  1.00  0.00     0.123 A 
ATOM      7  C   UNL     1       8.781   7.202   0.012  1.00  0.00     0.093 A 
ATOM      8  C   UNL     1       8.536   5.847   0.270  1.00  0.00     0.133 A 
ATOM      9  C   UNL     1       8.479   5.388   1.617  1.00  0.00     0.102 A 
ATOM     10  C   UNL     1       8.407   3.952   2.017  1.00  0.00     0.174 C 
ATOM     11  O   UNL     1       8.393   3.027   1.164  1.00  0.00    -0.294 OA
ENDROOT
BRANCH   2  12
ATOM     12  C   UNL     1       8.134   4.390   5.811  1.00  0.00    -0.007 A 
ATOM     13  C   UNL     1       7.470   5.135   6.799  1.00  0.00     0.011 A 
ATOM     14  C   UNL     1       8.988   3.341   6.201  1.00  0.00     0.011 A 
ATOM     15  C   UNL     1       7.674   4.854   8.153  1.00  0.00     0.046 A 
ATOM     16  C   UNL     1       9.191   3.063   7.556  1.00  0.00     0.046 A 
ATOM     17  C   UNL     1       8.537   3.819   8.535  1.00  0.00     0.115 A 
BRANCH  17  18
ATOM     18  O   UNL     1       8.749   3.530   9.881  1.00  0.00    -0.508 OA
ATOM     19  H   UNL     1       8.517   4.197  10.608  1.00  0.00     0.293 HD
ENDBRANCH  17  18
ENDBRANCH   2  12
BRANCH   8  20
ATOM     20  O   UNL     1       8.345   5.018  -0.839  1.00  0.00    -0.507 OA
ATOM     21  H   UNL     1       8.738   5.187  -1.753  1.00  0.00     0.293 HD
ENDBRANCH   8  20
BRANCH   6  22
ATOM     22  O   UNL     1       9.164   9.466   0.795  1.00  0.00    -0.508 OA
ATOM     23  H   UNL     1      10.080   9.876   0.933  1.00  0.00     0.293 HD
ENDBRANCH   6  22
TORSDOF 4
ENDMDL
MODEL 9
REMARK VINA RESULT:    -5.801     13.407     15.385
REMARK INTER + INTRA:          -6.946
REMARK INTER:                  -6.666
REMARK INTRA:                  -0.280
REMARK UNBOUND:                -0.298
REMARK SMILES O=C1C[C@@H](c2ccc(O)cc2)Oc2cc(O)cc(O)c21
REMARK SMILES IDX 3 1 4 2 12 3 13 4 14 5 15 6 17 7 18 8 20 9 2 10 1 11 5 12
REMARK SMILES IDX 6 13 11 14 7 15 10 16 8 17 9 18 19 20 16 22
REMARK H PARENT 9 19 19 21 16 23
REMARK Flexibility Score: inf
ROOT
ATOM      1  C   UNL     1      -8.157  -3.289   3.885  1.00  0.00     0.131 C 
ATOM      2  C   UNL     1      -7.760  -4.409   4.853  1.00  0.00     0.211 C 
ATOM      3  O   UNL     1      -8.421  -5.622   4.497  1.00  0.00    -0.484 OA
ATOM      4  C   UNL     1      -8.489  -6.062   3.171  1.00  0.00     0.138 A 
ATOM      5  C   UNL     1      -8.854  -7.386   2.918  1.00  0.00     0.093 A 
ATOM      6  C   UNL     1      -8.905  -7.865   1.610  1.00  0.00     0.123 A 
ATOM      7  C   UNL     1      -8.572  -7.018   0.548  1.00  0.00     0.093 A 
ATOM      8  C   UNL     1      -8.196  -5.689   0.778  1.00  0.00     0.133 A 
ATOM      9  C   UNL     1      -8.199  -5.178   2.107  1.00  0.00     0.102 A 
ATOM     10  C   UNL     1      -7.998  -3.741   2.460  1.00  0.00     0.174 C 
ATOM     11  O   UNL     1      -7.805  -2.864   1.578  1.00  0.00    -0.294 OA
ENDROOT
BRANCH   2  12
ATOM     12  C   UNL     1      -8.096  -4.032   6.276  1.00  0.00    -0.007 A 
ATOM     13  C   UNL     1      -7.439  -4.659   7.348  1.00  0.00     0.011 A 
ATOM     14  C   UNL     1      -9.027  -3.012   6.546  1.00  0.00     0.011 A 
ATOM     15  C   UNL     1      -7.725  -4.291   8.665  1.00  0.00     0.046 A 
ATOM     16  C   UNL     1      -9.312  -2.646   7.864  1.00  0.00     0.046 A 
ATOM     17  C   UNL     1      -8.665  -3.284   8.927  1.00  0.00     0.115 A 
BRANCH  17  18
ATOM     18  O   UNL     1      -8.958  -2.909  10.236  1.00  0.00    -0.508 OA
ATOM     19  H   UNL     1      -8.418  -3.257  11.020  1.00  0.00     0.293 HD
ENDBRANCH  17  18
ENDBRANCH   2  12
BRANCH   8  20
ATOM     20  O   UNL     1      -7.819  -4.938  -0.339  1.00  0.00    -0.507 OA
ATOM     21  H   UNL     1      -8.300  -4.114  -0.663  1.00  0.00     0.293 HD
ENDBRANCH   8  20
BRANCH   6  22
ATOM     22  O   UNL     1      -9.278  -9.187   1.376  1.00  0.00    -0.508 OA
ATOM     23  H   UNL     1      -9.821  -9.448   0.562  1.00  0.00     0.293 HD
ENDBRANCH   6  22
TORSDOF 4
ENDMDL
