MODEL 1
REMARK VINA RESULT:    -4.227      0.000      0.000
REMARK INTER + INTRA:          -5.662
REMARK INTER:                  -5.463
REMARK INTRA:                  -0.199
REMARK UNBOUND:                -0.199
REMARK SMILES CCCCCCC(=O)[O-]
REMARK SMILES IDX 5 1 6 2 7 3 8 4 9 5 4 6 3 7 2 8 1 9
REMARK H PARENT
REMARK Flexibility Score: inf
ROOT
ATOM      1  C   UNL     1       1.077 -20.604  -5.095  1.00  0.00     0.006 C 
ENDROOT
BRANCH   1   2
ATOM      2  C   UNL     1       0.445 -19.888  -3.899  1.00  0.00     0.053 C 
BRANCH   2   3
ATOM      3  C   UNL     1       1.031 -20.389  -2.617  1.00  0.00     0.041 C 
ATOM      4  O   UNL     1       0.405 -21.231  -1.921  1.00  0.00    -0.550 OA
ATOM      5  O   UNL     1       2.293 -19.966  -2.217  1.00  0.00    -0.550 OA
ENDBRANCH   2   3
ENDBRANCH   1   2
BRANCH   1   6
ATOM      6  C   UNL     1       0.148 -21.704  -5.631  1.00  0.00     0.000 C 
BRANCH   6   7
ATOM      7  C   UNL     1       0.716 -22.418  -6.871  1.00  0.00    -0.000 C 
BRANCH   7   8
ATOM      8  C   UNL     1       1.837 -21.656  -7.599  1.00  0.00    -0.003 C 
ATOM      9  C   UNL     1       1.344 -20.908  -8.837  1.00  0.00     0.004 C 
ENDBRANCH   7   8
ENDBRANCH   6   7
ENDBRANCH   1   6
TORSDOF 5
ENDMDL
MODEL 2
REMARK VINA RESULT:    -3.988      0.974      1.290
REMARK INTER + INTRA:          -5.353
REMARK INTER:                  -5.182
REMARK INTRA:                  -0.171
REMARK UNBOUND:                -0.199
REMARK SMILES CCCCCCC(=O)[O-]
REMARK SMILES IDX 5 1 6 2 7 3 8 4 9 5 4 6 3 7 2 8 1 9
REMARK H PARENT
REMARK Flexibility Score: inf
ROOT
ATOM      1  C   UNL     1       0.492 -19.996  -4.125  1.00  0.00     0.006 C 
ENDROOT
BRANCH   1   2
ATOM      2  C   UNL     1       1.516 -19.265  -3.251  1.00  0.00     0.053 C 
BRANCH   2   3
ATOM      3  C   UNL     1       2.279 -20.239  -2.411  1.00  0.00     0.041 C 
ATOM      4  O   UNL     1       1.693 -20.890  -1.506  1.00  0.00    -0.550 OA
ATOM      5  O   UNL     1       3.627 -20.465  -2.660  1.00  0.00    -0.550 OA
ENDBRANCH   2   3
ENDBRANCH   1   2
BRANCH   1   6
ATOM      6  C   UNL     1       1.158 -20.577  -5.382  1.00  0.00     0.000 C 
BRANCH   6   7
ATOM      7  C   UNL     1       0.448 -21.837  -5.909  1.00  0.00    -0.000 C 
BRANCH   7   8
ATOM      8  C   UNL     1       0.832 -22.244  -7.343  1.00  0.00    -0.003 C 
ATOM      9  C   UNL     1       1.356 -21.075  -8.176  1.00  0.00     0.004 C 
ENDBRANCH   7   8
ENDBRANCH   6   7
ENDBRANCH   1   6
TORSDOF 5
ENDMDL
MODEL 3
REMARK VINA RESULT:    -3.891      2.348      3.715
REMARK INTER + INTRA:          -5.228
REMARK INTER:                  -4.852
REMARK INTRA:                  -0.376
REMARK UNBOUND:                -0.199
REMARK SMILES CCCCCCC(=O)[O-]
REMARK SMILES IDX 5 1 6 2 7 3 8 4 9 5 4 6 3 7 2 8 1 9
REMARK H PARENT
REMARK Flexibility Score: inf
ROOT
ATOM      1  C   UNL     1       2.921 -20.253  -7.789  1.00  0.00     0.006 C 
ENDROOT
BRANCH   1   2
ATOM      2  C   UNL     1       3.745 -21.366  -7.137  1.00  0.00     0.053 C 
BRANCH   2   3
ATOM      3  C   UNL     1       4.144 -20.981  -5.748  1.00  0.00     0.041 C 
ATOM      4  O   UNL     1       3.613 -19.984  -5.191  1.00  0.00    -0.550 OA
ATOM      5  O   UNL     1       5.065 -21.751  -5.049  1.00  0.00    -0.550 OA
ENDBRANCH   2   3
ENDBRANCH   1   2
BRANCH   1   6
ATOM      6  C   UNL     1       1.562 -20.784  -8.269  1.00  0.00     0.000 C 
BRANCH   6   7
ATOM      7  C   UNL     1       1.200 -22.148  -7.655  1.00  0.00    -0.000 C 
BRANCH   7   8
ATOM      8  C   UNL     1       0.030 -22.118  -6.655  1.00  0.00    -0.003 C 
ATOM      9  C   UNL     1       0.397 -21.461  -5.326  1.00  0.00     0.004 C 
ENDBRANCH   7   8
ENDBRANCH   6   7
ENDBRANCH   1   6
TORSDOF 5
ENDMDL
MODEL 4
REMARK VINA RESULT:    -3.890      2.987      4.781
REMARK INTER + INTRA:          -5.227
REMARK INTER:                  -5.033
REMARK INTRA:                  -0.194
REMARK UNBOUND:                -0.199
REMARK SMILES CCCCCCC(=O)[O-]
REMARK SMILES IDX 5 1 6 2 7 3 8 4 9 5 4 6 3 7 2 8 1 9
REMARK H PARENT
REMARK Flexibility Score: inf
ROOT
ATOM      1  C   UNL     1       1.325 -20.507  -5.814  1.00  0.00     0.006 C 
ENDROOT
BRANCH   1   2
ATOM      2  C   UNL     1       0.278 -21.618  -5.684  1.00  0.00     0.053 C 
BRANCH   2   3
ATOM      3  C   UNL     1       0.476 -22.652  -6.745  1.00  0.00     0.041 C 
ATOM      4  O   UNL     1       1.039 -22.347  -7.830  1.00  0.00    -0.550 OA
ATOM      5  O   UNL     1       0.086 -23.966  -6.518  1.00  0.00    -0.550 OA
ENDBRANCH   2   3
ENDBRANCH   1   2
BRANCH   1   6
ATOM      6  C   UNL     1       1.241 -19.532  -4.630  1.00  0.00     0.000 C 
BRANCH   6   7
ATOM      7  C   UNL     1       0.211 -19.963  -3.570  1.00  0.00    -0.000 C 
BRANCH   7   8
ATOM      8  C   UNL     1       0.812 -20.621  -2.315  1.00  0.00    -0.003 C 
ATOM      9  C   UNL     1       2.294 -20.300  -2.123  1.00  0.00     0.004 C 
ENDBRANCH   7   8
ENDBRANCH   6   7
ENDBRANCH   1   6
TORSDOF 5
ENDMDL
MODEL 5
REMARK VINA RESULT:    -3.877      1.697      2.262
REMARK INTER + INTRA:          -5.209
REMARK INTER:                  -4.907
REMARK INTRA:                  -0.302
REMARK UNBOUND:                -0.199
REMARK SMILES CCCCCCC(=O)[O-]
REMARK SMILES IDX 5 1 6 2 7 3 8 4 9 5 4 6 3 7 2 8 1 9
REMARK H PARENT
REMARK Flexibility Score: inf
ROOT
ATOM      1  C   UNL     1       1.096 -22.056  -6.221  1.00  0.00     0.006 C 
ENDROOT
BRANCH   1   2
ATOM      2  C   UNL     1       0.119 -21.417  -5.230  1.00  0.00     0.053 C 
BRANCH   2   3
ATOM      3  C   UNL     1       0.815 -20.388  -4.397  1.00  0.00     0.041 C 
ATOM      4  O   UNL     1       0.148 -19.611  -3.664  1.00  0.00    -0.550 OA
ATOM      5  O   UNL     1       2.202 -20.321  -4.389  1.00  0.00    -0.550 OA
ENDBRANCH   2   3
ENDBRANCH   1   2
BRANCH   1   6
ATOM      6  C   UNL     1       0.817 -21.578  -7.654  1.00  0.00     0.000 C 
BRANCH   6   7
ATOM      7  C   UNL     1       2.003 -20.819  -8.276  1.00  0.00    -0.000 C 
BRANCH   7   8
ATOM      8  C   UNL     1       3.343 -20.998  -7.540  1.00  0.00    -0.003 C 
ATOM      9  C   UNL     1       4.208 -19.739  -7.559  1.00  0.00     0.004 C 
ENDBRANCH   7   8
ENDBRANCH   6   7
ENDBRANCH   1   6
TORSDOF 5
ENDMDL
MODEL 6
REMARK VINA RESULT:    -3.867      3.022      4.241
REMARK INTER + INTRA:          -5.196
REMARK INTER:                  -4.952
REMARK INTRA:                  -0.244
REMARK UNBOUND:                -0.199
REMARK SMILES CCCCCCC(=O)[O-]
REMARK SMILES IDX 5 1 6 2 7 3 8 4 9 5 4 6 3 7 2 8 1 9
REMARK H PARENT
REMARK Flexibility Score: inf
ROOT
ATOM      1  C   UNL     1       1.727 -20.651  -7.550  1.00  0.00     0.006 C 
ENDROOT
BRANCH   1   2
ATOM      2  C   UNL     1       1.139 -22.048  -7.768  1.00  0.00     0.053 C 
BRANCH   2   3
ATOM      3  C   UNL     1       0.472 -22.537  -6.522  1.00  0.00     0.041 C 
ATOM      4  O   UNL     1       0.215 -21.735  -5.585  1.00  0.00    -0.550 OA
ATOM      5  O   UNL     1       0.086 -23.867  -6.416  1.00  0.00    -0.550 OA
ENDBRANCH   2   3
ENDBRANCH   1   2
BRANCH   1   6
ATOM      6  C   UNL     1       3.251 -20.718  -7.369  1.00  0.00     0.000 C 
BRANCH   6   7
ATOM      7  C   UNL     1       3.678 -20.783  -5.891  1.00  0.00    -0.000 C 
BRANCH   7   8
ATOM      8  C   UNL     1       4.966 -21.581  -5.624  1.00  0.00    -0.003 C 
ATOM      9  C   UNL     1       5.721 -21.941  -6.902  1.00  0.00     0.004 C 
ENDBRANCH   7   8
ENDBRANCH   6   7
ENDBRANCH   1   6
TORSDOF 5
ENDMDL
MODEL 7
REMARK VINA RESULT:    -3.821     10.110     11.302
REMARK INTER + INTRA:          -5.137
REMARK INTER:                  -4.748
REMARK INTRA:                  -0.390
REMARK UNBOUND:                -0.199
REMARK SMILES CCCCCCC(=O)[O-]
REMARK SMILES IDX 5 1 6 2 7 3 8 4 9 5 4 6 3 7 2 8 1 9
REMARK H PARENT
REMARK Flexibility Score: inf
ROOT
ATOM      1  C   UNL     1      -5.135 -28.429  -3.538  1.00  0.00     0.006 C 
ENDROOT
BRANCH   1   2
ATOM      2  C   UNL     1      -5.477 -26.989  -3.142  1.00  0.00     0.053 C 
BRANCH   2   3
ATOM      3  C   UNL     1      -5.994 -26.940  -1.740  1.00  0.00     0.041 C 
ATOM      4  O   UNL     1      -6.994 -26.228  -1.458  1.00  0.00    -0.550 OA
ATOM      5  O   UNL     1      -5.403 -27.718  -0.753  1.00  0.00    -0.550 OA
ENDBRANCH   2   3
ENDBRANCH   1   2
BRANCH   1   6
ATOM      6  C   UNL     1      -6.369 -29.153  -4.097  1.00  0.00     0.000 C 
BRANCH   6   7
ATOM      7  C   UNL     1      -6.777 -30.378  -3.260  1.00  0.00    -0.000 C 
BRANCH   7   8
ATOM      8  C   UNL     1      -7.886 -30.115  -2.225  1.00  0.00    -0.003 C 
ATOM      9  C   UNL     1      -7.568 -30.696  -0.848  1.00  0.00     0.004 C 
ENDBRANCH   7   8
ENDBRANCH   6   7
ENDBRANCH   1   6
TORSDOF 5
ENDMDL
MODEL 8
REMARK VINA RESULT:    -3.770      1.572      2.238
REMARK INTER + INTRA:          -5.070
REMARK INTER:                  -4.708
REMARK INTRA:                  -0.362
REMARK UNBOUND:                -0.199
REMARK SMILES CCCCCCC(=O)[O-]
REMARK SMILES IDX 5 1 6 2 7 3 8 4 9 5 4 6 3 7 2 8 1 9
REMARK H PARENT
REMARK Flexibility Score: inf
ROOT
ATOM      1  C   UNL     1       3.295 -20.603  -5.316  1.00  0.00     0.006 C 
ENDROOT
BRANCH   1   2
ATOM      2  C   UNL     1       2.092 -19.673  -5.135  1.00  0.00     0.053 C 
BRANCH   2   3
ATOM      3  C   UNL     1       1.130 -20.245  -4.143  1.00  0.00     0.041 C 
ATOM      4  O   UNL     1       0.177 -20.970  -4.531  1.00  0.00    -0.550 OA
ATOM      5  O   UNL     1       1.316 -20.019  -2.785  1.00  0.00    -0.550 OA
ENDBRANCH   2   3
ENDBRANCH   1   2
BRANCH   1   6
ATOM      6  C   UNL     1       3.385 -21.110  -6.763  1.00  0.00     0.000 C 
BRANCH   6   7
ATOM      7  C   UNL     1       2.502 -20.308  -7.736  1.00  0.00    -0.000 C 
BRANCH   7   8
ATOM      8  C   UNL     1       1.437 -21.136  -8.477  1.00  0.00    -0.003 C 
ATOM      9  C   UNL     1       0.910 -22.307  -7.649  1.00  0.00     0.004 C 
ENDBRANCH   7   8
ENDBRANCH   6   7
ENDBRANCH   1   6
TORSDOF 5
ENDMDL
MODEL 9
REMARK VINA RESULT:    -3.765      9.767     10.871
REMARK INTER + INTRA:          -5.065
REMARK INTER:                  -4.674
REMARK INTRA:                  -0.391
REMARK UNBOUND:                -0.199
REMARK SMILES CCCCCCC(=O)[O-]
REMARK SMILES IDX 5 1 6 2 7 3 8 4 9 5 4 6 3 7 2 8 1 9
REMARK H PARENT
REMARK Flexibility Score: inf
ROOT
ATOM      1  C   UNL     1      -5.495 -26.638  -3.282  1.00  0.00     0.006 C 
ENDROOT
BRANCH   1   2
ATOM      2  C   UNL     1      -6.609 -26.374  -2.264  1.00  0.00     0.053 C 
BRANCH   2   3
ATOM      3  C   UNL     1      -7.879 -26.003  -2.960  1.00  0.00     0.041 C 
ATOM      4  O   UNL     1      -8.542 -26.877  -3.578  1.00  0.00    -0.550 OA
ATOM      5  O   UNL     1      -8.359 -24.701  -2.885  1.00  0.00    -0.550 OA
ENDBRANCH   2   3
ENDBRANCH   1   2
BRANCH   1   6
ATOM      6  C   UNL     1      -5.177 -28.138  -3.372  1.00  0.00     0.000 C 
BRANCH   6   7
ATOM      7  C   UNL     1      -5.872 -28.965  -2.276  1.00  0.00    -0.000 C 
BRANCH   7   8
ATOM      8  C   UNL     1      -6.842 -30.042  -2.795  1.00  0.00    -0.003 C 
ATOM      9  C   UNL     1      -7.032 -29.994  -4.310  1.00  0.00     0.004 C 
ENDBRANCH   7   8
ENDBRANCH   6   7
ENDBRANCH   1   6
TORSDOF 5
ENDMDL
