MODEL 1
REMARK VINA RESULT:    -6.121      0.000      0.000
REMARK INTER + INTRA:          -8.718
REMARK INTER:                  -8.268
REMARK INTRA:                  -0.450
REMARK UNBOUND:                -0.450
REMARK SMILES O=c1c(-c2ccc(O)cc2)coc2c([C@H]3O[C@H](CO)[C@H](O)[C@@H](O)[C@@H]3O)c(O)ccc12
REMARK SMILES IDX 3 1 11 2 12 3 13 4 30 5 2 6 1 7 29 8 28 9 26 10 14 11 4 12
REMARK SMILES IDX 5 13 6 14 7 15 10 16 9 17 8 18 15 20 24 21 16 22 22 23 17 24
REMARK SMILES IDX 20 25 25 26 23 28 18 30 19 31 21 33 27 35
REMARK H PARENT 8 19 25 27 23 29 19 32 21 34 27 36
REMARK Flexibility Score: inf
ROOT
ATOM      1  C   UNL     1      42.891  18.164  -2.674  1.00  0.00     0.065 A 
ATOM      2  C   UNL     1      43.219  16.898  -2.172  1.00  0.00     0.208 A 
ATOM      3  O   UNL     1      44.142  16.149  -2.761  1.00  0.00    -0.463 OA
ATOM      4  C   UNL     1      44.809  16.534  -3.847  1.00  0.00     0.147 A 
ATOM      5  C   UNL     1      44.548  17.803  -4.415  1.00  0.00     0.066 A 
ATOM      6  C   UNL     1      43.578  18.624  -3.812  1.00  0.00     0.200 A 
ATOM      7  O   UNL     1      43.341  19.774  -4.277  1.00  0.00    -0.288 OA
ATOM      8  C   UNL     1      45.264  18.215  -5.549  1.00  0.00     0.020 A 
ATOM      9  C   UNL     1      46.231  17.384  -6.108  1.00  0.00     0.047 A 
ATOM     10  C   UNL     1      46.500  16.127  -5.554  1.00  0.00     0.125 A 
ATOM     11  C   UNL     1      45.778  15.679  -4.424  1.00  0.00     0.069 A 
ENDROOT
BRANCH   1  12
ATOM     12  C   UNL     1      41.849  18.981  -2.002  1.00  0.00    -0.011 A 
ATOM     13  C   UNL     1      42.217  20.027  -1.136  1.00  0.00     0.013 A 
ATOM     14  C   UNL     1      41.238  20.792  -0.495  1.00  0.00     0.047 A 
ATOM     15  C   UNL     1      39.884  20.520  -0.704  1.00  0.00     0.115 A 
ATOM     16  C   UNL     1      40.484  18.710  -2.203  1.00  0.00     0.013 A 
ATOM     17  C   UNL     1      39.508  19.476  -1.559  1.00  0.00     0.047 A 
BRANCH  15  18
ATOM     18  O   UNL     1      38.919  21.292  -0.059  1.00  0.00    -0.508 OA
ATOM     19  H   UNL     1      38.769  22.264  -0.303  1.00  0.00     0.293 HD
ENDBRANCH  15  18
ENDBRANCH   1  12
BRANCH  11  20
ATOM     20  C   UNL     1      46.079  14.322  -3.802  1.00  0.00     0.188 C 
ATOM     21  C   UNL     1      44.759  13.587  -3.472  1.00  0.00     0.179 C 
ATOM     22  O   UNL     1      46.871  14.513  -2.639  1.00  0.00    -0.362 OA
ATOM     23  C   UNL     1      45.057  12.222  -2.830  1.00  0.00     0.177 C 
ATOM     24  C   UNL     1      47.235  13.295  -2.002  1.00  0.00     0.176 C 
ATOM     25  C   UNL     1      46.011  12.407  -1.643  1.00  0.00     0.177 C 
BRANCH  21  26
ATOM     26  O   UNL     1      43.966  13.429  -4.624  1.00  0.00    -0.387 OA
ATOM     27  H   UNL     1      43.015  13.512  -4.350  1.00  0.00     0.211 HD
ENDBRANCH  21  26
BRANCH  23  28
ATOM     28  O   UNL     1      43.864  11.638  -2.371  1.00  0.00    -0.387 OA
ATOM     29  H   UNL     1      43.713  10.821  -2.917  1.00  0.00     0.211 HD
ENDBRANCH  23  28
BRANCH  24  30
ATOM     30  C   UNL     1      48.405  12.577  -2.715  1.00  0.00     0.191 C 
BRANCH  30  31
ATOM     31  O   UNL     1      49.044  11.654  -1.879  1.00  0.00    -0.394 OA
ATOM     32  H   UNL     1      50.010  11.880  -1.904  1.00  0.00     0.210 HD
ENDBRANCH  30  31
ENDBRANCH  24  30
BRANCH  25  33
ATOM     33  O   UNL     1      46.426  11.148  -1.174  1.00  0.00    -0.388 OA
ATOM     34  H   UNL     1      45.841  10.924  -0.403  1.00  0.00     0.211 HD
ENDBRANCH  25  33
ENDBRANCH  11  20
BRANCH  10  35
ATOM     35  O   UNL     1      47.488  15.323  -6.125  1.00  0.00    -0.507 OA
ATOM     36  H   UNL     1      47.347  14.855  -7.013  1.00  0.00     0.293 HD
ENDBRANCH  10  35
TORSDOF 9
ENDMDL
MODEL 2
REMARK VINA RESULT:    -5.592      1.904      2.884
REMARK INTER + INTRA:          -8.004
REMARK INTER:                  -7.020
REMARK INTRA:                  -0.984
REMARK UNBOUND:                -0.450
REMARK SMILES O=c1c(-c2ccc(O)cc2)coc2c([C@H]3O[C@H](CO)[C@H](O)[C@@H](O)[C@@H]3O)c(O)ccc12
REMARK SMILES IDX 3 1 11 2 12 3 13 4 30 5 2 6 1 7 29 8 28 9 26 10 14 11 4 12
REMARK SMILES IDX 5 13 6 14 7 15 10 16 9 17 8 18 15 20 24 21 16 22 22 23 17 24
REMARK SMILES IDX 20 25 25 26 23 28 18 30 19 31 21 33 27 35
REMARK H PARENT 8 19 25 27 23 29 19 32 21 34 27 36
REMARK Flexibility Score: inf
ROOT
ATOM      1  C   UNL     1      43.151  17.080  -2.806  1.00  0.00     0.065 A 
ATOM      2  C   UNL     1      44.204  16.476  -2.106  1.00  0.00     0.208 A 
ATOM      3  O   UNL     1      44.790  15.380  -2.569  1.00  0.00    -0.463 OA
ATOM      4  C   UNL     1      44.431  14.786  -3.706  1.00  0.00     0.147 A 
ATOM      5  C   UNL     1      43.383  15.335  -4.481  1.00  0.00     0.066 A 
ATOM      6  C   UNL     1      42.742  16.500  -4.020  1.00  0.00     0.200 A 
ATOM      7  O   UNL     1      41.823  17.032  -4.702  1.00  0.00    -0.288 OA
ATOM      8  C   UNL     1      43.017  14.718  -5.687  1.00  0.00     0.020 A 
ATOM      9  C   UNL     1      43.685  13.577  -6.123  1.00  0.00     0.047 A 
ATOM     10  C   UNL     1      44.725  13.025  -5.365  1.00  0.00     0.125 A 
ATOM     11  C   UNL     1      45.099  13.615  -4.136  1.00  0.00     0.069 A 
ENDROOT
BRANCH   1  12
ATOM     12  C   UNL     1      42.506  18.303  -2.263  1.00  0.00    -0.011 A 
ATOM     13  C   UNL     1      42.980  19.576  -2.626  1.00  0.00     0.013 A 
ATOM     14  C   UNL     1      42.380  20.729  -2.111  1.00  0.00     0.047 A 
ATOM     15  C   UNL     1      41.305  20.625  -1.223  1.00  0.00     0.115 A 
ATOM     16  C   UNL     1      41.428  18.206  -1.365  1.00  0.00     0.013 A 
ATOM     17  C   UNL     1      40.831  19.361  -0.850  1.00  0.00     0.047 A 
BRANCH  15  18
ATOM     18  O   UNL     1      40.717  21.783  -0.718  1.00  0.00    -0.508 OA
ATOM     19  H   UNL     1      40.007  22.286  -1.237  1.00  0.00     0.293 HD
ENDBRANCH  15  18
ENDBRANCH   1  12
BRANCH  11  20
ATOM     20  C   UNL     1      46.244  13.034  -3.316  1.00  0.00     0.188 C 
ATOM     21  C   UNL     1      47.600  13.512  -3.890  1.00  0.00     0.179 C 
ATOM     22  O   UNL     1      46.147  11.619  -3.325  1.00  0.00    -0.362 OA
ATOM     23  C   UNL     1      48.760  12.917  -3.075  1.00  0.00     0.177 C 
ATOM     24  C   UNL     1      47.158  10.982  -2.554  1.00  0.00     0.176 C 
ATOM     25  C   UNL     1      48.595  11.394  -2.977  1.00  0.00     0.177 C 
BRANCH  21  26
ATOM     26  O   UNL     1      47.676  14.916  -3.907  1.00  0.00    -0.387 OA
ATOM     27  H   UNL     1      46.760  15.267  -4.062  1.00  0.00     0.211 HD
ENDBRANCH  21  26
BRANCH  23  28
ATOM     28  O   UNL     1      49.983  13.205  -3.703  1.00  0.00    -0.387 OA
ATOM     29  H   UNL     1      50.587  13.573  -3.006  1.00  0.00     0.211 HD
ENDBRANCH  23  28
BRANCH  24  30
ATOM     30  C   UNL     1      46.862  11.021  -1.036  1.00  0.00     0.191 C 
BRANCH  30  31
ATOM     31  O   UNL     1      47.607  12.008  -0.380  1.00  0.00    -0.394 OA
ATOM     32  H   UNL     1      48.532  11.655  -0.307  1.00  0.00     0.210 HD
ENDBRANCH  30  31
ENDBRANCH  24  30
BRANCH  25  33
ATOM     33  O   UNL     1      49.548  10.876  -2.083  1.00  0.00    -0.388 OA
ATOM     34  H   UNL     1      49.648   9.912  -2.299  1.00  0.00     0.211 HD
ENDBRANCH  25  33
ENDBRANCH  11  20
BRANCH  10  35
ATOM     35  O   UNL     1      45.389  11.892  -5.835  1.00  0.00    -0.507 OA
ATOM     36  H   UNL     1      45.329  11.001  -5.355  1.00  0.00     0.293 HD
ENDBRANCH  10  35
TORSDOF 9
ENDMDL
MODEL 3
REMARK VINA RESULT:    -5.537      2.977      8.480
REMARK INTER + INTRA:          -7.929
REMARK INTER:                  -7.552
REMARK INTRA:                  -0.376
REMARK UNBOUND:                -0.450
REMARK SMILES O=c1c(-c2ccc(O)cc2)coc2c([C@H]3O[C@H](CO)[C@H](O)[C@@H](O)[C@@H]3O)c(O)ccc12
REMARK SMILES IDX 3 1 11 2 12 3 13 4 30 5 2 6 1 7 29 8 28 9 26 10 14 11 4 12
REMARK SMILES IDX 5 13 6 14 7 15 10 16 9 17 8 18 15 20 24 21 16 22 22 23 17 24
REMARK SMILES IDX 20 25 25 26 23 28 18 30 19 31 21 33 27 35
REMARK H PARENT 8 19 25 27 23 29 19 32 21 34 27 36
REMARK Flexibility Score: inf
ROOT
ATOM      1  C   UNL     1      48.654  14.366  -4.645  1.00  0.00     0.065 A 
ATOM      2  C   UNL     1      47.762  15.433  -4.822  1.00  0.00     0.208 A 
ATOM      3  O   UNL     1      46.481  15.311  -4.503  1.00  0.00    -0.463 OA
ATOM      4  C   UNL     1      45.958  14.194  -4.001  1.00  0.00     0.147 A 
ATOM      5  C   UNL     1      46.789  13.071  -3.780  1.00  0.00     0.066 A 
ATOM      6  C   UNL     1      48.154  13.168  -4.105  1.00  0.00     0.200 A 
ATOM      7  O   UNL     1      48.929  12.194  -3.894  1.00  0.00    -0.288 OA
ATOM      8  C   UNL     1      46.240  11.900  -3.236  1.00  0.00     0.020 A 
ATOM      9  C   UNL     1      44.888  11.845  -2.908  1.00  0.00     0.047 A 
ATOM     10  C   UNL     1      44.056  12.950  -3.121  1.00  0.00     0.125 A 
ATOM     11  C   UNL     1      44.580  14.135  -3.687  1.00  0.00     0.069 A 
ENDROOT
BRANCH   1  12
ATOM     12  C   UNL     1      50.083  14.525  -5.018  1.00  0.00    -0.011 A 
ATOM     13  C   UNL     1      50.683  15.797  -5.003  1.00  0.00     0.013 A 
ATOM     14  C   UNL     1      52.025  15.951  -5.361  1.00  0.00     0.047 A 
ATOM     15  C   UNL     1      52.783  14.840  -5.744  1.00  0.00     0.115 A 
ATOM     16  C   UNL     1      50.849  13.413  -5.409  1.00  0.00     0.013 A 
ATOM     17  C   UNL     1      52.192  13.570  -5.768  1.00  0.00     0.047 A 
BRANCH  15  18
ATOM     18  O   UNL     1      54.120  15.008  -6.098  1.00  0.00    -0.508 OA
ATOM     19  H   UNL     1      54.541  14.469  -6.845  1.00  0.00     0.293 HD
ENDBRANCH  15  18
ENDBRANCH   1  12
BRANCH  11  20
ATOM     20  C   UNL     1      43.686  15.350  -3.901  1.00  0.00     0.188 C 
ATOM     21  C   UNL     1      43.491  16.104  -2.564  1.00  0.00     0.179 C 
ATOM     22  O   UNL     1      42.446  14.922  -4.441  1.00  0.00    -0.362 OA
ATOM     23  C   UNL     1      42.578  17.324  -2.771  1.00  0.00     0.177 C 
ATOM     24  C   UNL     1      41.551  15.994  -4.710  1.00  0.00     0.176 C 
ATOM     25  C   UNL     1      41.282  16.887  -3.467  1.00  0.00     0.177 C 
BRANCH  21  26
ATOM     26  O   UNL     1      44.727  16.498  -2.019  1.00  0.00    -0.387 OA
ATOM     27  H   UNL     1      45.391  15.792  -2.236  1.00  0.00     0.211 HD
ENDBRANCH  21  26
BRANCH  23  28
ATOM     28  O   UNL     1      42.260  17.900  -1.530  1.00  0.00    -0.387 OA
ATOM     29  H   UNL     1      41.936  18.821  -1.712  1.00  0.00     0.211 HD
ENDBRANCH  23  28
BRANCH  24  30
ATOM     30  C   UNL     1      41.895  16.743  -6.019  1.00  0.00     0.191 C 
BRANCH  30  31
ATOM     31  O   UNL     1      42.409  18.022  -5.774  1.00  0.00    -0.394 OA
ATOM     32  H   UNL     1      42.139  18.581  -6.549  1.00  0.00     0.210 HD
ENDBRANCH  30  31
ENDBRANCH  24  30
BRANCH  25  33
ATOM     33  O   UNL     1      40.533  18.023  -3.819  1.00  0.00    -0.388 OA
ATOM     34  H   UNL     1      40.136  17.838  -4.710  1.00  0.00     0.211 HD
ENDBRANCH  25  33
ENDBRANCH  11  20
BRANCH  10  35
ATOM     35  O   UNL     1      42.709  12.873  -2.765  1.00  0.00    -0.507 OA
ATOM     36  H   UNL     1      42.119  12.108  -3.074  1.00  0.00     0.293 HD
ENDBRANCH  10  35
TORSDOF 9
ENDMDL
MODEL 4
REMARK VINA RESULT:    -5.533      1.978      2.665
REMARK INTER + INTRA:          -7.923
REMARK INTER:                  -7.493
REMARK INTRA:                  -0.430
REMARK UNBOUND:                -0.450
REMARK SMILES O=c1c(-c2ccc(O)cc2)coc2c([C@H]3O[C@H](CO)[C@H](O)[C@@H](O)[C@@H]3O)c(O)ccc12
REMARK SMILES IDX 3 1 11 2 12 3 13 4 30 5 2 6 1 7 29 8 28 9 26 10 14 11 4 12
REMARK SMILES IDX 5 13 6 14 7 15 10 16 9 17 8 18 15 20 24 21 16 22 22 23 17 24
REMARK SMILES IDX 20 25 25 26 23 28 18 30 19 31 21 33 27 35
REMARK H PARENT 8 19 25 27 23 29 19 32 21 34 27 36
REMARK Flexibility Score: inf
ROOT
ATOM      1  C   UNL     1      43.002  16.892  -2.833  1.00  0.00     0.065 A 
ATOM      2  C   UNL     1      44.055  16.222  -2.195  1.00  0.00     0.208 A 
ATOM      3  O   UNL     1      44.531  15.083  -2.679  1.00  0.00    -0.463 OA
ATOM      4  C   UNL     1      44.056  14.504  -3.781  1.00  0.00     0.147 A 
ATOM      5  C   UNL     1      42.999  15.118  -4.493  1.00  0.00     0.066 A 
ATOM      6  C   UNL     1      42.474  16.330  -4.008  1.00  0.00     0.200 A 
ATOM      7  O   UNL     1      41.550  16.919  -4.635  1.00  0.00    -0.288 OA
ATOM      8  C   UNL     1      42.511  14.516  -5.663  1.00  0.00     0.020 A 
ATOM      9  C   UNL     1      43.067  13.326  -6.125  1.00  0.00     0.047 A 
ATOM     10  C   UNL     1      44.114  12.710  -5.429  1.00  0.00     0.125 A 
ATOM     11  C   UNL     1      44.611  13.285  -4.237  1.00  0.00     0.069 A 
ENDROOT
BRANCH   1  12
ATOM     12  C   UNL     1      42.482  18.163  -2.267  1.00  0.00    -0.011 A 
ATOM     13  C   UNL     1      41.485  18.142  -1.275  1.00  0.00     0.013 A 
ATOM     14  C   UNL     1      40.987  19.336  -0.746  1.00  0.00     0.047 A 
ATOM     15  C   UNL     1      41.473  20.564  -1.204  1.00  0.00     0.115 A 
ATOM     16  C   UNL     1      42.961  19.402  -2.726  1.00  0.00     0.013 A 
ATOM     17  C   UNL     1      42.460  20.595  -2.196  1.00  0.00     0.047 A 
BRANCH  15  18
ATOM     18  O   UNL     1      40.967  21.747  -0.667  1.00  0.00    -0.508 OA
ATOM     19  H   UNL     1      41.233  22.652  -1.037  1.00  0.00     0.293 HD
ENDBRANCH  15  18
ENDBRANCH   1  12
BRANCH  11  20
ATOM     20  C   UNL     1      45.765  12.633  -3.486  1.00  0.00     0.188 C 
ATOM     21  C   UNL     1      45.244  11.968  -2.191  1.00  0.00     0.179 C 
ATOM     22  O   UNL     1      46.747  13.618  -3.205  1.00  0.00    -0.362 OA
ATOM     23  C   UNL     1      46.408  11.320  -1.421  1.00  0.00     0.177 C 
ATOM     24  C   UNL     1      47.887  13.098  -2.532  1.00  0.00     0.176 C 
ATOM     25  C   UNL     1      47.528  12.349  -1.218  1.00  0.00     0.177 C 
BRANCH  21  26
ATOM     26  O   UNL     1      44.249  11.015  -2.476  1.00  0.00    -0.387 OA
ATOM     27  H   UNL     1      43.494  11.169  -1.848  1.00  0.00     0.211 HD
ENDBRANCH  21  26
BRANCH  23  28
ATOM     28  O   UNL     1      45.962  10.875  -0.165  1.00  0.00    -0.387 OA
ATOM     29  H   UNL     1      45.087  10.428  -0.310  1.00  0.00     0.211 HD
ENDBRANCH  23  28
BRANCH  24  30
ATOM     30  C   UNL     1      48.857  12.363  -3.486  1.00  0.00     0.191 C 
BRANCH  30  31
ATOM     31  O   UNL     1      50.039  13.083  -3.693  1.00  0.00    -0.394 OA
ATOM     32  H   UNL     1      49.772  13.935  -4.128  1.00  0.00     0.210 HD
ENDBRANCH  30  31
ENDBRANCH  24  30
BRANCH  25  33
ATOM     33  O   UNL     1      48.659  11.710  -0.681  1.00  0.00    -0.388 OA
ATOM     34  H   UNL     1      48.370  11.287   0.170  1.00  0.00     0.211 HD
ENDBRANCH  25  33
ENDBRANCH  11  20
BRANCH  10  35
ATOM     35  O   UNL     1      44.665  11.528  -5.926  1.00  0.00    -0.507 OA
ATOM     36  H   UNL     1      45.558  11.516  -6.406  1.00  0.00     0.293 HD
ENDBRANCH  10  35
TORSDOF 9
ENDMDL
MODEL 5
REMARK VINA RESULT:    -5.523      1.817      2.890
REMARK INTER + INTRA:          -7.909
REMARK INTER:                  -7.510
REMARK INTRA:                  -0.399
REMARK UNBOUND:                -0.450
REMARK SMILES O=c1c(-c2ccc(O)cc2)coc2c([C@H]3O[C@H](CO)[C@H](O)[C@@H](O)[C@@H]3O)c(O)ccc12
REMARK SMILES IDX 3 1 11 2 12 3 13 4 30 5 2 6 1 7 29 8 28 9 26 10 14 11 4 12
REMARK SMILES IDX 5 13 6 14 7 15 10 16 9 17 8 18 15 20 24 21 16 22 22 23 17 24
REMARK SMILES IDX 20 25 25 26 23 28 18 30 19 31 21 33 27 35
REMARK H PARENT 8 19 25 27 23 29 19 32 21 34 27 36
REMARK Flexibility Score: inf
ROOT
ATOM      1  C   UNL     1      42.054  17.714  -2.532  1.00  0.00     0.065 A 
ATOM      2  C   UNL     1      43.357  17.449  -2.089  1.00  0.00     0.208 A 
ATOM      3  O   UNL     1      44.113  16.546  -2.697  1.00  0.00    -0.463 OA
ATOM      4  C   UNL     1      43.703  15.839  -3.748  1.00  0.00     0.147 A 
ATOM      5  C   UNL     1      42.404  16.050  -4.268  1.00  0.00     0.066 A 
ATOM      6  C   UNL     1      41.577  17.004  -3.648  1.00  0.00     0.200 A 
ATOM      7  O   UNL     1      40.423  17.237  -4.105  1.00  0.00    -0.288 OA
ATOM      8  C   UNL     1      41.979  15.317  -5.386  1.00  0.00     0.020 A 
ATOM      9  C   UNL     1      42.831  14.394  -5.986  1.00  0.00     0.047 A 
ATOM     10  C   UNL     1      44.119  14.178  -5.482  1.00  0.00     0.125 A 
ATOM     11  C   UNL     1      44.565  14.888  -4.343  1.00  0.00     0.069 A 
ENDROOT
BRANCH   1  12
ATOM     12  C   UNL     1      41.223  18.725  -1.830  1.00  0.00    -0.011 A 
ATOM     13  C   UNL     1      41.824  19.672  -0.981  1.00  0.00     0.013 A 
ATOM     14  C   UNL     1      41.044  20.620  -0.313  1.00  0.00     0.047 A 
ATOM     15  C   UNL     1      39.656  20.631  -0.478  1.00  0.00     0.115 A 
ATOM     16  C   UNL     1      39.826  18.739  -1.987  1.00  0.00     0.013 A 
ATOM     17  C   UNL     1      39.048  19.688  -1.316  1.00  0.00     0.047 A 
BRANCH  15  18
ATOM     18  O   UNL     1      38.891  21.582   0.195  1.00  0.00    -0.508 OA
ATOM     19  H   UNL     1      39.150  21.914   1.116  1.00  0.00     0.293 HD
ENDBRANCH  15  18
ENDBRANCH   1  12
BRANCH  11  20
ATOM     20  C   UNL     1      45.972  14.676  -3.802  1.00  0.00     0.188 C 
ATOM     21  C   UNL     1      46.969  15.599  -4.543  1.00  0.00     0.179 C 
ATOM     22  O   UNL     1      46.323  13.309  -3.949  1.00  0.00    -0.362 OA
ATOM     23  C   UNL     1      48.394  15.378  -4.010  1.00  0.00     0.177 C 
ATOM     24  C   UNL     1      47.614  13.002  -3.438  1.00  0.00     0.176 C 
ATOM     25  C   UNL     1      48.736  13.883  -4.054  1.00  0.00     0.177 C 
BRANCH  21  26
ATOM     26  O   UNL     1      46.597  16.950  -4.418  1.00  0.00    -0.387 OA
ATOM     27  H   UNL     1      46.611  17.179  -3.452  1.00  0.00     0.211 HD
ENDBRANCH  21  26
BRANCH  23  28
ATOM     28  O   UNL     1      49.316  16.082  -4.803  1.00  0.00    -0.387 OA
ATOM     29  H   UNL     1      49.664  15.443  -5.479  1.00  0.00     0.211 HD
ENDBRANCH  23  28
BRANCH  24  30
ATOM     30  C   UNL     1      47.628  12.868  -1.897  1.00  0.00     0.191 C 
BRANCH  30  31
ATOM     31  O   UNL     1      48.548  11.908  -1.461  1.00  0.00    -0.394 OA
ATOM     32  H   UNL     1      48.977  12.285  -0.649  1.00  0.00     0.210 HD
ENDBRANCH  30  31
ENDBRANCH  24  30
BRANCH  25  33
ATOM     33  O   UNL     1      49.961  13.663  -3.400  1.00  0.00    -0.388 OA
ATOM     34  H   UNL     1      50.168  12.697  -3.499  1.00  0.00     0.211 HD
ENDBRANCH  25  33
ENDBRANCH  11  20
BRANCH  10  35
ATOM     35  O   UNL     1      44.958  13.260  -6.115  1.00  0.00    -0.507 OA
ATOM     36  H   UNL     1      44.757  12.907  -7.044  1.00  0.00     0.293 HD
ENDBRANCH  10  35
TORSDOF 9
ENDMDL
MODEL 6
REMARK VINA RESULT:    -5.505      2.588      8.126
REMARK INTER + INTRA:          -7.886
REMARK INTER:                  -7.831
REMARK INTRA:                  -0.054
REMARK UNBOUND:                -0.450
REMARK SMILES O=c1c(-c2ccc(O)cc2)coc2c([C@H]3O[C@H](CO)[C@H](O)[C@@H](O)[C@@H]3O)c(O)ccc12
REMARK SMILES IDX 3 1 11 2 12 3 13 4 30 5 2 6 1 7 29 8 28 9 26 10 14 11 4 12
REMARK SMILES IDX 5 13 6 14 7 15 10 16 9 17 8 18 15 20 24 21 16 22 22 23 17 24
REMARK SMILES IDX 20 25 25 26 23 28 18 30 19 31 21 33 27 35
REMARK H PARENT 8 19 25 27 23 29 19 32 21 34 27 36
REMARK Flexibility Score: inf
ROOT
ATOM      1  C   UNL     1      47.421  15.606  -4.412  1.00  0.00     0.065 A 
ATOM      2  C   UNL     1      46.710  16.811  -4.318  1.00  0.00     0.208 A 
ATOM      3  O   UNL     1      45.416  16.819  -4.029  1.00  0.00    -0.463 OA
ATOM      4  C   UNL     1      44.712  15.710  -3.810  1.00  0.00     0.147 A 
ATOM      5  C   UNL     1      45.351  14.451  -3.875  1.00  0.00     0.066 A 
ATOM      6  C   UNL     1      46.725  14.407  -4.177  1.00  0.00     0.200 A 
ATOM      7  O   UNL     1      47.333  13.301  -4.214  1.00  0.00    -0.288 OA
ATOM      8  C   UNL     1      44.612  13.285  -3.627  1.00  0.00     0.020 A 
ATOM      9  C   UNL     1      43.258  13.365  -3.313  1.00  0.00     0.047 A 
ATOM     10  C   UNL     1      42.614  14.607  -3.244  1.00  0.00     0.125 A 
ATOM     11  C   UNL     1      43.331  15.796  -3.509  1.00  0.00     0.069 A 
ENDROOT
BRANCH   1  12
ATOM     12  C   UNL     1      48.868  15.623  -4.746  1.00  0.00    -0.011 A 
ATOM     13  C   UNL     1      49.772  14.824  -4.023  1.00  0.00     0.013 A 
ATOM     14  C   UNL     1      51.135  14.843  -4.330  1.00  0.00     0.047 A 
ATOM     15  C   UNL     1      51.614  15.665  -5.354  1.00  0.00     0.115 A 
ATOM     16  C   UNL     1      49.357  16.451  -5.771  1.00  0.00     0.013 A 
ATOM     17  C   UNL     1      50.722  16.470  -6.074  1.00  0.00     0.047 A 
BRANCH  15  18
ATOM     18  O   UNL     1      52.977  15.674  -5.648  1.00  0.00    -0.508 OA
ATOM     19  H   UNL     1      53.618  15.026  -5.205  1.00  0.00     0.293 HD
ENDBRANCH  15  18
ENDBRANCH   1  12
BRANCH  11  20
ATOM     20  C   UNL     1      42.644  17.152  -3.415  1.00  0.00     0.188 C 
ATOM     21  C   UNL     1      42.668  17.853  -4.793  1.00  0.00     0.179 C 
ATOM     22  O   UNL     1      43.295  17.931  -2.424  1.00  0.00    -0.362 OA
ATOM     23  C   UNL     1      41.988  19.229  -4.700  1.00  0.00     0.177 C 
ATOM     24  C   UNL     1      42.702  19.210  -2.236  1.00  0.00     0.176 C 
ATOM     25  C   UNL     1      42.606  20.035  -3.550  1.00  0.00     0.177 C 
BRANCH  21  26
ATOM     26  O   UNL     1      42.048  17.060  -5.776  1.00  0.00    -0.387 OA
ATOM     27  H   UNL     1      41.137  17.426  -5.930  1.00  0.00     0.211 HD
ENDBRANCH  21  26
BRANCH  23  28
ATOM     28  O   UNL     1      42.168  19.935  -5.902  1.00  0.00    -0.387 OA
ATOM     29  H   UNL     1      41.334  20.448  -6.065  1.00  0.00     0.211 HD
ENDBRANCH  23  28
BRANCH  24  30
ATOM     30  C   UNL     1      41.414  19.149  -1.381  1.00  0.00     0.191 C 
BRANCH  30  31
ATOM     31  O   UNL     1      41.632  18.528  -0.146  1.00  0.00    -0.394 OA
ATOM     32  H   UNL     1      42.390  19.010   0.276  1.00  0.00     0.210 HD
ENDBRANCH  30  31
ENDBRANCH  24  30
BRANCH  25  33
ATOM     33  O   UNL     1      41.864  21.211  -3.350  1.00  0.00    -0.388 OA
ATOM     34  H   UNL     1      41.870  21.702  -4.214  1.00  0.00     0.211 HD
ENDBRANCH  25  33
ENDBRANCH  11  20
BRANCH  10  35
ATOM     35  O   UNL     1      41.261  14.659  -2.908  1.00  0.00    -0.507 OA
ATOM     36  H   UNL     1      40.949  14.619  -1.944  1.00  0.00     0.293 HD
ENDBRANCH  10  35
TORSDOF 9
ENDMDL
MODEL 7
REMARK VINA RESULT:    -5.220      1.724      7.750
REMARK INTER + INTRA:          -7.501
REMARK INTER:                  -7.261
REMARK INTRA:                  -0.240
REMARK UNBOUND:                -0.450
REMARK SMILES O=c1c(-c2ccc(O)cc2)coc2c([C@H]3O[C@H](CO)[C@H](O)[C@@H](O)[C@@H]3O)c(O)ccc12
REMARK SMILES IDX 3 1 11 2 12 3 13 4 30 5 2 6 1 7 29 8 28 9 26 10 14 11 4 12
REMARK SMILES IDX 5 13 6 14 7 15 10 16 9 17 8 18 15 20 24 21 16 22 22 23 17 24
REMARK SMILES IDX 20 25 25 26 23 28 18 30 19 31 21 33 27 35
REMARK H PARENT 8 19 25 27 23 29 19 32 21 34 27 36
REMARK Flexibility Score: inf
ROOT
ATOM      1  C   UNL     1      45.453  15.531  -3.246  1.00  0.00     0.065 A 
ATOM      2  C   UNL     1      44.271  15.931  -2.608  1.00  0.00     0.208 A 
ATOM      3  O   UNL     1      43.623  17.022  -2.994  1.00  0.00    -0.463 OA
ATOM      4  C   UNL     1      44.036  17.801  -3.992  1.00  0.00     0.147 A 
ATOM      5  C   UNL     1      45.215  17.466  -4.698  1.00  0.00     0.066 A 
ATOM      6  C   UNL     1      45.925  16.312  -4.316  1.00  0.00     0.200 A 
ATOM      7  O   UNL     1      46.965  15.969  -4.944  1.00  0.00    -0.288 OA
ATOM      8  C   UNL     1      45.640  18.277  -5.761  1.00  0.00     0.020 A 
ATOM      9  C   UNL     1      44.903  19.401  -6.125  1.00  0.00     0.047 A 
ATOM     10  C   UNL     1      43.733  19.742  -5.434  1.00  0.00     0.125 A 
ATOM     11  C   UNL     1      43.294  18.953  -4.346  1.00  0.00     0.069 A 
ENDROOT
BRANCH   1  12
ATOM     12  C   UNL     1      46.165  14.310  -2.791  1.00  0.00    -0.011 A 
ATOM     13  C   UNL     1      46.788  14.281  -1.531  1.00  0.00     0.013 A 
ATOM     14  C   UNL     1      47.465  13.135  -1.102  1.00  0.00     0.047 A 
ATOM     15  C   UNL     1      47.535  12.010  -1.928  1.00  0.00     0.115 A 
ATOM     16  C   UNL     1      46.244  13.176  -3.618  1.00  0.00     0.013 A 
ATOM     17  C   UNL     1      46.924  12.033  -3.188  1.00  0.00     0.047 A 
BRANCH  15  18
ATOM     18  O   UNL     1      48.214  10.875  -1.487  1.00  0.00    -0.508 OA
ATOM     19  H   UNL     1      47.799   9.953  -1.549  1.00  0.00     0.293 HD
ENDBRANCH  15  18
ENDBRANCH   1  12
BRANCH  11  20
ATOM     20  C   UNL     1      42.011  19.303  -3.604  1.00  0.00     0.188 C 
ATOM     21  C   UNL     1      42.344  20.101  -2.322  1.00  0.00     0.179 C 
ATOM     22  O   UNL     1      41.310  18.107  -3.304  1.00  0.00    -0.362 OA
ATOM     23  C   UNL     1      41.053  20.446  -1.561  1.00  0.00     0.177 C 
ATOM     24  C   UNL     1      40.075  18.333  -2.637  1.00  0.00     0.176 C 
ATOM     25  C   UNL     1      40.229  19.170  -1.338  1.00  0.00     0.177 C 
BRANCH  21  26
ATOM     26  O   UNL     1      43.066  21.270  -2.625  1.00  0.00    -0.387 OA
ATOM     27  H   UNL     1      43.241  21.272  -3.603  1.00  0.00     0.211 HD
ENDBRANCH  21  26
BRANCH  23  28
ATOM     28  O   UNL     1      41.368  21.011  -0.313  1.00  0.00    -0.387 OA
ATOM     29  H   UNL     1      42.057  20.428   0.102  1.00  0.00     0.211 HD
ENDBRANCH  23  28
BRANCH  24  30
ATOM     30  C   UNL     1      38.951  18.782  -3.601  1.00  0.00     0.191 C 
BRANCH  30  31
ATOM     31  O   UNL     1      38.967  18.060  -4.801  1.00  0.00    -0.394 OA
ATOM     32  H   UNL     1      38.039  18.085  -5.151  1.00  0.00     0.210 HD
ENDBRANCH  30  31
ENDBRANCH  24  30
BRANCH  25  33
ATOM     33  O   UNL     1      38.972  19.511  -0.809  1.00  0.00    -0.388 OA
ATOM     34  H   UNL     1      39.080  19.553   0.178  1.00  0.00     0.211 HD
ENDBRANCH  25  33
ENDBRANCH  11  20
BRANCH  10  35
ATOM     35  O   UNL     1      43.005  20.863  -5.833  1.00  0.00    -0.507 OA
ATOM     36  H   UNL     1      42.188  20.784  -6.429  1.00  0.00     0.293 HD
ENDBRANCH  10  35
TORSDOF 9
ENDMDL
MODEL 8
REMARK VINA RESULT:    -5.167      2.096      8.084
REMARK INTER + INTRA:          -7.429
REMARK INTER:                  -6.801
REMARK INTRA:                  -0.627
REMARK UNBOUND:                -0.450
REMARK SMILES O=c1c(-c2ccc(O)cc2)coc2c([C@H]3O[C@H](CO)[C@H](O)[C@@H](O)[C@@H]3O)c(O)ccc12
REMARK SMILES IDX 3 1 11 2 12 3 13 4 30 5 2 6 1 7 29 8 28 9 26 10 14 11 4 12
REMARK SMILES IDX 5 13 6 14 7 15 10 16 9 17 8 18 15 20 24 21 16 22 22 23 17 24
REMARK SMILES IDX 20 25 25 26 23 28 18 30 19 31 21 33 27 35
REMARK H PARENT 8 19 25 27 23 29 19 32 21 34 27 36
REMARK Flexibility Score: inf
ROOT
ATOM      1  C   UNL     1      44.790  14.492  -3.231  1.00  0.00     0.065 A 
ATOM      2  C   UNL     1      44.492  15.670  -2.532  1.00  0.00     0.208 A 
ATOM      3  O   UNL     1      43.463  16.429  -2.884  1.00  0.00    -0.463 OA
ATOM      4  C   UNL     1      42.656  16.138  -3.902  1.00  0.00     0.147 A 
ATOM      5  C   UNL     1      42.878  14.961  -4.655  1.00  0.00     0.066 A 
ATOM      6  C   UNL     1      43.959  14.131  -4.306  1.00  0.00     0.200 A 
ATOM      7  O   UNL     1      44.168  13.059  -4.940  1.00  0.00    -0.288 OA
ATOM      8  C   UNL     1      42.017  14.646  -5.717  1.00  0.00     0.020 A 
ATOM      9  C   UNL     1      40.945  15.480  -6.023  1.00  0.00     0.047 A 
ATOM     10  C   UNL     1      40.714  16.646  -5.283  1.00  0.00     0.125 A 
ATOM     11  C   UNL     1      41.579  16.998  -4.222  1.00  0.00     0.069 A 
ENDROOT
BRANCH   1  12
ATOM     12  C   UNL     1      45.952  13.662  -2.822  1.00  0.00    -0.011 A 
ATOM     13  C   UNL     1      45.763  12.524  -2.017  1.00  0.00     0.013 A 
ATOM     14  C   UNL     1      46.856  11.746  -1.625  1.00  0.00     0.047 A 
ATOM     15  C   UNL     1      48.149  12.095  -2.025  1.00  0.00     0.115 A 
ATOM     16  C   UNL     1      47.256  14.011  -3.216  1.00  0.00     0.013 A 
ATOM     17  C   UNL     1      48.347  13.231  -2.821  1.00  0.00     0.047 A 
BRANCH  15  18
ATOM     18  O   UNL     1      49.228  11.310  -1.626  1.00  0.00    -0.508 OA
ATOM     19  H   UNL     1      49.256  10.314  -1.813  1.00  0.00     0.293 HD
ENDBRANCH  15  18
ENDBRANCH   1  12
BRANCH  11  20
ATOM     20  C   UNL     1      41.322  18.253  -3.397  1.00  0.00     0.188 C 
ATOM     21  C   UNL     1      42.536  19.207  -3.495  1.00  0.00     0.179 C 
ATOM     22  O   UNL     1      41.064  17.877  -2.053  1.00  0.00    -0.362 OA
ATOM     23  C   UNL     1      42.288  20.469  -2.653  1.00  0.00     0.177 C 
ATOM     24  C   UNL     1      40.777  18.983  -1.207  1.00  0.00     0.176 C 
ATOM     25  C   UNL     1      41.889  20.068  -1.226  1.00  0.00     0.177 C 
BRANCH  21  26
ATOM     26  O   UNL     1      42.804  19.550  -4.833  1.00  0.00    -0.387 OA
ATOM     27  H   UNL     1      43.650  19.101  -5.096  1.00  0.00     0.211 HD
ENDBRANCH  21  26
BRANCH  23  28
ATOM     28  O   UNL     1      43.457  21.247  -2.600  1.00  0.00    -0.387 OA
ATOM     29  H   UNL     1      44.074  20.889  -3.290  1.00  0.00     0.211 HD
ENDBRANCH  23  28
BRANCH  24  30
ATOM     30  C   UNL     1      39.327  19.498  -1.371  1.00  0.00     0.191 C 
BRANCH  30  31
ATOM     31  O   UNL     1      38.876  20.171  -0.230  1.00  0.00    -0.394 OA
ATOM     32  H   UNL     1      38.009  20.587  -0.479  1.00  0.00     0.210 HD
ENDBRANCH  30  31
ENDBRANCH  24  30
BRANCH  25  33
ATOM     33  O   UNL     1      41.487  21.211  -0.514  1.00  0.00    -0.388 OA
ATOM     34  H   UNL     1      42.307  21.744  -0.343  1.00  0.00     0.211 HD
ENDBRANCH  25  33
ENDBRANCH  11  20
BRANCH  10  35
ATOM     35  O   UNL     1      39.621  17.454  -5.600  1.00  0.00    -0.507 OA
ATOM     36  H   UNL     1      39.270  17.528  -6.549  1.00  0.00     0.293 HD
ENDBRANCH  10  35
TORSDOF 9
ENDMDL
