MODEL 1
REMARK VINA RESULT:    -4.220      0.000      0.000
REMARK INTER + INTRA:          -6.649
REMARK INTER:                  -6.193
REMARK INTRA:                  -0.455
REMARK UNBOUND:                -0.455
REMARK SMILES O=C([O-])CCCCCCCC(=O)[O-]
REMARK SMILES IDX 7 1 6 2 5 3 4 4 2 5 1 6 3 7 8 8 9 9 10 10 11 11 12 12 13 13
REMARK H PARENT
REMARK Flexibility Score: inf
ROOT
ATOM      1  C   UNL     1      23.217   4.673  15.125  1.00  0.00     0.000 C 
ENDROOT
BRANCH   1   2
ATOM      2  C   UNL     1      24.302   3.638  14.805  1.00  0.00     0.000 C 
BRANCH   2   3
ATOM      3  C   UNL     1      24.808   3.798  13.363  1.00  0.00     0.006 C 
BRANCH   3   4
ATOM      4  C   UNL     1      26.337   3.709  13.271  1.00  0.00     0.053 C 
BRANCH   4   5
ATOM      5  C   UNL     1      26.793   2.317  12.956  1.00  0.00     0.041 C 
ATOM      6  O   UNL     1      26.147   1.606  12.142  1.00  0.00    -0.550 OA
ATOM      7  O   UNL     1      27.915   1.795  13.586  1.00  0.00    -0.550 OA
ENDBRANCH   4   5
ENDBRANCH   3   4
ENDBRANCH   2   3
ENDBRANCH   1   2
BRANCH   1   8
ATOM      8  C   UNL     1      23.152   5.756  14.040  1.00  0.00     0.000 C 
BRANCH   8   9
ATOM      9  C   UNL     1      23.641   7.107  14.582  1.00  0.00     0.006 C 
BRANCH   9  10
ATOM     10  C   UNL     1      23.624   7.158  16.116  1.00  0.00     0.053 C 
BRANCH  10  11
ATOM     11  C   UNL     1      22.930   8.385  16.624  1.00  0.00     0.041 C 
ATOM     12  O   UNL     1      22.387   8.381  17.760  1.00  0.00    -0.550 OA
ATOM     13  O   UNL     1      22.854   9.521  15.829  1.00  0.00    -0.550 OA
ENDBRANCH  10  11
ENDBRANCH   9  10
ENDBRANCH   8   9
ENDBRANCH   1   8
TORSDOF 8
ENDMDL
MODEL 2
REMARK VINA RESULT:    -4.209      2.408      5.807
REMARK INTER + INTRA:          -6.633
REMARK INTER:                  -6.022
REMARK INTRA:                  -0.610
REMARK UNBOUND:                -0.455
REMARK SMILES O=C([O-])CCCCCCCC(=O)[O-]
REMARK SMILES IDX 7 1 6 2 5 3 4 4 2 5 1 6 3 7 8 8 9 9 10 10 11 11 12 12 13 13
REMARK H PARENT
REMARK Flexibility Score: inf
ROOT
ATOM      1  C   UNL     1      23.503   5.257  15.373  1.00  0.00     0.000 C 
ENDROOT
BRANCH   1   2
ATOM      2  C   UNL     1      23.245   6.078  14.104  1.00  0.00     0.000 C 
BRANCH   2   3
ATOM      3  C   UNL     1      23.587   7.559  14.328  1.00  0.00     0.006 C 
BRANCH   3   4
ATOM      4  C   UNL     1      24.951   7.745  15.004  1.00  0.00     0.053 C 
BRANCH   4   5
ATOM      5  C   UNL     1      26.076   7.638  14.020  1.00  0.00     0.041 C 
ATOM      6  O   UNL     1      26.277   8.557  13.183  1.00  0.00    -0.550 OA
ATOM      7  O   UNL     1      26.884   6.508  14.009  1.00  0.00    -0.550 OA
ENDBRANCH   4   5
ENDBRANCH   3   4
ENDBRANCH   2   3
ENDBRANCH   1   2
BRANCH   1   8
ATOM      8  C   UNL     1      23.982   3.842  15.026  1.00  0.00     0.000 C 
BRANCH   8   9
ATOM      9  C   UNL     1      24.624   3.806  13.631  1.00  0.00     0.006 C 
BRANCH   9  10
ATOM     10  C   UNL     1      25.914   2.975  13.607  1.00  0.00     0.053 C 
BRANCH  10  11
ATOM     11  C   UNL     1      26.276   2.551  12.216  1.00  0.00     0.041 C 
ATOM     12  O   UNL     1      27.174   3.164  11.581  1.00  0.00    -0.550 OA
ATOM     13  O   UNL     1      25.599   1.500  11.610  1.00  0.00    -0.550 OA
ENDBRANCH  10  11
ENDBRANCH   9  10
ENDBRANCH   8   9
ENDBRANCH   1   8
TORSDOF 8
ENDMDL
MODEL 3
REMARK VINA RESULT:    -4.205      8.891     11.960
REMARK INTER + INTRA:          -6.627
REMARK INTER:                  -6.051
REMARK INTRA:                  -0.576
REMARK UNBOUND:                -0.455
REMARK SMILES O=C([O-])CCCCCCCC(=O)[O-]
REMARK SMILES IDX 7 1 6 2 5 3 4 4 2 5 1 6 3 7 8 8 9 9 10 10 11 11 12 12 13 13
REMARK H PARENT
REMARK Flexibility Score: inf
ROOT
ATOM      1  C   UNL     1      15.956  10.294  10.095  1.00  0.00     0.000 C 
ENDROOT
BRANCH   1   2
ATOM      2  C   UNL     1      15.165  11.227   9.172  1.00  0.00     0.000 C 
BRANCH   2   3
ATOM      3  C   UNL     1      14.980  12.610   9.815  1.00  0.00     0.006 C 
BRANCH   3   4
ATOM      4  C   UNL     1      16.251  13.097  10.523  1.00  0.00     0.053 C 
BRANCH   4   5
ATOM      5  C   UNL     1      16.004  14.348  11.309  1.00  0.00     0.041 C 
ATOM      6  O   UNL     1      16.622  14.553  12.387  1.00  0.00    -0.550 OA
ATOM      7  O   UNL     1      15.069  15.274  10.864  1.00  0.00    -0.550 OA
ENDBRANCH   4   5
ENDBRANCH   3   4
ENDBRANCH   2   3
ENDBRANCH   1   2
BRANCH   1   8
ATOM      8  C   UNL     1      17.105   9.615   9.339  1.00  0.00     0.000 C 
BRANCH   8   9
ATOM      9  C   UNL     1      18.462  10.195   9.763  1.00  0.00     0.006 C 
BRANCH   9  10
ATOM     10  C   UNL     1      18.631  10.223  11.288  1.00  0.00     0.053 C 
BRANCH  10  11
ATOM     11  C   UNL     1      19.510  11.352  11.731  1.00  0.00     0.041 C 
ATOM     12  O   UNL     1      20.179  11.255  12.793  1.00  0.00    -0.550 OA
ATOM     13  O   UNL     1      19.565  12.524  10.988  1.00  0.00    -0.550 OA
ENDBRANCH  10  11
ENDBRANCH   9  10
ENDBRANCH   8   9
ENDBRANCH   1   8
TORSDOF 8
ENDMDL
MODEL 4
REMARK VINA RESULT:    -4.134      1.201      6.658
REMARK INTER + INTRA:          -6.523
REMARK INTER:                  -6.127
REMARK INTRA:                  -0.396
REMARK UNBOUND:                -0.455
REMARK SMILES O=C([O-])CCCCCCCC(=O)[O-]
REMARK SMILES IDX 7 1 6 2 5 3 4 4 2 5 1 6 3 7 8 8 9 9 10 10 11 11 12 12 13 13
REMARK H PARENT
REMARK Flexibility Score: inf
ROOT
ATOM      1  C   UNL     1      23.165   5.694  13.937  1.00  0.00     0.000 C 
ENDROOT
BRANCH   1   2
ATOM      2  C   UNL     1      23.089   7.163  14.367  1.00  0.00     0.000 C 
BRANCH   2   3
ATOM      3  C   UNL     1      23.883   7.399  15.662  1.00  0.00     0.006 C 
BRANCH   3   4
ATOM      4  C   UNL     1      23.052   8.125  16.728  1.00  0.00     0.053 C 
BRANCH   4   5
ATOM      5  C   UNL     1      23.902   8.593  17.869  1.00  0.00     0.041 C 
ATOM      6  O   UNL     1      25.158   8.568  17.778  1.00  0.00    -0.550 OA
ATOM      7  O   UNL     1      23.306   9.028  19.046  1.00  0.00    -0.550 OA
ENDBRANCH   4   5
ENDBRANCH   3   4
ENDBRANCH   2   3
ENDBRANCH   1   2
BRANCH   1   8
ATOM      8  C   UNL     1      23.384   4.776  15.146  1.00  0.00     0.000 C 
BRANCH   8   9
ATOM      9  C   UNL     1      24.228   3.552  14.761  1.00  0.00     0.006 C 
BRANCH   9  10
ATOM     10  C   UNL     1      25.097   3.812  13.523  1.00  0.00     0.053 C 
BRANCH  10  11
ATOM     11  C   UNL     1      25.882   2.598  13.130  1.00  0.00     0.041 C 
ATOM     12  O   UNL     1      26.579   1.990  13.984  1.00  0.00    -0.550 OA
ATOM     13  O   UNL     1      25.872   2.159  11.812  1.00  0.00    -0.550 OA
ENDBRANCH  10  11
ENDBRANCH   9  10
ENDBRANCH   8   9
ENDBRANCH   1   8
TORSDOF 8
ENDMDL
MODEL 5
REMARK VINA RESULT:    -4.066     10.111     11.252
REMARK INTER + INTRA:          -6.422
REMARK INTER:                  -5.936
REMARK INTRA:                  -0.486
REMARK UNBOUND:                -0.455
REMARK SMILES O=C([O-])CCCCCCCC(=O)[O-]
REMARK SMILES IDX 7 1 6 2 5 3 4 4 2 5 1 6 3 7 8 8 9 9 10 10 11 11 12 12 13 13
REMARK H PARENT
REMARK Flexibility Score: inf
ROOT
ATOM      1  C   UNL     1      19.077  10.849  11.594  1.00  0.00     0.000 C 
ENDROOT
BRANCH   1   2
ATOM      2  C   UNL     1      18.684  10.385  10.187  1.00  0.00     0.000 C 
BRANCH   2   3
ATOM      3  C   UNL     1      17.248   9.838  10.167  1.00  0.00     0.006 C 
BRANCH   3   4
ATOM      4  C   UNL     1      16.908   9.147   8.841  1.00  0.00     0.053 C 
BRANCH   4   5
ATOM      5  C   UNL     1      15.454   9.279   8.504  1.00  0.00     0.041 C 
ATOM      6  O   UNL     1      14.977  10.397   8.177  1.00  0.00    -0.550 OA
ATOM      7  O   UNL     1      14.621   8.171   8.580  1.00  0.00    -0.550 OA
ENDBRANCH   4   5
ENDBRANCH   3   4
ENDBRANCH   2   3
ENDBRANCH   1   2
BRANCH   1   8
ATOM      8  C   UNL     1      19.563  12.304  11.578  1.00  0.00     0.000 C 
BRANCH   8   9
ATOM      9  C   UNL     1      18.591  13.201  10.798  1.00  0.00     0.006 C 
BRANCH   9  10
ATOM     10  C   UNL     1      17.497  13.792  11.698  1.00  0.00     0.053 C 
BRANCH  10  11
ATOM     11  C   UNL     1      16.222  14.023  10.946  1.00  0.00     0.041 C 
ATOM     12  O   UNL     1      15.585  15.099  11.094  1.00  0.00    -0.550 OA
ATOM     13  O   UNL     1      15.719  13.036  10.108  1.00  0.00    -0.550 OA
ENDBRANCH  10  11
ENDBRANCH   9  10
ENDBRANCH   8   9
ENDBRANCH   1   8
TORSDOF 8
ENDMDL
MODEL 6
REMARK VINA RESULT:    -3.986      1.323      1.746
REMARK INTER + INTRA:          -6.306
REMARK INTER:                  -5.846
REMARK INTRA:                  -0.460
REMARK UNBOUND:                -0.455
REMARK SMILES O=C([O-])CCCCCCCC(=O)[O-]
REMARK SMILES IDX 7 1 6 2 5 3 4 4 2 5 1 6 3 7 8 8 9 9 10 10 11 11 12 12 13 13
REMARK H PARENT
REMARK Flexibility Score: inf
ROOT
ATOM      1  C   UNL     1      23.771   4.601  15.121  1.00  0.00     0.000 C 
ENDROOT
BRANCH   1   2
ATOM      2  C   UNL     1      24.357   3.235  14.746  1.00  0.00     0.000 C 
BRANCH   2   3
ATOM      3  C   UNL     1      25.152   3.318  13.434  1.00  0.00     0.006 C 
BRANCH   3   4
ATOM      4  C   UNL     1      26.365   2.379  13.429  1.00  0.00     0.053 C 
BRANCH   4   5
ATOM      5  C   UNL     1      27.615   3.089  13.009  1.00  0.00     0.041 C 
ATOM      6  O   UNL     1      27.740   4.327  13.208  1.00  0.00    -0.550 OA
ATOM      7  O   UNL     1      28.630   2.389  12.369  1.00  0.00    -0.550 OA
ENDBRANCH   4   5
ENDBRANCH   3   4
ENDBRANCH   2   3
ENDBRANCH   1   2
BRANCH   1   8
ATOM      8  C   UNL     1      24.137   5.663  14.076  1.00  0.00     0.000 C 
BRANCH   8   9
ATOM      9  C   UNL     1      22.965   6.626  13.837  1.00  0.00     0.006 C 
BRANCH   9  10
ATOM     10  C   UNL     1      23.332   8.080  14.162  1.00  0.00     0.053 C 
BRANCH  10  11
ATOM     11  C   UNL     1      23.763   8.240  15.587  1.00  0.00     0.041 C 
ATOM     12  O   UNL     1      24.892   8.728  15.857  1.00  0.00    -0.550 OA
ATOM     13  O   UNL     1      22.932   7.819  16.618  1.00  0.00    -0.550 OA
ENDBRANCH  10  11
ENDBRANCH   9  10
ENDBRANCH   8   9
ENDBRANCH   1   8
TORSDOF 8
ENDMDL
MODEL 7
REMARK VINA RESULT:    -3.978      2.295      2.991
REMARK INTER + INTRA:          -6.293
REMARK INTER:                  -5.732
REMARK INTRA:                  -0.561
REMARK UNBOUND:                -0.455
REMARK SMILES O=C([O-])CCCCCCCC(=O)[O-]
REMARK SMILES IDX 7 1 6 2 5 3 4 4 2 5 1 6 3 7 8 8 9 9 10 10 11 11 12 12 13 13
REMARK H PARENT
REMARK Flexibility Score: inf
ROOT
ATOM      1  C   UNL     1      23.154   5.562  14.027  1.00  0.00     0.000 C 
ENDROOT
BRANCH   1   2
ATOM      2  C   UNL     1      23.773   4.744  15.166  1.00  0.00     0.000 C 
BRANCH   2   3
ATOM      3  C   UNL     1      24.350   3.420  14.643  1.00  0.00     0.006 C 
BRANCH   3   4
ATOM      4  C   UNL     1      25.133   3.604  13.337  1.00  0.00     0.053 C 
BRANCH   4   5
ATOM      5  C   UNL     1      25.988   2.412  13.030  1.00  0.00     0.041 C 
ATOM      6  O   UNL     1      26.908   2.070  13.819  1.00  0.00    -0.550 OA
ATOM      7  O   UNL     1      25.787   1.698  11.856  1.00  0.00    -0.550 OA
ENDBRANCH   4   5
ENDBRANCH   3   4
ENDBRANCH   2   3
ENDBRANCH   1   2
BRANCH   1   8
ATOM      8  C   UNL     1      23.690   6.999  14.026  1.00  0.00     0.000 C 
BRANCH   8   9
ATOM      9  C   UNL     1      24.921   7.128  14.935  1.00  0.00     0.006 C 
BRANCH   9  10
ATOM     10  C   UNL     1      26.226   7.231  14.134  1.00  0.00     0.053 C 
BRANCH  10  11
ATOM     11  C   UNL     1      26.606   8.655  13.870  1.00  0.00     0.041 C 
ATOM     12  O   UNL     1      26.409   9.164  12.736  1.00  0.00    -0.550 OA
ATOM     13  O   UNL     1      27.210   9.411  14.867  1.00  0.00    -0.550 OA
ENDBRANCH  10  11
ENDBRANCH   9  10
ENDBRANCH   8   9
ENDBRANCH   1   8
TORSDOF 8
ENDMDL
MODEL 8
REMARK VINA RESULT:    -3.967      9.401     11.651
REMARK INTER + INTRA:          -6.277
REMARK INTER:                  -5.738
REMARK INTRA:                  -0.539
REMARK UNBOUND:                -0.455
REMARK SMILES O=C([O-])CCCCCCCC(=O)[O-]
REMARK SMILES IDX 7 1 6 2 5 3 4 4 2 5 1 6 3 7 8 8 9 9 10 10 11 11 12 12 13 13
REMARK H PARENT
REMARK Flexibility Score: inf
ROOT
ATOM      1  C   UNL     1      17.136   9.571   9.224  1.00  0.00     0.000 C 
ENDROOT
BRANCH   1   2
ATOM      2  C   UNL     1      18.492  10.191   9.578  1.00  0.00     0.000 C 
BRANCH   2   3
ATOM      3  C   UNL     1      18.419  10.952  10.911  1.00  0.00     0.006 C 
BRANCH   3   4
ATOM      4  C   UNL     1      18.934  12.392  10.786  1.00  0.00     0.053 C 
BRANCH   4   5
ATOM      5  C   UNL     1      19.953  12.709  11.838  1.00  0.00     0.041 C 
ATOM      6  O   UNL     1      20.377  11.805  12.604  1.00  0.00    -0.550 OA
ATOM      7  O   UNL     1      20.410  14.012  11.990  1.00  0.00    -0.550 OA
ENDBRANCH   4   5
ENDBRANCH   3   4
ENDBRANCH   2   3
ENDBRANCH   1   2
BRANCH   1   8
ATOM      8  C   UNL     1      16.023  10.135  10.116  1.00  0.00     0.000 C 
BRANCH   8   9
ATOM      9  C   UNL     1      15.112  11.084   9.325  1.00  0.00     0.006 C 
BRANCH   9  10
ATOM     10  C   UNL     1      15.139  12.515   9.881  1.00  0.00     0.053 C 
BRANCH  10  11
ATOM     11  C   UNL     1      13.899  13.275   9.524  1.00  0.00     0.041 C 
ATOM     12  O   UNL     1      13.722  14.441   9.964  1.00  0.00    -0.550 OA
ATOM     13  O   UNL     1      12.923  12.683   8.733  1.00  0.00    -0.550 OA
ENDBRANCH  10  11
ENDBRANCH   9  10
ENDBRANCH   8   9
ENDBRANCH   1   8
TORSDOF 8
ENDMDL
MODEL 9
REMARK VINA RESULT:    -3.899      2.777      4.241
REMARK INTER + INTRA:          -6.177
REMARK INTER:                  -5.835
REMARK INTRA:                  -0.343
REMARK UNBOUND:                -0.455
REMARK SMILES O=C([O-])CCCCCCCC(=O)[O-]
REMARK SMILES IDX 7 1 6 2 5 3 4 4 2 5 1 6 3 7 8 8 9 9 10 10 11 11 12 12 13 13
REMARK H PARENT
REMARK Flexibility Score: inf
ROOT
ATOM      1  C   UNL     1      23.223   8.582  16.505  1.00  0.00     0.000 C 
ENDROOT
BRANCH   1   2
ATOM      2  C   UNL     1      23.444   7.163  15.970  1.00  0.00     0.000 C 
BRANCH   2   3
ATOM      3  C   UNL     1      23.347   7.130  14.437  1.00  0.00     0.006 C 
BRANCH   3   4
ATOM      4  C   UNL     1      23.154   5.707  13.898  1.00  0.00     0.053 C 
BRANCH   4   5
ATOM      5  C   UNL     1      24.229   4.781  14.380  1.00  0.00     0.041 C 
ATOM      6  O   UNL     1      25.434   4.998  14.085  1.00  0.00    -0.550 OA
ATOM      7  O   UNL     1      23.895   3.660  15.129  1.00  0.00    -0.550 OA
ENDBRANCH   4   5
ENDBRANCH   3   4
ENDBRANCH   2   3
ENDBRANCH   1   2
BRANCH   1   8
ATOM      8  C   UNL     1      22.759   8.555  17.967  1.00  0.00     0.000 C 
BRANCH   8   9
ATOM      9  C   UNL     1      21.332   9.105  18.101  1.00  0.00     0.006 C 
BRANCH   9  10
ATOM     10  C   UNL     1      21.047  10.232  17.099  1.00  0.00     0.053 C 
BRANCH  10  11
ATOM     11  C   UNL     1      20.536  11.465  17.778  1.00  0.00     0.041 C 
ATOM     12  O   UNL     1      19.899  12.332  17.123  1.00  0.00    -0.550 OA
ATOM     13  O   UNL     1      20.792  11.674  19.127  1.00  0.00    -0.550 OA
ENDBRANCH  10  11
ENDBRANCH   9  10
ENDBRANCH   8   9
ENDBRANCH   1   8
TORSDOF 8
ENDMDL
