MODEL 1
REMARK VINA RESULT:    -5.930      0.000      0.000
REMARK INTER + INTRA:         -11.905
REMARK INTER:                 -11.131
REMARK INTRA:                  -0.774
REMARK UNBOUND:                -0.774
REMARK SMILES O=C([O-])CCCCCCCCCCCCCCC(=O)[O-]
REMARK SMILES IDX 10 1 9 2 8 3 7 4 6 5 5 6 4 7 2 8 1 9 3 10 11 11 12 12 13 13
REMARK SMILES IDX 14 14 15 15 16 16 17 17 18 18 19 19 20 20
REMARK H PARENT
REMARK Flexibility Score: inf
ROOT
ATOM      1  C   UNL     1      86.643 326.634 194.525  1.00  0.00     0.000 C 
ENDROOT
BRANCH   1   2
ATOM      2  C   UNL     1      86.583 326.511 196.052  1.00  0.00     0.000 C 
BRANCH   2   3
ATOM      3  C   UNL     1      87.794 325.740 196.591  1.00  0.00     0.000 C 
BRANCH   3   4
ATOM      4  C   UNL     1      88.555 326.571 197.635  1.00  0.00     0.000 C 
BRANCH   4   5
ATOM      5  C   UNL     1      88.916 325.766 198.896  1.00  0.00     0.000 C 
BRANCH   5   6
ATOM      6  C   UNL     1      89.438 326.605 200.080  1.00  0.00     0.006 C 
BRANCH   6   7
ATOM      7  C   UNL     1      90.256 325.812 201.112  1.00  0.00     0.053 C 
BRANCH   7   8
ATOM      8  C   UNL     1      90.545 326.619 202.340  1.00  0.00     0.041 C 
ATOM      9  O   UNL     1      89.682 326.716 203.253  1.00  0.00    -0.550 OA
ATOM     10  O   UNL     1      91.755 327.291 202.464  1.00  0.00    -0.550 OA
ENDBRANCH   7   8
ENDBRANCH   6   7
ENDBRANCH   5   6
ENDBRANCH   4   5
ENDBRANCH   3   4
ENDBRANCH   2   3
ENDBRANCH   1   2
BRANCH   1  11
ATOM     11  C   UNL     1      88.063 326.370 194.008  1.00  0.00     0.000 C 
BRANCH  11  12
ATOM     12  C   UNL     1      88.061 325.281 192.930  1.00  0.00     0.000 C 
BRANCH  12  13
ATOM     13  C   UNL     1      86.703 324.571 192.867  1.00  0.00     0.000 C 
BRANCH  13  14
ATOM     14  C   UNL     1      86.627 323.632 191.658  1.00  0.00     0.000 C 
BRANCH  14  15
ATOM     15  C   UNL     1      88.031 323.239 191.176  1.00  0.00     0.000 C 
BRANCH  15  16
ATOM     16  C   UNL     1      88.077 322.935 189.670  1.00  0.00     0.006 C 
BRANCH  16  17
ATOM     17  C   UNL     1      89.235 323.647 188.959  1.00  0.00     0.053 C 
BRANCH  17  18
ATOM     18  C   UNL     1      90.212 322.649 188.423  1.00  0.00     0.041 C 
ATOM     19  O   UNL     1      89.809 321.536 187.993  1.00  0.00    -0.550 OA
ATOM     20  O   UNL     1      91.573 322.927 188.443  1.00  0.00    -0.550 OA
ENDBRANCH  17  18
ENDBRANCH  16  17
ENDBRANCH  15  16
ENDBRANCH  14  15
ENDBRANCH  13  14
ENDBRANCH  12  13
ENDBRANCH  11  12
ENDBRANCH   1  11
TORSDOF 15
ENDMDL
MODEL 2
REMARK VINA RESULT:    -5.823     18.361     21.889
REMARK INTER + INTRA:         -11.704
REMARK INTER:                 -10.883
REMARK INTRA:                  -0.821
REMARK UNBOUND:                -0.774
REMARK SMILES O=C([O-])CCCCCCCCCCCCCCC(=O)[O-]
REMARK SMILES IDX 10 1 9 2 8 3 7 4 6 5 5 6 4 7 2 8 1 9 3 10 11 11 12 12 13 13
REMARK SMILES IDX 14 14 15 15 16 16 17 17 18 18 19 19 20 20
REMARK H PARENT
REMARK Flexibility Score: inf
ROOT
ATOM      1  C   UNL     1     104.311 311.514 193.124  1.00  0.00     0.000 C 
ENDROOT
BRANCH   1   2
ATOM      2  C   UNL     1     104.055 312.666 192.145  1.00  0.00     0.000 C 
BRANCH   2   3
ATOM      3  C   UNL     1     105.309 313.532 191.975  1.00  0.00     0.000 C 
BRANCH   3   4
ATOM      4  C   UNL     1     105.219 314.386 190.701  1.00  0.00     0.000 C 
BRANCH   4   5
ATOM      5  C   UNL     1     103.896 314.187 189.938  1.00  0.00     0.000 C 
BRANCH   5   6
ATOM      6  C   UNL     1     103.173 315.488 189.534  1.00  0.00     0.006 C 
BRANCH   6   7
ATOM      7  C   UNL     1     103.236 315.812 188.033  1.00  0.00     0.053 C 
BRANCH   7   8
ATOM      8  C   UNL     1     104.436 316.639 187.686  1.00  0.00     0.041 C 
ATOM      9  O   UNL     1     104.491 317.850 188.026  1.00  0.00    -0.550 OA
ATOM     10  O   UNL     1     105.480 316.081 186.959  1.00  0.00    -0.550 OA
ENDBRANCH   7   8
ENDBRANCH   6   7
ENDBRANCH   5   6
ENDBRANCH   4   5
ENDBRANCH   3   4
ENDBRANCH   2   3
ENDBRANCH   1   2
BRANCH   1  11
ATOM     11  C   UNL     1     105.743 311.563 193.670  1.00  0.00     0.000 C 
BRANCH  11  12
ATOM     12  C   UNL     1     105.748 311.555 195.203  1.00  0.00     0.000 C 
BRANCH  12  13
ATOM     13  C   UNL     1     104.514 312.275 195.761  1.00  0.00     0.000 C 
BRANCH  13  14
ATOM     14  C   UNL     1     103.912 311.505 196.942  1.00  0.00     0.000 C 
BRANCH  14  15
ATOM     15  C   UNL     1     103.800 312.403 198.183  1.00  0.00     0.000 C 
BRANCH  15  16
ATOM     16  C   UNL     1     103.652 311.598 199.485  1.00  0.00     0.006 C 
BRANCH  16  17
ATOM     17  C   UNL     1     102.375 311.952 200.257  1.00  0.00     0.053 C 
BRANCH  17  18
ATOM     18  C   UNL     1     102.380 311.301 201.603  1.00  0.00     0.041 C 
ATOM     19  O   UNL     1     103.462 311.157 202.233  1.00  0.00    -0.550 OA
ATOM     20  O   UNL     1     101.199 310.808 202.143  1.00  0.00    -0.550 OA
ENDBRANCH  17  18
ENDBRANCH  16  17
ENDBRANCH  15  16
ENDBRANCH  14  15
ENDBRANCH  13  14
ENDBRANCH  12  13
ENDBRANCH  11  12
ENDBRANCH   1  11
TORSDOF 15
ENDMDL
MODEL 3
REMARK VINA RESULT:    -5.822     19.079     22.301
REMARK INTER + INTRA:         -11.701
REMARK INTER:                 -10.751
REMARK INTRA:                  -0.950
REMARK UNBOUND:                -0.774
REMARK SMILES O=C([O-])CCCCCCCCCCCCCCC(=O)[O-]
REMARK SMILES IDX 10 1 9 2 8 3 7 4 6 5 5 6 4 7 2 8 1 9 3 10 11 11 12 12 13 13
REMARK SMILES IDX 14 14 15 15 16 16 17 17 18 18 19 19 20 20
REMARK H PARENT
REMARK Flexibility Score: inf
ROOT
ATOM      1  C   UNL     1     103.568 311.509 194.501  1.00  0.00     0.000 C 
ENDROOT
BRANCH   1   2
ATOM      2  C   UNL     1     104.418 311.246 193.253  1.00  0.00     0.000 C 
BRANCH   2   3
ATOM      3  C   UNL     1     105.817 311.857 193.400  1.00  0.00     0.000 C 
BRANCH   3   4
ATOM      4  C   UNL     1     106.058 312.941 192.339  1.00  0.00     0.000 C 
BRANCH   4   5
ATOM      5  C   UNL     1     105.356 314.271 192.669  1.00  0.00     0.000 C 
BRANCH   5   6
ATOM      6  C   UNL     1     104.013 314.498 191.945  1.00  0.00     0.006 C 
BRANCH   6   7
ATOM      7  C   UNL     1     103.876 313.754 190.608  1.00  0.00     0.053 C 
BRANCH   7   8
ATOM      8  C   UNL     1     103.876 314.693 189.440  1.00  0.00     0.041 C 
ATOM      9  O   UNL     1     102.942 314.654 188.596  1.00  0.00    -0.550 OA
ATOM     10  O   UNL     1     104.923 315.588 189.266  1.00  0.00    -0.550 OA
ENDBRANCH   7   8
ENDBRANCH   6   7
ENDBRANCH   5   6
ENDBRANCH   4   5
ENDBRANCH   3   4
ENDBRANCH   2   3
ENDBRANCH   1   2
BRANCH   1  11
ATOM     11  C   UNL     1     104.430 312.050 195.649  1.00  0.00     0.000 C 
BRANCH  11  12
ATOM     12  C   UNL     1     103.894 311.583 197.007  1.00  0.00     0.000 C 
BRANCH  12  13
ATOM     13  C   UNL     1     103.745 312.762 197.976  1.00  0.00     0.000 C 
BRANCH  13  14
ATOM     14  C   UNL     1     104.057 312.337 199.415  1.00  0.00     0.000 C 
BRANCH  14  15
ATOM     15  C   UNL     1     102.952 311.427 199.971  1.00  0.00     0.000 C 
BRANCH  15  16
ATOM     16  C   UNL     1     102.748 311.600 201.485  1.00  0.00     0.006 C 
BRANCH  16  17
ATOM     17  C   UNL     1     104.053 311.456 202.278  1.00  0.00     0.053 C 
BRANCH  17  18
ATOM     18  C   UNL     1     103.764 311.061 203.692  1.00  0.00     0.041 C 
ATOM     19  O   UNL     1     102.719 310.414 203.968  1.00  0.00    -0.550 OA
ATOM     20  O   UNL     1     104.623 311.450 204.712  1.00  0.00    -0.550 OA
ENDBRANCH  17  18
ENDBRANCH  16  17
ENDBRANCH  15  16
ENDBRANCH  14  15
ENDBRANCH  13  14
ENDBRANCH  12  13
ENDBRANCH  11  12
ENDBRANCH   1  11
TORSDOF 15
ENDMDL
MODEL 4
REMARK VINA RESULT:    -5.818      1.583     10.808
REMARK INTER + INTRA:         -11.694
REMARK INTER:                 -10.973
REMARK INTRA:                  -0.721
REMARK UNBOUND:                -0.774
REMARK SMILES O=C([O-])CCCCCCCCCCCCCCC(=O)[O-]
REMARK SMILES IDX 10 1 9 2 8 3 7 4 6 5 5 6 4 7 2 8 1 9 3 10 11 11 12 12 13 13
REMARK SMILES IDX 14 14 15 15 16 16 17 17 18 18 19 19 20 20
REMARK H PARENT
REMARK Flexibility Score: inf
ROOT
ATOM      1  C   UNL     1      88.167 326.633 194.197  1.00  0.00     0.000 C 
ENDROOT
BRANCH   1   2
ATOM      2  C   UNL     1      86.705 326.199 194.356  1.00  0.00     0.000 C 
BRANCH   2   3
ATOM      3  C   UNL     1      86.345 325.096 193.352  1.00  0.00     0.000 C 
BRANCH   3   4
ATOM      4  C   UNL     1      87.560 324.716 192.493  1.00  0.00     0.000 C 
BRANCH   4   5
ATOM      5  C   UNL     1      87.248 323.611 191.467  1.00  0.00     0.000 C 
BRANCH   5   6
ATOM      6  C   UNL     1      88.416 323.240 190.531  1.00  0.00     0.006 C 
BRANCH   6   7
ATOM      7  C   UNL     1      88.018 323.058 189.058  1.00  0.00     0.053 C 
BRANCH   7   8
ATOM      8  C   UNL     1      87.160 321.846 188.854  1.00  0.00     0.041 C 
ATOM      9  O   UNL     1      87.503 320.737 189.340  1.00  0.00    -0.550 OA
ATOM     10  O   UNL     1      85.997 321.936 188.099  1.00  0.00    -0.550 OA
ENDBRANCH   7   8
ENDBRANCH   6   7
ENDBRANCH   5   6
ENDBRANCH   4   5
ENDBRANCH   3   4
ENDBRANCH   2   3
ENDBRANCH   1   2
BRANCH   1  11
ATOM     11  C   UNL     1      88.935 326.472 195.515  1.00  0.00     0.000 C 
BRANCH  11  12
ATOM     12  C   UNL     1      88.006 325.994 196.637  1.00  0.00     0.000 C 
BRANCH  12  13
ATOM     13  C   UNL     1      88.806 325.346 197.774  1.00  0.00     0.000 C 
BRANCH  13  14
ATOM     14  C   UNL     1      88.930 326.295 198.972  1.00  0.00     0.000 C 
BRANCH  14  15
ATOM     15  C   UNL     1      88.573 325.577 200.281  1.00  0.00     0.000 C 
BRANCH  15  16
ATOM     16  C   UNL     1      89.215 326.236 201.513  1.00  0.00     0.006 C 
BRANCH  16  17
ATOM     17  C   UNL     1      90.702 326.551 201.306  1.00  0.00     0.053 C 
BRANCH  17  18
ATOM     18  C   UNL     1      91.316 327.031 202.583  1.00  0.00     0.041 C 
ATOM     19  O   UNL     1      92.569 327.069 202.708  1.00  0.00    -0.550 OA
ATOM     20  O   UNL     1      90.507 327.390 203.654  1.00  0.00    -0.550 OA
ENDBRANCH  17  18
ENDBRANCH  16  17
ENDBRANCH  15  16
ENDBRANCH  14  15
ENDBRANCH  13  14
ENDBRANCH  12  13
ENDBRANCH  11  12
ENDBRANCH   1  11
TORSDOF 15
ENDMDL
MODEL 5
REMARK VINA RESULT:    -5.792      2.179     11.183
REMARK INTER + INTRA:         -11.645
REMARK INTER:                 -10.673
REMARK INTRA:                  -0.972
REMARK UNBOUND:                -0.774
REMARK SMILES O=C([O-])CCCCCCCCCCCCCCC(=O)[O-]
REMARK SMILES IDX 10 1 9 2 8 3 7 4 6 5 5 6 4 7 2 8 1 9 3 10 11 11 12 12 13 13
REMARK SMILES IDX 14 14 15 15 16 16 17 17 18 18 19 19 20 20
REMARK H PARENT
REMARK Flexibility Score: inf
ROOT
ATOM      1  C   UNL     1      88.602 324.994 197.390  1.00  0.00     0.000 C 
ENDROOT
BRANCH   1   2
ATOM      2  C   UNL     1      88.858 325.057 195.880  1.00  0.00     0.000 C 
BRANCH   2   3
ATOM      3  C   UNL     1      88.885 326.508 195.385  1.00  0.00     0.000 C 
BRANCH   3   4
ATOM      4  C   UNL     1      88.130 326.650 194.055  1.00  0.00     0.000 C 
BRANCH   4   5
ATOM      5  C   UNL     1      86.726 326.019 194.092  1.00  0.00     0.000 C 
BRANCH   5   6
ATOM      6  C   UNL     1      86.480 324.911 193.047  1.00  0.00     0.006 C 
BRANCH   6   7
ATOM      7  C   UNL     1      87.692 324.593 192.159  1.00  0.00     0.053 C 
BRANCH   7   8
ATOM      8  C   UNL     1      87.458 323.388 191.300  1.00  0.00     0.041 C 
ATOM      9  O   UNL     1      86.286 323.034 191.008  1.00  0.00    -0.550 OA
ATOM     10  O   UNL     1      88.535 322.635 190.849  1.00  0.00    -0.550 OA
ENDBRANCH   7   8
ENDBRANCH   6   7
ENDBRANCH   5   6
ENDBRANCH   4   5
ENDBRANCH   3   4
ENDBRANCH   2   3
ENDBRANCH   1   2
BRANCH   1  11
ATOM     11  C   UNL     1      88.350 326.395 197.963  1.00  0.00     0.000 C 
BRANCH  11  12
ATOM     12  C   UNL     1      89.204 326.638 199.213  1.00  0.00     0.000 C 
BRANCH  12  13
ATOM     13  C   UNL     1      88.865 325.629 200.316  1.00  0.00     0.000 C 
BRANCH  13  14
ATOM     14  C   UNL     1      88.978 326.269 201.705  1.00  0.00     0.000 C 
BRANCH  14  15
ATOM     15  C   UNL     1      90.444 326.558 202.059  1.00  0.00     0.000 C 
BRANCH  15  16
ATOM     16  C   UNL     1      90.608 327.146 203.470  1.00  0.00     0.006 C 
BRANCH  16  17
ATOM     17  C   UNL     1      89.265 327.394 204.167  1.00  0.00     0.053 C 
BRANCH  17  18
ATOM     18  C   UNL     1      89.139 326.530 205.381  1.00  0.00     0.041 C 
ATOM     19  O   UNL     1      89.781 326.810 206.428  1.00  0.00    -0.550 OA
ATOM     20  O   UNL     1      88.349 325.388 205.344  1.00  0.00    -0.550 OA
ENDBRANCH  17  18
ENDBRANCH  16  17
ENDBRANCH  15  16
ENDBRANCH  14  15
ENDBRANCH  13  14
ENDBRANCH  12  13
ENDBRANCH  11  12
ENDBRANCH   1  11
TORSDOF 15
ENDMDL
MODEL 6
REMARK VINA RESULT:    -5.780     19.020     20.135
REMARK INTER + INTRA:         -11.622
REMARK INTER:                 -10.884
REMARK INTRA:                  -0.739
REMARK UNBOUND:                -0.774
REMARK SMILES O=C([O-])CCCCCCCCCCCCCCC(=O)[O-]
REMARK SMILES IDX 10 1 9 2 8 3 7 4 6 5 5 6 4 7 2 8 1 9 3 10 11 11 12 12 13 13
REMARK SMILES IDX 14 14 15 15 16 16 17 17 18 18 19 19 20 20
REMARK H PARENT
REMARK Flexibility Score: inf
ROOT
ATOM      1  C   UNL     1     104.669 312.341 195.746  1.00  0.00     0.000 C 
ENDROOT
BRANCH   1   2
ATOM      2  C   UNL     1     103.932 311.556 196.837  1.00  0.00     0.000 C 
BRANCH   2   3
ATOM      3  C   UNL     1     103.890 312.345 198.151  1.00  0.00     0.000 C 
BRANCH   3   4
ATOM      4  C   UNL     1     103.369 311.471 199.301  1.00  0.00     0.000 C 
BRANCH   4   5
ATOM      5  C   UNL     1     103.983 311.843 200.663  1.00  0.00     0.000 C 
BRANCH   5   6
ATOM      6  C   UNL     1     103.137 311.450 201.891  1.00  0.00     0.006 C 
BRANCH   6   7
ATOM      7  C   UNL     1     103.955 311.038 203.124  1.00  0.00     0.053 C 
BRANCH   7   8
ATOM      8  C   UNL     1     104.403 312.223 203.924  1.00  0.00     0.041 C 
ATOM      9  O   UNL     1     105.430 312.147 204.648  1.00  0.00    -0.550 OA
ATOM     10  O   UNL     1     103.668 313.401 203.894  1.00  0.00    -0.550 OA
ENDBRANCH   7   8
ENDBRANCH   6   7
ENDBRANCH   5   6
ENDBRANCH   4   5
ENDBRANCH   3   4
ENDBRANCH   2   3
ENDBRANCH   1   2
BRANCH   1  11
ATOM     11  C   UNL     1     105.797 311.502 195.131  1.00  0.00     0.000 C 
BRANCH  11  12
ATOM     12  C   UNL     1     105.734 311.536 193.599  1.00  0.00     0.000 C 
BRANCH  12  13
ATOM     13  C   UNL     1     104.281 311.570 193.109  1.00  0.00     0.000 C 
BRANCH  13  14
ATOM     14  C   UNL     1     104.066 312.702 192.097  1.00  0.00     0.000 C 
BRANCH  14  15
ATOM     15  C   UNL     1     105.298 313.616 192.025  1.00  0.00     0.000 C 
BRANCH  15  16
ATOM     16  C   UNL     1     105.402 314.366 190.687  1.00  0.00     0.006 C 
BRANCH  16  17
ATOM     17  C   UNL     1     104.064 314.432 189.941  1.00  0.00     0.053 C 
BRANCH  17  18
ATOM     18  C   UNL     1     104.119 315.464 188.859  1.00  0.00     0.041 C 
ATOM     19  O   UNL     1     105.069 316.290 188.820  1.00  0.00    -0.550 OA
ATOM     20  O   UNL     1     103.098 315.545 187.921  1.00  0.00    -0.550 OA
ENDBRANCH  17  18
ENDBRANCH  16  17
ENDBRANCH  15  16
ENDBRANCH  14  15
ENDBRANCH  13  14
ENDBRANCH  12  13
ENDBRANCH  11  12
ENDBRANCH   1  11
TORSDOF 15
ENDMDL
MODEL 7
REMARK VINA RESULT:    -5.779      2.816      4.949
REMARK INTER + INTRA:         -11.621
REMARK INTER:                 -11.004
REMARK INTRA:                  -0.617
REMARK UNBOUND:                -0.774
REMARK SMILES O=C([O-])CCCCCCCCCCCCCCC(=O)[O-]
REMARK SMILES IDX 10 1 9 2 8 3 7 4 6 5 5 6 4 7 2 8 1 9 3 10 11 11 12 12 13 13
REMARK SMILES IDX 14 14 15 15 16 16 17 17 18 18 19 19 20 20
REMARK H PARENT
REMARK Flexibility Score: inf
ROOT
ATOM      1  C   UNL     1      88.897 325.726 199.298  1.00  0.00     0.000 C 
ENDROOT
BRANCH   1   2
ATOM      2  C   UNL     1      89.601 326.375 200.495  1.00  0.00     0.000 C 
BRANCH   2   3
ATOM      3  C   UNL     1      88.798 326.168 201.786  1.00  0.00     0.000 C 
BRANCH   3   4
ATOM      4  C   UNL     1      89.709 326.241 203.019  1.00  0.00     0.000 C 
BRANCH   4   5
ATOM      5  C   UNL     1      89.190 327.216 204.092  1.00  0.00     0.000 C 
BRANCH   5   6
ATOM      6  C   UNL     1      88.982 326.599 205.490  1.00  0.00     0.006 C 
BRANCH   6   7
ATOM      7  C   UNL     1      88.524 325.132 205.477  1.00  0.00     0.053 C 
BRANCH   7   8
ATOM      8  C   UNL     1      87.109 324.982 205.946  1.00  0.00     0.041 C 
ATOM      9  O   UNL     1      86.660 325.726 206.857  1.00  0.00    -0.550 OA
ATOM     10  O   UNL     1      86.295 323.997 205.399  1.00  0.00    -0.550 OA
ENDBRANCH   7   8
ENDBRANCH   6   7
ENDBRANCH   5   6
ENDBRANCH   4   5
ENDBRANCH   3   4
ENDBRANCH   2   3
ENDBRANCH   1   2
BRANCH   1  11
ATOM     11  C   UNL     1      88.671 326.745 198.175  1.00  0.00     0.000 C 
BRANCH  11  12
ATOM     12  C   UNL     1      88.070 326.072 196.935  1.00  0.00     0.000 C 
BRANCH  12  13
ATOM     13  C   UNL     1      88.990 326.237 195.719  1.00  0.00     0.000 C 
BRANCH  13  14
ATOM     14  C   UNL     1      88.211 326.753 194.503  1.00  0.00     0.000 C 
BRANCH  14  15
ATOM     15  C   UNL     1      86.782 326.191 194.487  1.00  0.00     0.000 C 
BRANCH  15  16
ATOM     16  C   UNL     1      86.644 324.948 193.592  1.00  0.00     0.006 C 
BRANCH  16  17
ATOM     17  C   UNL     1      87.789 324.819 192.580  1.00  0.00     0.053 C 
BRANCH  17  18
ATOM     18  C   UNL     1      87.375 323.954 191.431  1.00  0.00     0.041 C 
ATOM     19  O   UNL     1      86.216 323.462 191.394  1.00  0.00    -0.550 OA
ATOM     20  O   UNL     1      88.284 323.652 190.425  1.00  0.00    -0.550 OA
ENDBRANCH  17  18
ENDBRANCH  16  17
ENDBRANCH  15  16
ENDBRANCH  14  15
ENDBRANCH  13  14
ENDBRANCH  12  13
ENDBRANCH  11  12
ENDBRANCH   1  11
TORSDOF 15
ENDMDL
MODEL 8
REMARK VINA RESULT:    -5.765      1.506     11.102
REMARK INTER + INTRA:         -11.594
REMARK INTER:                 -10.885
REMARK INTRA:                  -0.708
REMARK UNBOUND:                -0.774
REMARK SMILES O=C([O-])CCCCCCCCCCCCCCC(=O)[O-]
REMARK SMILES IDX 10 1 9 2 8 3 7 4 6 5 5 6 4 7 2 8 1 9 3 10 11 11 12 12 13 13
REMARK SMILES IDX 14 14 15 15 16 16 17 17 18 18 19 19 20 20
REMARK H PARENT
REMARK Flexibility Score: inf
ROOT
ATOM      1  C   UNL     1      86.515 326.514 196.063  1.00  0.00     0.000 C 
ENDROOT
BRANCH   1   2
ATOM      2  C   UNL     1      86.446 326.303 194.546  1.00  0.00     0.000 C 
BRANCH   2   3
ATOM      3  C   UNL     1      87.832 326.448 193.906  1.00  0.00     0.000 C 
BRANCH   3   4
ATOM      4  C   UNL     1      88.094 325.319 192.898  1.00  0.00     0.000 C 
BRANCH   4   5
ATOM      5  C   UNL     1      86.969 324.268 192.869  1.00  0.00     0.000 C 
BRANCH   5   6
ATOM      6  C   UNL     1      86.772 323.559 191.514  1.00  0.00     0.006 C 
BRANCH   6   7
ATOM      7  C   UNL     1      88.048 322.931 190.932  1.00  0.00     0.053 C 
BRANCH   7   8
ATOM      8  C   UNL     1      88.181 323.187 189.462  1.00  0.00     0.041 C 
ATOM      9  O   UNL     1      87.364 322.673 188.653  1.00  0.00    -0.550 OA
ATOM     10  O   UNL     1      89.225 323.967 188.982  1.00  0.00    -0.550 OA
ENDBRANCH   7   8
ENDBRANCH   6   7
ENDBRANCH   5   6
ENDBRANCH   4   5
ENDBRANCH   3   4
ENDBRANCH   2   3
ENDBRANCH   1   2
BRANCH   1  11
ATOM     11  C   UNL     1      87.669 325.712 196.677  1.00  0.00     0.000 C 
BRANCH  11  12
ATOM     12  C   UNL     1      88.458 326.563 197.679  1.00  0.00     0.000 C 
BRANCH  12  13
ATOM     13  C   UNL     1      88.934 325.716 198.866  1.00  0.00     0.000 C 
BRANCH  13  14
ATOM     14  C   UNL     1      89.550 326.595 199.960  1.00  0.00     0.000 C 
BRANCH  14  15
ATOM     15  C   UNL     1      89.001 326.217 201.344  1.00  0.00     0.000 C 
BRANCH  15  16
ATOM     16  C   UNL     1      90.037 326.408 202.464  1.00  0.00     0.006 C 
BRANCH  16  17
ATOM     17  C   UNL     1      89.418 326.964 203.752  1.00  0.00     0.053 C 
BRANCH  17  18
ATOM     18  C   UNL     1      89.062 325.850 204.684  1.00  0.00     0.041 C 
ATOM     19  O   UNL     1      89.618 324.725 204.569  1.00  0.00    -0.550 OA
ATOM     20  O   UNL     1      88.081 326.037 205.650  1.00  0.00    -0.550 OA
ENDBRANCH  17  18
ENDBRANCH  16  17
ENDBRANCH  15  16
ENDBRANCH  14  15
ENDBRANCH  13  14
ENDBRANCH  12  13
ENDBRANCH  11  12
ENDBRANCH   1  11
TORSDOF 15
ENDMDL
MODEL 9
REMARK VINA RESULT:    -5.706     18.933     20.028
REMARK INTER + INTRA:         -11.484
REMARK INTER:                 -10.771
REMARK INTRA:                  -0.713
REMARK UNBOUND:                -0.774
REMARK SMILES O=C([O-])CCCCCCCCCCCCCCC(=O)[O-]
REMARK SMILES IDX 10 1 9 2 8 3 7 4 6 5 5 6 4 7 2 8 1 9 3 10 11 11 12 12 13 13
REMARK SMILES IDX 14 14 15 15 16 16 17 17 18 18 19 19 20 20
REMARK H PARENT
REMARK Flexibility Score: inf
ROOT
ATOM      1  C   UNL     1     104.447 311.961 195.967  1.00  0.00     0.000 C 
ENDROOT
BRANCH   1   2
ATOM      2  C   UNL     1     103.886 311.400 197.278  1.00  0.00     0.000 C 
BRANCH   2   3
ATOM      3  C   UNL     1     103.790 312.493 198.350  1.00  0.00     0.000 C 
BRANCH   3   4
ATOM      4  C   UNL     1     103.771 311.883 199.759  1.00  0.00     0.000 C 
BRANCH   4   5
ATOM      5  C   UNL     1     102.364 311.858 200.383  1.00  0.00     0.000 C 
BRANCH   5   6
ATOM      6  C   UNL     1     102.257 311.104 201.724  1.00  0.00     0.006 C 
BRANCH   6   7
ATOM      7  C   UNL     1     103.507 311.203 202.612  1.00  0.00     0.053 C 
BRANCH   7   8
ATOM      8  C   UNL     1     103.200 310.911 204.049  1.00  0.00     0.041 C 
ATOM      9  O   UNL     1     102.008 310.901 204.454  1.00  0.00    -0.550 OA
ATOM     10  O   UNL     1     104.234 310.681 204.949  1.00  0.00    -0.550 OA
ENDBRANCH   7   8
ENDBRANCH   6   7
ENDBRANCH   5   6
ENDBRANCH   4   5
ENDBRANCH   3   4
ENDBRANCH   2   3
ENDBRANCH   1   2
BRANCH   1  11
ATOM     11  C   UNL     1     103.415 311.855 194.837  1.00  0.00     0.000 C 
BRANCH  11  12
ATOM     12  C   UNL     1     104.072 311.381 193.536  1.00  0.00     0.000 C 
BRANCH  12  13
ATOM     13  C   UNL     1     105.505 311.915 193.416  1.00  0.00     0.000 C 
BRANCH  13  14
ATOM     14  C   UNL     1     105.596 313.017 192.354  1.00  0.00     0.000 C 
BRANCH  14  15
ATOM     15  C   UNL     1     104.301 313.098 191.533  1.00  0.00     0.000 C 
BRANCH  15  16
ATOM     16  C   UNL     1     103.909 314.544 191.185  1.00  0.00     0.006 C 
BRANCH  16  17
ATOM     17  C   UNL     1     103.818 314.784 189.673  1.00  0.00     0.053 C 
BRANCH  17  18
ATOM     18  C   UNL     1     104.926 315.680 189.219  1.00  0.00     0.041 C 
ATOM     19  O   UNL     1     106.121 315.409 189.510  1.00  0.00    -0.550 OA
ATOM     20  O   UNL     1     104.636 316.842 188.514  1.00  0.00    -0.550 OA
ENDBRANCH  17  18
ENDBRANCH  16  17
ENDBRANCH  15  16
ENDBRANCH  14  15
ENDBRANCH  13  14
ENDBRANCH  12  13
ENDBRANCH  11  12
ENDBRANCH   1  11
TORSDOF 15
ENDMDL
