MODEL 1
REMARK VINA RESULT:    -3.497      0.000      0.000
REMARK INTER + INTRA:          -3.985
REMARK INTER:                  -3.906
REMARK INTRA:                  -0.079
REMARK UNBOUND:                -0.079
REMARK SMILES O=C([O-])C=Cc1ccccc1
REMARK SMILES IDX 4 1 5 2 2 3 1 4 3 5 6 6 7 7 11 8 8 9 10 10 9 11
REMARK H PARENT
REMARK Flexibility Score: inf
ROOT
ATOM      1  C   UNL     1       9.720  -4.298   0.942  1.00  0.00     0.025 C 
ATOM      2  C   UNL     1       9.952  -3.883  -0.314  1.00  0.00     0.010 C 
ENDROOT
BRANCH   1   3
ATOM      3  C   UNL     1       8.642  -3.811   1.825  1.00  0.00     0.064 C 
ATOM      4  O   UNL     1       8.666  -2.652   2.316  1.00  0.00    -0.545 OA
ATOM      5  O   UNL     1       7.616  -4.677   2.179  1.00  0.00    -0.545 OA
ENDBRANCH   1   3
BRANCH   2   6
ATOM      6  C   UNL     1       9.067  -2.999  -1.101  1.00  0.00    -0.026 A 
ATOM      7  C   UNL     1       9.067  -1.619  -0.844  1.00  0.00     0.008 A 
ATOM      8  C   UNL     1       8.302  -3.499  -2.170  1.00  0.00     0.008 A 
ATOM      9  C   UNL     1       8.276  -0.758  -1.609  1.00  0.00     0.001 A 
ATOM     10  C   UNL     1       7.511  -2.635  -2.934  1.00  0.00     0.001 A 
ATOM     11  C   UNL     1       7.494  -1.266  -2.651  1.00  0.00     0.000 A 
ENDBRANCH   2   6
TORSDOF 2
ENDMDL
MODEL 2
REMARK VINA RESULT:    -3.387      3.647      4.560
REMARK INTER + INTRA:          -3.862
REMARK INTER:                  -3.583
REMARK INTRA:                  -0.279
REMARK UNBOUND:                -0.079
REMARK SMILES O=C([O-])C=Cc1ccccc1
REMARK SMILES IDX 4 1 5 2 2 3 1 4 3 5 6 6 7 7 11 8 8 9 10 10 9 11
REMARK H PARENT
REMARK Flexibility Score: inf
ROOT
ATOM      1  C   UNL     1       8.541  -4.360  -3.981  1.00  0.00     0.025 C 
ATOM      2  C   UNL     1       7.614  -3.794  -3.191  1.00  0.00     0.010 C 
ENDROOT
BRANCH   1   3
ATOM      3  C   UNL     1       9.578  -3.639  -4.745  1.00  0.00     0.064 C 
ATOM      4  O   UNL     1      10.727  -3.438  -4.270  1.00  0.00    -0.545 OA
ATOM      5  O   UNL     1       9.256  -3.110  -5.987  1.00  0.00    -0.545 OA
ENDBRANCH   1   3
BRANCH   2   6
ATOM      6  C   UNL     1       7.575  -2.370  -2.800  1.00  0.00    -0.026 A 
ATOM      7  C   UNL     1       8.332  -1.938  -1.700  1.00  0.00     0.008 A 
ATOM      8  C   UNL     1       6.878  -1.422  -3.570  1.00  0.00     0.008 A 
ATOM      9  C   UNL     1       8.350  -0.586  -1.342  1.00  0.00     0.001 A 
ATOM     10  C   UNL     1       6.898  -0.071  -3.209  1.00  0.00     0.001 A 
ATOM     11  C   UNL     1       7.630   0.346  -2.093  1.00  0.00     0.000 A 
ENDBRANCH   2   6
TORSDOF 2
ENDMDL
MODEL 3
REMARK VINA RESULT:    -3.386      3.690      4.696
REMARK INTER + INTRA:          -3.861
REMARK INTER:                  -3.579
REMARK INTRA:                  -0.281
REMARK UNBOUND:                -0.079
REMARK SMILES O=C([O-])C=Cc1ccccc1
REMARK SMILES IDX 4 1 5 2 2 3 1 4 3 5 6 6 7 7 11 8 8 9 10 10 9 11
REMARK H PARENT
REMARK Flexibility Score: inf
ROOT
ATOM      1  C   UNL     1       8.432  -4.243  -3.964  1.00  0.00     0.025 C 
ATOM      2  C   UNL     1       7.555  -3.592  -3.183  1.00  0.00     0.010 C 
ENDROOT
BRANCH   1   3
ATOM      3  C   UNL     1       9.520  -3.619  -4.742  1.00  0.00     0.064 C 
ATOM      4  O   UNL     1      10.707  -3.603  -4.321  1.00  0.00    -0.545 OA
ATOM      5  O   UNL     1       9.215  -2.975  -5.934  1.00  0.00    -0.545 OA
ENDBRANCH   1   3
BRANCH   2   6
ATOM      6  C   UNL     1       7.629  -2.162  -2.817  1.00  0.00    -0.026 A 
ATOM      7  C   UNL     1       6.890  -1.225  -3.555  1.00  0.00     0.008 A 
ATOM      8  C   UNL     1       8.343  -1.736  -1.683  1.00  0.00     0.008 A 
ATOM      9  C   UNL     1       6.906   0.127  -3.197  1.00  0.00     0.001 A 
ATOM     10  C   UNL     1       8.357  -0.384  -1.327  1.00  0.00     0.001 A 
ATOM     11  C   UNL     1       7.643   0.548  -2.086  1.00  0.00     0.000 A 
ENDBRANCH   2   6
TORSDOF 2
ENDMDL
MODEL 4
REMARK VINA RESULT:    -3.372      3.036      3.818
REMARK INTER + INTRA:          -3.845
REMARK INTER:                  -3.562
REMARK INTRA:                  -0.283
REMARK UNBOUND:                -0.079
REMARK SMILES O=C([O-])C=Cc1ccccc1
REMARK SMILES IDX 4 1 5 2 2 3 1 4 3 5 6 6 7 7 11 8 8 9 10 10 9 11
REMARK H PARENT
REMARK Flexibility Score: inf
ROOT
ATOM      1  C   UNL     1      10.006  -3.144  -1.436  1.00  0.00     0.025 C 
ATOM      2  C   UNL     1       8.713  -2.800  -1.324  1.00  0.00     0.010 C 
ENDROOT
BRANCH   1   3
ATOM      3  C   UNL     1      10.937  -2.669  -2.477  1.00  0.00     0.064 C 
ATOM      4  O   UNL     1      11.689  -1.677  -2.287  1.00  0.00    -0.545 OA
ATOM      5  O   UNL     1      10.934  -3.289  -3.720  1.00  0.00    -0.545 OA
ENDBRANCH   1   3
BRANCH   2   6
ATOM      6  C   UNL     1       8.035  -1.749  -2.111  1.00  0.00    -0.026 A 
ATOM      7  C   UNL     1       7.278  -2.112  -3.235  1.00  0.00     0.008 A 
ATOM      8  C   UNL     1       8.049  -0.405  -1.696  1.00  0.00     0.008 A 
ATOM      9  C   UNL     1       6.588  -1.139  -3.965  1.00  0.00     0.001 A 
ATOM     10  C   UNL     1       7.358   0.565  -2.429  1.00  0.00     0.001 A 
ATOM     11  C   UNL     1       6.632   0.199  -3.565  1.00  0.00     0.000 A 
ENDBRANCH   2   6
TORSDOF 2
ENDMDL
MODEL 5
REMARK VINA RESULT:    -3.362      3.937      5.710
REMARK INTER + INTRA:          -3.834
REMARK INTER:                  -3.561
REMARK INTRA:                  -0.272
REMARK UNBOUND:                -0.079
REMARK SMILES O=C([O-])C=Cc1ccccc1
REMARK SMILES IDX 4 1 5 2 2 3 1 4 3 5 6 6 7 7 11 8 8 9 10 10 9 11
REMARK H PARENT
REMARK Flexibility Score: inf
ROOT
ATOM      1  C   UNL     1       7.766   1.847  -3.487  1.00  0.00     0.025 C 
ATOM      2  C   UNL     1       7.137   1.008  -2.648  1.00  0.00     0.010 C 
ENDROOT
BRANCH   1   3
ATOM      3  C   UNL     1       9.090   1.621  -4.099  1.00  0.00     0.064 C 
ATOM      4  O   UNL     1      10.151   1.992  -3.532  1.00  0.00    -0.545 OA
ATOM      5  O   UNL     1       9.161   1.048  -5.362  1.00  0.00    -0.545 OA
ENDBRANCH   1   3
BRANCH   2   6
ATOM      6  C   UNL     1       7.570  -0.369  -2.329  1.00  0.00    -0.026 A 
ATOM      7  C   UNL     1       7.200  -1.421  -3.181  1.00  0.00     0.008 A 
ATOM      8  C   UNL     1       8.430  -0.630  -1.248  1.00  0.00     0.008 A 
ATOM      9  C   UNL     1       7.639  -2.723  -2.927  1.00  0.00     0.001 A 
ATOM     10  C   UNL     1       8.867  -1.934  -0.995  1.00  0.00     0.001 A 
ATOM     11  C   UNL     1       8.469  -2.981  -1.832  1.00  0.00     0.000 A 
ENDBRANCH   2   6
TORSDOF 2
ENDMDL
MODEL 6
REMARK VINA RESULT:    -3.329      4.015      5.556
REMARK INTER + INTRA:          -3.797
REMARK INTER:                  -3.525
REMARK INTRA:                  -0.272
REMARK UNBOUND:                -0.079
REMARK SMILES O=C([O-])C=Cc1ccccc1
REMARK SMILES IDX 4 1 5 2 2 3 1 4 3 5 6 6 7 7 11 8 8 9 10 10 9 11
REMARK H PARENT
REMARK Flexibility Score: inf
ROOT
ATOM      1  C   UNL     1       8.467   2.535  -2.198  1.00  0.00     0.025 C 
ATOM      2  C   UNL     1       7.630   1.580  -1.764  1.00  0.00     0.010 C 
ENDROOT
BRANCH   1   3
ATOM      3  C   UNL     1       9.659   2.318  -3.042  1.00  0.00     0.064 C 
ATOM      4  O   UNL     1      10.812   2.235  -2.544  1.00  0.00    -0.545 OA
ATOM      5  O   UNL     1       9.511   2.275  -4.421  1.00  0.00    -0.545 OA
ENDBRANCH   1   3
BRANCH   2   6
ATOM      6  C   UNL     1       7.643   0.167  -2.197  1.00  0.00    -0.026 A 
ATOM      7  C   UNL     1       8.332  -0.782  -1.426  1.00  0.00     0.008 A 
ATOM      8  C   UNL     1       6.895  -0.262  -3.308  1.00  0.00     0.008 A 
ATOM      9  C   UNL     1       8.318  -2.132  -1.790  1.00  0.00     0.001 A 
ATOM     10  C   UNL     1       6.882  -1.613  -3.669  1.00  0.00     0.001 A 
ATOM     11  C   UNL     1       7.597  -2.547  -2.913  1.00  0.00     0.000 A 
ENDBRANCH   2   6
TORSDOF 2
ENDMDL
MODEL 7
REMARK VINA RESULT:    -3.300      4.132      5.670
REMARK INTER + INTRA:          -3.765
REMARK INTER:                  -3.483
REMARK INTRA:                  -0.282
REMARK UNBOUND:                -0.079
REMARK SMILES O=C([O-])C=Cc1ccccc1
REMARK SMILES IDX 4 1 5 2 2 3 1 4 3 5 6 6 7 7 11 8 8 9 10 10 9 11
REMARK H PARENT
REMARK Flexibility Score: inf
ROOT
ATOM      1  C   UNL     1       6.909  -2.643  -5.697  1.00  0.00     0.025 C 
ATOM      2  C   UNL     1       6.392  -2.339  -4.496  1.00  0.00     0.010 C 
ENDROOT
BRANCH   1   3
ATOM      3  C   UNL     1       8.226  -2.209  -6.204  1.00  0.00     0.064 C 
ATOM      4  O   UNL     1       9.239  -2.952  -6.125  1.00  0.00    -0.545 OA
ATOM      5  O   UNL     1       8.363  -0.926  -6.716  1.00  0.00    -0.545 OA
ENDBRANCH   1   3
BRANCH   2   6
ATOM      6  C   UNL     1       7.117  -1.669  -3.396  1.00  0.00    -0.026 A 
ATOM      7  C   UNL     1       6.945  -0.290  -3.199  1.00  0.00     0.008 A 
ATOM      8  C   UNL     1       7.893  -2.403  -2.482  1.00  0.00     0.008 A 
ATOM      9  C   UNL     1       7.581   0.355  -2.134  1.00  0.00     0.001 A 
ATOM     10  C   UNL     1       8.529  -1.754  -1.419  1.00  0.00     0.001 A 
ATOM     11  C   UNL     1       8.377  -0.375  -1.247  1.00  0.00     0.000 A 
ENDBRANCH   2   6
TORSDOF 2
ENDMDL
MODEL 8
REMARK VINA RESULT:    -3.270      4.588      6.289
REMARK INTER + INTRA:          -3.731
REMARK INTER:                  -3.457
REMARK INTRA:                  -0.274
REMARK UNBOUND:                -0.079
REMARK SMILES O=C([O-])C=Cc1ccccc1
REMARK SMILES IDX 4 1 5 2 2 3 1 4 3 5 6 6 7 7 11 8 8 9 10 10 9 11
REMARK H PARENT
REMARK Flexibility Score: inf
ROOT
ATOM      1  C   UNL     1       6.531   1.478  -5.069  1.00  0.00     0.025 C 
ATOM      2  C   UNL     1       6.128   0.802  -3.981  1.00  0.00     0.010 C 
ENDROOT
BRANCH   1   3
ATOM      3  C   UNL     1       7.899   1.483  -5.623  1.00  0.00     0.064 C 
ATOM      4  O   UNL     1       8.735   2.370  -5.306  1.00  0.00    -0.545 OA
ATOM      5  O   UNL     1       8.249   0.527  -6.567  1.00  0.00    -0.545 OA
ENDBRANCH   1   3
BRANCH   2   6
ATOM      6  C   UNL     1       6.931  -0.197  -3.247  1.00  0.00    -0.026 A 
ATOM      7  C   UNL     1       7.651   0.200  -2.109  1.00  0.00     0.008 A 
ATOM      8  C   UNL     1       6.906  -1.557  -3.604  1.00  0.00     0.008 A 
ATOM      9  C   UNL     1       8.378  -0.739  -1.370  1.00  0.00     0.001 A 
ATOM     10  C   UNL     1       7.635  -2.493  -2.864  1.00  0.00     0.001 A 
ATOM     11  C   UNL     1       8.374  -2.084  -1.750  1.00  0.00     0.000 A 
ENDBRANCH   2   6
TORSDOF 2
ENDMDL
