MODEL 1
REMARK VINA RESULT:    76.572      0.000      0.000
REMARK INTER + INTRA:         120.851
REMARK INTER:                 121.337
REMARK INTRA:                  -0.485
REMARK UNBOUND:                -0.485
REMARK SMILES C[C@H]1O[C@H](O[C@H]2[C@H](Oc3cc(O)c4c(c3)O[C@@H](c3ccc(O)cc3)CC4=O)O[C@@H](CO)[C@@H](O)[C@@H]2O)[C@H](O)[C@@H](O)[C@@H]1O
REMARK SMILES IDX 6 1 34 2 32 3 29 4 28 5 7 6 5 7 4 8 1 9 2 10 40 11 3 12
REMARK SMILES IDX 38 13 36 14 41 15 39 17 37 19 35 21 8 23 9 24 10 25 15 26
REMARK SMILES IDX 11 27 14 28 13 29 16 30 26 31 17 32 27 33 25 34 12 35 18 37
REMARK SMILES IDX 19 38 24 39 20 40 23 41 21 42 22 43 33 45 30 47 31 48
REMARK H PARENT 41 16 39 18 37 20 35 22 12 36 22 44 33 46 31 49
REMARK Flexibility Score: inf
ROOT
ATOM      1  C   UNL     1      10.921   8.801  17.842  1.00  0.00     0.221 C 
ATOM      2  C   UNL     1      10.435   7.448  18.407  1.00  0.00     0.181 C 
ATOM      3  C   UNL     1      10.419   6.370  17.307  1.00  0.00     0.177 C 
ATOM      4  C   UNL     1       9.658   6.903  16.069  1.00  0.00     0.179 C 
ATOM      5  O   UNL     1      10.262   8.090  15.586  1.00  0.00    -0.332 OA
ATOM      6  C   UNL     1      10.180   9.146  16.533  1.00  0.00     0.339 C 
ENDROOT
BRANCH   1   7
ATOM      7  O   UNL     1      12.310   8.745  17.560  1.00  0.00    -0.337 OA
BRANCH   7   8
ATOM      8  C   UNL     1      12.654   9.419  16.354  1.00  0.00     0.282 C 
ATOM      9  C   UNL     1      12.831  12.841  17.705  1.00  0.00     0.041 C 
ATOM     10  C   UNL     1      13.210  11.369  17.557  1.00  0.00     0.150 C 
ATOM     11  C   UNL     1      14.725  11.219  17.268  1.00  0.00     0.174 C 
ATOM     12  O   UNL     1      12.434  10.815  16.499  1.00  0.00    -0.344 OA
ATOM     13  C   UNL     1      15.075   9.739  17.015  1.00  0.00     0.179 C 
ATOM     14  C   UNL     1      14.126   9.146  15.959  1.00  0.00     0.202 C 
BRANCH  11  15
ATOM     15  O   UNL     1      15.498  11.732  18.330  1.00  0.00    -0.388 OA
ATOM     16  H   UNL     1      15.266  11.217  19.150  1.00  0.00     0.211 HD
ENDBRANCH  11  15
BRANCH  13  17
ATOM     17  O   UNL     1      16.424   9.611  16.629  1.00  0.00    -0.387 OA
ATOM     18  H   UNL     1      16.979   9.620  17.448  1.00  0.00     0.211 HD
ENDBRANCH  13  17
BRANCH  14  19
ATOM     19  O   UNL     1      14.369   7.770  15.836  1.00  0.00    -0.385 OA
ATOM     20  H   UNL     1      14.766   7.473  16.699  1.00  0.00     0.211 HD
ENDBRANCH  14  19
ENDBRANCH   7   8
ENDBRANCH   1   7
BRANCH   2  21
ATOM     21  O   UNL     1       9.148   7.609  18.951  1.00  0.00    -0.387 OA
ATOM     22  H   UNL     1       8.843   8.523  18.713  1.00  0.00     0.211 HD
ENDBRANCH   2  21
BRANCH   6  23
ATOM     23  O   UNL     1       8.827   9.513  16.816  1.00  0.00    -0.462 OA
BRANCH  23  24
ATOM     24  C   UNL     1       7.787   9.535  15.874  1.00  0.00     0.130 A 
ATOM     25  C   UNL     1       6.607   8.791  16.030  1.00  0.00     0.093 A 
ATOM     26  C   UNL     1       7.948  10.332  14.738  1.00  0.00     0.094 A 
ATOM     27  C   UNL     1       5.582   8.869  15.077  1.00  0.00     0.133 A 
ATOM     28  C   UNL     1       6.950  10.387  13.761  1.00  0.00     0.138 A 
ATOM     29  C   UNL     1       5.752   9.674  13.931  1.00  0.00     0.102 A 
ATOM     30  O   UNL     1       7.172  11.139  12.604  1.00  0.00    -0.484 OA
ATOM     31  C   UNL     1       4.734   9.769  12.861  1.00  0.00     0.174 C 
ATOM     32  C   UNL     1       6.131  11.486  11.688  1.00  0.00     0.211 C 
ATOM     33  O   UNL     1       3.563   9.340  13.036  1.00  0.00    -0.294 OA
ATOM     34  C   UNL     1       5.119  10.337  11.528  1.00  0.00     0.131 C 
BRANCH  27  35
ATOM     35  O   UNL     1       4.410   8.128  15.259  1.00  0.00    -0.507 OA
ATOM     36  H   UNL     1       4.117   7.809  16.175  1.00  0.00     0.293 HD
ENDBRANCH  27  35
BRANCH  32  37
ATOM     37  C   UNL     1       6.734  11.834  10.347  1.00  0.00    -0.007 A 
ATOM     38  C   UNL     1       6.184  12.866   9.567  1.00  0.00     0.011 A 
ATOM     39  C   UNL     1       7.798  11.073   9.827  1.00  0.00     0.011 A 
ATOM     40  C   UNL     1       6.712  13.153   8.305  1.00  0.00     0.046 A 
ATOM     41  C   UNL     1       8.322  11.360   8.564  1.00  0.00     0.046 A 
ATOM     42  C   UNL     1       7.778  12.398   7.797  1.00  0.00     0.115 A 
BRANCH  42  43
ATOM     43  O   UNL     1       8.282  12.687   6.529  1.00  0.00    -0.508 OA
ATOM     44  H   UNL     1       9.144  12.268   6.192  1.00  0.00     0.293 HD
ENDBRANCH  42  43
ENDBRANCH  32  37
ENDBRANCH  23  24
ENDBRANCH   6  23
BRANCH   3  45
ATOM     45  O   UNL     1      11.742   6.041  16.966  1.00  0.00    -0.387 OA
ATOM     46  H   UNL     1      11.953   6.500  16.106  1.00  0.00     0.211 HD
ENDBRANCH   3  45
BRANCH   4  47
ATOM     47  C   UNL     1       9.631   5.878  14.930  1.00  0.00     0.191 C 
BRANCH  47  48
ATOM     48  O   UNL     1       8.565   6.144  14.061  1.00  0.00    -0.394 OA
ATOM     49  H   UNL     1       7.745   5.838  14.532  1.00  0.00     0.210 HD
ENDBRANCH  47  48
ENDBRANCH   4  47
TORSDOF 14
ENDMDL
MODEL 2
REMARK VINA RESULT:    78.387      1.016      1.862
REMARK INTER + INTRA:         123.726
REMARK INTER:                 125.141
REMARK INTRA:                  -1.415
REMARK UNBOUND:                -0.485
REMARK SMILES C[C@H]1O[C@H](O[C@H]2[C@H](Oc3cc(O)c4c(c3)O[C@@H](c3ccc(O)cc3)CC4=O)O[C@@H](CO)[C@@H](O)[C@@H]2O)[C@H](O)[C@@H](O)[C@@H]1O
REMARK SMILES IDX 6 1 34 2 32 3 29 4 28 5 7 6 5 7 4 8 1 9 2 10 40 11 3 12
REMARK SMILES IDX 38 13 36 14 41 15 39 17 37 19 35 21 8 23 9 24 10 25 15 26
REMARK SMILES IDX 11 27 14 28 13 29 16 30 26 31 17 32 27 33 25 34 12 35 18 37
REMARK SMILES IDX 19 38 24 39 20 40 23 41 21 42 22 43 33 45 30 47 31 48
REMARK H PARENT 41 16 39 18 37 20 35 22 12 36 22 44 33 46 31 49
REMARK Flexibility Score: inf
ROOT
ATOM      1  C   UNL     1      11.257   9.640  17.384  1.00  0.00     0.221 C 
ATOM      2  C   UNL     1      11.155   8.400  18.300  1.00  0.00     0.181 C 
ATOM      3  C   UNL     1      11.309   7.103  17.483  1.00  0.00     0.177 C 
ATOM      4  C   UNL     1      10.347   7.135  16.271  1.00  0.00     0.179 C 
ATOM      5  O   UNL     1      10.611   8.264  15.456  1.00  0.00    -0.332 OA
ATOM      6  C   UNL     1      10.355   9.481  16.143  1.00  0.00     0.339 C 
ENDROOT
BRANCH   1   7
ATOM      7  O   UNL     1      12.593   9.811  16.937  1.00  0.00    -0.337 OA
BRANCH   7   8
ATOM      8  C   UNL     1      13.449  10.332  17.949  1.00  0.00     0.282 C 
ATOM      9  C   UNL     1      16.619   8.902  16.734  1.00  0.00     0.041 C 
ATOM     10  C   UNL     1      15.355   9.760  16.686  1.00  0.00     0.150 C 
ATOM     11  C   UNL     1      15.708  11.239  16.387  1.00  0.00     0.174 C 
ATOM     12  O   UNL     1      14.690   9.640  17.939  1.00  0.00    -0.344 OA
ATOM     13  C   UNL     1      14.438  12.111  16.445  1.00  0.00     0.179 C 
ATOM     14  C   UNL     1      13.681  11.851  17.761  1.00  0.00     0.202 C 
BRANCH  11  15
ATOM     15  O   UNL     1      16.333  11.368  15.129  1.00  0.00    -0.388 OA
ATOM     16  H   UNL     1      16.331  10.471  14.697  1.00  0.00     0.211 HD
ENDBRANCH  11  15
BRANCH  13  17
ATOM     17  O   UNL     1      14.767  13.472  16.299  1.00  0.00    -0.387 OA
ATOM     18  H   UNL     1      14.026  14.009  16.676  1.00  0.00     0.211 HD
ENDBRANCH  13  17
BRANCH  14  19
ATOM     19  O   UNL     1      12.464  12.550  17.742  1.00  0.00    -0.385 OA
ATOM     20  H   UNL     1      11.748  11.878  17.904  1.00  0.00     0.211 HD
ENDBRANCH  14  19
ENDBRANCH   7   8
ENDBRANCH   1   7
BRANCH   2  21
ATOM     21  O   UNL     1       9.914   8.415  18.961  1.00  0.00    -0.387 OA
ATOM     22  H   UNL     1       9.557   7.489  18.931  1.00  0.00     0.211 HD
ENDBRANCH   2  21
BRANCH   6  23
ATOM     23  O   UNL     1       8.980   9.611  16.516  1.00  0.00    -0.462 OA
BRANCH  23  24
ATOM     24  C   UNL     1       7.905   9.654  15.615  1.00  0.00     0.130 A 
ATOM     25  C   UNL     1       6.714   8.939  15.821  1.00  0.00     0.093 A 
ATOM     26  C   UNL     1       8.039  10.444  14.471  1.00  0.00     0.094 A 
ATOM     27  C   UNL     1       5.654   9.039  14.908  1.00  0.00     0.133 A 
ATOM     28  C   UNL     1       7.005  10.519  13.533  1.00  0.00     0.138 A 
ATOM     29  C   UNL     1       5.798   9.836  13.753  1.00  0.00     0.102 A 
ATOM     30  O   UNL     1       7.199  11.262  12.365  1.00  0.00    -0.484 OA
ATOM     31  C   UNL     1       4.741   9.952  12.723  1.00  0.00     0.174 C 
ATOM     32  C   UNL     1       6.131  11.631  11.489  1.00  0.00     0.211 C 
ATOM     33  O   UNL     1       3.568   9.552  12.946  1.00  0.00    -0.294 OA
ATOM     34  C   UNL     1       5.086  10.506  11.374  1.00  0.00     0.131 C 
BRANCH  27  35
ATOM     35  O   UNL     1       4.473   8.327  15.139  1.00  0.00    -0.507 OA
ATOM     36  H   UNL     1       4.059   7.735  14.428  1.00  0.00     0.293 HD
ENDBRANCH  27  35
BRANCH  32  37
ATOM     37  C   UNL     1       6.689  11.960  10.124  1.00  0.00    -0.007 A 
ATOM     38  C   UNL     1       6.069  12.929   9.318  1.00  0.00     0.011 A 
ATOM     39  C   UNL     1       7.783  11.238   9.610  1.00  0.00     0.011 A 
ATOM     40  C   UNL     1       6.557  13.197   8.035  1.00  0.00     0.046 A 
ATOM     41  C   UNL     1       8.267  11.505   8.327  1.00  0.00     0.046 A 
ATOM     42  C   UNL     1       7.652  12.482   7.533  1.00  0.00     0.115 A 
BRANCH  42  43
ATOM     43  O   UNL     1       8.116  12.749   6.246  1.00  0.00    -0.508 OA
ATOM     44  H   UNL     1       8.045  12.061   5.502  1.00  0.00     0.293 HD
ENDBRANCH  42  43
ENDBRANCH  32  37
ENDBRANCH  23  24
ENDBRANCH   6  23
BRANCH   3  45
ATOM     45  O   UNL     1      12.642   6.988  17.049  1.00  0.00    -0.387 OA
ATOM     46  H   UNL     1      13.223   7.019  17.858  1.00  0.00     0.211 HD
ENDBRANCH   3  45
BRANCH   4  47
ATOM     47  C   UNL     1      10.475   5.875  15.406  1.00  0.00     0.191 C 
BRANCH  47  48
ATOM     48  O   UNL     1       9.525   5.892  14.378  1.00  0.00    -0.394 OA
ATOM     49  H   UNL     1       9.345   6.851  14.187  1.00  0.00     0.210 HD
ENDBRANCH  47  48
ENDBRANCH   4  47
TORSDOF 14
ENDMDL
