MODEL 1
REMARK VINA RESULT:     0.527      0.000      0.000
REMARK INTER + INTRA:           0.514
REMARK INTER:                   0.619
REMARK INTRA:                  -0.106
REMARK UNBOUND:                -0.106
REMARK SMILES O=c1c(O)c(-c2ccc(O)cc2)oc2cc(O)cc(O)c12
REMARK SMILES IDX 5 1 3 2 2 3 1 4 21 5 19 6 18 7 16 8 15 9 14 10 13 11 6 12
REMARK SMILES IDX 7 13 8 14 9 15 12 16 11 17 10 18 4 20 20 22 17 24
REMARK H PARENT 10 19 4 21 20 23 17 25
REMARK Flexibility Score: inf
ROOT
ATOM      1  C   UNL     1      19.267  -1.575  13.028  1.00  0.00     0.180 A 
ATOM      2  C   UNL     1      18.634  -2.776  12.651  1.00  0.00     0.208 A 
ATOM      3  C   UNL     1      18.752  -3.897  13.489  1.00  0.00     0.238 A 
ATOM      4  O   UNL     1      18.199  -4.981  13.157  1.00  0.00    -0.285 OA
ATOM      5  C   UNL     1      19.480  -3.794  14.692  1.00  0.00     0.111 A 
ATOM      6  C   UNL     1      19.644  -4.873  15.593  1.00  0.00     0.134 A 
ATOM      7  C   UNL     1      20.375  -4.688  16.775  1.00  0.00     0.093 A 
ATOM      8  C   UNL     1      20.944  -3.445  17.074  1.00  0.00     0.123 A 
ATOM      9  C   UNL     1      20.786  -2.378  16.189  1.00  0.00     0.094 A 
ATOM     10  C   UNL     1      20.062  -2.542  15.004  1.00  0.00     0.146 A 
ATOM     11  O   UNL     1      19.932  -1.511  14.177  1.00  0.00    -0.452 OA
ENDROOT
BRANCH   1  12
ATOM     12  C   UNL     1      19.205  -0.357  12.189  1.00  0.00     0.021 A 
ATOM     13  C   UNL     1      18.700   0.834  12.737  1.00  0.00     0.016 A 
ATOM     14  C   UNL     1      18.651   2.002  11.970  1.00  0.00     0.047 A 
ATOM     15  C   UNL     1      19.123   1.998  10.652  1.00  0.00     0.115 A 
ATOM     16  C   UNL     1      19.694  -0.348  10.870  1.00  0.00     0.016 A 
ATOM     17  C   UNL     1      19.647   0.822  10.107  1.00  0.00     0.047 A 
BRANCH  15  18
ATOM     18  O   UNL     1      19.081   3.156   9.877  1.00  0.00    -0.508 OA
ATOM     19  H   UNL     1      18.947   4.068  10.297  1.00  0.00     0.293 HD
ENDBRANCH  15  18
ENDBRANCH   1  12
BRANCH   2  20
ATOM     20  O   UNL     1      17.878  -2.839  11.478  1.00  0.00    -0.502 OA
ATOM     21  H   UNL     1      18.024  -3.554  10.776  1.00  0.00     0.293 HD
ENDBRANCH   2  20
BRANCH   6  22
ATOM     22  O   UNL     1      19.087  -6.125  15.324  1.00  0.00    -0.507 OA
ATOM     23  H   UNL     1      18.331  -6.239  14.658  1.00  0.00     0.293 HD
ENDBRANCH   6  22
BRANCH   8  24
ATOM     24  O   UNL     1      21.670  -3.260  18.249  1.00  0.00    -0.508 OA
ATOM     25  H   UNL     1      22.049  -4.046  18.767  1.00  0.00     0.293 HD
ENDBRANCH   8  24
TORSDOF 5
ENDMDL
MODEL 2
REMARK VINA RESULT:     1.251      5.261     10.243
REMARK INTER + INTRA:           1.365
REMARK INTER:                   1.538
REMARK INTRA:                  -0.173
REMARK UNBOUND:                -0.106
REMARK SMILES O=c1c(O)c(-c2ccc(O)cc2)oc2cc(O)cc(O)c12
REMARK SMILES IDX 5 1 3 2 2 3 1 4 21 5 19 6 18 7 16 8 15 9 14 10 13 11 6 12
REMARK SMILES IDX 7 13 8 14 9 15 12 16 11 17 10 18 4 20 20 22 17 24
REMARK H PARENT 10 19 4 21 20 23 17 25
REMARK Flexibility Score: inf
ROOT
ATOM      1  C   UNL     1      20.017   5.302  11.047  1.00  0.00     0.180 A 
ATOM      2  C   UNL     1      19.247   6.447  11.333  1.00  0.00     0.208 A 
ATOM      3  C   UNL     1      19.870   7.705  11.316  1.00  0.00     0.238 A 
ATOM      4  O   UNL     1      19.194   8.736  11.581  1.00  0.00    -0.285 OA
ATOM      5  C   UNL     1      21.240   7.800  10.994  1.00  0.00     0.111 A 
ATOM      6  C   UNL     1      21.942   9.028  10.952  1.00  0.00     0.134 A 
ATOM      7  C   UNL     1      23.303   9.041  10.614  1.00  0.00     0.093 A 
ATOM      8  C   UNL     1      23.975   7.849  10.319  1.00  0.00     0.123 A 
ATOM      9  C   UNL     1      23.287   6.635  10.361  1.00  0.00     0.094 A 
ATOM     10  C   UNL     1      21.931   6.602  10.696  1.00  0.00     0.146 A 
ATOM     11  O   UNL     1      21.303   5.431  10.734  1.00  0.00    -0.452 OA
ENDROOT
BRANCH   1  12
ATOM     12  C   UNL     1      19.437   3.940  11.064  1.00  0.00     0.021 A 
ATOM     13  C   UNL     1      19.404   3.187   9.878  1.00  0.00     0.016 A 
ATOM     14  C   UNL     1      18.881   1.891   9.875  1.00  0.00     0.047 A 
ATOM     15  C   UNL     1      18.400   1.324  11.062  1.00  0.00     0.115 A 
ATOM     16  C   UNL     1      18.969   3.356  12.256  1.00  0.00     0.016 A 
ATOM     17  C   UNL     1      18.449   2.059  12.251  1.00  0.00     0.047 A 
BRANCH  15  18
ATOM     18  O   UNL     1      17.877   0.033  11.073  1.00  0.00    -0.508 OA
ATOM     19  H   UNL     1      18.196  -0.661  11.739  1.00  0.00     0.293 HD
ENDBRANCH  15  18
ENDBRANCH   1  12
BRANCH   2  20
ATOM     20  O   UNL     1      17.881   6.330  11.600  1.00  0.00    -0.502 OA
ATOM     21  H   UNL     1      17.172   6.629  10.941  1.00  0.00     0.293 HD
ENDBRANCH   2  20
BRANCH   6  22
ATOM     22  O   UNL     1      21.299  10.234  11.239  1.00  0.00    -0.507 OA
ATOM     23  H   UNL     1      21.711  10.923  11.858  1.00  0.00     0.293 HD
ENDBRANCH   6  22
BRANCH   8  24
ATOM     24  O   UNL     1      25.327   7.861   9.983  1.00  0.00    -0.508 OA
ATOM     25  H   UNL     1      25.821   8.728   9.803  1.00  0.00     0.293 HD
ENDBRANCH   8  24
TORSDOF 5
ENDMDL
MODEL 3
REMARK VINA RESULT:     1.932      1.762      3.018
REMARK INTER + INTRA:           2.166
REMARK INTER:                   1.612
REMARK INTRA:                   0.553
REMARK UNBOUND:                -0.106
REMARK SMILES O=c1c(O)c(-c2ccc(O)cc2)oc2cc(O)cc(O)c12
REMARK SMILES IDX 5 1 3 2 2 3 1 4 21 5 19 6 18 7 16 8 15 9 14 10 13 11 6 12
REMARK SMILES IDX 7 13 8 14 9 15 12 16 11 17 10 18 4 20 20 22 17 24
REMARK H PARENT 10 19 4 21 20 23 17 25
REMARK Flexibility Score: inf
ROOT
ATOM      1  C   UNL     1      18.922   0.396  12.065  1.00  0.00     0.180 A 
ATOM      2  C   UNL     1      18.413  -0.393  11.015  1.00  0.00     0.208 A 
ATOM      3  C   UNL     1      18.428  -1.790  11.148  1.00  0.00     0.238 A 
ATOM      4  O   UNL     1      17.986  -2.508  10.209  1.00  0.00    -0.285 OA
ATOM      5  C   UNL     1      18.930  -2.373  12.329  1.00  0.00     0.111 A 
ATOM      6  C   UNL     1      18.978  -3.771  12.544  1.00  0.00     0.134 A 
ATOM      7  C   UNL     1      19.484  -4.273  13.752  1.00  0.00     0.093 A 
ATOM      8  C   UNL     1      19.943  -3.404  14.748  1.00  0.00     0.123 A 
ATOM      9  C   UNL     1      19.898  -2.024  14.541  1.00  0.00     0.094 A 
ATOM     10  C   UNL     1      19.399  -1.504  13.344  1.00  0.00     0.146 A 
ATOM     11  O   UNL     1      19.373  -0.187  13.171  1.00  0.00    -0.452 OA
ENDROOT
BRANCH   1  12
ATOM     12  C   UNL     1      18.957   1.874  11.993  1.00  0.00     0.021 A 
ATOM     13  C   UNL     1      18.630   2.515  10.786  1.00  0.00     0.016 A 
ATOM     14  C   UNL     1      18.636   3.910  10.700  1.00  0.00     0.047 A 
ATOM     15  C   UNL     1      18.952   4.683  11.824  1.00  0.00     0.115 A 
ATOM     16  C   UNL     1      19.255   2.658  13.123  1.00  0.00     0.016 A 
ATOM     17  C   UNL     1      19.258   4.053  13.034  1.00  0.00     0.047 A 
BRANCH  15  18
ATOM     18  O   UNL     1      18.961   6.075  11.752  1.00  0.00    -0.508 OA
ATOM     19  H   UNL     1      18.495   6.643  12.450  1.00  0.00     0.293 HD
ENDBRANCH  15  18
ENDBRANCH   1  12
BRANCH   2  20
ATOM     20  O   UNL     1      17.875   0.210   9.875  1.00  0.00    -0.502 OA
ATOM     21  H   UNL     1      17.678  -0.310   9.028  1.00  0.00     0.293 HD
ENDBRANCH   2  20
BRANCH   6  22
ATOM     22  O   UNL     1      18.527  -4.663  11.570  1.00  0.00    -0.507 OA
ATOM     23  H   UNL     1      18.960  -4.717  10.655  1.00  0.00     0.293 HD
ENDBRANCH   6  22
BRANCH   8  24
ATOM     24  O   UNL     1      20.445  -3.901  15.949  1.00  0.00    -0.508 OA
ATOM     25  H   UNL     1      20.052  -4.729  16.385  1.00  0.00     0.293 HD
ENDBRANCH   8  24
TORSDOF 5
ENDMDL
