MODEL 1
REMARK VINA RESULT:    -5.418      0.000      0.000
REMARK INTER + INTRA:          -8.374
REMARK INTER:                  -7.319
REMARK INTRA:                  -1.055
REMARK UNBOUND:                -1.055
REMARK SMILES CC(=O)CCC=C(C)CCC=C(C)C
REMARK SMILES IDX 7 1 6 2 8 3 9 4 10 5 11 6 13 7 12 8 14 9 5 10 4 11 2 12 3 13
REMARK SMILES IDX 1 14
REMARK H PARENT
REMARK Flexibility Score: inf
ROOT
ATOM      1  C   UNL     1     -12.725 -17.489  27.327  1.00  0.00    -0.077 C 
ATOM      2  C   UNL     1     -13.451 -18.342  28.085  1.00  0.00    -0.028 C 
ATOM      3  C   UNL     1     -11.339 -17.839  26.836  1.00  0.00     0.039 C 
ENDROOT
BRANCH   1   4
ATOM      4  C   UNL     1     -13.318 -16.143  26.967  1.00  0.00     0.034 C 
BRANCH   4   5
ATOM      5  C   UNL     1     -13.316 -15.205  28.179  1.00  0.00     0.032 C 
BRANCH   5   6
ATOM      6  C   UNL     1     -12.044 -15.360  28.973  1.00  0.00    -0.028 C 
ATOM      7  C   UNL     1     -13.233 -16.171  31.023  1.00  0.00     0.039 C 
ATOM      8  C   UNL     1     -11.992 -15.769  30.261  1.00  0.00    -0.080 C 
ATOM      9  C   UNL     1     -10.648 -15.839  30.939  1.00  0.00     0.039 C 
ENDBRANCH   5   6
ENDBRANCH   4   5
ENDBRANCH   1   4
BRANCH   2  10
ATOM     10  C   UNL     1     -13.001 -19.725  28.483  1.00  0.00     0.035 C 
BRANCH  10  11
ATOM     11  C   UNL     1     -13.422 -20.040  29.923  1.00  0.00     0.079 C 
BRANCH  11  12
ATOM     12  C   UNL     1     -12.227 -20.035  30.840  1.00  0.00     0.130 C 
ATOM     13  O   UNL     1     -12.323 -20.533  31.952  1.00  0.00    -0.300 OA
ATOM     14  C   UNL     1     -10.923 -19.424  30.423  1.00  0.00     0.087 C 
ENDBRANCH  11  12
ENDBRANCH  10  11
ENDBRANCH   2  10
TORSDOF 6
ENDMDL
MODEL 2
REMARK VINA RESULT:    -5.302      1.466      2.203
REMARK INTER + INTRA:          -8.217
REMARK INTER:                  -7.646
REMARK INTRA:                  -0.571
REMARK UNBOUND:                -1.055
REMARK SMILES CC(=O)CCC=C(C)CCC=C(C)C
REMARK SMILES IDX 7 1 6 2 8 3 9 4 10 5 11 6 13 7 12 8 14 9 5 10 4 11 2 12 3 13
REMARK SMILES IDX 1 14
REMARK H PARENT
REMARK Flexibility Score: inf
ROOT
ATOM      1  C   UNL     1     -12.620 -17.357  27.434  1.00  0.00    -0.077 C 
ATOM      2  C   UNL     1     -13.253 -18.205  28.277  1.00  0.00    -0.028 C 
ATOM      3  C   UNL     1     -11.321 -17.728  26.757  1.00  0.00     0.039 C 
ENDROOT
BRANCH   1   4
ATOM      4  C   UNL     1     -13.230 -15.997  27.168  1.00  0.00     0.034 C 
BRANCH   4   5
ATOM      5  C   UNL     1     -13.101 -15.092  28.397  1.00  0.00     0.032 C 
BRANCH   5   6
ATOM      6  C   UNL     1     -14.150 -14.010  28.378  1.00  0.00    -0.028 C 
ATOM      7  C   UNL     1     -14.665 -14.243  30.817  1.00  0.00     0.039 C 
ATOM      8  C   UNL     1     -14.880 -13.634  29.451  1.00  0.00    -0.080 C 
ATOM      9  C   UNL     1     -15.922 -12.560  29.272  1.00  0.00     0.039 C 
ENDBRANCH   5   6
ENDBRANCH   4   5
ENDBRANCH   1   4
BRANCH   2  10
ATOM     10  C   UNL     1     -12.781 -19.599  28.601  1.00  0.00     0.035 C 
BRANCH  10  11
ATOM     11  C   UNL     1     -13.251 -20.022  29.996  1.00  0.00     0.079 C 
BRANCH  11  12
ATOM     12  C   UNL     1     -12.119 -19.944  30.987  1.00  0.00     0.130 C 
ATOM     13  O   UNL     1     -12.282 -20.371  32.120  1.00  0.00    -0.300 OA
ATOM     14  C   UNL     1     -10.795 -19.344  30.616  1.00  0.00     0.087 C 
ENDBRANCH  11  12
ENDBRANCH  10  11
ENDBRANCH   2  10
TORSDOF 6
ENDMDL
MODEL 3
REMARK VINA RESULT:    -5.228      0.742      1.301
REMARK INTER + INTRA:          -8.118
REMARK INTER:                  -6.995
REMARK INTRA:                  -1.123
REMARK UNBOUND:                -1.055
REMARK SMILES CC(=O)CCC=C(C)CCC=C(C)C
REMARK SMILES IDX 7 1 6 2 8 3 9 4 10 5 11 6 13 7 12 8 14 9 5 10 4 11 2 12 3 13
REMARK SMILES IDX 1 14
REMARK H PARENT
REMARK Flexibility Score: inf
ROOT
ATOM      1  C   UNL     1     -12.755 -17.423  27.584  1.00  0.00    -0.077 C 
ATOM      2  C   UNL     1     -13.418 -18.358  28.303  1.00  0.00    -0.028 C 
ATOM      3  C   UNL     1     -11.375 -17.679  27.025  1.00  0.00     0.039 C 
ENDROOT
BRANCH   1   4
ATOM      4  C   UNL     1     -13.414 -16.082  27.342  1.00  0.00     0.034 C 
BRANCH   4   5
ATOM      5  C   UNL     1     -12.841 -15.016  28.281  1.00  0.00     0.032 C 
BRANCH   5   6
ATOM      6  C   UNL     1     -13.727 -14.832  29.486  1.00  0.00    -0.028 C 
ATOM      7  C   UNL     1     -12.152 -16.026  31.025  1.00  0.00     0.039 C 
ATOM      8  C   UNL     1     -13.443 -15.303  30.721  1.00  0.00    -0.080 C 
ATOM      9  C   UNL     1     -14.444 -15.075  31.825  1.00  0.00     0.039 C 
ENDBRANCH   5   6
ENDBRANCH   4   5
ENDBRANCH   1   4
BRANCH   2  10
ATOM     10  C   UNL     1     -12.900 -19.745  28.587  1.00  0.00     0.035 C 
BRANCH  10  11
ATOM     11  C   UNL     1     -13.289 -20.193  29.999  1.00  0.00     0.079 C 
BRANCH  11  12
ATOM     12  C   UNL     1     -12.143 -19.994  30.956  1.00  0.00     0.130 C 
ATOM     13  O   UNL     1     -12.285 -20.293  32.132  1.00  0.00    -0.300 OA
ATOM     14  C   UNL     1     -10.832 -19.427  30.500  1.00  0.00     0.087 C 
ENDBRANCH  11  12
ENDBRANCH  10  11
ENDBRANCH   2  10
TORSDOF 6
ENDMDL
MODEL 4
REMARK VINA RESULT:    -5.144      2.817      4.982
REMARK INTER + INTRA:          -8.004
REMARK INTER:                  -7.111
REMARK INTRA:                  -0.893
REMARK UNBOUND:                -1.055
REMARK SMILES CC(=O)CCC=C(C)CCC=C(C)C
REMARK SMILES IDX 7 1 6 2 8 3 9 4 10 5 11 6 13 7 12 8 14 9 5 10 4 11 2 12 3 13
REMARK SMILES IDX 1 14
REMARK H PARENT
REMARK Flexibility Score: inf
ROOT
ATOM      1  C   UNL     1     -12.014 -16.860  28.117  1.00  0.00    -0.077 C 
ATOM      2  C   UNL     1     -13.071 -16.016  28.084  1.00  0.00    -0.028 C 
ATOM      3  C   UNL     1     -10.678 -16.443  28.689  1.00  0.00     0.039 C 
ENDROOT
BRANCH   1   4
ATOM      4  C   UNL     1     -12.174 -18.258  27.558  1.00  0.00     0.034 C 
BRANCH   4   5
ATOM      5  C   UNL     1     -13.392 -18.955  28.174  1.00  0.00     0.032 C 
BRANCH   5   6
ATOM      6  C   UNL     1     -12.965 -19.955  29.218  1.00  0.00    -0.028 C 
ATOM      7  C   UNL     1     -13.176 -18.319  31.103  1.00  0.00     0.039 C 
ATOM      8  C   UNL     1     -12.838 -19.678  30.535  1.00  0.00    -0.080 C 
ATOM      9  C   UNL     1     -12.363 -20.772  31.457  1.00  0.00     0.039 C 
ENDBRANCH   5   6
ENDBRANCH   4   5
ENDBRANCH   1   4
BRANCH   2  10
ATOM     10  C   UNL     1     -13.064 -14.615  28.640  1.00  0.00     0.035 C 
BRANCH  10  11
ATOM     11  C   UNL     1     -14.344 -13.869  28.250  1.00  0.00     0.079 C 
BRANCH  11  12
ATOM     12  C   UNL     1     -15.176 -13.567  29.469  1.00  0.00     0.130 C 
ATOM     13  O   UNL     1     -16.178 -12.876  29.356  1.00  0.00    -0.300 OA
ATOM     14  C   UNL     1     -14.797 -14.087  30.824  1.00  0.00     0.087 C 
ENDBRANCH  11  12
ENDBRANCH  10  11
ENDBRANCH   2  10
TORSDOF 6
ENDMDL
MODEL 5
REMARK VINA RESULT:    -4.924      2.314      4.539
REMARK INTER + INTRA:          -7.706
REMARK INTER:                  -7.252
REMARK INTRA:                  -0.454
REMARK UNBOUND:                -1.055
REMARK SMILES CC(=O)CCC=C(C)CCC=C(C)C
REMARK SMILES IDX 7 1 6 2 8 3 9 4 10 5 11 6 13 7 12 8 14 9 5 10 4 11 2 12 3 13
REMARK SMILES IDX 1 14
REMARK H PARENT
REMARK Flexibility Score: inf
ROOT
ATOM      1  C   UNL     1     -11.701 -15.978  28.521  1.00  0.00    -0.077 C 
ATOM      2  C   UNL     1     -12.989 -15.594  28.675  1.00  0.00    -0.028 C 
ATOM      3  C   UNL     1     -10.612 -15.516  29.462  1.00  0.00     0.039 C 
ENDROOT
BRANCH   1   4
ATOM      4  C   UNL     1     -11.342 -16.889  27.367  1.00  0.00     0.034 C 
BRANCH   4   5
ATOM      5  C   UNL     1     -12.078 -18.228  27.481  1.00  0.00     0.032 C 
BRANCH   5   6
ATOM      6  C   UNL     1     -12.089 -18.714  28.908  1.00  0.00    -0.028 C 
ATOM      7  C   UNL     1     -14.009 -20.277  28.531  1.00  0.00     0.039 C 
ATOM      8  C   UNL     1     -12.967 -19.615  29.401  1.00  0.00    -0.080 C 
ATOM      9  C   UNL     1     -12.880 -19.978  30.862  1.00  0.00     0.039 C 
ENDBRANCH   5   6
ENDBRANCH   4   5
ENDBRANCH   1   4
BRANCH   2  10
ATOM     10  C   UNL     1     -13.492 -14.723  29.799  1.00  0.00     0.035 C 
BRANCH  10  11
ATOM     11  C   UNL     1     -13.612 -15.528  31.097  1.00  0.00     0.079 C 
BRANCH  11  12
ATOM     12  C   UNL     1     -14.503 -14.818  32.083  1.00  0.00     0.130 C 
ATOM     13  O   UNL     1     -15.634 -14.498  31.750  1.00  0.00    -0.300 OA
ATOM     14  C   UNL     1     -14.029 -14.485  33.467  1.00  0.00     0.087 C 
ENDBRANCH  11  12
ENDBRANCH  10  11
ENDBRANCH   2  10
TORSDOF 6
ENDMDL
MODEL 6
REMARK VINA RESULT:    -4.914      2.293      4.792
REMARK INTER + INTRA:          -7.693
REMARK INTER:                  -6.816
REMARK INTRA:                  -0.877
REMARK UNBOUND:                -1.055
REMARK SMILES CC(=O)CCC=C(C)CCC=C(C)C
REMARK SMILES IDX 7 1 6 2 8 3 9 4 10 5 11 6 13 7 12 8 14 9 5 10 4 11 2 12 3 13
REMARK SMILES IDX 1 14
REMARK H PARENT
REMARK Flexibility Score: inf
ROOT
ATOM      1  C   UNL     1     -12.421 -18.030  30.489  1.00  0.00    -0.077 C 
ATOM      2  C   UNL     1     -13.251 -16.962  30.492  1.00  0.00    -0.028 C 
ATOM      3  C   UNL     1     -11.013 -17.948  31.032  1.00  0.00     0.039 C 
ENDROOT
BRANCH   1   4
ATOM      4  C   UNL     1     -12.917 -19.341  29.917  1.00  0.00     0.034 C 
BRANCH   4   5
ATOM      5  C   UNL     1     -13.375 -19.164  28.466  1.00  0.00     0.032 C 
BRANCH   5   6
ATOM      6  C   UNL     1     -12.236 -18.690  27.599  1.00  0.00    -0.028 C 
ATOM      7  C   UNL     1     -13.492 -16.691  26.764  1.00  0.00     0.039 C 
ATOM      8  C   UNL     1     -12.282 -17.595  26.809  1.00  0.00    -0.080 C 
ATOM      9  C   UNL     1     -11.077 -17.264  25.966  1.00  0.00     0.039 C 
ENDBRANCH   5   6
ENDBRANCH   4   5
ENDBRANCH   1   4
BRANCH   2  10
ATOM     10  C   UNL     1     -12.904 -15.611  31.065  1.00  0.00     0.035 C 
BRANCH  10  11
ATOM     11  C   UNL     1     -14.157 -14.741  31.204  1.00  0.00     0.079 C 
BRANCH  11  12
ATOM     12  C   UNL     1     -14.709 -14.822  32.604  1.00  0.00     0.130 C 
ATOM     13  O   UNL     1     -15.783 -15.371  32.795  1.00  0.00    -0.300 OA
ATOM     14  C   UNL     1     -13.972 -14.234  33.770  1.00  0.00     0.087 C 
ENDBRANCH  11  12
ENDBRANCH  10  11
ENDBRANCH   2  10
TORSDOF 6
ENDMDL
MODEL 7
REMARK VINA RESULT:    -4.903      1.727      4.517
REMARK INTER + INTRA:          -7.678
REMARK INTER:                  -6.985
REMARK INTRA:                  -0.693
REMARK UNBOUND:                -1.055
REMARK SMILES CC(=O)CCC=C(C)CCC=C(C)C
REMARK SMILES IDX 7 1 6 2 8 3 9 4 10 5 11 6 13 7 12 8 14 9 5 10 4 11 2 12 3 13
REMARK SMILES IDX 1 14
REMARK H PARENT
REMARK Flexibility Score: inf
ROOT
ATOM      1  C   UNL     1     -11.244 -16.099  30.025  1.00  0.00    -0.077 C 
ATOM      2  C   UNL     1     -12.513 -15.902  29.599  1.00  0.00    -0.028 C 
ATOM      3  C   UNL     1     -10.066 -15.422  29.363  1.00  0.00     0.039 C 
ENDROOT
BRANCH   1   4
ATOM      4  C   UNL     1     -11.000 -17.029  31.194  1.00  0.00     0.034 C 
BRANCH   4   5
ATOM      5  C   UNL     1     -10.364 -18.341  30.723  1.00  0.00     0.032 C 
BRANCH   5   6
ATOM      6  C   UNL     1     -11.315 -19.112  29.843  1.00  0.00    -0.028 C 
ATOM      7  C   UNL     1     -12.624 -20.015  31.778  1.00  0.00     0.039 C 
ATOM      8  C   UNL     1     -12.320 -19.889  30.303  1.00  0.00    -0.080 C 
ATOM      9  C   UNL     1     -13.169 -20.632  29.304  1.00  0.00     0.039 C 
ENDBRANCH   5   6
ENDBRANCH   4   5
ENDBRANCH   1   4
BRANCH   2  10
ATOM     10  C   UNL     1     -12.903 -14.975  28.476  1.00  0.00     0.035 C 
BRANCH  10  11
ATOM     11  C   UNL     1     -13.716 -15.721  27.414  1.00  0.00     0.079 C 
BRANCH  11  12
ATOM     12  C   UNL     1     -13.080 -17.047  27.089  1.00  0.00     0.130 C 
ATOM     13  O   UNL     1     -13.627 -18.079  27.445  1.00  0.00    -0.300 OA
ATOM     14  C   UNL     1     -11.780 -17.129  26.345  1.00  0.00     0.087 C 
ENDBRANCH  11  12
ENDBRANCH  10  11
ENDBRANCH   2  10
TORSDOF 6
ENDMDL
MODEL 8
REMARK VINA RESULT:    -4.820      1.726      4.462
REMARK INTER + INTRA:          -7.566
REMARK INTER:                  -6.621
REMARK INTRA:                  -0.945
REMARK UNBOUND:                -1.055
REMARK SMILES CC(=O)CCC=C(C)CCC=C(C)C
REMARK SMILES IDX 7 1 6 2 8 3 9 4 10 5 11 6 13 7 12 8 14 9 5 10 4 11 2 12 3 13
REMARK SMILES IDX 1 14
REMARK H PARENT
REMARK Flexibility Score: inf
ROOT
ATOM      1  C   UNL     1     -12.216 -19.627  30.604  1.00  0.00    -0.077 C 
ATOM      2  C   UNL     1     -11.222 -18.833  30.143  1.00  0.00    -0.028 C 
ATOM      3  C   UNL     1     -12.242 -20.127  32.030  1.00  0.00     0.039 C 
ENDROOT
BRANCH   1   4
ATOM      4  C   UNL     1     -13.328 -20.032  29.659  1.00  0.00     0.034 C 
BRANCH   4   5
ATOM      5  C   UNL     1     -12.977 -19.660  28.214  1.00  0.00     0.032 C 
BRANCH   5   6
ATOM      6  C   UNL     1     -13.570 -18.323  27.847  1.00  0.00    -0.028 C 
ATOM      7  C   UNL     1     -11.511 -17.562  26.641  1.00  0.00     0.039 C 
ATOM      8  C   UNL     1     -12.915 -17.360  27.162  1.00  0.00    -0.080 C 
ATOM      9  C   UNL     1     -13.624 -16.056  26.900  1.00  0.00     0.039 C 
ENDBRANCH   5   6
ENDBRANCH   4   5
ENDBRANCH   1   4
BRANCH   2  10
ATOM     10  C   UNL     1     -10.078 -18.323  30.982  1.00  0.00     0.035 C 
BRANCH  10  11
ATOM     11  C   UNL     1     -10.366 -16.907  31.490  1.00  0.00     0.079 C 
BRANCH  11  12
ATOM     12  C   UNL     1     -11.120 -16.112  30.456  1.00  0.00     0.130 C 
ATOM     13  O   UNL     1     -10.520 -15.650  29.498  1.00  0.00    -0.300 OA
ATOM     14  C   UNL     1     -12.594 -15.866  30.582  1.00  0.00     0.087 C 
ENDBRANCH  11  12
ENDBRANCH  10  11
ENDBRANCH   2  10
TORSDOF 6
ENDMDL
MODEL 9
REMARK VINA RESULT:    -4.731      1.501      3.146
REMARK INTER + INTRA:          -7.445
REMARK INTER:                  -6.706
REMARK INTRA:                  -0.740
REMARK UNBOUND:                -1.055
REMARK SMILES CC(=O)CCC=C(C)CCC=C(C)C
REMARK SMILES IDX 7 1 6 2 8 3 9 4 10 5 11 6 13 7 12 8 14 9 5 10 4 11 2 12 3 13
REMARK SMILES IDX 1 14
REMARK H PARENT
REMARK Flexibility Score: inf
ROOT
ATOM      1  C   UNL     1     -11.061 -16.341  30.081  1.00  0.00    -0.077 C 
ATOM      2  C   UNL     1     -10.896 -17.653  29.792  1.00  0.00    -0.028 C 
ATOM      3  C   UNL     1     -10.855 -15.800  31.477  1.00  0.00     0.039 C 
ENDROOT
BRANCH   1   4
ATOM      4  C   UNL     1     -11.470 -15.393  28.974  1.00  0.00     0.034 C 
BRANCH   4   5
ATOM      5  C   UNL     1     -12.850 -15.765  28.421  1.00  0.00     0.032 C 
BRANCH   5   6
ATOM      6  C   UNL     1     -13.716 -14.539  28.277  1.00  0.00    -0.028 C 
ATOM      7  C   UNL     1     -14.407 -14.549  30.685  1.00  0.00     0.039 C 
ATOM      8  C   UNL     1     -14.442 -13.995  29.279  1.00  0.00    -0.080 C 
ATOM      9  C   UNL     1     -15.294 -12.789  28.977  1.00  0.00     0.039 C 
ENDBRANCH   5   6
ENDBRANCH   4   5
ENDBRANCH   1   4
BRANCH   2  10
ATOM     10  C   UNL     1     -10.454 -18.698  30.785  1.00  0.00     0.035 C 
BRANCH  10  11
ATOM     11  C   UNL     1     -11.267 -19.985  30.617  1.00  0.00     0.079 C 
BRANCH  11  12
ATOM     12  C   UNL     1     -12.743 -19.685  30.590  1.00  0.00     0.130 C 
ATOM     13  O   UNL     1     -13.283 -19.239  31.591  1.00  0.00    -0.300 OA
ATOM     14  C   UNL     1     -13.568 -19.930  29.363  1.00  0.00     0.087 C 
ENDBRANCH  11  12
ENDBRANCH  10  11
ENDBRANCH   2  10
TORSDOF 6
ENDMDL
