MODEL 1
REMARK VINA RESULT:    -6.021      0.000      0.000
REMARK INTER + INTRA:         -13.307
REMARK INTER:                 -11.300
REMARK INTRA:                  -2.007
REMARK UNBOUND:                -2.007
REMARK SMILES O=C([O-])CCCCCCCCCCCCCCC(=O)[O-]
REMARK SMILES IDX 10 1 9 2 8 3 7 4 6 5 5 6 4 7 2 8 1 9 3 10 11 11 12 12 13 13
REMARK SMILES IDX 14 14 15 15 16 16 17 17 18 18 19 19 20 20
REMARK H PARENT
REMARK Flexibility Score: inf
ROOT
ATOM      1  C   UNL     1      14.760   0.135  12.673  1.00  0.00     0.000 C 
ENDROOT
BRANCH   1   2
ATOM      2  C   UNL     1      14.207   0.635  14.019  1.00  0.00     0.000 C 
BRANCH   2   3
ATOM      3  C   UNL     1      15.183   1.573  14.751  1.00  0.00     0.000 C 
BRANCH   3   4
ATOM      4  C   UNL     1      14.929   1.722  16.265  1.00  0.00     0.000 C 
BRANCH   4   5
ATOM      5  C   UNL     1      13.447   1.774  16.681  1.00  0.00     0.000 C 
BRANCH   5   6
ATOM      6  C   UNL     1      13.145   1.265  18.104  1.00  0.00     0.006 C 
BRANCH   6   7
ATOM      7  C   UNL     1      13.832  -0.070  18.449  1.00  0.00     0.053 C 
BRANCH   7   8
ATOM      8  C   UNL     1      14.610  -0.006  19.727  1.00  0.00     0.041 C 
ATOM      9  O   UNL     1      14.405   0.924  20.549  1.00  0.00    -0.550 OA
ATOM     10  O   UNL     1      15.591  -0.955  19.993  1.00  0.00    -0.550 OA
ENDBRANCH   7   8
ENDBRANCH   6   7
ENDBRANCH   5   6
ENDBRANCH   4   5
ENDBRANCH   3   4
ENDBRANCH   2   3
ENDBRANCH   1   2
BRANCH   1  11
ATOM     11  C   UNL     1      15.512   1.227  11.896  1.00  0.00     0.000 C 
BRANCH  11  12
ATOM     12  C   UNL     1      16.888   0.753  11.398  1.00  0.00     0.000 C 
BRANCH  12  13
ATOM     13  C   UNL     1      17.141  -0.743  11.668  1.00  0.00     0.000 C 
BRANCH  13  14
ATOM     14  C   UNL     1      18.058  -1.045  12.868  1.00  0.00     0.000 C 
BRANCH  14  15
ATOM     15  C   UNL     1      17.519  -2.097  13.855  1.00  0.00     0.000 C 
BRANCH  15  16
ATOM     16  C   UNL     1      17.363  -1.574  15.302  1.00  0.00     0.006 C 
BRANCH  16  17
ATOM     17  C   UNL     1      15.996  -1.888  15.931  1.00  0.00     0.053 C 
BRANCH  17  18
ATOM     18  C   UNL     1      16.068  -3.048  16.878  1.00  0.00     0.041 C 
ATOM     19  O   UNL     1      15.092  -3.316  17.626  1.00  0.00    -0.550 OA
ATOM     20  O   UNL     1      17.221  -3.820  16.948  1.00  0.00    -0.550 OA
ENDBRANCH  17  18
ENDBRANCH  16  17
ENDBRANCH  15  16
ENDBRANCH  14  15
ENDBRANCH  13  14
ENDBRANCH  12  13
ENDBRANCH  11  12
ENDBRANCH   1  11
TORSDOF 15
ENDMDL
MODEL 2
REMARK VINA RESULT:    -5.984      1.403      5.231
REMARK INTER + INTRA:         -13.239
REMARK INTER:                 -11.539
REMARK INTRA:                  -1.700
REMARK UNBOUND:                -2.007
REMARK SMILES O=C([O-])CCCCCCCCCCCCCCC(=O)[O-]
REMARK SMILES IDX 10 1 9 2 8 3 7 4 6 5 5 6 4 7 2 8 1 9 3 10 11 11 12 12 13 13
REMARK SMILES IDX 14 14 15 15 16 16 17 17 18 18 19 19 20 20
REMARK H PARENT
REMARK Flexibility Score: inf
ROOT
ATOM      1  C   UNL     1      14.441   1.481  14.096  1.00  0.00     0.000 C 
ENDROOT
BRANCH   1   2
ATOM      2  C   UNL     1      15.274   1.783  12.839  1.00  0.00     0.000 C 
BRANCH   2   3
ATOM      3  C   UNL     1      15.443   0.554  11.928  1.00  0.00     0.000 C 
BRANCH   3   4
ATOM      4  C   UNL     1      16.837   0.407  11.285  1.00  0.00     0.000 C 
BRANCH   4   5
ATOM      5  C   UNL     1      17.756  -0.641  11.940  1.00  0.00     0.000 C 
BRANCH   5   6
ATOM      6  C   UNL     1      17.183  -1.325  13.196  1.00  0.00     0.006 C 
BRANCH   6   7
ATOM      7  C   UNL     1      18.196  -1.467  14.348  1.00  0.00     0.053 C 
BRANCH   7   8
ATOM      8  C   UNL     1      17.641  -2.225  15.515  1.00  0.00     0.041 C 
ATOM      9  O   UNL     1      18.415  -2.777  16.340  1.00  0.00    -0.550 OA
ATOM     10  O   UNL     1      16.266  -2.352  15.672  1.00  0.00    -0.550 OA
ENDBRANCH   7   8
ENDBRANCH   6   7
ENDBRANCH   5   6
ENDBRANCH   4   5
ENDBRANCH   3   4
ENDBRANCH   2   3
ENDBRANCH   1   2
BRANCH   1  11
ATOM     11  C   UNL     1      15.293   0.952  15.261  1.00  0.00     0.000 C 
BRANCH  11  12
ATOM     12  C   UNL     1      15.136   1.800  16.535  1.00  0.00     0.000 C 
BRANCH  12  13
ATOM     13  C   UNL     1      13.665   2.012  16.939  1.00  0.00     0.000 C 
BRANCH  13  14
ATOM     14  C   UNL     1      13.247   1.346  18.264  1.00  0.00     0.000 C 
BRANCH  14  15
ATOM     15  C   UNL     1      13.236  -0.194  18.248  1.00  0.00     0.000 C 
BRANCH  15  16
ATOM     16  C   UNL     1      13.767  -0.835  19.551  1.00  0.00     0.006 C 
BRANCH  16  17
ATOM     17  C   UNL     1      15.194  -0.400  19.921  1.00  0.00     0.053 C 
BRANCH  17  18
ATOM     18  C   UNL     1      16.230  -1.196  19.187  1.00  0.00     0.041 C 
ATOM     19  O   UNL     1      17.280  -0.639  18.772  1.00  0.00    -0.550 OA
ATOM     20  O   UNL     1      16.027  -2.549  18.944  1.00  0.00    -0.550 OA
ENDBRANCH  17  18
ENDBRANCH  16  17
ENDBRANCH  15  16
ENDBRANCH  14  15
ENDBRANCH  13  14
ENDBRANCH  12  13
ENDBRANCH  11  12
ENDBRANCH   1  11
TORSDOF 15
ENDMDL
MODEL 3
REMARK VINA RESULT:    -5.933      1.759      3.010
REMARK INTER + INTRA:         -13.142
REMARK INTER:                 -11.701
REMARK INTRA:                  -1.441
REMARK UNBOUND:                -2.007
REMARK SMILES O=C([O-])CCCCCCCCCCCCCCC(=O)[O-]
REMARK SMILES IDX 10 1 9 2 8 3 7 4 6 5 5 6 4 7 2 8 1 9 3 10 11 11 12 12 13 13
REMARK SMILES IDX 14 14 15 15 16 16 17 17 18 18 19 19 20 20
REMARK H PARENT
REMARK Flexibility Score: inf
ROOT
ATOM      1  C   UNL     1      14.437   1.628  15.295  1.00  0.00     0.000 C 
ENDROOT
BRANCH   1   2
ATOM      2  C   UNL     1      13.237   1.385  16.227  1.00  0.00     0.000 C 
BRANCH   2   3
ATOM      3  C   UNL     1      13.084   2.481  17.296  1.00  0.00     0.000 C 
BRANCH   3   4
ATOM      4  C   UNL     1      13.596   2.097  18.700  1.00  0.00     0.000 C 
BRANCH   4   5
ATOM      5  C   UNL     1      13.698   0.584  18.972  1.00  0.00     0.000 C 
BRANCH   5   6
ATOM      6  C   UNL     1      14.765   0.172  20.003  1.00  0.00     0.006 C 
BRANCH   6   7
ATOM      7  C   UNL     1      15.865  -0.744  19.433  1.00  0.00     0.053 C 
BRANCH   7   8
ATOM      8  C   UNL     1      16.117  -0.507  17.975  1.00  0.00     0.041 C 
ATOM      9  O   UNL     1      16.847   0.449  17.604  1.00  0.00    -0.550 OA
ATOM     10  O   UNL     1      15.513  -1.320  17.023  1.00  0.00    -0.550 OA
ENDBRANCH   7   8
ENDBRANCH   6   7
ENDBRANCH   5   6
ENDBRANCH   4   5
ENDBRANCH   3   4
ENDBRANCH   2   3
ENDBRANCH   1   2
BRANCH   1  11
ATOM     11  C   UNL     1      14.358   0.808  13.998  1.00  0.00     0.000 C 
BRANCH  11  12
ATOM     12  C   UNL     1      15.098   1.482  12.831  1.00  0.00     0.000 C 
BRANCH  12  13
ATOM     13  C   UNL     1      15.473   0.497  11.708  1.00  0.00     0.000 C 
BRANCH  13  14
ATOM     14  C   UNL     1      16.939   0.567  11.237  1.00  0.00     0.000 C 
BRANCH  14  15
ATOM     15  C   UNL     1      17.831  -0.599  11.701  1.00  0.00     0.000 C 
BRANCH  15  16
ATOM     16  C   UNL     1      17.172  -1.503  12.770  1.00  0.00     0.006 C 
BRANCH  16  17
ATOM     17  C   UNL     1      17.547  -1.132  14.213  1.00  0.00     0.053 C 
BRANCH  17  18
ATOM     18  C   UNL     1      18.808  -1.810  14.657  1.00  0.00     0.041 C 
ATOM     19  O   UNL     1      19.549  -1.269  15.518  1.00  0.00    -0.550 OA
ATOM     20  O   UNL     1      19.174  -3.031  14.104  1.00  0.00    -0.550 OA
ENDBRANCH  17  18
ENDBRANCH  16  17
ENDBRANCH  15  16
ENDBRANCH  14  15
ENDBRANCH  13  14
ENDBRANCH  12  13
ENDBRANCH  11  12
ENDBRANCH   1  11
TORSDOF 15
ENDMDL
MODEL 4
REMARK VINA RESULT:    -5.923      2.640      6.043
REMARK INTER + INTRA:         -13.125
REMARK INTER:                 -11.583
REMARK INTRA:                  -1.542
REMARK UNBOUND:                -2.007
REMARK SMILES O=C([O-])CCCCCCCCCCCCCCC(=O)[O-]
REMARK SMILES IDX 10 1 9 2 8 3 7 4 6 5 5 6 4 7 2 8 1 9 3 10 11 11 12 12 13 13
REMARK SMILES IDX 14 14 15 15 16 16 17 17 18 18 19 19 20 20
REMARK H PARENT
REMARK Flexibility Score: inf
ROOT
ATOM      1  C   UNL     1      14.168   2.125  17.357  1.00  0.00     0.000 C 
ENDROOT
BRANCH   1   2
ATOM      2  C   UNL     1      12.940   2.015  16.438  1.00  0.00     0.000 C 
BRANCH   2   3
ATOM      3  C   UNL     1      13.255   1.314  15.106  1.00  0.00     0.000 C 
BRANCH   3   4
ATOM      4  C   UNL     1      14.752   1.267  14.733  1.00  0.00     0.000 C 
BRANCH   4   5
ATOM      5  C   UNL     1      15.089   1.739  13.307  1.00  0.00     0.000 C 
BRANCH   5   6
ATOM      6  C   UNL     1      15.252   0.616  12.264  1.00  0.00     0.006 C 
BRANCH   6   7
ATOM      7  C   UNL     1      16.442   0.817  11.307  1.00  0.00     0.053 C 
BRANCH   7   8
ATOM      8  C   UNL     1      17.315  -0.396  11.208  1.00  0.00     0.041 C 
ATOM      9  O   UNL     1      17.789  -0.924  12.248  1.00  0.00    -0.550 OA
ATOM     10  O   UNL     1      17.637  -0.922   9.963  1.00  0.00    -0.550 OA
ENDBRANCH   7   8
ENDBRANCH   6   7
ENDBRANCH   5   6
ENDBRANCH   4   5
ENDBRANCH   3   4
ENDBRANCH   2   3
ENDBRANCH   1   2
BRANCH   1  11
ATOM     11  C   UNL     1      13.951   1.457  18.724  1.00  0.00     0.000 C 
BRANCH  11  12
ATOM     12  C   UNL     1      13.351   0.046  18.599  1.00  0.00     0.000 C 
BRANCH  12  13
ATOM     13  C   UNL     1      14.295  -1.056  19.116  1.00  0.00     0.000 C 
BRANCH  13  14
ATOM     14  C   UNL     1      15.654  -0.559  19.644  1.00  0.00     0.000 C 
BRANCH  14  15
ATOM     15  C   UNL     1      16.884  -1.079  18.877  1.00  0.00     0.000 C 
BRANCH  15  16
ATOM     16  C   UNL     1      17.412  -0.098  17.804  1.00  0.00     0.006 C 
BRANCH  16  17
ATOM     17  C   UNL     1      17.435  -0.685  16.384  1.00  0.00     0.053 C 
BRANCH  17  18
ATOM     18  C   UNL     1      18.637  -1.551  16.155  1.00  0.00     0.041 C 
ATOM     19  O   UNL     1      18.569  -2.793  16.350  1.00  0.00    -0.550 OA
ATOM     20  O   UNL     1      19.838  -0.983  15.746  1.00  0.00    -0.550 OA
ENDBRANCH  17  18
ENDBRANCH  16  17
ENDBRANCH  15  16
ENDBRANCH  14  15
ENDBRANCH  13  14
ENDBRANCH  12  13
ENDBRANCH  11  12
ENDBRANCH   1  11
TORSDOF 15
ENDMDL
MODEL 5
REMARK VINA RESULT:    -5.889      2.619      5.773
REMARK INTER + INTRA:         -13.060
REMARK INTER:                 -11.223
REMARK INTRA:                  -1.837
REMARK UNBOUND:                -2.007
REMARK SMILES O=C([O-])CCCCCCCCCCCCCCC(=O)[O-]
REMARK SMILES IDX 10 1 9 2 8 3 7 4 6 5 5 6 4 7 2 8 1 9 3 10 11 11 12 12 13 13
REMARK SMILES IDX 14 14 15 15 16 16 17 17 18 18 19 19 20 20
REMARK H PARENT
REMARK Flexibility Score: inf
ROOT
ATOM      1  C   UNL     1      13.458   0.625  18.469  1.00  0.00     0.000 C 
ENDROOT
BRANCH   1   2
ATOM      2  C   UNL     1      14.463   0.507  19.626  1.00  0.00     0.000 C 
BRANCH   2   3
ATOM      3  C   UNL     1      15.514  -0.592  19.391  1.00  0.00     0.000 C 
BRANCH   3   4
ATOM      4  C   UNL     1      16.088  -0.647  17.960  1.00  0.00     0.000 C 
BRANCH   4   5
ATOM      5  C   UNL     1      15.823  -1.958  17.195  1.00  0.00     0.000 C 
BRANCH   5   6
ATOM      6  C   UNL     1      16.255  -1.954  15.716  1.00  0.00     0.006 C 
BRANCH   6   7
ATOM      7  C   UNL     1      17.546  -1.160  15.442  1.00  0.00     0.053 C 
BRANCH   7   8
ATOM      8  C   UNL     1      18.742  -2.044  15.265  1.00  0.00     0.041 C 
ATOM      9  O   UNL     1      19.593  -2.153  16.185  1.00  0.00    -0.550 OA
ATOM     10  O   UNL     1      18.936  -2.721  14.067  1.00  0.00    -0.550 OA
ENDBRANCH   7   8
ENDBRANCH   6   7
ENDBRANCH   5   6
ENDBRANCH   4   5
ENDBRANCH   3   4
ENDBRANCH   2   3
ENDBRANCH   1   2
BRANCH   1  11
ATOM     11  C   UNL     1      13.187   2.082  18.062  1.00  0.00     0.000 C 
BRANCH  11  12
ATOM     12  C   UNL     1      12.942   2.234  16.551  1.00  0.00     0.000 C 
BRANCH  12  13
ATOM     13  C   UNL     1      13.597   1.113  15.721  1.00  0.00     0.000 C 
BRANCH  13  14
ATOM     14  C   UNL     1      14.956   1.473  15.091  1.00  0.00     0.000 C 
BRANCH  14  15
ATOM     15  C   UNL     1      14.933   1.695  13.567  1.00  0.00     0.000 C 
BRANCH  15  16
ATOM     16  C   UNL     1      15.187   0.409  12.745  1.00  0.00     0.006 C 
BRANCH  16  17
ATOM     17  C   UNL     1      15.924   0.656  11.419  1.00  0.00     0.053 C 
BRANCH  17  18
ATOM     18  C   UNL     1      17.081  -0.280  11.239  1.00  0.00     0.041 C 
ATOM     19  O   UNL     1      18.022  -0.292  12.075  1.00  0.00    -0.550 OA
ATOM     20  O   UNL     1      17.129  -1.125  10.137  1.00  0.00    -0.550 OA
ENDBRANCH  17  18
ENDBRANCH  16  17
ENDBRANCH  15  16
ENDBRANCH  14  15
ENDBRANCH  13  14
ENDBRANCH  12  13
ENDBRANCH  11  12
ENDBRANCH   1  11
TORSDOF 15
ENDMDL
MODEL 6
REMARK VINA RESULT:    -5.865      2.910      6.345
REMARK INTER + INTRA:         -13.015
REMARK INTER:                 -10.821
REMARK INTRA:                  -2.194
REMARK UNBOUND:                -2.007
REMARK SMILES O=C([O-])CCCCCCCCCCCCCCC(=O)[O-]
REMARK SMILES IDX 10 1 9 2 8 3 7 4 6 5 5 6 4 7 2 8 1 9 3 10 11 11 12 12 13 13
REMARK SMILES IDX 14 14 15 15 16 16 17 17 18 18 19 19 20 20
REMARK H PARENT
REMARK Flexibility Score: inf
ROOT
ATOM      1  C   UNL     1      15.065  -0.232  20.004  1.00  0.00     0.000 C 
ENDROOT
BRANCH   1   2
ATOM      2  C   UNL     1      16.223  -0.964  19.305  1.00  0.00     0.000 C 
BRANCH   2   3
ATOM      3  C   UNL     1      15.906  -2.443  19.022  1.00  0.00     0.000 C 
BRANCH   3   4
ATOM      4  C   UNL     1      16.171  -2.899  17.572  1.00  0.00     0.000 C 
BRANCH   4   5
ATOM      5  C   UNL     1      15.602  -1.977  16.478  1.00  0.00     0.000 C 
BRANCH   5   6
ATOM      6  C   UNL     1      16.447  -1.881  15.194  1.00  0.00     0.006 C 
BRANCH   6   7
ATOM      7  C   UNL     1      17.698  -0.991  15.332  1.00  0.00     0.053 C 
BRANCH   7   8
ATOM      8  C   UNL     1      18.970  -1.739  15.075  1.00  0.00     0.041 C 
ATOM      9  O   UNL     1      19.019  -2.620  14.177  1.00  0.00    -0.550 OA
ATOM     10  O   UNL     1      20.094  -1.488  15.853  1.00  0.00    -0.550 OA
ENDBRANCH   7   8
ENDBRANCH   6   7
ENDBRANCH   5   6
ENDBRANCH   4   5
ENDBRANCH   3   4
ENDBRANCH   2   3
ENDBRANCH   1   2
BRANCH   1  11
ATOM     11  C   UNL     1      13.688  -0.631  19.450  1.00  0.00     0.000 C 
BRANCH  11  12
ATOM     12  C   UNL     1      13.234   0.279  18.295  1.00  0.00     0.000 C 
BRANCH  12  13
ATOM     13  C   UNL     1      13.499   1.772  18.567  1.00  0.00     0.000 C 
BRANCH  13  14
ATOM     14  C   UNL     1      14.184   2.535  17.417  1.00  0.00     0.000 C 
BRANCH  14  15
ATOM     15  C   UNL     1      15.042   1.669  16.476  1.00  0.00     0.000 C 
BRANCH  15  16
ATOM     16  C   UNL     1      14.409   1.444  15.083  1.00  0.00     0.006 C 
BRANCH  16  17
ATOM     17  C   UNL     1      15.388   1.651  13.916  1.00  0.00     0.053 C 
BRANCH  17  18
ATOM     18  C   UNL     1      15.015   0.830  12.719  1.00  0.00     0.041 C 
ATOM     19  O   UNL     1      14.367  -0.241  12.863  1.00  0.00    -0.550 OA
ATOM     20  O   UNL     1      15.399   1.236  11.447  1.00  0.00    -0.550 OA
ENDBRANCH  17  18
ENDBRANCH  16  17
ENDBRANCH  15  16
ENDBRANCH  14  15
ENDBRANCH  13  14
ENDBRANCH  12  13
ENDBRANCH  11  12
ENDBRANCH   1  11
TORSDOF 15
ENDMDL
MODEL 7
REMARK VINA RESULT:    -5.855      1.470      5.094
REMARK INTER + INTRA:         -12.997
REMARK INTER:                 -11.802
REMARK INTRA:                  -1.195
REMARK UNBOUND:                -2.007
REMARK SMILES O=C([O-])CCCCCCCCCCCCCCC(=O)[O-]
REMARK SMILES IDX 10 1 9 2 8 3 7 4 6 5 5 6 4 7 2 8 1 9 3 10 11 11 12 12 13 13
REMARK SMILES IDX 14 14 15 15 16 16 17 17 18 18 19 19 20 20
REMARK H PARENT
REMARK Flexibility Score: inf
ROOT
ATOM      1  C   UNL     1      14.701   0.558  12.746  1.00  0.00     0.000 C 
ENDROOT
BRANCH   1   2
ATOM      2  C   UNL     1      15.554   0.479  11.469  1.00  0.00     0.000 C 
BRANCH   2   3
ATOM      3  C   UNL     1      17.059   0.633  11.749  1.00  0.00     0.000 C 
BRANCH   3   4
ATOM      4  C   UNL     1      17.853  -0.689  11.788  1.00  0.00     0.000 C 
BRANCH   4   5
ATOM      5  C   UNL     1      17.399  -1.697  12.861  1.00  0.00     0.000 C 
BRANCH   5   6
ATOM      6  C   UNL     1      18.222  -1.685  14.164  1.00  0.00     0.006 C 
BRANCH   6   7
ATOM      7  C   UNL     1      17.437  -1.193  15.395  1.00  0.00     0.053 C 
BRANCH   7   8
ATOM      8  C   UNL     1      18.327  -0.640  16.465  1.00  0.00     0.041 C 
ATOM      9  O   UNL     1      17.833  -0.160  17.517  1.00  0.00    -0.550 OA
ATOM     10  O   UNL     1      19.705  -0.622  16.283  1.00  0.00    -0.550 OA
ENDBRANCH   7   8
ENDBRANCH   6   7
ENDBRANCH   5   6
ENDBRANCH   4   5
ENDBRANCH   3   4
ENDBRANCH   2   3
ENDBRANCH   1   2
BRANCH   1  11
ATOM     11  C   UNL     1      15.141   1.691  13.687  1.00  0.00     0.000 C 
BRANCH  11  12
ATOM     12  C   UNL     1      14.810   1.393  15.159  1.00  0.00     0.000 C 
BRANCH  12  13
ATOM     13  C   UNL     1      13.296   1.393  15.445  1.00  0.00     0.000 C 
BRANCH  13  14
ATOM     14  C   UNL     1      12.875   2.113  16.741  1.00  0.00     0.000 C 
BRANCH  14  15
ATOM     15  C   UNL     1      13.323   1.428  18.045  1.00  0.00     0.000 C 
BRANCH  15  16
ATOM     16  C   UNL     1      13.401  -0.113  17.946  1.00  0.00     0.006 C 
BRANCH  16  17
ATOM     17  C   UNL     1      13.210  -0.832  19.292  1.00  0.00     0.053 C 
BRANCH  17  18
ATOM     18  C   UNL     1      14.432  -0.740  20.154  1.00  0.00     0.041 C 
ATOM     19  O   UNL     1      15.332  -1.618  20.073  1.00  0.00    -0.550 OA
ATOM     20  O   UNL     1      14.569   0.303  21.061  1.00  0.00    -0.550 OA
ENDBRANCH  17  18
ENDBRANCH  16  17
ENDBRANCH  15  16
ENDBRANCH  14  15
ENDBRANCH  13  14
ENDBRANCH  12  13
ENDBRANCH  11  12
ENDBRANCH   1  11
TORSDOF 15
ENDMDL
MODEL 8
REMARK VINA RESULT:    -5.850      2.645      4.799
REMARK INTER + INTRA:         -12.987
REMARK INTER:                 -11.161
REMARK INTRA:                  -1.826
REMARK UNBOUND:                -2.007
REMARK SMILES O=C([O-])CCCCCCCCCCCCCCC(=O)[O-]
REMARK SMILES IDX 10 1 9 2 8 3 7 4 6 5 5 6 4 7 2 8 1 9 3 10 11 11 12 12 13 13
REMARK SMILES IDX 14 14 15 15 16 16 17 17 18 18 19 19 20 20
REMARK H PARENT
REMARK Flexibility Score: inf
ROOT
ATOM      1  C   UNL     1      17.629  -2.260  16.354  1.00  0.00     0.000 C 
ENDROOT
BRANCH   1   2
ATOM      2  C   UNL     1      16.409  -3.108  16.754  1.00  0.00     0.000 C 
BRANCH   2   3
ATOM      3  C   UNL     1      15.891  -2.776  18.164  1.00  0.00     0.000 C 
BRANCH   3   4
ATOM      4  C   UNL     1      16.531  -1.532  18.816  1.00  0.00     0.000 C 
BRANCH   4   5
ATOM      5  C   UNL     1      15.705  -0.237  18.710  1.00  0.00     0.000 C 
BRANCH   5   6
ATOM      6  C   UNL     1      14.251  -0.341  19.209  1.00  0.00     0.006 C 
BRANCH   6   7
ATOM      7  C   UNL     1      13.208   0.202  18.214  1.00  0.00     0.053 C 
BRANCH   7   8
ATOM      8  C   UNL     1      13.265   1.692  18.073  1.00  0.00     0.041 C 
ATOM      9  O   UNL     1      13.557   2.413  19.063  1.00  0.00    -0.550 OA
ATOM     10  O   UNL     1      12.961   2.289  16.855  1.00  0.00    -0.550 OA
ENDBRANCH   7   8
ENDBRANCH   6   7
ENDBRANCH   5   6
ENDBRANCH   4   5
ENDBRANCH   3   4
ENDBRANCH   2   3
ENDBRANCH   1   2
BRANCH   1  11
ATOM     11  C   UNL     1      17.362  -1.377  15.124  1.00  0.00     0.000 C 
BRANCH  11  12
ATOM     12  C   UNL     1      15.874  -1.342  14.739  1.00  0.00     0.000 C 
BRANCH  12  13
ATOM     13  C   UNL     1      15.196  -0.002  15.085  1.00  0.00     0.000 C 
BRANCH  13  14
ATOM     14  C   UNL     1      14.381   0.633  13.942  1.00  0.00     0.000 C 
BRANCH  14  15
ATOM     15  C   UNL     1      15.193   1.499  12.962  1.00  0.00     0.000 C 
BRANCH  15  16
ATOM     16  C   UNL     1      15.512   0.794  11.623  1.00  0.00     0.006 C 
BRANCH  16  17
ATOM     17  C   UNL     1      17.015   0.699  11.313  1.00  0.00     0.053 C 
BRANCH  17  18
ATOM     18  C   UNL     1      17.391  -0.646  10.771  1.00  0.00     0.041 C 
ATOM     19  O   UNL     1      17.651  -0.785   9.547  1.00  0.00    -0.550 OA
ATOM     20  O   UNL     1      17.435  -1.751  11.613  1.00  0.00    -0.550 OA
ENDBRANCH  17  18
ENDBRANCH  16  17
ENDBRANCH  15  16
ENDBRANCH  14  15
ENDBRANCH  13  14
ENDBRANCH  12  13
ENDBRANCH  11  12
ENDBRANCH   1  11
TORSDOF 15
ENDMDL
MODEL 9
REMARK VINA RESULT:    -5.821      2.541      5.391
REMARK INTER + INTRA:         -12.933
REMARK INTER:                 -10.871
REMARK INTRA:                  -2.062
REMARK UNBOUND:                -2.007
REMARK SMILES O=C([O-])CCCCCCCCCCCCCCC(=O)[O-]
REMARK SMILES IDX 10 1 9 2 8 3 7 4 6 5 5 6 4 7 2 8 1 9 3 10 11 11 12 12 13 13
REMARK SMILES IDX 14 14 15 15 16 16 17 17 18 18 19 19 20 20
REMARK H PARENT
REMARK Flexibility Score: inf
ROOT
ATOM      1  C   UNL     1      13.580   0.514  18.812  1.00  0.00     0.000 C 
ENDROOT
BRANCH   1   2
ATOM      2  C   UNL     1      13.166   1.579  17.782  1.00  0.00     0.000 C 
BRANCH   2   3
ATOM      3  C   UNL     1      14.371   2.310  17.166  1.00  0.00     0.000 C 
BRANCH   3   4
ATOM      4  C   UNL     1      14.891   1.708  15.844  1.00  0.00     0.000 C 
BRANCH   4   5
ATOM      5  C   UNL     1      13.819   1.056  14.952  1.00  0.00     0.000 C 
BRANCH   5   6
ATOM      6  C   UNL     1      14.358   0.306  13.718  1.00  0.00     0.006 C 
BRANCH   6   7
ATOM      7  C   UNL     1      15.213   1.179  12.780  1.00  0.00     0.053 C 
BRANCH   7   8
ATOM      8  C   UNL     1      16.352   0.424  12.167  1.00  0.00     0.041 C 
ATOM      9  O   UNL     1      16.749  -0.654  12.681  1.00  0.00    -0.550 OA
ATOM     10  O   UNL     1      17.001   0.930  11.047  1.00  0.00    -0.550 OA
ENDBRANCH   7   8
ENDBRANCH   6   7
ENDBRANCH   5   6
ENDBRANCH   4   5
ENDBRANCH   3   4
ENDBRANCH   2   3
ENDBRANCH   1   2
BRANCH   1  11
ATOM     11  C   UNL     1      13.401  -0.921  18.290  1.00  0.00     0.000 C 
BRANCH  11  12
ATOM     12  C   UNL     1      14.740  -1.582  17.920  1.00  0.00     0.000 C 
BRANCH  12  13
ATOM     13  C   UNL     1      15.693  -1.721  19.122  1.00  0.00     0.000 C 
BRANCH  13  14
ATOM     14  C   UNL     1      17.017  -0.942  19.001  1.00  0.00     0.000 C 
BRANCH  14  15
ATOM     15  C   UNL     1      17.191  -0.145  17.695  1.00  0.00     0.000 C 
BRANCH  15  16
ATOM     16  C   UNL     1      18.230  -0.754  16.725  1.00  0.00     0.006 C 
BRANCH  16  17
ATOM     17  C   UNL     1      17.660  -1.854  15.815  1.00  0.00     0.053 C 
BRANCH  17  18
ATOM     18  C   UNL     1      18.142  -3.216  16.212  1.00  0.00     0.041 C 
ATOM     19  O   UNL     1      17.452  -3.931  16.985  1.00  0.00    -0.550 OA
ATOM     20  O   UNL     1      19.363  -3.688  15.745  1.00  0.00    -0.550 OA
ENDBRANCH  17  18
ENDBRANCH  16  17
ENDBRANCH  15  16
ENDBRANCH  14  15
ENDBRANCH  13  14
ENDBRANCH  12  13
ENDBRANCH  11  12
ENDBRANCH   1  11
TORSDOF 15
ENDMDL
