MODEL 1
REMARK VINA RESULT:    -4.549      0.000      0.000
REMARK INTER + INTRA:          -5.236
REMARK INTER:                  -5.081
REMARK INTRA:                  -0.155
REMARK UNBOUND:                -0.155
REMARK SMILES COc1cc2ccc(=O)oc2cc1OC
REMARK SMILES IDX 3 1 13 2 12 3 11 4 5 5 4 6 6 7 7 8 8 9 9 10 10 11 2 12 1 13
REMARK SMILES IDX 14 14 15 15
REMARK H PARENT
REMARK Flexibility Score: inf
ROOT
ATOM      1  C   UNL     1      17.046  -5.385   8.300  1.00  0.00     0.161 A 
ATOM      2  C   UNL     1      16.436  -5.856   7.125  1.00  0.00     0.164 A 
ATOM      3  C   UNL     1      16.305  -7.244   6.913  1.00  0.00     0.098 A 
ATOM      4  C   UNL     1      16.777  -8.152   7.863  1.00  0.00     0.142 A 
ATOM      5  C   UNL     1      17.387  -7.680   9.043  1.00  0.00     0.022 A 
ATOM      6  C   UNL     1      17.521  -6.303   9.258  1.00  0.00     0.062 A 
ATOM      7  C   UNL     1      17.850  -8.615   9.974  1.00  0.00     0.019 A 
ATOM      8  C   UNL     1      17.694  -9.976   9.714  1.00  0.00     0.094 A 
ATOM      9  C   UNL     1      17.077 -10.371   8.522  1.00  0.00     0.336 A 
ATOM     10  O   UNL     1      16.927 -11.595   8.268  1.00  0.00    -0.246 OA
ATOM     11  O   UNL     1      16.647  -9.461   7.653  1.00  0.00    -0.423 OA
ENDROOT
BRANCH   1  12
ATOM     12  O   UNL     1      17.159  -3.997   8.478  1.00  0.00    -0.493 OA
ATOM     13  C   UNL     1      16.228  -3.197   9.200  1.00  0.00     0.278 C 
ENDBRANCH   1  12
BRANCH   2  14
ATOM     14  O   UNL     1      15.974  -4.915   6.192  1.00  0.00    -0.493 OA
ATOM     15  C   UNL     1      14.608  -4.547   6.025  1.00  0.00     0.278 C 
ENDBRANCH   2  14
TORSDOF 2
ENDMDL
MODEL 2
REMARK VINA RESULT:    -4.371     14.587     17.232
REMARK INTER + INTRA:          -5.037
REMARK INTER:                  -4.921
REMARK INTRA:                  -0.116
REMARK UNBOUND:                -0.155
REMARK SMILES COc1cc2ccc(=O)oc2cc1OC
REMARK SMILES IDX 3 1 13 2 12 3 11 4 5 5 4 6 6 7 7 8 8 9 9 10 10 11 2 12 1 13
REMARK SMILES IDX 14 14 15 15
REMARK H PARENT
REMARK Flexibility Score: inf
ROOT
ATOM      1  C   UNL     1      13.415 -16.181  23.064  1.00  0.00     0.161 A 
ATOM      2  C   UNL     1      12.463 -17.206  22.935  1.00  0.00     0.164 A 
ATOM      3  C   UNL     1      11.993 -17.568  21.657  1.00  0.00     0.098 A 
ATOM      4  C   UNL     1      12.468 -16.915  20.517  1.00  0.00     0.142 A 
ATOM      5  C   UNL     1      13.424 -15.887  20.645  1.00  0.00     0.022 A 
ATOM      6  C   UNL     1      13.894 -15.523  21.913  1.00  0.00     0.062 A 
ATOM      7  C   UNL     1      13.879 -15.252  19.485  1.00  0.00     0.019 A 
ATOM      8  C   UNL     1      13.380 -15.650  18.245  1.00  0.00     0.094 A 
ATOM      9  C   UNL     1      12.433 -16.678  18.196  1.00  0.00     0.336 A 
ATOM     10  O   UNL     1      11.971 -17.053  17.086  1.00  0.00    -0.246 OA
ATOM     11  O   UNL     1      12.017 -17.266  19.314  1.00  0.00    -0.423 OA
ENDROOT
BRANCH   1  12
ATOM     12  O   UNL     1      13.861 -15.846  24.352  1.00  0.00    -0.493 OA
ATOM     13  C   UNL     1      15.224 -15.633  24.705  1.00  0.00     0.278 C 
ENDBRANCH   1  12
BRANCH   2  14
ATOM     14  O   UNL     1      12.008 -17.840  24.102  1.00  0.00    -0.493 OA
ATOM     15  C   UNL     1      11.875 -19.250  24.255  1.00  0.00     0.278 C 
ENDBRANCH   2  14
TORSDOF 2
ENDMDL
MODEL 3
REMARK VINA RESULT:    -4.348      2.627      3.962
REMARK INTER + INTRA:          -5.012
REMARK INTER:                  -4.909
REMARK INTRA:                  -0.103
REMARK UNBOUND:                -0.155
REMARK SMILES COc1cc2ccc(=O)oc2cc1OC
REMARK SMILES IDX 3 1 13 2 12 3 11 4 5 5 4 6 6 7 7 8 8 9 9 10 10 11 2 12 1 13
REMARK SMILES IDX 14 14 15 15
REMARK H PARENT
REMARK Flexibility Score: inf
ROOT
ATOM      1  C   UNL     1      13.661  -7.933   7.825  1.00  0.00     0.161 A 
ATOM      2  C   UNL     1      13.961  -6.633   7.382  1.00  0.00     0.164 A 
ATOM      3  C   UNL     1      15.208  -6.058   7.696  1.00  0.00     0.098 A 
ATOM      4  C   UNL     1      16.149  -6.771   8.442  1.00  0.00     0.142 A 
ATOM      5  C   UNL     1      15.850  -8.075   8.886  1.00  0.00     0.022 A 
ATOM      6  C   UNL     1      14.611  -8.652   8.578  1.00  0.00     0.062 A 
ATOM      7  C   UNL     1      16.813  -8.763   9.631  1.00  0.00     0.019 A 
ATOM      8  C   UNL     1      18.031  -8.146   9.912  1.00  0.00     0.094 A 
ATOM      9  C   UNL     1      18.258  -6.850   9.438  1.00  0.00     0.336 A 
ATOM     10  O   UNL     1      19.352  -6.275   9.680  1.00  0.00    -0.246 OA
ATOM     11  O   UNL     1      17.326  -6.218   8.731  1.00  0.00    -0.423 OA
ENDROOT
BRANCH   1  12
ATOM     12  O   UNL     1      12.409  -8.475   7.495  1.00  0.00    -0.493 OA
ATOM     13  C   UNL     1      11.930  -9.737   7.949  1.00  0.00     0.278 C 
ENDBRANCH   1  12
BRANCH   2  14
ATOM     14  O   UNL     1      12.992  -5.946   6.635  1.00  0.00    -0.493 OA
ATOM     15  C   UNL     1      12.860  -4.529   6.594  1.00  0.00     0.278 C 
ENDBRANCH   2  14
TORSDOF 2
ENDMDL
MODEL 4
REMARK VINA RESULT:    -4.303     13.847     16.347
REMARK INTER + INTRA:          -4.961
REMARK INTER:                  -4.834
REMARK INTRA:                  -0.127
REMARK UNBOUND:                -0.155
REMARK SMILES COc1cc2ccc(=O)oc2cc1OC
REMARK SMILES IDX 3 1 13 2 12 3 11 4 5 5 4 6 6 7 7 8 8 9 9 10 10 11 2 12 1 13
REMARK SMILES IDX 14 14 15 15
REMARK H PARENT
REMARK Flexibility Score: inf
ROOT
ATOM      1  C   UNL     1      13.257 -16.000  18.881  1.00  0.00     0.161 A 
ATOM      2  C   UNL     1      12.409 -17.088  19.150  1.00  0.00     0.164 A 
ATOM      3  C   UNL     1      12.121 -17.437  20.484  1.00  0.00     0.098 A 
ATOM      4  C   UNL     1      12.671 -16.708  21.541  1.00  0.00     0.142 A 
ATOM      5  C   UNL     1      13.520 -15.615  21.272  1.00  0.00     0.022 A 
ATOM      6  C   UNL     1      13.811 -15.265  19.948  1.00  0.00     0.062 A 
ATOM      7  C   UNL     1      14.055 -14.906  22.352  1.00  0.00     0.019 A 
ATOM      8  C   UNL     1      13.736 -15.294  23.653  1.00  0.00     0.094 A 
ATOM      9  C   UNL     1      12.885 -16.388  23.843  1.00  0.00     0.336 A 
ATOM     10  O   UNL     1      12.584 -16.755  25.010  1.00  0.00    -0.246 OA
ATOM     11  O   UNL     1      12.390 -17.046  22.798  1.00  0.00    -0.423 OA
ENDROOT
BRANCH   1  12
ATOM     12  O   UNL     1      13.523 -15.680  17.540  1.00  0.00    -0.493 OA
ATOM     13  C   UNL     1      13.005 -14.539  16.864  1.00  0.00     0.278 C 
ENDBRANCH   1  12
BRANCH   2  14
ATOM     14  O   UNL     1      11.875 -17.798  18.063  1.00  0.00    -0.493 OA
ATOM     15  C   UNL     1      12.432 -18.995  17.530  1.00  0.00     0.278 C 
ENDBRANCH   2  14
TORSDOF 2
ENDMDL
MODEL 5
REMARK VINA RESULT:    -4.283     14.234     17.003
REMARK INTER + INTRA:          -4.938
REMARK INTER:                  -4.857
REMARK INTRA:                  -0.082
REMARK UNBOUND:                -0.155
REMARK SMILES COc1cc2ccc(=O)oc2cc1OC
REMARK SMILES IDX 3 1 13 2 12 3 11 4 5 5 4 6 6 7 7 8 8 9 9 10 10 11 2 12 1 13
REMARK SMILES IDX 14 14 15 15
REMARK H PARENT
REMARK Flexibility Score: inf
ROOT
ATOM      1  C   UNL     1      12.813 -17.210  22.626  1.00  0.00     0.161 A 
ATOM      2  C   UNL     1      13.521 -15.998  22.686  1.00  0.00     0.164 A 
ATOM      3  C   UNL     1      13.752 -15.264  21.505  1.00  0.00     0.098 A 
ATOM      4  C   UNL     1      13.280 -15.733  20.277  1.00  0.00     0.142 A 
ATOM      5  C   UNL     1      12.568 -16.948  20.217  1.00  0.00     0.022 A 
ATOM      6  C   UNL     1      12.336 -17.682  21.387  1.00  0.00     0.062 A 
ATOM      7  C   UNL     1      12.109 -17.390  18.972  1.00  0.00     0.019 A 
ATOM      8  C   UNL     1      12.364 -16.624  17.835  1.00  0.00     0.094 A 
ATOM      9  C   UNL     1      13.077 -15.428  17.972  1.00  0.00     0.336 A 
ATOM     10  O   UNL     1      13.318 -14.721  16.958  1.00  0.00    -0.246 OA
ATOM     11  O   UNL     1      13.502 -15.030  19.168  1.00  0.00    -0.423 OA
ENDROOT
BRANCH   1  12
ATOM     12  O   UNL     1      12.601 -17.915  23.822  1.00  0.00    -0.493 OA
ATOM     13  C   UNL     1      12.175 -19.272  23.895  1.00  0.00     0.278 C 
ENDBRANCH   1  12
BRANCH   2  14
ATOM     14  O   UNL     1      13.981 -15.558  23.937  1.00  0.00    -0.493 OA
ATOM     15  C   UNL     1      15.252 -15.885  24.490  1.00  0.00     0.278 C 
ENDBRANCH   2  14
TORSDOF 2
ENDMDL
MODEL 6
REMARK VINA RESULT:    -4.267      2.401      4.534
REMARK INTER + INTRA:          -4.921
REMARK INTER:                  -4.803
REMARK INTRA:                  -0.118
REMARK UNBOUND:                -0.155
REMARK SMILES COc1cc2ccc(=O)oc2cc1OC
REMARK SMILES IDX 3 1 13 2 12 3 11 4 5 5 4 6 6 7 7 8 8 9 9 10 10 11 2 12 1 13
REMARK SMILES IDX 14 14 15 15
REMARK H PARENT
REMARK Flexibility Score: inf
ROOT
ATOM      1  C   UNL     1      14.362  -7.902   7.826  1.00  0.00     0.161 A 
ATOM      2  C   UNL     1      15.091  -9.038   8.215  1.00  0.00     0.164 A 
ATOM      3  C   UNL     1      16.400  -8.891   8.718  1.00  0.00     0.098 A 
ATOM      4  C   UNL     1      16.975  -7.623   8.833  1.00  0.00     0.142 A 
ATOM      5  C   UNL     1      16.243  -6.483   8.444  1.00  0.00     0.022 A 
ATOM      6  C   UNL     1      14.944  -6.623   7.942  1.00  0.00     0.062 A 
ATOM      7  C   UNL     1      16.848  -5.228   8.570  1.00  0.00     0.019 A 
ATOM      8  C   UNL     1      18.145  -5.140   9.075  1.00  0.00     0.094 A 
ATOM      9  C   UNL     1      18.809  -6.315   9.442  1.00  0.00     0.336 A 
ATOM     10  O   UNL     1      19.981  -6.257   9.900  1.00  0.00    -0.246 OA
ATOM     11  O   UNL     1      18.212  -7.496   9.311  1.00  0.00    -0.423 OA
ENDROOT
BRANCH   1  12
ATOM     12  O   UNL     1      13.062  -8.085   7.329  1.00  0.00    -0.493 OA
ATOM     13  C   UNL     1      11.991  -7.164   7.510  1.00  0.00     0.278 C 
ENDBRANCH   1  12
BRANCH   2  14
ATOM     14  O   UNL     1      14.482 -10.296   8.086  1.00  0.00    -0.493 OA
ATOM     15  C   UNL     1      14.997 -11.365   7.298  1.00  0.00     0.278 C 
ENDBRANCH   2  14
TORSDOF 2
ENDMDL
MODEL 7
REMARK VINA RESULT:    -4.217      1.790      5.099
REMARK INTER + INTRA:          -4.865
REMARK INTER:                  -4.746
REMARK INTRA:                  -0.119
REMARK UNBOUND:                -0.155
REMARK SMILES COc1cc2ccc(=O)oc2cc1OC
REMARK SMILES IDX 3 1 13 2 12 3 11 4 5 5 4 6 6 7 7 8 8 9 9 10 10 11 2 12 1 13
REMARK SMILES IDX 14 14 15 15
REMARK H PARENT
REMARK Flexibility Score: inf
ROOT
ATOM      1  C   UNL     1      16.495  -9.682   8.484  1.00  0.00     0.161 A 
ATOM      2  C   UNL     1      15.229  -9.213   8.095  1.00  0.00     0.164 A 
ATOM      3  C   UNL     1      14.958  -7.830   8.119  1.00  0.00     0.098 A 
ATOM      4  C   UNL     1      15.940  -6.924   8.525  1.00  0.00     0.142 A 
ATOM      5  C   UNL     1      17.211  -7.393   8.914  1.00  0.00     0.022 A 
ATOM      6  C   UNL     1      17.485  -8.766   8.893  1.00  0.00     0.062 A 
ATOM      7  C   UNL     1      18.172  -6.460   9.316  1.00  0.00     0.019 A 
ATOM      8  C   UNL     1      17.850  -5.103   9.319  1.00  0.00     0.094 A 
ATOM      9  C   UNL     1      16.569  -4.711   8.919  1.00  0.00     0.336 A 
ATOM     10  O   UNL     1      16.259  -3.491   8.915  1.00  0.00    -0.246 OA
ATOM     11  O   UNL     1      15.674  -5.619   8.542  1.00  0.00    -0.423 OA
ENDROOT
BRANCH   1  12
ATOM     12  O   UNL     1      16.731 -11.066   8.449  1.00  0.00    -0.493 OA
ATOM     13  C   UNL     1      17.359 -11.751   7.370  1.00  0.00     0.278 C 
ENDBRANCH   1  12
BRANCH   2  14
ATOM     14  O   UNL     1      14.267 -10.153   7.693  1.00  0.00    -0.493 OA
ATOM     15  C   UNL     1      12.941 -10.220   8.208  1.00  0.00     0.278 C 
ENDBRANCH   2  14
TORSDOF 2
ENDMDL
MODEL 8
REMARK VINA RESULT:    -4.206      1.521      2.666
REMARK INTER + INTRA:          -4.853
REMARK INTER:                  -4.687
REMARK INTRA:                  -0.166
REMARK UNBOUND:                -0.155
REMARK SMILES COc1cc2ccc(=O)oc2cc1OC
REMARK SMILES IDX 3 1 13 2 12 3 11 4 5 5 4 6 6 7 7 8 8 9 9 10 10 11 2 12 1 13
REMARK SMILES IDX 14 14 15 15
REMARK H PARENT
REMARK Flexibility Score: inf
ROOT
ATOM      1  C   UNL     1      15.572  -5.349   7.428  1.00  0.00     0.161 A 
ATOM      2  C   UNL     1      16.574  -4.757   8.216  1.00  0.00     0.164 A 
ATOM      3  C   UNL     1      17.393  -5.567   9.029  1.00  0.00     0.098 A 
ATOM      4  C   UNL     1      17.216  -6.952   9.056  1.00  0.00     0.142 A 
ATOM      5  C   UNL     1      16.212  -7.546   8.264  1.00  0.00     0.022 A 
ATOM      6  C   UNL     1      15.395  -6.747   7.455  1.00  0.00     0.062 A 
ATOM      7  C   UNL     1      16.060  -8.935   8.313  1.00  0.00     0.019 A 
ATOM      8  C   UNL     1      16.899  -9.688   9.135  1.00  0.00     0.094 A 
ATOM      9  C   UNL     1      17.873  -9.029   9.891  1.00  0.00     0.336 A 
ATOM     10  O   UNL     1      18.641  -9.691  10.640  1.00  0.00    -0.246 OA
ATOM     11  O   UNL     1      17.997  -7.707   9.827  1.00  0.00    -0.423 OA
ENDROOT
BRANCH   1  12
ATOM     12  O   UNL     1      14.775  -4.513   6.630  1.00  0.00    -0.493 OA
ATOM     13  C   UNL     1      13.452  -4.104   6.960  1.00  0.00     0.278 C 
ENDBRANCH   1  12
BRANCH   2  14
ATOM     14  O   UNL     1      16.723  -3.363   8.165  1.00  0.00    -0.493 OA
ATOM     15  C   UNL     1      16.232  -2.462   9.153  1.00  0.00     0.278 C 
ENDBRANCH   2  14
TORSDOF 2
ENDMDL
MODEL 9
REMARK VINA RESULT:    -4.173      2.246      3.016
REMARK INTER + INTRA:          -4.815
REMARK INTER:                  -4.654
REMARK INTRA:                  -0.161
REMARK UNBOUND:                -0.155
REMARK SMILES COc1cc2ccc(=O)oc2cc1OC
REMARK SMILES IDX 3 1 13 2 12 3 11 4 5 5 4 6 6 7 7 8 8 9 9 10 10 11 2 12 1 13
REMARK SMILES IDX 14 14 15 15
REMARK H PARENT
REMARK Flexibility Score: inf
ROOT
ATOM      1  C   UNL     1      17.978  -6.306   8.765  1.00  0.00     0.161 A 
ATOM      2  C   UNL     1      17.723  -5.809   7.474  1.00  0.00     0.164 A 
ATOM      3  C   UNL     1      16.707  -6.390   6.690  1.00  0.00     0.098 A 
ATOM      4  C   UNL     1      15.950  -7.453   7.186  1.00  0.00     0.142 A 
ATOM      5  C   UNL     1      16.203  -7.951   8.481  1.00  0.00     0.022 A 
ATOM      6  C   UNL     1      17.213  -7.379   9.264  1.00  0.00     0.062 A 
ATOM      7  C   UNL     1      15.429  -9.017   8.948  1.00  0.00     0.019 A 
ATOM      8  C   UNL     1      14.435  -9.553   8.130  1.00  0.00     0.094 A 
ATOM      9  C   UNL     1      14.240  -9.007   6.857  1.00  0.00     0.336 A 
ATOM     10  O   UNL     1      13.348  -9.476   6.103  1.00  0.00    -0.246 OA
ATOM     11  O   UNL     1      14.991  -7.993   6.437  1.00  0.00    -0.423 OA
ENDROOT
BRANCH   1  12
ATOM     12  O   UNL     1      18.998  -5.704   9.519  1.00  0.00    -0.493 OA
ATOM     13  C   UNL     1      20.320  -6.217   9.642  1.00  0.00     0.278 C 
ENDBRANCH   1  12
BRANCH   2  14
ATOM     14  O   UNL     1      18.504  -4.740   7.008  1.00  0.00    -0.493 OA
ATOM     15  C   UNL     1      19.615  -4.876   6.128  1.00  0.00     0.278 C 
ENDBRANCH   2  14
TORSDOF 2
ENDMDL
