MODEL 1
REMARK VINA RESULT:    -5.046      0.000      0.000
REMARK INTER + INTRA:          -8.070
REMARK INTER:                  -7.701
REMARK INTRA:                  -0.370
REMARK UNBOUND:                -0.370
REMARK SMILES CCCCCCCCCCC(=O)[O-]
REMARK SMILES IDX 7 1 8 2 9 3 10 4 11 5 12 6 13 7 6 8 5 9 4 10 3 11 2 12 1 13
REMARK H PARENT
REMARK Flexibility Score: inf
ROOT
ATOM      1  C   UNL     1       1.087 -27.515  -0.344  1.00  0.00     0.000 C 
ENDROOT
BRANCH   1   2
ATOM      2  C   UNL     1       1.546 -27.819   1.093  1.00  0.00     0.000 C 
BRANCH   2   3
ATOM      3  C   UNL     1       2.383 -29.102   1.248  1.00  0.00     0.006 C 
BRANCH   3   4
ATOM      4  C   UNL     1       3.478 -28.976   2.316  1.00  0.00     0.053 C 
BRANCH   4   5
ATOM      5  C   UNL     1       3.251 -29.963   3.416  1.00  0.00     0.041 C 
ATOM      6  O   UNL     1       3.510 -29.654   4.609  1.00  0.00    -0.550 OA
ATOM      7  O   UNL     1       2.800 -31.244   3.119  1.00  0.00    -0.550 OA
ENDBRANCH   4   5
ENDBRANCH   3   4
ENDBRANCH   2   3
ENDBRANCH   1   2
BRANCH   1   8
ATOM      8  C   UNL     1       0.114 -26.325  -0.422  1.00  0.00     0.000 C 
BRANCH   8   9
ATOM      9  C   UNL     1      -1.302 -26.688   0.050  1.00  0.00    -0.000 C 
BRANCH   9  10
ATOM     10  C   UNL     1      -2.265 -25.491  -0.002  1.00  0.00    -0.000 C 
BRANCH  10  11
ATOM     11  C   UNL     1      -1.522 -24.204  -0.381  1.00  0.00    -0.000 C 
BRANCH  11  12
ATOM     12  C   UNL     1      -1.952 -23.036   0.514  1.00  0.00    -0.003 C 
ATOM     13  C   UNL     1      -0.792 -22.076   0.761  1.00  0.00     0.004 C 
ENDBRANCH  11  12
ENDBRANCH  10  11
ENDBRANCH   9  10
ENDBRANCH   8   9
ENDBRANCH   1   8
TORSDOF 9
ENDMDL
MODEL 2
REMARK VINA RESULT:    -5.027      3.875      7.099
REMARK INTER + INTRA:          -8.042
REMARK INTER:                  -7.666
REMARK INTRA:                  -0.376
REMARK UNBOUND:                -0.370
REMARK SMILES CCCCCCCCCCC(=O)[O-]
REMARK SMILES IDX 7 1 8 2 9 3 10 4 11 5 12 6 13 7 6 8 5 9 4 10 3 11 2 12 1 13
REMARK H PARENT
REMARK Flexibility Score: inf
ROOT
ATOM      1  C   UNL     1       0.240 -26.342  -0.091  1.00  0.00     0.000 C 
ENDROOT
BRANCH   1   2
ATOM      2  C   UNL     1      -1.269 -26.624   0.018  1.00  0.00     0.000 C 
BRANCH   2   3
ATOM      3  C   UNL     1      -2.177 -25.514  -0.544  1.00  0.00     0.006 C 
BRANCH   3   4
ATOM      4  C   UNL     1      -1.438 -24.185  -0.750  1.00  0.00     0.053 C 
BRANCH   4   5
ATOM      5  C   UNL     1      -1.822 -23.204   0.311  1.00  0.00     0.041 C 
ATOM      6  O   UNL     1      -0.990 -22.350   0.716  1.00  0.00    -0.550 OA
ATOM      7  O   UNL     1      -3.085 -23.264   0.890  1.00  0.00    -0.550 OA
ENDBRANCH   4   5
ENDBRANCH   3   4
ENDBRANCH   2   3
ENDBRANCH   1   2
BRANCH   1   8
ATOM      8  C   UNL     1       1.099 -27.401   0.625  1.00  0.00     0.000 C 
BRANCH   8   9
ATOM      9  C   UNL     1       2.261 -27.906  -0.243  1.00  0.00    -0.000 C 
BRANCH   9  10
ATOM     10  C   UNL     1       3.259 -28.765   0.550  1.00  0.00    -0.000 C 
BRANCH  10  11
ATOM     11  C   UNL     1       3.018 -28.634   2.059  1.00  0.00    -0.000 C 
BRANCH  11  12
ATOM     12  C   UNL     1       3.834 -29.672   2.838  1.00  0.00    -0.003 C 
ATOM     13  C   UNL     1       3.562 -29.574   4.337  1.00  0.00     0.004 C 
ENDBRANCH  11  12
ENDBRANCH  10  11
ENDBRANCH   9  10
ENDBRANCH   8   9
ENDBRANCH   1   8
TORSDOF 9
ENDMDL
MODEL 3
REMARK VINA RESULT:    -4.968      1.638      3.203
REMARK INTER + INTRA:          -7.952
REMARK INTER:                  -7.670
REMARK INTRA:                  -0.282
REMARK UNBOUND:                -0.370
REMARK SMILES CCCCCCCCCCC(=O)[O-]
REMARK SMILES IDX 7 1 8 2 9 3 10 4 11 5 12 6 13 7 6 8 5 9 4 10 3 11 2 12 1 13
REMARK H PARENT
REMARK Flexibility Score: inf
ROOT
ATOM      1  C   UNL     1       2.389 -29.325   1.801  1.00  0.00     0.000 C 
ENDROOT
BRANCH   1   2
ATOM      2  C   UNL     1       3.499 -29.054   2.833  1.00  0.00     0.000 C 
BRANCH   2   3
ATOM      3  C   UNL     1       3.641 -30.126   3.928  1.00  0.00     0.006 C 
BRANCH   3   4
ATOM      4  C   UNL     1       3.131 -29.656   5.296  1.00  0.00     0.053 C 
BRANCH   4   5
ATOM      5  C   UNL     1       2.232 -30.687   5.901  1.00  0.00     0.041 C 
ATOM      6  O   UNL     1       2.592 -31.893   5.945  1.00  0.00    -0.550 OA
ATOM      7  O   UNL     1       0.976 -30.325   6.372  1.00  0.00    -0.550 OA
ENDBRANCH   4   5
ENDBRANCH   3   4
ENDBRANCH   2   3
ENDBRANCH   1   2
BRANCH   1   8
ATOM      8  C   UNL     1       1.868 -28.041   1.132  1.00  0.00     0.000 C 
BRANCH   8   9
ATOM      9  C   UNL     1       2.127 -28.015  -0.381  1.00  0.00    -0.000 C 
BRANCH   9  10
ATOM     10  C   UNL     1       1.439 -26.830  -1.077  1.00  0.00    -0.000 C 
BRANCH  10  11
ATOM     11  C   UNL     1       0.128 -26.464  -0.370  1.00  0.00    -0.000 C 
BRANCH  11  12
ATOM     12  C   UNL     1      -0.744 -25.566  -1.256  1.00  0.00    -0.003 C 
ATOM     13  C   UNL     1      -1.581 -24.607  -0.414  1.00  0.00     0.004 C 
ENDBRANCH  11  12
ENDBRANCH  10  11
ENDBRANCH   9  10
ENDBRANCH   8   9
ENDBRANCH   1   8
TORSDOF 9
ENDMDL
MODEL 4
REMARK VINA RESULT:    -4.959      3.924      6.987
REMARK INTER + INTRA:          -7.938
REMARK INTER:                  -7.431
REMARK INTRA:                  -0.507
REMARK UNBOUND:                -0.370
REMARK SMILES CCCCCCCCCCC(=O)[O-]
REMARK SMILES IDX 7 1 8 2 9 3 10 4 11 5 12 6 13 7 6 8 5 9 4 10 3 11 2 12 1 13
REMARK H PARENT
REMARK Flexibility Score: inf
ROOT
ATOM      1  C   UNL     1       3.225 -28.824   1.436  1.00  0.00     0.000 C 
ENDROOT
BRANCH   1   2
ATOM      2  C   UNL     1       1.892 -28.094   1.189  1.00  0.00     0.000 C 
BRANCH   2   3
ATOM      3  C   UNL     1       1.401 -28.121  -0.270  1.00  0.00     0.006 C 
BRANCH   3   4
ATOM      4  C   UNL     1       1.733 -26.834  -1.036  1.00  0.00     0.053 C 
BRANCH   4   5
ATOM      5  C   UNL     1       2.698 -27.120  -2.143  1.00  0.00     0.041 C 
ATOM      6  O   UNL     1       2.347 -26.973  -3.344  1.00  0.00    -0.550 OA
ATOM      7  O   UNL     1       3.970 -27.596  -1.851  1.00  0.00    -0.550 OA
ENDBRANCH   4   5
ENDBRANCH   3   4
ENDBRANCH   2   3
ENDBRANCH   1   2
BRANCH   1   8
ATOM      8  C   UNL     1       3.435 -29.200   2.914  1.00  0.00     0.000 C 
BRANCH   8   9
ATOM      9  C   UNL     1       3.169 -30.687   3.189  1.00  0.00    -0.000 C 
BRANCH   9  10
ATOM     10  C   UNL     1       3.046 -30.996   4.690  1.00  0.00    -0.000 C 
BRANCH  10  11
ATOM     11  C   UNL     1       3.280 -29.735   5.531  1.00  0.00    -0.000 C 
BRANCH  11  12
ATOM     12  C   UNL     1       2.333 -29.693   6.735  1.00  0.00    -0.003 C 
ATOM     13  C   UNL     1       1.015 -30.399   6.425  1.00  0.00     0.004 C 
ENDBRANCH  11  12
ENDBRANCH  10  11
ENDBRANCH   9  10
ENDBRANCH   8   9
ENDBRANCH   1   8
TORSDOF 9
ENDMDL
MODEL 5
REMARK VINA RESULT:    -4.919      2.541      4.842
REMARK INTER + INTRA:          -7.877
REMARK INTER:                  -7.352
REMARK INTRA:                  -0.526
REMARK UNBOUND:                -0.370
REMARK SMILES CCCCCCCCCCC(=O)[O-]
REMARK SMILES IDX 7 1 8 2 9 3 10 4 11 5 12 6 13 7 6 8 5 9 4 10 3 11 2 12 1 13
REMARK H PARENT
REMARK Flexibility Score: inf
ROOT
ATOM      1  C   UNL     1       4.689 -29.980   3.054  1.00  0.00     0.000 C 
ENDROOT
BRANCH   1   2
ATOM      2  C   UNL     1       4.855 -30.724   4.391  1.00  0.00     0.000 C 
BRANCH   2   3
ATOM      3  C   UNL     1       3.635 -31.558   4.823  1.00  0.00     0.006 C 
BRANCH   3   4
ATOM      4  C   UNL     1       3.258 -31.346   6.295  1.00  0.00     0.053 C 
BRANCH   4   5
ATOM      5  C   UNL     1       2.203 -30.293   6.417  1.00  0.00     0.041 C 
ATOM      6  O   UNL     1       0.985 -30.610   6.398  1.00  0.00    -0.550 OA
ATOM      7  O   UNL     1       2.565 -28.953   6.503  1.00  0.00    -0.550 OA
ENDBRANCH   4   5
ENDBRANCH   3   4
ENDBRANCH   2   3
ENDBRANCH   1   2
BRANCH   1   8
ATOM      8  C   UNL     1       3.402 -29.137   2.995  1.00  0.00     0.000 C 
BRANCH   8   9
ATOM      9  C   UNL     1       2.573 -29.411   1.731  1.00  0.00    -0.000 C 
BRANCH   9  10
ATOM     10  C   UNL     1       1.983 -28.129   1.124  1.00  0.00    -0.000 C 
BRANCH  10  11
ATOM     11  C   UNL     1       2.531 -27.887  -0.289  1.00  0.00    -0.000 C 
BRANCH  11  12
ATOM     12  C   UNL     1       1.646 -26.902  -1.061  1.00  0.00    -0.003 C 
ATOM     13  C   UNL     1       0.401 -26.534  -0.259  1.00  0.00     0.004 C 
ENDBRANCH  11  12
ENDBRANCH  10  11
ENDBRANCH   9  10
ENDBRANCH   8   9
ENDBRANCH   1   8
TORSDOF 9
ENDMDL
MODEL 6
REMARK VINA RESULT:    -4.873      1.621      2.308
REMARK INTER + INTRA:          -7.806
REMARK INTER:                  -7.322
REMARK INTRA:                  -0.484
REMARK UNBOUND:                -0.370
REMARK SMILES CCCCCCCCCCC(=O)[O-]
REMARK SMILES IDX 7 1 8 2 9 3 10 4 11 5 12 6 13 7 6 8 5 9 4 10 3 11 2 12 1 13
REMARK H PARENT
REMARK Flexibility Score: inf
ROOT
ATOM      1  C   UNL     1       0.056 -26.783  -0.092  1.00  0.00     0.000 C 
ENDROOT
BRANCH   1   2
ATOM      2  C   UNL     1       1.329 -26.993  -0.931  1.00  0.00     0.000 C 
BRANCH   2   3
ATOM      3  C   UNL     1       2.367 -27.943  -0.307  1.00  0.00     0.006 C 
BRANCH   3   4
ATOM      4  C   UNL     1       1.988 -28.394   1.110  1.00  0.00     0.053 C 
BRANCH   4   5
ATOM      5  C   UNL     1       3.202 -28.855   1.853  1.00  0.00     0.041 C 
ATOM      6  O   UNL     1       3.205 -28.875   3.112  1.00  0.00    -0.550 OA
ATOM      7  O   UNL     1       4.349 -29.216   1.156  1.00  0.00    -0.550 OA
ENDBRANCH   4   5
ENDBRANCH   3   4
ENDBRANCH   2   3
ENDBRANCH   1   2
BRANCH   1   8
ATOM      8  C   UNL     1      -0.510 -25.357  -0.212  1.00  0.00     0.000 C 
BRANCH   8   9
ATOM      9  C   UNL     1      -1.459 -25.196  -1.409  1.00  0.00    -0.000 C 
BRANCH   9  10
ATOM     10  C   UNL     1      -2.642 -24.264  -1.103  1.00  0.00    -0.000 C 
BRANCH  10  11
ATOM     11  C   UNL     1      -2.514 -23.656   0.299  1.00  0.00    -0.000 C 
BRANCH  11  12
ATOM     12  C   UNL     1      -3.832 -23.775   1.073  1.00  0.00    -0.003 C 
ATOM     13  C   UNL     1      -4.758 -24.802   0.429  1.00  0.00     0.004 C 
ENDBRANCH  11  12
ENDBRANCH  10  11
ENDBRANCH   9  10
ENDBRANCH   8   9
ENDBRANCH   1   8
TORSDOF 9
ENDMDL
MODEL 7
REMARK VINA RESULT:    -4.853      4.348      7.311
REMARK INTER + INTRA:          -7.776
REMARK INTER:                  -7.378
REMARK INTRA:                  -0.398
REMARK UNBOUND:                -0.370
REMARK SMILES CCCCCCCCCCC(=O)[O-]
REMARK SMILES IDX 7 1 8 2 9 3 10 4 11 5 12 6 13 7 6 8 5 9 4 10 3 11 2 12 1 13
REMARK H PARENT
REMARK Flexibility Score: inf
ROOT
ATOM      1  C   UNL     1      -0.906 -25.612  -0.009  1.00  0.00     0.000 C 
ENDROOT
BRANCH   1   2
ATOM      2  C   UNL     1      -1.764 -25.380  -1.266  1.00  0.00     0.000 C 
BRANCH   2   3
ATOM      3  C   UNL     1      -2.906 -24.362  -1.093  1.00  0.00     0.006 C 
BRANCH   3   4
ATOM      4  C   UNL     1      -2.997 -23.804   0.333  1.00  0.00     0.053 C 
BRANCH   4   5
ATOM      5  C   UNL     1      -4.354 -24.060   0.908  1.00  0.00     0.041 C 
ATOM      6  O   UNL     1      -5.091 -24.955   0.417  1.00  0.00    -0.550 OA
ATOM      7  O   UNL     1      -4.826 -23.276   1.954  1.00  0.00    -0.550 OA
ENDBRANCH   4   5
ENDBRANCH   3   4
ENDBRANCH   2   3
ENDBRANCH   1   2
BRANCH   1   8
ATOM      8  C   UNL     1      -0.045 -26.884  -0.099  1.00  0.00     0.000 C 
BRANCH   8   9
ATOM      9  C   UNL     1       1.321 -26.629  -0.753  1.00  0.00    -0.000 C 
BRANCH   9  10
ATOM     10  C   UNL     1       2.253 -27.847  -0.667  1.00  0.00    -0.000 C 
BRANCH  10  11
ATOM     11  C   UNL     1       2.040 -28.609   0.647  1.00  0.00    -0.000 C 
BRANCH  11  12
ATOM     12  C   UNL     1       3.377 -28.903   1.336  1.00  0.00    -0.003 C 
ATOM     13  C   UNL     1       3.191 -29.101   2.838  1.00  0.00     0.004 C 
ENDBRANCH  11  12
ENDBRANCH  10  11
ENDBRANCH   9  10
ENDBRANCH   8   9
ENDBRANCH   1   8
TORSDOF 9
ENDMDL
MODEL 8
REMARK VINA RESULT:    -4.828      3.392      6.982
REMARK INTER + INTRA:          -7.738
REMARK INTER:                  -7.410
REMARK INTRA:                  -0.328
REMARK UNBOUND:                -0.370
REMARK SMILES CCCCCCCCCCC(=O)[O-]
REMARK SMILES IDX 7 1 8 2 9 3 10 4 11 5 12 6 13 7 6 8 5 9 4 10 3 11 2 12 1 13
REMARK H PARENT
REMARK Flexibility Score: inf
ROOT
ATOM      1  C   UNL     1       2.495 -28.121  -0.440  1.00  0.00     0.000 C 
ENDROOT
BRANCH   1   2
ATOM      2  C   UNL     1       1.639 -26.972  -1.004  1.00  0.00     0.000 C 
BRANCH   2   3
ATOM      3  C   UNL     1       0.508 -26.492  -0.075  1.00  0.00     0.006 C 
BRANCH   3   4
ATOM      4  C   UNL     1      -0.607 -25.753  -0.826  1.00  0.00     0.053 C 
BRANCH   4   5
ATOM      5  C   UNL     1      -1.867 -25.753  -0.020  1.00  0.00     0.041 C 
ATOM      6  O   UNL     1      -2.575 -24.713   0.050  1.00  0.00    -0.550 OA
ATOM      7  O   UNL     1      -2.235 -26.886   0.696  1.00  0.00    -0.550 OA
ENDBRANCH   4   5
ENDBRANCH   3   4
ENDBRANCH   2   3
ENDBRANCH   1   2
BRANCH   1   8
ATOM      8  C   UNL     1       2.223 -28.393   1.050  1.00  0.00     0.000 C 
BRANCH   8   9
ATOM      9  C   UNL     1       3.480 -28.847   1.807  1.00  0.00    -0.000 C 
BRANCH   9  10
ATOM     10  C   UNL     1       3.151 -29.487   3.165  1.00  0.00    -0.000 C 
BRANCH  10  11
ATOM     11  C   UNL     1       4.424 -29.982   3.862  1.00  0.00    -0.000 C 
BRANCH  11  12
ATOM     12  C   UNL     1       4.219 -30.080   5.378  1.00  0.00    -0.003 C 
ATOM     13  C   UNL     1       2.854 -29.534   5.786  1.00  0.00     0.004 C 
ENDBRANCH  11  12
ENDBRANCH  10  11
ENDBRANCH   9  10
ENDBRANCH   8   9
ENDBRANCH   1   8
TORSDOF 9
ENDMDL
MODEL 9
REMARK VINA RESULT:    -4.745      3.321      4.644
REMARK INTER + INTRA:          -7.612
REMARK INTER:                  -7.038
REMARK INTRA:                  -0.574
REMARK UNBOUND:                -0.370
REMARK SMILES CCCCCCCCCCC(=O)[O-]
REMARK SMILES IDX 7 1 8 2 9 3 10 4 11 5 12 6 13 7 6 8 5 9 4 10 3 11 2 12 1 13
REMARK H PARENT
REMARK Flexibility Score: inf
ROOT
ATOM      1  C   UNL     1       3.678 -29.240   1.355  1.00  0.00     0.000 C 
ENDROOT
BRANCH   1   2
ATOM      2  C   UNL     1       4.234 -29.592   2.747  1.00  0.00     0.000 C 
BRANCH   2   3
ATOM      3  C   UNL     1       3.240 -30.306   3.680  1.00  0.00     0.006 C 
BRANCH   3   4
ATOM      4  C   UNL     1       3.110 -29.626   5.049  1.00  0.00     0.053 C 
BRANCH   4   5
ATOM      5  C   UNL     1       2.558 -30.582   6.057  1.00  0.00     0.041 C 
ATOM      6  O   UNL     1       1.543 -30.272   6.735  1.00  0.00    -0.550 OA
ATOM      7  O   UNL     1       3.193 -31.797   6.284  1.00  0.00    -0.550 OA
ENDBRANCH   4   5
ENDBRANCH   3   4
ENDBRANCH   2   3
ENDBRANCH   1   2
BRANCH   1   8
ATOM      8  C   UNL     1       2.453 -28.310   1.420  1.00  0.00     0.000 C 
BRANCH   8   9
ATOM      9  C   UNL     1       1.657 -28.288   0.106  1.00  0.00    -0.000 C 
BRANCH   9  10
ATOM     10  C   UNL     1       1.915 -27.017  -0.718  1.00  0.00    -0.000 C 
BRANCH  10  11
ATOM     11  C   UNL     1       2.672 -27.345  -2.011  1.00  0.00    -0.000 C 
BRANCH  11  12
ATOM     12  C   UNL     1       4.159 -26.995  -1.882  1.00  0.00    -0.003 C 
ATOM     13  C   UNL     1       5.011 -28.254  -1.742  1.00  0.00     0.004 C 
ENDBRANCH  11  12
ENDBRANCH  10  11
ENDBRANCH   9  10
ENDBRANCH   8   9
ENDBRANCH   1   8
TORSDOF 9
ENDMDL
