MODEL 1
REMARK VINA RESULT:    -4.019      0.000      0.000
REMARK INTER + INTRA:          -5.277
REMARK INTER:                  -5.664
REMARK INTRA:                   0.387
REMARK UNBOUND:                 0.387
REMARK SMILES CC1=CCC(=C(C)C)C(=O)CC(C)=CCC1
REMARK SMILES IDX 12 1 14 2 13 3 15 4 16 5 2 6 1 7 3 8 11 10 9 11 10 12 5 13
REMARK SMILES IDX 6 14 7 15 8 16 4 17
REMARK H PARENT
REMARK Flexibility Score: 60.00
ROOT
ATOM      1  C   UNL     1      42.486 -40.838  -5.034  1.00  0.00    -0.070 C 
ATOM      2  C   UNL     1      41.333 -41.306  -5.567  1.00  0.00    -0.027 C 
ATOM      3  C   UNL     1      43.745 -41.627  -5.298  1.00  0.00     0.039 C 
ENDROOT
BRANCH   2   4
ATOM      4  C   UNL     1      39.985 -40.627  -5.519  1.00  0.00     0.032 C 
BRANCH   4   5
ATOM      5  C   UNL     1      39.232 -40.896  -4.202  1.00  0.00     0.034 C 
BRANCH   5   6
ATOM      6  C   UNL     1      38.675 -39.626  -3.591  1.00  0.00    -0.077 C 
ATOM      7  C   UNL     1      37.586 -38.892  -4.334  1.00  0.00     0.039 C 
ATOM      8  C   UNL     1      39.116 -39.096  -2.429  1.00  0.00    -0.023 CG0
ATOM      9  G   UNL     1      40.216 -39.661  -1.562  1.00  0.00     0.000 G0
ENDBRANCH   5   6
ENDBRANCH   4   5
ENDBRANCH   2   4
BRANCH   1  10
ATOM     10  C   UNL     1      42.588 -39.540  -4.250  1.00  0.00     0.111 C 
BRANCH  10  11
ATOM     11  C   UNL     1      42.481 -39.780  -2.764  1.00  0.00     0.163 C 
ATOM     12  O   UNL     1      43.177 -40.703  -2.260  1.00  0.00    -0.294 OA
BRANCH  11  13
ATOM     13  C   UNL     1      41.545 -38.996  -1.900  1.00  0.00    -0.002 C 
ATOM     14  C   UNL     1      41.832 -37.719  -1.503  1.00  0.00    -0.069 C 
ATOM     15  C   UNL     1      43.077 -37.003  -1.975  1.00  0.00     0.039 C 
ATOM     16  C   UNL     1      40.896 -36.946  -0.599  1.00  0.00     0.039 C 
BRANCH  13  17
ATOM     17  C   UNL     1      40.223 -39.651  -1.543  1.00  0.00     0.066 CG0
ATOM     18  G   UNL     1      39.123 -39.094  -2.415  1.00  0.00     0.000 G0
ENDBRANCH  13  17
ENDBRANCH  11  13
ENDBRANCH  10  11
ENDBRANCH   1  10
TORSDOF 0
ENDMDL
MODEL 2
REMARK VINA RESULT:    -3.697      2.076      4.865
REMARK INTER + INTRA:          -4.822
REMARK INTER:                  -5.221
REMARK INTRA:                   0.399
REMARK UNBOUND:                 0.387
REMARK SMILES CC1=CCC(=C(C)C)C(=O)CC(C)=CCC1
REMARK SMILES IDX 12 1 14 2 13 3 15 4 16 5 2 6 1 7 3 8 11 10 9 11 10 12 5 13
REMARK SMILES IDX 6 14 7 15 8 16 4 17
REMARK H PARENT
REMARK Flexibility Score: 60.00
ROOT
ATOM      1  C   UNL     1      38.320 -40.240  -3.715  1.00  0.00    -0.070 C 
ATOM      2  C   UNL     1      38.384 -39.948  -2.394  1.00  0.00    -0.027 C 
ATOM      3  C   UNL     1      37.293 -39.505  -4.541  1.00  0.00     0.039 C 
ENDROOT
BRANCH   2   4
ATOM      4  C   UNL     1      39.397 -40.481  -1.409  1.00  0.00     0.032 C 
BRANCH   4   5
ATOM      5  C   UNL     1      40.641 -39.581  -1.293  1.00  0.00     0.034 C 
BRANCH   5   6
ATOM      6  C   UNL     1      41.931 -40.369  -1.412  1.00  0.00    -0.077 C 
ATOM      7  C   UNL     1      42.423 -41.123  -0.202  1.00  0.00     0.039 C 
ATOM      8  C   UNL     1      42.682 -40.414  -2.535  1.00  0.00    -0.023 CG0
ATOM      9  G   UNL     1      42.376 -39.702  -3.831  1.00  0.00     0.000 G0
ENDBRANCH   5   6
ENDBRANCH   4   5
ENDBRANCH   2   4
BRANCH   1  10
ATOM     10  C   UNL     1      39.262 -41.207  -4.413  1.00  0.00     0.111 C 
BRANCH  10  11
ATOM     11  C   UNL     1      40.331 -40.477  -5.190  1.00  0.00     0.163 C 
ATOM     12  O   UNL     1      39.970 -39.753  -6.157  1.00  0.00    -0.294 OA
BRANCH  11  13
ATOM     13  C   UNL     1      41.785 -40.633  -4.876  1.00  0.00    -0.002 C 
ATOM     14  C   UNL     1      42.570 -41.536  -5.537  1.00  0.00    -0.069 C 
ATOM     15  C   UNL     1      42.029 -42.376  -6.672  1.00  0.00     0.039 C 
ATOM     16  C   UNL     1      44.032 -41.713  -5.187  1.00  0.00     0.039 C 
BRANCH  13  17
ATOM     17  C   UNL     1      42.372 -39.690  -3.841  1.00  0.00     0.066 CG0
ATOM     18  G   UNL     1      42.668 -40.445  -2.568  1.00  0.00     0.000 G0
ENDBRANCH  13  17
ENDBRANCH  11  13
ENDBRANCH  10  11
ENDBRANCH   1  10
TORSDOF 0
ENDMDL
MODEL 3
REMARK VINA RESULT:    -3.564      1.585      3.739
REMARK INTER + INTRA:          -4.634
REMARK INTER:                  -5.025
REMARK INTRA:                   0.391
REMARK UNBOUND:                 0.387
REMARK SMILES CC1=CCC(=C(C)C)C(=O)CC(C)=CCC1
REMARK SMILES IDX 12 1 14 2 13 3 15 4 16 5 2 6 1 7 3 8 11 10 9 11 10 12 5 13
REMARK SMILES IDX 6 14 7 15 8 16 4 17
REMARK H PARENT
REMARK Flexibility Score: 60.00
ROOT
ATOM      1  C   UNL     1      42.860 -40.540  -4.252  1.00  0.00    -0.070 C 
ATOM      2  C   UNL     1      43.203 -40.564  -2.943  1.00  0.00    -0.027 C 
ATOM      3  C   UNL     1      43.629 -41.439  -5.190  1.00  0.00     0.039 C 
ENDROOT
BRANCH   2   4
ATOM      4  C   UNL     1      42.504 -39.833  -1.822  1.00  0.00     0.032 C 
BRANCH   4   5
ATOM      5  C   UNL     1      41.110 -40.413  -1.514  1.00  0.00     0.034 C 
BRANCH   5   6
ATOM      6  C   UNL     1      40.033 -39.347  -1.518  1.00  0.00    -0.077 C 
ATOM      7  C   UNL     1      40.166 -38.192  -0.557  1.00  0.00     0.039 C 
ATOM      8  C   UNL     1      38.943 -39.385  -2.316  1.00  0.00    -0.023 CG0
ATOM      9  G   UNL     1      38.616 -40.470  -3.313  1.00  0.00     0.000 G0
ENDBRANCH   5   6
ENDBRANCH   4   5
ENDBRANCH   2   4
BRANCH   1  10
ATOM     10  C   UNL     1      41.710 -39.717  -4.809  1.00  0.00     0.111 C 
BRANCH  10  11
ATOM     11  C   UNL     1      40.494 -40.569  -5.073  1.00  0.00     0.163 C 
ATOM     12  O   UNL     1      40.660 -41.676  -5.655  1.00  0.00    -0.294 OA
BRANCH  11  13
ATOM     13  C   UNL     1      39.114 -40.115  -4.714  1.00  0.00    -0.002 C 
ATOM     14  C   UNL     1      38.318 -39.457  -5.611  1.00  0.00    -0.069 C 
ATOM     15  C   UNL     1      38.761 -39.216  -7.036  1.00  0.00     0.039 C 
ATOM     16  C   UNL     1      36.938 -38.968  -5.227  1.00  0.00     0.039 C 
BRANCH  13  17
ATOM     17  C   UNL     1      38.604 -40.484  -3.333  1.00  0.00     0.066 CG0
ATOM     18  G   UNL     1      38.936 -39.385  -2.353  1.00  0.00     0.000 G0
ENDBRANCH  13  17
ENDBRANCH  11  13
ENDBRANCH  10  11
ENDBRANCH   1  10
TORSDOF 0
ENDMDL
MODEL 4
REMARK VINA RESULT:    -3.545      1.953      4.018
REMARK INTER + INTRA:          -4.608
REMARK INTER:                  -5.020
REMARK INTRA:                   0.411
REMARK UNBOUND:                 0.387
REMARK SMILES CC1=CCC(=C(C)C)C(=O)CC(C)=CCC1
REMARK SMILES IDX 12 1 14 2 13 3 15 4 16 5 2 6 1 7 3 8 11 10 9 11 10 12 5 13
REMARK SMILES IDX 6 14 7 15 8 16 4 17
REMARK H PARENT
REMARK Flexibility Score: 60.00
ROOT
ATOM      1  C   UNL     1      38.511 -40.535  -3.953  1.00  0.00    -0.070 C 
ATOM      2  C   UNL     1      39.060 -40.453  -5.188  1.00  0.00    -0.027 C 
ATOM      3  C   UNL     1      37.050 -40.182  -3.816  1.00  0.00     0.039 C 
ENDROOT
BRANCH   2   4
ATOM      4  C   UNL     1      40.464 -40.857  -5.571  1.00  0.00     0.032 C 
BRANCH   4   5
ATOM      5  C   UNL     1      41.528 -39.882  -5.032  1.00  0.00     0.034 C 
BRANCH   5   6
ATOM      6  C   UNL     1      42.669 -40.604  -4.343  1.00  0.00    -0.077 C 
ATOM      7  C   UNL     1      43.418 -41.661  -5.116  1.00  0.00     0.039 C 
ATOM      8  C   UNL     1      43.039 -40.374  -3.064  1.00  0.00    -0.023 CG0
ATOM      9  G   UNL     1      42.393 -39.387  -2.121  1.00  0.00     0.000 G0
ENDBRANCH   5   6
ENDBRANCH   4   5
ENDBRANCH   2   4
BRANCH   1  10
ATOM     10  C   UNL     1      39.263 -41.020  -2.725  1.00  0.00     0.111 C 
BRANCH  10  11
ATOM     11  C   UNL     1      39.889 -39.874  -1.968  1.00  0.00     0.163 C 
ATOM     12  O   UNL     1      39.251 -38.788  -1.902  1.00  0.00    -0.294 OA
BRANCH  11  13
ATOM     13  C   UNL     1      41.247 -39.980  -1.350  1.00  0.00    -0.002 C 
ATOM     14  C   UNL     1      41.457 -40.671  -0.189  1.00  0.00    -0.069 C 
ATOM     15  C   UNL     1      40.342 -41.428   0.495  1.00  0.00     0.039 C 
ATOM     16  C   UNL     1      42.828 -40.742   0.448  1.00  0.00     0.039 C 
BRANCH  13  17
ATOM     17  C   UNL     1      42.401 -39.349  -2.109  1.00  0.00     0.066 CG0
ATOM     18  G   UNL     1      43.015 -40.363  -3.044  1.00  0.00     0.000 G0
ENDBRANCH  13  17
ENDBRANCH  11  13
ENDBRANCH  10  11
ENDBRANCH   1  10
TORSDOF 0
ENDMDL
MODEL 5
REMARK VINA RESULT:    -3.389      1.594      1.807
REMARK INTER + INTRA:          -4.389
REMARK INTER:                  -5.350
REMARK INTRA:                   0.962
REMARK UNBOUND:                 0.387
REMARK SMILES CC1=CCC(=C(C)C)C(=O)CC(C)=CCC1
REMARK SMILES IDX 12 1 14 2 13 3 15 4 16 5 2 6 1 7 3 8 11 10 9 11 10 12 5 13
REMARK SMILES IDX 6 14 7 15 8 16 4 17
REMARK H PARENT
REMARK Flexibility Score: 60.00
ROOT
ATOM      1  C   UNL     1      42.225 -40.490  -4.817  1.00  0.00    -0.070 C 
ATOM      2  C   UNL     1      41.097 -40.912  -5.436  1.00  0.00    -0.027 C 
ATOM      3  C   UNL     1      43.433 -41.393  -4.882  1.00  0.00     0.039 C 
ENDROOT
BRANCH   2   4
ATOM      4  C   UNL     1      39.814 -40.130  -5.587  1.00  0.00     0.032 C 
BRANCH   4   5
ATOM      5  C   UNL     1      38.609 -40.840  -4.942  1.00  0.00     0.034 C 
BRANCH   5   6
ATOM      6  C   UNL     1      38.095 -40.102  -3.721  1.00  0.00    -0.077 C 
ATOM      7  C   UNL     1      36.872 -39.232  -3.873  1.00  0.00     0.039 C 
ATOM      8  C   UNL     1      38.686 -40.158  -2.507  1.00  0.00    -0.023 CG0
ATOM      9  G   UNL     1      39.931 -40.941  -2.166  1.00  0.00     0.000 G0
ENDBRANCH   5   6
ENDBRANCH   4   5
ENDBRANCH   2   4
BRANCH   1  10
ATOM     10  C   UNL     1      42.357 -39.143  -4.127  1.00  0.00     0.111 C 
BRANCH  10  11
ATOM     11  C   UNL     1      41.318 -38.969  -3.047  1.00  0.00     0.163 C 
ATOM     12  O   UNL     1      40.644 -37.903  -3.037  1.00  0.00    -0.294 OA
BRANCH  11  13
ATOM     13  C   UNL     1      41.109 -39.992  -1.975  1.00  0.00    -0.002 C 
ATOM     14  C   UNL     1      41.896 -40.033  -0.857  1.00  0.00    -0.069 C 
ATOM     15  C   UNL     1      42.972 -39.001  -0.608  1.00  0.00     0.039 C 
ATOM     16  C   UNL     1      41.702 -41.094   0.204  1.00  0.00     0.039 C 
BRANCH  13  17
ATOM     17  C   UNL     1      39.936 -40.940  -2.145  1.00  0.00     0.066 CG0
ATOM     18  G   UNL     1      38.692 -40.158  -2.494  1.00  0.00     0.000 G0
ENDBRANCH  13  17
ENDBRANCH  11  13
ENDBRANCH  10  11
ENDBRANCH   1  10
TORSDOF 0
ENDMDL
MODEL 6
REMARK VINA RESULT:    -3.224      2.414      4.407
REMARK INTER + INTRA:          -4.157
REMARK INTER:                  -4.787
REMARK INTRA:                   0.630
REMARK UNBOUND:                 0.387
REMARK SMILES CC1=CCC(=C(C)C)C(=O)CC(C)=CCC1
REMARK SMILES IDX 12 1 14 2 13 3 15 4 16 5 2 6 1 7 3 8 11 10 9 11 10 12 5 13
REMARK SMILES IDX 6 14 7 15 8 16 4 17
REMARK H PARENT
REMARK Flexibility Score: 60.00
ROOT
ATOM      1  C   UNL     1      42.682 -40.725   0.717  1.00  0.00    -0.070 C 
ATOM      2  C   UNL     1      41.680 -41.348   1.380  1.00  0.00    -0.027 C 
ATOM      3  C   UNL     1      43.583 -39.814   1.514  1.00  0.00     0.039 C 
ENDROOT
BRANCH   2   4
ATOM      4  C   UNL     1      40.732 -42.375   0.809  1.00  0.00     0.032 C 
BRANCH   4   5
ATOM      5  C   UNL     1      39.274 -41.880   0.771  1.00  0.00     0.034 C 
BRANCH   5   6
ATOM      6  C   UNL     1      39.171 -40.433   0.331  1.00  0.00    -0.077 C 
ATOM      7  C   UNL     1      38.724 -39.407   1.342  1.00  0.00     0.039 C 
ATOM      8  C   UNL     1      39.433 -40.011  -0.926  1.00  0.00    -0.023 CG0
ATOM      9  G   UNL     1      39.857 -40.886  -2.081  1.00  0.00     0.000 G0
ENDBRANCH   5   6
ENDBRANCH   4   5
ENDBRANCH   2   4
BRANCH   1  10
ATOM     10  C   UNL     1      42.984 -40.944  -0.756  1.00  0.00     0.111 C 
BRANCH  10  11
ATOM     11  C   UNL     1      42.232 -39.969  -1.628  1.00  0.00     0.163 C 
ATOM     12  O   UNL     1      42.452 -38.738  -1.468  1.00  0.00    -0.294 OA
BRANCH  11  13
ATOM     13  C   UNL     1      41.211 -40.420  -2.624  1.00  0.00    -0.002 C 
ATOM     14  C   UNL     1      41.492 -40.490  -3.960  1.00  0.00    -0.069 C 
ATOM     15  C   UNL     1      42.872 -40.185  -4.497  1.00  0.00     0.039 C 
ATOM     16  C   UNL     1      40.441 -40.913  -4.965  1.00  0.00     0.039 C 
BRANCH  13  17
ATOM     17  C   UNL     1      39.868 -40.872  -2.079  1.00  0.00     0.066 CG0
ATOM     18  G   UNL     1      39.463 -39.994  -0.919  1.00  0.00     0.000 G0
ENDBRANCH  13  17
ENDBRANCH  11  13
ENDBRANCH  10  11
ENDBRANCH   1  10
TORSDOF 0
ENDMDL
MODEL 7
REMARK VINA RESULT:    -2.992      2.877      4.015
REMARK INTER + INTRA:          -3.829
REMARK INTER:                  -4.202
REMARK INTRA:                   0.373
REMARK UNBOUND:                 0.387
REMARK SMILES CC1=CCC(=C(C)C)C(=O)CC(C)=CCC1
REMARK SMILES IDX 12 1 14 2 13 3 15 4 16 5 2 6 1 7 3 8 11 10 9 11 10 12 5 13
REMARK SMILES IDX 6 14 7 15 8 16 4 17
REMARK H PARENT
REMARK Flexibility Score: 60.00
ROOT
ATOM      1  C   UNL     1      38.250 -39.717  -5.702  1.00  0.00    -0.070 C 
ATOM      2  C   UNL     1      37.702 -38.721  -6.438  1.00  0.00    -0.027 C 
ATOM      3  C   UNL     1      37.338 -40.829  -5.247  1.00  0.00     0.039 C 
ENDROOT
BRANCH   2   4
ATOM      4  C   UNL     1      38.442 -37.573  -7.082  1.00  0.00     0.032 C 
BRANCH   4   5
ATOM      5  C   UNL     1      38.684 -36.404  -6.108  1.00  0.00     0.034 C 
BRANCH   5   6
ATOM      6  C   UNL     1      40.153 -36.046  -5.997  1.00  0.00    -0.077 C 
ATOM      7  C   UNL     1      40.825 -35.406  -7.186  1.00  0.00     0.039 C 
ATOM      8  C   UNL     1      40.905 -36.291  -4.901  1.00  0.00    -0.023 CG0
ATOM      9  G   UNL     1      40.425 -36.952  -3.631  1.00  0.00     0.000 G0
ENDBRANCH   5   6
ENDBRANCH   4   5
ENDBRANCH   2   4
BRANCH   1  10
ATOM     10  C   UNL     1      39.731 -39.805  -5.371  1.00  0.00     0.111 C 
BRANCH  10  11
ATOM     11  C   UNL     1      39.998 -39.465  -3.926  1.00  0.00     0.163 C 
ATOM     12  O   UNL     1      39.363 -40.100  -3.040  1.00  0.00    -0.294 OA
BRANCH  11  13
ATOM     13  C   UNL     1      40.942 -38.374  -3.530  1.00  0.00    -0.002 C 
ATOM     14  C   UNL     1      42.235 -38.638  -3.171  1.00  0.00    -0.069 C 
ATOM     15  C   UNL     1      42.803 -40.039  -3.224  1.00  0.00     0.039 C 
ATOM     16  C   UNL     1      43.173 -37.533  -2.736  1.00  0.00     0.039 C 
BRANCH  13  17
ATOM     17  C   UNL     1      40.426 -36.950  -3.616  1.00  0.00     0.066 CG0
ATOM     18  G   UNL     1      40.917 -36.303  -4.889  1.00  0.00     0.000 G0
ENDBRANCH  13  17
ENDBRANCH  11  13
ENDBRANCH  10  11
ENDBRANCH   1  10
TORSDOF 0
ENDMDL
MODEL 8
REMARK VINA RESULT:    -2.983      2.090      4.287
REMARK INTER + INTRA:          -3.816
REMARK INTER:                  -4.524
REMARK INTRA:                   0.708
REMARK UNBOUND:                 0.387
REMARK SMILES CC1=CCC(=C(C)C)C(=O)CC(C)=CCC1
REMARK SMILES IDX 12 1 14 2 13 3 15 4 16 5 2 6 1 7 3 8 11 10 9 11 10 12 5 13
REMARK SMILES IDX 6 14 7 15 8 16 4 17
REMARK H PARENT
REMARK Flexibility Score: 60.00
ROOT
ATOM      1  C   UNL     1      41.114 -40.634  -4.503  1.00  0.00    -0.070 C 
ATOM      2  C   UNL     1      42.335 -40.108  -4.247  1.00  0.00    -0.027 C 
ATOM      3  C   UNL     1      40.907 -41.291  -5.846  1.00  0.00     0.039 C 
ENDROOT
BRANCH   2   4
ATOM      4  C   UNL     1      42.792 -39.503  -2.941  1.00  0.00     0.032 C 
BRANCH   4   5
ATOM      5  C   UNL     1      42.930 -37.971  -3.015  1.00  0.00     0.034 C 
BRANCH   5   6
ATOM      6  C   UNL     1      41.760 -37.258  -2.366  1.00  0.00    -0.077 C 
ATOM      7  C   UNL     1      41.859 -36.906  -0.903  1.00  0.00     0.039 C 
ATOM      8  C   UNL     1      40.619 -36.943  -3.018  1.00  0.00    -0.023 CG0
ATOM      9  G   UNL     1      40.318 -37.241  -4.466  1.00  0.00     0.000 G0
ENDBRANCH   5   6
ENDBRANCH   4   5
ENDBRANCH   2   4
BRANCH   1  10
ATOM     10  C   UNL     1      39.976 -40.657  -3.496  1.00  0.00     0.111 C 
BRANCH  10  11
ATOM     11  C   UNL     1      39.253 -39.333  -3.446  1.00  0.00     0.163 C 
ATOM     12  O   UNL     1      38.555 -39.077  -2.428  1.00  0.00    -0.294 OA
BRANCH  11  13
ATOM     13  C   UNL     1      39.303 -38.360  -4.581  1.00  0.00    -0.002 C 
ATOM     14  C   UNL     1      38.440 -38.443  -5.638  1.00  0.00    -0.069 C 
ATOM     15  C   UNL     1      37.340 -39.480  -5.684  1.00  0.00     0.039 C 
ATOM     16  C   UNL     1      38.522 -37.476  -6.800  1.00  0.00     0.039 C 
BRANCH  13  17
ATOM     17  C   UNL     1      40.306 -37.225  -4.472  1.00  0.00     0.066 CG0
ATOM     18  G   UNL     1      40.622 -36.957  -3.021  1.00  0.00     0.000 G0
ENDBRANCH  13  17
ENDBRANCH  11  13
ENDBRANCH  10  11
ENDBRANCH   1  10
TORSDOF 0
ENDMDL
MODEL 9
REMARK VINA RESULT:    -2.977      1.584      3.808
REMARK INTER + INTRA:          -3.808
REMARK INTER:                  -4.557
REMARK INTRA:                   0.749
REMARK UNBOUND:                 0.387
REMARK SMILES CC1=CCC(=C(C)C)C(=O)CC(C)=CCC1
REMARK SMILES IDX 12 1 14 2 13 3 15 4 16 5 2 6 1 7 3 8 11 10 9 11 10 12 5 13
REMARK SMILES IDX 6 14 7 15 8 16 4 17
REMARK H PARENT
REMARK Flexibility Score: 60.00
ROOT
ATOM      1  C   UNL     1      41.888 -40.359  -4.875  1.00  0.00    -0.070 C 
ATOM      2  C   UNL     1      42.788 -39.780  -4.045  1.00  0.00    -0.027 C 
ATOM      3  C   UNL     1      42.314 -41.613  -5.598  1.00  0.00     0.039 C 
ENDROOT
BRANCH   2   4
ATOM      4  C   UNL     1      42.542 -38.590  -3.149  1.00  0.00     0.032 C 
BRANCH   4   5
ATOM      5  C   UNL     1      42.780 -38.910  -1.661  1.00  0.00     0.034 C 
BRANCH   5   6
ATOM      6  C   UNL     1      41.895 -40.038  -1.169  1.00  0.00    -0.077 C 
ATOM      7  C   UNL     1      42.552 -41.247  -0.552  1.00  0.00     0.039 C 
ATOM      8  C   UNL     1      40.547 -40.035  -1.275  1.00  0.00    -0.023 CG0
ATOM      9  G   UNL     1      39.712 -38.938  -1.890  1.00  0.00     0.000 G0
ENDBRANCH   5   6
ENDBRANCH   4   5
ENDBRANCH   2   4
BRANCH   1  10
ATOM     10  C   UNL     1      40.466 -39.856  -5.061  1.00  0.00     0.111 C 
BRANCH  10  11
ATOM     11  C   UNL     1      39.546 -40.383  -3.987  1.00  0.00     0.163 C 
ATOM     12  O   UNL     1      39.328 -41.624  -3.949  1.00  0.00    -0.294 OA
BRANCH  11  13
ATOM     13  C   UNL     1      38.859 -39.475  -3.017  1.00  0.00    -0.002 C 
ATOM     14  C   UNL     1      37.521 -39.204  -3.110  1.00  0.00    -0.069 C 
ATOM     15  C   UNL     1      36.649 -39.863  -4.154  1.00  0.00     0.039 C 
ATOM     16  C   UNL     1      36.841 -38.255  -2.146  1.00  0.00     0.039 C 
BRANCH  13  17
ATOM     17  C   UNL     1      39.694 -38.925  -1.875  1.00  0.00     0.066 CG0
ATOM     18  G   UNL     1      40.525 -40.031  -1.269  1.00  0.00     0.000 G0
ENDBRANCH  13  17
ENDBRANCH  11  13
ENDBRANCH  10  11
ENDBRANCH   1  10
TORSDOF 0
ENDMDL
