MODEL 1
REMARK VINA RESULT:    -3.400      0.000      0.000
REMARK INTER + INTRA:          -4.281
REMARK INTER:                  -4.095
REMARK INTRA:                  -0.185
REMARK UNBOUND:                -0.185
REMARK SMILES OCC(O)CO
REMARK SMILES IDX 3 1 5 2 6 3 2 5 1 6 4 8
REMARK H PARENT 6 4 1 7 4 9
REMARK Flexibility Score: inf
ROOT
ATOM      1  C   UNL     1       1.668 -27.569   9.922  1.00  0.00     0.165 C 
ENDROOT
BRANCH   1   2
ATOM      2  C   UNL     1       1.837 -26.209  10.619  1.00  0.00     0.190 C 
BRANCH   2   3
ATOM      3  O   UNL     1       2.792 -25.434   9.950  1.00  0.00    -0.394 OA
ATOM      4  H   UNL     1       2.639 -25.584   8.980  1.00  0.00     0.210 HD
ENDBRANCH   2   3
ENDBRANCH   1   2
BRANCH   1   5
ATOM      5  C   UNL     1       2.527 -28.673  10.570  1.00  0.00     0.190 C 
BRANCH   5   6
ATOM      6  O   UNL     1       3.884 -28.320  10.573  1.00  0.00    -0.394 OA
ATOM      7  H   UNL     1       3.929 -27.361  10.322  1.00  0.00     0.210 HD
ENDBRANCH   5   6
ENDBRANCH   1   5
BRANCH   1   8
ATOM      8  O   UNL     1       1.980 -27.454   8.556  1.00  0.00    -0.388 OA
ATOM      9  H   UNL     1       2.251 -28.353   8.235  1.00  0.00     0.211 HD
ENDBRANCH   1   8
TORSDOF 5
ENDMDL
MODEL 2
REMARK VINA RESULT:    -3.164      0.807      2.616
REMARK INTER + INTRA:          -3.996
REMARK INTER:                  -3.782
REMARK INTRA:                  -0.214
REMARK UNBOUND:                -0.185
REMARK SMILES OCC(O)CO
REMARK SMILES IDX 3 1 5 2 6 3 2 5 1 6 4 8
REMARK H PARENT 6 4 1 7 4 9
REMARK Flexibility Score: inf
ROOT
ATOM      1  C   UNL     1       2.350 -28.033  10.247  1.00  0.00     0.165 C 
ENDROOT
BRANCH   1   2
ATOM      2  C   UNL     1       2.093 -28.496   8.804  1.00  0.00     0.190 C 
BRANCH   2   3
ATOM      3  O   UNL     1       1.197 -27.630   8.167  1.00  0.00    -0.394 OA
ATOM      4  H   UNL     1       1.121 -26.831   8.752  1.00  0.00     0.210 HD
ENDBRANCH   2   3
ENDBRANCH   1   2
BRANCH   1   5
ATOM      5  C   UNL     1       1.861 -26.592  10.498  1.00  0.00     0.190 C 
BRANCH   5   6
ATOM      6  O   UNL     1       2.723 -25.656   9.908  1.00  0.00    -0.394 OA
ATOM      7  H   UNL     1       2.489 -25.623   8.944  1.00  0.00     0.210 HD
ENDBRANCH   5   6
ENDBRANCH   1   5
BRANCH   1   8
ATOM      8  O   UNL     1       3.718 -28.138  10.553  1.00  0.00    -0.388 OA
ATOM      9  H   UNL     1       3.844 -27.803  11.479  1.00  0.00     0.211 HD
ENDBRANCH   1   8
TORSDOF 5
ENDMDL
MODEL 3
REMARK VINA RESULT:    -3.156     20.393     21.184
REMARK INTER + INTRA:          -3.987
REMARK INTER:                  -3.984
REMARK INTRA:                  -0.003
REMARK UNBOUND:                -0.185
REMARK SMILES OCC(O)CO
REMARK SMILES IDX 3 1 5 2 6 3 2 5 1 6 4 8
REMARK H PARENT 6 4 1 7 4 9
REMARK Flexibility Score: inf
ROOT
ATOM      1  C   UNL     1      -5.307 -15.337  25.130  1.00  0.00     0.165 C 
ENDROOT
BRANCH   1   2
ATOM      2  C   UNL     1      -4.737 -16.047  26.369  1.00  0.00     0.190 C 
BRANCH   2   3
ATOM      3  O   UNL     1      -3.340 -16.106  26.297  1.00  0.00    -0.394 OA
ATOM      4  H   UNL     1      -3.008 -15.255  26.686  1.00  0.00     0.210 HD
ENDBRANCH   2   3
ENDBRANCH   1   2
BRANCH   1   5
ATOM      5  C   UNL     1      -6.257 -14.181  25.500  1.00  0.00     0.190 C 
BRANCH   5   6
ATOM      6  O   UNL     1      -6.046 -13.068  24.673  1.00  0.00    -0.394 OA
ATOM      7  H   UNL     1      -5.079 -13.064  24.445  1.00  0.00     0.210 HD
ENDBRANCH   5   6
ENDBRANCH   1   5
BRANCH   1   8
ATOM      8  O   UNL     1      -5.971 -16.262  24.306  1.00  0.00    -0.388 OA
ATOM      9  H   UNL     1      -6.838 -15.857  24.041  1.00  0.00     0.211 HD
ENDBRANCH   1   8
TORSDOF 5
ENDMDL
MODEL 4
REMARK VINA RESULT:    -3.105      0.772      2.464
REMARK INTER + INTRA:          -3.925
REMARK INTER:                  -3.746
REMARK INTRA:                  -0.180
REMARK UNBOUND:                -0.185
REMARK SMILES OCC(O)CO
REMARK SMILES IDX 3 1 5 2 6 3 2 5 1 6 4 8
REMARK H PARENT 6 4 1 7 4 9
REMARK Flexibility Score: inf
ROOT
ATOM      1  C   UNL     1       1.925 -27.698   9.272  1.00  0.00     0.165 C 
ENDROOT
BRANCH   1   2
ATOM      2  C   UNL     1       2.696 -28.879   9.883  1.00  0.00     0.190 C 
BRANCH   2   3
ATOM      3  O   UNL     1       3.828 -28.419  10.567  1.00  0.00    -0.394 OA
ATOM      4  H   UNL     1       4.100 -27.577  10.116  1.00  0.00     0.210 HD
ENDBRANCH   2   3
ENDBRANCH   1   2
BRANCH   1   5
ATOM      5  C   UNL     1       1.781 -26.519  10.254  1.00  0.00     0.190 C 
BRANCH   5   6
ATOM      6  O   UNL     1       2.718 -25.513   9.978  1.00  0.00    -0.394 OA
ATOM      7  H   UNL     1       2.945 -25.593   9.015  1.00  0.00     0.210 HD
ENDBRANCH   5   6
ENDBRANCH   1   5
BRANCH   1   8
ATOM      8  O   UNL     1       0.657 -28.121   8.837  1.00  0.00    -0.388 OA
ATOM      9  H   UNL     1       0.076 -27.319   8.784  1.00  0.00     0.211 HD
ENDBRANCH   1   8
TORSDOF 5
ENDMDL
MODEL 5
REMARK VINA RESULT:    -3.079     20.587     21.177
REMARK INTER + INTRA:          -3.895
REMARK INTER:                  -3.890
REMARK INTRA:                  -0.004
REMARK UNBOUND:                -0.185
REMARK SMILES OCC(O)CO
REMARK SMILES IDX 3 1 5 2 6 3 2 5 1 6 4 8
REMARK H PARENT 6 4 1 7 4 9
REMARK Flexibility Score: inf
ROOT
ATOM      1  C   UNL     1      -5.761 -15.313  25.546  1.00  0.00     0.165 C 
ENDROOT
BRANCH   1   2
ATOM      2  C   UNL     1      -6.329 -13.887  25.459  1.00  0.00     0.190 C 
BRANCH   2   3
ATOM      3  O   UNL     1      -5.462 -13.062  24.733  1.00  0.00    -0.394 OA
ATOM      4  H   UNL     1      -4.739 -12.800  25.361  1.00  0.00     0.210 HD
ENDBRANCH   2   3
ENDBRANCH   1   2
BRANCH   1   5
ATOM      5  C   UNL     1      -4.257 -15.328  25.882  1.00  0.00     0.190 C 
BRANCH   5   6
ATOM      6  O   UNL     1      -3.922 -16.449  26.655  1.00  0.00    -0.394 OA
ATOM      7  H   UNL     1      -3.100 -16.834  26.254  1.00  0.00     0.210 HD
ENDBRANCH   5   6
ENDBRANCH   1   5
BRANCH   1   8
ATOM      8  O   UNL     1      -5.993 -16.000  24.342  1.00  0.00    -0.388 OA
ATOM      9  H   UNL     1      -6.419 -15.363  23.711  1.00  0.00     0.211 HD
ENDBRANCH   1   8
TORSDOF 5
ENDMDL
MODEL 6
REMARK VINA RESULT:    -2.964      0.982      2.341
REMARK INTER + INTRA:          -3.756
REMARK INTER:                  -3.534
REMARK INTRA:                  -0.222
REMARK UNBOUND:                -0.185
REMARK SMILES OCC(O)CO
REMARK SMILES IDX 3 1 5 2 6 3 2 5 1 6 4 8
REMARK H PARENT 6 4 1 7 4 9
REMARK Flexibility Score: inf
ROOT
ATOM      1  C   UNL     1       1.678 -27.517   9.855  1.00  0.00     0.165 C 
ENDROOT
BRANCH   1   2
ATOM      2  C   UNL     1       2.453 -28.461  10.788  1.00  0.00     0.190 C 
BRANCH   2   3
ATOM      3  O   UNL     1       3.830 -28.353  10.556  1.00  0.00    -0.394 OA
ATOM      4  H   UNL     1       4.078 -29.136   9.998  1.00  0.00     0.210 HD
ENDBRANCH   2   3
ENDBRANCH   1   2
BRANCH   1   5
ATOM      5  C   UNL     1       1.466 -28.120   8.452  1.00  0.00     0.190 C 
BRANCH   5   6
ATOM      6  O   UNL     1       2.669 -28.613   7.927  1.00  0.00    -0.394 OA
ATOM      7  H   UNL     1       3.094 -27.862   7.436  1.00  0.00     0.210 HD
ENDBRANCH   5   6
ENDBRANCH   1   5
BRANCH   1   8
ATOM      8  O   UNL     1       2.342 -26.283   9.755  1.00  0.00    -0.388 OA
ATOM      9  H   UNL     1       1.960 -25.680  10.445  1.00  0.00     0.211 HD
ENDBRANCH   1   8
TORSDOF 5
ENDMDL
MODEL 7
REMARK VINA RESULT:    -2.870     15.892     16.907
REMARK INTER + INTRA:          -3.643
REMARK INTER:                  -3.419
REMARK INTRA:                  -0.223
REMARK UNBOUND:                -0.185
REMARK SMILES OCC(O)CO
REMARK SMILES IDX 3 1 5 2 6 3 2 5 1 6 4 8
REMARK H PARENT 6 4 1 7 4 9
REMARK Flexibility Score: inf
ROOT
ATOM      1  C   UNL     1      10.213 -13.758  17.920  1.00  0.00     0.165 C 
ENDROOT
BRANCH   1   2
ATOM      2  C   UNL     1       9.870 -13.019  16.617  1.00  0.00     0.190 C 
BRANCH   2   3
ATOM      3  O   UNL     1       9.261 -13.894  15.708  1.00  0.00    -0.394 OA
ATOM      4  H   UNL     1       9.245 -14.783  16.149  1.00  0.00     0.210 HD
ENDBRANCH   2   3
ENDBRANCH   1   2
BRANCH   1   5
ATOM      5  C   UNL     1       9.550 -15.147  18.001  1.00  0.00     0.190 C 
BRANCH   5   6
ATOM      6  O   UNL     1      10.321 -16.115  17.342  1.00  0.00    -0.394 OA
ATOM      7  H   UNL     1      10.157 -16.975  17.810  1.00  0.00     0.210 HD
ENDBRANCH   5   6
ENDBRANCH   1   5
BRANCH   1   8
ATOM      8  O   UNL     1       9.840 -12.980  19.030  1.00  0.00    -0.388 OA
ATOM      9  H   UNL     1       9.827 -12.031  18.739  1.00  0.00     0.211 HD
ENDBRANCH   1   8
TORSDOF 5
ENDMDL
MODEL 8
REMARK VINA RESULT:    -2.867     15.889     17.015
REMARK INTER + INTRA:          -3.640
REMARK INTER:                  -3.619
REMARK INTRA:                  -0.020
REMARK UNBOUND:                -0.185
REMARK SMILES OCC(O)CO
REMARK SMILES IDX 3 1 5 2 6 3 2 5 1 6 4 8
REMARK H PARENT 6 4 1 7 4 9
REMARK Flexibility Score: inf
ROOT
ATOM      1  C   UNL     1      10.147 -14.635  17.796  1.00  0.00     0.165 C 
ENDROOT
BRANCH   1   2
ATOM      2  C   UNL     1      10.347 -13.123  17.988  1.00  0.00     0.190 C 
BRANCH   2   3
ATOM      3  O   UNL     1       9.813 -12.714  19.216  1.00  0.00    -0.394 OA
ATOM      4  H   UNL     1       9.172 -11.985  19.009  1.00  0.00     0.210 HD
ENDBRANCH   2   3
ENDBRANCH   1   2
BRANCH   1   5
ATOM      5  C   UNL     1       9.799 -15.002  16.340  1.00  0.00     0.190 C 
BRANCH   5   6
ATOM      6  O   UNL     1       9.212 -13.917  15.672  1.00  0.00    -0.394 OA
ATOM      7  H   UNL     1       8.234 -13.983  15.828  1.00  0.00     0.210 HD
ENDBRANCH   5   6
ENDBRANCH   1   5
BRANCH   1   8
ATOM      8  O   UNL     1       9.147 -15.105  18.664  1.00  0.00    -0.388 OA
ATOM      9  H   UNL     1       9.340 -14.741  19.567  1.00  0.00     0.211 HD
ENDBRANCH   1   8
TORSDOF 5
ENDMDL
MODEL 9
REMARK VINA RESULT:    -2.798      6.775      7.433
REMARK INTER + INTRA:          -3.556
REMARK INTER:                  -3.333
REMARK INTRA:                  -0.223
REMARK UNBOUND:                -0.185
REMARK SMILES OCC(O)CO
REMARK SMILES IDX 3 1 5 2 6 3 2 5 1 6 4 8
REMARK H PARENT 6 4 1 7 4 9
REMARK Flexibility Score: inf
ROOT
ATOM      1  C   UNL     1      -1.975 -25.809  14.277  1.00  0.00     0.165 C 
ENDROOT
BRANCH   1   2
ATOM      2  C   UNL     1      -2.641 -26.886  15.148  1.00  0.00     0.190 C 
BRANCH   2   3
ATOM      3  O   UNL     1      -2.779 -26.431  16.465  1.00  0.00    -0.394 OA
ATOM      4  H   UNL     1      -2.657 -27.226  17.046  1.00  0.00     0.210 HD
ENDBRANCH   2   3
ENDBRANCH   1   2
BRANCH   1   5
ATOM      5  C   UNL     1      -1.036 -24.894  15.089  1.00  0.00     0.190 C 
BRANCH   5   6
ATOM      6  O   UNL     1      -1.730 -23.794  15.612  1.00  0.00    -0.394 OA
ATOM      7  H   UNL     1      -1.384 -22.991  15.142  1.00  0.00     0.210 HD
ENDBRANCH   5   6
ENDBRANCH   1   5
BRANCH   1   8
ATOM      8  O   UNL     1      -2.954 -25.039  13.627  1.00  0.00    -0.388 OA
ATOM      9  H   UNL     1      -3.155 -24.258  14.206  1.00  0.00     0.211 HD
ENDBRANCH   1   8
TORSDOF 5
ENDMDL
