MODEL 1
REMARK VINA RESULT:    -5.448      0.000      0.000
REMARK INTER + INTRA:          -5.607
REMARK INTER:                  -5.607
REMARK INTRA:                   0.000
REMARK UNBOUND:                 0.000
REMARK SMILES Cc1ccccc1O
REMARK SMILES IDX 1 1 2 2 3 3 4 4 5 5 6 6 7 7 8 8
REMARK H PARENT 8 9
REMARK Flexibility Score: inf
ROOT
ATOM      1  C   UNL     1      12.793  -9.569 -27.875  1.00  0.00     0.048 C 
ATOM      2  C   UNL     1      12.199 -10.919 -27.593  1.00  0.00    -0.009 A 
ATOM      3  C   UNL     1      12.161 -11.418 -26.279  1.00  0.00     0.007 A 
ATOM      4  C   UNL     1      11.609 -12.674 -26.017  1.00  0.00     0.001 A 
ATOM      5  C   UNL     1      11.090 -13.443 -27.061  1.00  0.00     0.004 A 
ATOM      6  C   UNL     1      11.122 -12.958 -28.370  1.00  0.00     0.046 A 
ATOM      7  C   UNL     1      11.676 -11.697 -28.643  1.00  0.00     0.118 A 
ENDROOT
BRANCH   7   8
ATOM      8  O   UNL     1      11.706 -11.216 -29.952  1.00  0.00    -0.508 OA
ATOM      9  H   UNL     1      11.849 -10.232 -30.152  1.00  0.00     0.293 HD
ENDBRANCH   7   8
TORSDOF 1
ENDMDL
MODEL 2
REMARK VINA RESULT:    -5.319      1.934      2.872
REMARK INTER + INTRA:          -5.474
REMARK INTER:                  -5.474
REMARK INTRA:                   0.000
REMARK UNBOUND:                 0.000
REMARK SMILES Cc1ccccc1O
REMARK SMILES IDX 1 1 2 2 3 3 4 4 5 5 6 6 7 7 8 8
REMARK H PARENT 8 9
REMARK Flexibility Score: inf
ROOT
ATOM      1  C   UNL     1      10.568 -12.569 -29.148  1.00  0.00     0.048 C 
ATOM      2  C   UNL     1      11.030 -12.421 -27.727  1.00  0.00    -0.009 A 
ATOM      3  C   UNL     1      11.485 -11.178 -27.255  1.00  0.00     0.007 A 
ATOM      4  C   UNL     1      11.915 -11.040 -25.932  1.00  0.00     0.001 A 
ATOM      5  C   UNL     1      11.894 -12.139 -25.070  1.00  0.00     0.004 A 
ATOM      6  C   UNL     1      11.444 -13.380 -25.530  1.00  0.00     0.046 A 
ATOM      7  C   UNL     1      11.010 -13.527 -26.856  1.00  0.00     0.118 A 
ENDROOT
BRANCH   7   8
ATOM      8  O   UNL     1      10.561 -14.767 -27.310  1.00  0.00    -0.508 OA
ATOM      9  H   UNL     1       9.694 -15.173 -26.975  1.00  0.00     0.293 HD
ENDBRANCH   7   8
TORSDOF 1
ENDMDL
MODEL 3
REMARK VINA RESULT:    -5.252      2.107      2.422
REMARK INTER + INTRA:          -5.406
REMARK INTER:                  -5.406
REMARK INTRA:                   0.000
REMARK UNBOUND:                 0.000
REMARK SMILES Cc1ccccc1O
REMARK SMILES IDX 1 1 2 2 3 3 4 4 5 5 6 6 7 7 8 8
REMARK H PARENT 8 9
REMARK Flexibility Score: inf
ROOT
ATOM      1  C   UNL     1      12.493  -9.610 -27.868  1.00  0.00     0.048 C 
ATOM      2  C   UNL     1      12.360 -10.885 -27.086  1.00  0.00    -0.009 A 
ATOM      3  C   UNL     1      13.172 -11.991 -27.390  1.00  0.00     0.007 A 
ATOM      4  C   UNL     1      13.049 -13.178 -26.663  1.00  0.00     0.001 A 
ATOM      5  C   UNL     1      12.117 -13.272 -25.628  1.00  0.00     0.004 A 
ATOM      6  C   UNL     1      11.304 -12.179 -25.317  1.00  0.00     0.046 A 
ATOM      7  C   UNL     1      11.420 -10.983 -26.043  1.00  0.00     0.118 A 
ENDROOT
BRANCH   7   8
ATOM      8  O   UNL     1      10.607  -9.894 -25.729  1.00  0.00    -0.508 OA
ATOM      9  H   UNL     1      10.993  -9.034 -25.354  1.00  0.00     0.293 HD
ENDBRANCH   7   8
TORSDOF 1
ENDMDL
MODEL 4
REMARK VINA RESULT:    -5.227      2.132      2.465
REMARK INTER + INTRA:          -5.379
REMARK INTER:                  -5.379
REMARK INTRA:                   0.000
REMARK UNBOUND:                 0.000
REMARK SMILES Cc1ccccc1O
REMARK SMILES IDX 1 1 2 2 3 3 4 4 5 5 6 6 7 7 8 8
REMARK H PARENT 8 9
REMARK Flexibility Score: inf
ROOT
ATOM      1  C   UNL     1      12.845  -9.540 -27.580  1.00  0.00     0.048 C 
ATOM      2  C   UNL     1      12.783 -11.030 -27.404  1.00  0.00    -0.009 A 
ATOM      3  C   UNL     1      11.607 -11.733 -27.717  1.00  0.00     0.007 A 
ATOM      4  C   UNL     1      11.548 -13.120 -27.553  1.00  0.00     0.001 A 
ATOM      5  C   UNL     1      12.661 -13.816 -27.075  1.00  0.00     0.004 A 
ATOM      6  C   UNL     1      13.835 -13.127 -26.761  1.00  0.00     0.046 A 
ATOM      7  C   UNL     1      13.902 -11.735 -26.922  1.00  0.00     0.118 A 
ENDROOT
BRANCH   7   8
ATOM      8  O   UNL     1      15.077 -11.051 -26.607  1.00  0.00    -0.508 OA
ATOM      9  H   UNL     1      15.767 -11.445 -25.977  1.00  0.00     0.293 HD
ENDBRANCH   7   8
TORSDOF 1
ENDMDL
MODEL 5
REMARK VINA RESULT:    -5.224      2.171      3.137
REMARK INTER + INTRA:          -5.377
REMARK INTER:                  -5.377
REMARK INTRA:                   0.000
REMARK UNBOUND:                 0.000
REMARK SMILES Cc1ccccc1O
REMARK SMILES IDX 1 1 2 2 3 3 4 4 5 5 6 6 7 7 8 8
REMARK H PARENT 8 9
REMARK Flexibility Score: inf
ROOT
ATOM      1  C   UNL     1      10.641 -12.794 -28.463  1.00  0.00     0.048 C 
ATOM      2  C   UNL     1      11.947 -12.428 -27.818  1.00  0.00    -0.009 A 
ATOM      3  C   UNL     1      12.312 -11.079 -27.670  1.00  0.00     0.007 A 
ATOM      4  C   UNL     1      13.527 -10.738 -27.070  1.00  0.00     0.001 A 
ATOM      5  C   UNL     1      14.388 -11.739 -26.613  1.00  0.00     0.004 A 
ATOM      6  C   UNL     1      14.035 -13.083 -26.756  1.00  0.00     0.046 A 
ATOM      7  C   UNL     1      12.817 -13.434 -27.357  1.00  0.00     0.118 A 
ENDROOT
BRANCH   7   8
ATOM      8  O   UNL     1      12.468 -14.778 -27.497  1.00  0.00    -0.508 OA
ATOM      9  H   UNL     1      11.743 -15.200 -26.928  1.00  0.00     0.293 HD
ENDBRANCH   7   8
TORSDOF 1
ENDMDL
MODEL 6
REMARK VINA RESULT:    -5.219      1.782      2.814
REMARK INTER + INTRA:          -5.372
REMARK INTER:                  -5.372
REMARK INTRA:                   0.000
REMARK UNBOUND:                 0.000
REMARK SMILES Cc1ccccc1O
REMARK SMILES IDX 1 1 2 2 3 3 4 4 5 5 6 6 7 7 8 8
REMARK H PARENT 8 9
REMARK Flexibility Score: inf
ROOT
ATOM      1  C   UNL     1      11.737 -12.126 -24.906  1.00  0.00     0.048 C 
ATOM      2  C   UNL     1      11.660 -11.975 -26.399  1.00  0.00    -0.009 A 
ATOM      3  C   UNL     1      12.201 -10.840 -27.026  1.00  0.00     0.007 A 
ATOM      4  C   UNL     1      12.130 -10.699 -28.414  1.00  0.00     0.001 A 
ATOM      5  C   UNL     1      11.519 -11.688 -29.188  1.00  0.00     0.004 A 
ATOM      6  C   UNL     1      10.978 -12.821 -28.575  1.00  0.00     0.046 A 
ATOM      7  C   UNL     1      11.045 -12.970 -27.182  1.00  0.00     0.118 A 
ENDROOT
BRANCH   7   8
ATOM      8  O   UNL     1      10.503 -14.103 -26.574  1.00  0.00    -0.508 OA
ATOM      9  H   UNL     1       9.502 -14.221 -26.468  1.00  0.00     0.293 HD
ENDBRANCH   7   8
TORSDOF 1
ENDMDL
MODEL 7
REMARK VINA RESULT:    -5.117      2.165      2.706
REMARK INTER + INTRA:          -5.267
REMARK INTER:                  -5.267
REMARK INTRA:                   0.000
REMARK UNBOUND:                 0.000
REMARK SMILES Cc1ccccc1O
REMARK SMILES IDX 1 1 2 2 3 3 4 4 5 5 6 6 7 7 8 8
REMARK H PARENT 8 9
REMARK Flexibility Score: inf
ROOT
ATOM      1  C   UNL     1      15.094 -12.855 -26.993  1.00  0.00     0.048 C 
ATOM      2  C   UNL     1      13.616 -12.607 -27.103  1.00  0.00    -0.009 A 
ATOM      3  C   UNL     1      12.727 -13.682 -27.270  1.00  0.00     0.007 A 
ATOM      4  C   UNL     1      11.352 -13.451 -27.373  1.00  0.00     0.001 A 
ATOM      5  C   UNL     1      10.854 -12.148 -27.309  1.00  0.00     0.004 A 
ATOM      6  C   UNL     1      11.729 -11.072 -27.143  1.00  0.00     0.046 A 
ATOM      7  C   UNL     1      13.111 -11.295 -27.039  1.00  0.00     0.118 A 
ENDROOT
BRANCH   7   8
ATOM      8  O   UNL     1      13.982 -10.217 -26.873  1.00  0.00    -0.508 OA
ATOM      9  H   UNL     1      14.467  -9.801 -27.660  1.00  0.00     0.293 HD
ENDBRANCH   7   8
TORSDOF 1
ENDMDL
MODEL 8
REMARK VINA RESULT:    -5.092      1.027      2.323
REMARK INTER + INTRA:          -5.241
REMARK INTER:                  -5.241
REMARK INTRA:                   0.000
REMARK UNBOUND:                 0.000
REMARK SMILES Cc1ccccc1O
REMARK SMILES IDX 1 1 2 2 3 3 4 4 5 5 6 6 7 7 8 8
REMARK H PARENT 8 9
REMARK Flexibility Score: inf
ROOT
ATOM      1  C   UNL     1      10.420 -12.493 -29.308  1.00  0.00     0.048 C 
ATOM      2  C   UNL     1      11.247 -12.369 -28.061  1.00  0.00    -0.009 A 
ATOM      3  C   UNL     1      11.075 -13.278 -27.003  1.00  0.00     0.007 A 
ATOM      4  C   UNL     1      11.844 -13.163 -25.842  1.00  0.00     0.001 A 
ATOM      5  C   UNL     1      12.790 -12.142 -25.726  1.00  0.00     0.004 A 
ATOM      6  C   UNL     1      12.969 -11.233 -26.771  1.00  0.00     0.046 A 
ATOM      7  C   UNL     1      12.201 -11.340 -27.941  1.00  0.00     0.118 A 
ENDROOT
BRANCH   7   8
ATOM      8  O   UNL     1      12.382 -10.430 -28.982  1.00  0.00    -0.508 OA
ATOM      9  H   UNL     1      12.438 -10.734 -29.948  1.00  0.00     0.293 HD
ENDBRANCH   7   8
TORSDOF 1
ENDMDL
