MODEL 1
REMARK VINA RESULT:    -3.791      0.000      0.000
REMARK INTER + INTRA:          -7.074
REMARK INTER:                  -6.007
REMARK INTRA:                  -1.066
REMARK UNBOUND:                -1.066
REMARK SMILES CCCCCCCCCCCC(=O)[O-]
REMARK SMILES IDX 7 1 8 2 9 3 10 4 11 5 12 6 13 7 14 8 6 9 5 10 4 11 3 12 2 13
REMARK SMILES IDX 1 14
REMARK H PARENT
REMARK Flexibility Score: inf
ROOT
ATOM      1  C   UNL     1      22.448   3.286  14.788  1.00  0.00     0.000 C 
ENDROOT
BRANCH   1   2
ATOM      2  C   UNL     1      23.512   2.274  14.332  1.00  0.00     0.000 C 
BRANCH   2   3
ATOM      3  C   UNL     1      23.210   0.839  14.797  1.00  0.00     0.000 C 
BRANCH   3   4
ATOM      4  C   UNL     1      21.770   0.407  14.482  1.00  0.00     0.006 C 
BRANCH   4   5
ATOM      5  C   UNL     1      21.551   0.133  12.988  1.00  0.00     0.053 C 
BRANCH   5   6
ATOM      6  C   UNL     1      20.474  -0.888  12.797  1.00  0.00     0.041 C 
ATOM      7  O   UNL     1      20.139  -1.247  11.637  1.00  0.00    -0.550 OA
ATOM      8  O   UNL     1      19.875  -1.481  13.901  1.00  0.00    -0.550 OA
ENDBRANCH   5   6
ENDBRANCH   4   5
ENDBRANCH   3   4
ENDBRANCH   2   3
ENDBRANCH   1   2
BRANCH   1   9
ATOM      9  C   UNL     1      21.875   4.141  13.637  1.00  0.00     0.000 C 
BRANCH   9  10
ATOM     10  C   UNL     1      22.802   4.164  12.413  1.00  0.00    -0.000 C 
BRANCH  10  11
ATOM     11  C   UNL     1      23.604   5.470  12.355  1.00  0.00    -0.000 C 
BRANCH  11  12
ATOM     12  C   UNL     1      25.045   5.253  12.834  1.00  0.00    -0.000 C 
BRANCH  12  13
ATOM     13  C   UNL     1      25.470   6.351  13.814  1.00  0.00    -0.003 C 
ATOM     14  C   UNL     1      24.925   6.083  15.213  1.00  0.00     0.004 C 
ENDBRANCH  12  13
ENDBRANCH  11  12
ENDBRANCH  10  11
ENDBRANCH   9  10
ENDBRANCH   1   9
TORSDOF 10
ENDMDL
MODEL 2
REMARK VINA RESULT:    -3.728      3.531      4.502
REMARK INTER + INTRA:          -6.973
REMARK INTER:                  -5.884
REMARK INTRA:                  -1.089
REMARK UNBOUND:                -1.066
REMARK SMILES CCCCCCCCCCCC(=O)[O-]
REMARK SMILES IDX 7 1 8 2 9 3 10 4 11 5 12 6 13 7 14 8 6 9 5 10 4 11 3 12 2 13
REMARK SMILES IDX 1 14
REMARK H PARENT
REMARK Flexibility Score: inf
ROOT
ATOM      1  C   UNL     1      22.213   1.787  13.660  1.00  0.00     0.000 C 
ENDROOT
BRANCH   1   2
ATOM      2  C   UNL     1      22.669   1.982  15.116  1.00  0.00     0.000 C 
BRANCH   2   3
ATOM      3  C   UNL     1      24.043   1.350  15.401  1.00  0.00     0.000 C 
BRANCH   3   4
ATOM      4  C   UNL     1      25.175   2.388  15.436  1.00  0.00     0.006 C 
BRANCH   4   5
ATOM      5  C   UNL     1      25.008   3.401  16.577  1.00  0.00     0.053 C 
BRANCH   5   6
ATOM      6  C   UNL     1      25.254   2.744  17.898  1.00  0.00     0.041 C 
ATOM      7  O   UNL     1      26.410   2.348  18.204  1.00  0.00    -0.550 OA
ATOM      8  O   UNL     1      24.217   2.614  18.814  1.00  0.00    -0.550 OA
ENDBRANCH   5   6
ENDBRANCH   4   5
ENDBRANCH   3   4
ENDBRANCH   2   3
ENDBRANCH   1   2
BRANCH   1   9
ATOM      9  C   UNL     1      21.922   3.111  12.922  1.00  0.00     0.000 C 
BRANCH   9  10
ATOM     10  C   UNL     1      22.773   4.273  13.455  1.00  0.00    -0.000 C 
BRANCH  10  11
ATOM     11  C   UNL     1      23.794   4.734  12.408  1.00  0.00    -0.000 C 
BRANCH  11  12
ATOM     12  C   UNL     1      25.051   5.303  13.077  1.00  0.00    -0.000 C 
BRANCH  12  13
ATOM     13  C   UNL     1      24.881   6.793  13.390  1.00  0.00    -0.003 C 
ATOM     14  C   UNL     1      26.105   7.349  14.110  1.00  0.00     0.004 C 
ENDBRANCH  12  13
ENDBRANCH  11  12
ENDBRANCH  10  11
ENDBRANCH   9  10
ENDBRANCH   1   9
TORSDOF 10
ENDMDL
MODEL 3
REMARK VINA RESULT:    -3.691      3.700      6.628
REMARK INTER + INTRA:          -6.915
REMARK INTER:                  -5.314
REMARK INTRA:                  -1.602
REMARK UNBOUND:                -1.066
REMARK SMILES CCCCCCCCCCCC(=O)[O-]
REMARK SMILES IDX 7 1 8 2 9 3 10 4 11 5 12 6 13 7 14 8 6 9 5 10 4 11 3 12 2 13
REMARK SMILES IDX 1 14
REMARK H PARENT
REMARK Flexibility Score: inf
ROOT
ATOM      1  C   UNL     1      20.095  -0.729  16.390  1.00  0.00     0.000 C 
ENDROOT
BRANCH   1   2
ATOM      2  C   UNL     1      20.999   0.510  16.512  1.00  0.00     0.000 C 
BRANCH   2   3
ATOM      3  C   UNL     1      22.188   0.291  17.461  1.00  0.00     0.000 C 
BRANCH   3   4
ATOM      4  C   UNL     1      23.539   0.302  16.728  1.00  0.00     0.006 C 
BRANCH   4   5
ATOM      5  C   UNL     1      23.405   0.709  15.255  1.00  0.00     0.053 C 
BRANCH   5   6
ATOM      6  C   UNL     1      24.143   1.985  14.997  1.00  0.00     0.041 C 
ATOM      7  O   UNL     1      23.688   2.826  14.178  1.00  0.00    -0.550 OA
ATOM      8  O   UNL     1      25.308   2.268  15.698  1.00  0.00    -0.550 OA
ENDBRANCH   5   6
ENDBRANCH   4   5
ENDBRANCH   3   4
ENDBRANCH   2   3
ENDBRANCH   1   2
BRANCH   1   9
ATOM      9  C   UNL     1      20.159  -1.406  15.004  1.00  0.00     0.000 C 
BRANCH   9  10
ATOM     10  C   UNL     1      20.957  -2.718  15.033  1.00  0.00    -0.000 C 
BRANCH  10  11
ATOM     11  C   UNL     1      22.239  -2.601  14.200  1.00  0.00    -0.000 C 
BRANCH  11  12
ATOM     12  C   UNL     1      23.465  -3.039  15.012  1.00  0.00    -0.000 C 
BRANCH  12  13
ATOM     13  C   UNL     1      23.060  -3.493  16.418  1.00  0.00    -0.003 C 
ATOM     14  C   UNL     1      24.191  -3.272  17.417  1.00  0.00     0.004 C 
ENDBRANCH  12  13
ENDBRANCH  11  12
ENDBRANCH  10  11
ENDBRANCH   9  10
ENDBRANCH   1   9
TORSDOF 10
ENDMDL
MODEL 4
REMARK VINA RESULT:    -3.685      2.432      3.594
REMARK INTER + INTRA:          -6.905
REMARK INTER:                  -5.768
REMARK INTRA:                  -1.137
REMARK UNBOUND:                -1.066
REMARK SMILES CCCCCCCCCCCC(=O)[O-]
REMARK SMILES IDX 7 1 8 2 9 3 10 4 11 5 12 6 13 7 14 8 6 9 5 10 4 11 3 12 2 13
REMARK SMILES IDX 1 14
REMARK H PARENT
REMARK Flexibility Score: inf
ROOT
ATOM      1  C   UNL     1      24.228   4.480  13.594  1.00  0.00     0.000 C 
ENDROOT
BRANCH   1   2
ATOM      2  C   UNL     1      23.104   4.124  12.606  1.00  0.00     0.000 C 
BRANCH   2   3
ATOM      3  C   UNL     1      21.936   3.379  13.274  1.00  0.00     0.000 C 
BRANCH   3   4
ATOM      4  C   UNL     1      22.152   1.858  13.318  1.00  0.00     0.006 C 
BRANCH   4   5
ATOM      5  C   UNL     1      22.154   1.306  14.750  1.00  0.00     0.053 C 
BRANCH   5   6
ATOM      6  C   UNL     1      23.492   0.725  15.083  1.00  0.00     0.041 C 
ATOM      7  O   UNL     1      24.473   1.481  15.309  1.00  0.00    -0.550 OA
ATOM      8  O   UNL     1      23.644  -0.651  15.193  1.00  0.00    -0.550 OA
ENDBRANCH   5   6
ENDBRANCH   4   5
ENDBRANCH   3   4
ENDBRANCH   2   3
ENDBRANCH   1   2
BRANCH   1   9
ATOM      9  C   UNL     1      25.261   5.474  13.022  1.00  0.00     0.000 C 
BRANCH   9  10
ATOM     10  C   UNL     1      25.389   6.740  13.883  1.00  0.00    -0.000 C 
BRANCH  10  11
ATOM     11  C   UNL     1      24.011   7.241  14.333  1.00  0.00    -0.000 C 
BRANCH  11  12
ATOM     12  C   UNL     1      23.290   7.970  13.192  1.00  0.00    -0.000 C 
BRANCH  12  13
ATOM     13  C   UNL     1      21.795   7.635  13.185  1.00  0.00    -0.003 C 
ATOM     14  C   UNL     1      21.388   6.894  14.454  1.00  0.00     0.004 C 
ENDBRANCH  12  13
ENDBRANCH  11  12
ENDBRANCH  10  11
ENDBRANCH   9  10
ENDBRANCH   1   9
TORSDOF 10
ENDMDL
MODEL 5
REMARK VINA RESULT:    -3.670      3.424      6.874
REMARK INTER + INTRA:          -6.882
REMARK INTER:                  -5.540
REMARK INTRA:                  -1.342
REMARK UNBOUND:                -1.066
REMARK SMILES CCCCCCCCCCCC(=O)[O-]
REMARK SMILES IDX 7 1 8 2 9 3 10 4 11 5 12 6 13 7 14 8 6 9 5 10 4 11 3 12 2 13
REMARK SMILES IDX 1 14
REMARK H PARENT
REMARK Flexibility Score: inf
ROOT
ATOM      1  C   UNL     1      19.810  -1.547  14.303  1.00  0.00     0.000 C 
ENDROOT
BRANCH   1   2
ATOM      2  C   UNL     1      20.297  -1.097  12.914  1.00  0.00     0.000 C 
BRANCH   2   3
ATOM      3  C   UNL     1      21.575  -0.244  12.978  1.00  0.00     0.000 C 
BRANCH   3   4
ATOM      4  C   UNL     1      21.737   0.479  14.324  1.00  0.00     0.006 C 
BRANCH   4   5
ATOM      5  C   UNL     1      23.202   0.564  14.774  1.00  0.00     0.053 C 
BRANCH   5   6
ATOM      6  C   UNL     1      23.693   1.975  14.688  1.00  0.00     0.041 C 
ATOM      7  O   UNL     1      23.183   2.774  13.860  1.00  0.00    -0.550 OA
ATOM      8  O   UNL     1      24.679   2.421  15.558  1.00  0.00    -0.550 OA
ENDBRANCH   5   6
ENDBRANCH   4   5
ENDBRANCH   3   4
ENDBRANCH   2   3
ENDBRANCH   1   2
BRANCH   1   9
ATOM      9  C   UNL     1      19.758  -3.080  14.472  1.00  0.00     0.000 C 
BRANCH   9  10
ATOM     10  C   UNL     1      20.279  -3.531  15.845  1.00  0.00    -0.000 C 
BRANCH  10  11
ATOM     11  C   UNL     1      21.468  -2.672  16.292  1.00  0.00    -0.000 C 
BRANCH  11  12
ATOM     12  C   UNL     1      22.684  -3.543  16.625  1.00  0.00    -0.000 C 
BRANCH  12  13
ATOM     13  C   UNL     1      23.891  -3.158  15.763  1.00  0.00    -0.003 C 
ATOM     14  C   UNL     1      23.495  -3.003  14.298  1.00  0.00     0.004 C 
ENDBRANCH  12  13
ENDBRANCH  11  12
ENDBRANCH  10  11
ENDBRANCH   9  10
ENDBRANCH   1   9
TORSDOF 10
ENDMDL
MODEL 6
REMARK VINA RESULT:    -3.655      4.039      5.723
REMARK INTER + INTRA:          -6.858
REMARK INTER:                  -5.786
REMARK INTRA:                  -1.072
REMARK UNBOUND:                -1.066
REMARK SMILES CCCCCCCCCCCC(=O)[O-]
REMARK SMILES IDX 7 1 8 2 9 3 10 4 11 5 12 6 13 7 14 8 6 9 5 10 4 11 3 12 2 13
REMARK SMILES IDX 1 14
REMARK H PARENT
REMARK Flexibility Score: inf
ROOT
ATOM      1  C   UNL     1      21.109  -2.394  14.515  1.00  0.00     0.000 C 
ENDROOT
BRANCH   1   2
ATOM      2  C   UNL     1      22.570  -2.653  14.107  1.00  0.00     0.000 C 
BRANCH   2   3
ATOM      3  C   UNL     1      23.532  -2.669  15.307  1.00  0.00     0.000 C 
BRANCH   3   4
ATOM      4  C   UNL     1      22.804  -2.875  16.645  1.00  0.00     0.006 C 
BRANCH   4   5
ATOM      5  C   UNL     1      22.769  -4.348  17.075  1.00  0.00     0.053 C 
BRANCH   5   6
ATOM      6  C   UNL     1      23.948  -4.667  17.939  1.00  0.00     0.041 C 
ATOM      7  O   UNL     1      24.354  -5.854  18.046  1.00  0.00    -0.550 OA
ATOM      8  O   UNL     1      24.631  -3.645  18.587  1.00  0.00    -0.550 OA
ENDBRANCH   5   6
ENDBRANCH   4   5
ENDBRANCH   3   4
ENDBRANCH   2   3
ENDBRANCH   1   2
BRANCH   1   9
ATOM      9  C   UNL     1      20.696  -0.910  14.419  1.00  0.00     0.000 C 
BRANCH   9  10
ATOM     10  C   UNL     1      21.253  -0.231  13.159  1.00  0.00    -0.000 C 
BRANCH  10  11
ATOM     11  C   UNL     1      22.005   1.058  13.515  1.00  0.00    -0.000 C 
BRANCH  11  12
ATOM     12  C   UNL     1      22.290   1.132  15.019  1.00  0.00    -0.000 C 
BRANCH  12  13
ATOM     13  C   UNL     1      23.793   1.027  15.301  1.00  0.00    -0.003 C 
ATOM     14  C   UNL     1      24.462   2.396  15.246  1.00  0.00     0.004 C 
ENDBRANCH  12  13
ENDBRANCH  11  12
ENDBRANCH  10  11
ENDBRANCH   9  10
ENDBRANCH   1   9
TORSDOF 10
ENDMDL
MODEL 7
REMARK VINA RESULT:    -3.639      3.196      6.248
REMARK INTER + INTRA:          -6.833
REMARK INTER:                  -5.601
REMARK INTRA:                  -1.232
REMARK UNBOUND:                -1.066
REMARK SMILES CCCCCCCCCCCC(=O)[O-]
REMARK SMILES IDX 7 1 8 2 9 3 10 4 11 5 12 6 13 7 14 8 6 9 5 10 4 11 3 12 2 13
REMARK SMILES IDX 1 14
REMARK H PARENT
REMARK Flexibility Score: inf
ROOT
ATOM      1  C   UNL     1      21.639   1.002  16.530  1.00  0.00     0.000 C 
ENDROOT
BRANCH   1   2
ATOM      2  C   UNL     1      23.118   0.578  16.557  1.00  0.00     0.000 C 
BRANCH   2   3
ATOM      3  C   UNL     1      23.867   0.943  15.264  1.00  0.00     0.000 C 
BRANCH   3   4
ATOM      4  C   UNL     1      23.054   1.878  14.354  1.00  0.00     0.006 C 
BRANCH   4   5
ATOM      5  C   UNL     1      23.588   3.317  14.362  1.00  0.00     0.053 C 
BRANCH   5   6
ATOM      6  C   UNL     1      23.379   3.957  13.026  1.00  0.00     0.041 C 
ATOM      7  O   UNL     1      22.368   3.666  12.334  1.00  0.00    -0.550 OA
ATOM      8  O   UNL     1      24.276   4.913  12.566  1.00  0.00    -0.550 OA
ENDBRANCH   5   6
ENDBRANCH   4   5
ENDBRANCH   3   4
ENDBRANCH   2   3
ENDBRANCH   1   2
BRANCH   1   9
ATOM      9  C   UNL     1      20.656  -0.188  16.516  1.00  0.00     0.000 C 
BRANCH   9  10
ATOM     10  C   UNL     1      20.462  -0.765  15.106  1.00  0.00    -0.000 C 
BRANCH  10  11
ATOM     11  C   UNL     1      20.738  -2.273  15.085  1.00  0.00    -0.000 C 
BRANCH  11  12
ATOM     12  C   UNL     1      21.521  -2.673  13.829  1.00  0.00    -0.000 C 
BRANCH  12  13
ATOM     13  C   UNL     1      23.024  -2.445  14.022  1.00  0.00    -0.003 C 
ATOM     14  C   UNL     1      23.501  -3.007  15.357  1.00  0.00     0.004 C 
ENDBRANCH  12  13
ENDBRANCH  11  12
ENDBRANCH  10  11
ENDBRANCH   9  10
ENDBRANCH   1   9
TORSDOF 10
ENDMDL
MODEL 8
REMARK VINA RESULT:    -3.613      1.507      2.385
REMARK INTER + INTRA:          -6.791
REMARK INTER:                  -5.609
REMARK INTRA:                  -1.183
REMARK UNBOUND:                -1.066
REMARK SMILES CCCCCCCCCCCC(=O)[O-]
REMARK SMILES IDX 7 1 8 2 9 3 10 4 11 5 12 6 13 7 14 8 6 9 5 10 4 11 3 12 2 13
REMARK SMILES IDX 1 14
REMARK H PARENT
REMARK Flexibility Score: inf
ROOT
ATOM      1  C   UNL     1      24.281   3.833  16.012  1.00  0.00     0.000 C 
ENDROOT
BRANCH   1   2
ATOM      2  C   UNL     1      24.907   2.543  15.455  1.00  0.00     0.000 C 
BRANCH   2   3
ATOM      3  C   UNL     1      23.868   1.439  15.194  1.00  0.00     0.000 C 
BRANCH   3   4
ATOM      4  C   UNL     1      22.526   1.996  14.695  1.00  0.00     0.006 C 
BRANCH   4   5
ATOM      5  C   UNL     1      21.958   1.193  13.517  1.00  0.00     0.053 C 
BRANCH   5   6
ATOM      6  C   UNL     1      21.608  -0.195  13.952  1.00  0.00     0.041 C 
ATOM      7  O   UNL     1      22.188  -1.186  13.436  1.00  0.00    -0.550 OA
ATOM      8  O   UNL     1      20.678  -0.392  14.964  1.00  0.00    -0.550 OA
ENDBRANCH   5   6
ENDBRANCH   4   5
ENDBRANCH   3   4
ENDBRANCH   2   3
ENDBRANCH   1   2
BRANCH   1   9
ATOM      9  C   UNL     1      24.535   5.074  15.130  1.00  0.00     0.000 C 
BRANCH   9  10
ATOM     10  C   UNL     1      25.174   4.708  13.782  1.00  0.00    -0.000 C 
BRANCH  10  11
ATOM     11  C   UNL     1      24.423   5.369  12.619  1.00  0.00    -0.000 C 
BRANCH  11  12
ATOM     12  C   UNL     1      23.043   4.731  12.420  1.00  0.00    -0.000 C 
BRANCH  12  13
ATOM     13  C   UNL     1      21.970   5.801  12.194  1.00  0.00    -0.003 C 
ATOM     14  C   UNL     1      22.435   7.164  12.694  1.00  0.00     0.004 C 
ENDBRANCH  12  13
ENDBRANCH  11  12
ENDBRANCH  10  11
ENDBRANCH   9  10
ENDBRANCH   1   9
TORSDOF 10
ENDMDL
MODEL 9
REMARK VINA RESULT:    -3.593      4.357      6.385
REMARK INTER + INTRA:          -6.759
REMARK INTER:                  -5.363
REMARK INTRA:                  -1.396
REMARK UNBOUND:                -1.066
REMARK SMILES CCCCCCCCCCCC(=O)[O-]
REMARK SMILES IDX 7 1 8 2 9 3 10 4 11 5 12 6 13 7 14 8 6 9 5 10 4 11 3 12 2 13
REMARK SMILES IDX 1 14
REMARK H PARENT
REMARK Flexibility Score: inf
ROOT
ATOM      1  C   UNL     1      21.032  -2.702  15.168  1.00  0.00     0.000 C 
ENDROOT
BRANCH   1   2
ATOM      2  C   UNL     1      22.338  -2.669  14.357  1.00  0.00     0.000 C 
BRANCH   2   3
ATOM      3  C   UNL     1      23.568  -3.070  15.189  1.00  0.00     0.000 C 
BRANCH   3   4
ATOM      4  C   UNL     1      23.207  -3.442  16.635  1.00  0.00     0.006 C 
BRANCH   4   5
ATOM      5  C   UNL     1      24.195  -4.443  17.249  1.00  0.00     0.053 C 
BRANCH   5   6
ATOM      6  C   UNL     1      23.472  -5.423  18.119  1.00  0.00     0.041 C 
ATOM      7  O   UNL     1      24.060  -6.456  18.535  1.00  0.00    -0.550 OA
ATOM      8  O   UNL     1      22.165  -5.169  18.514  1.00  0.00    -0.550 OA
ENDBRANCH   5   6
ENDBRANCH   4   5
ENDBRANCH   3   4
ENDBRANCH   2   3
ENDBRANCH   1   2
BRANCH   1   9
ATOM      9  C   UNL     1      20.278  -1.355  15.181  1.00  0.00     0.000 C 
BRANCH   9  10
ATOM     10  C   UNL     1      20.446  -0.609  16.513  1.00  0.00    -0.000 C 
BRANCH  10  11
ATOM     11  C   UNL     1      21.351   0.618  16.347  1.00  0.00    -0.000 C 
BRANCH  11  12
ATOM     12  C   UNL     1      22.815   0.267  16.638  1.00  0.00    -0.000 C 
BRANCH  12  13
ATOM     13  C   UNL     1      23.718   0.655  15.462  1.00  0.00    -0.003 C 
ATOM     14  C   UNL     1      22.906   1.245  14.314  1.00  0.00     0.004 C 
ENDBRANCH  12  13
ENDBRANCH  11  12
ENDBRANCH  10  11
ENDBRANCH   9  10
ENDBRANCH   1   9
TORSDOF 10
ENDMDL
