MODEL 1
REMARK VINA RESULT:     5.839      0.000      0.000
REMARK INTER + INTRA:           8.137
REMARK INTER:                   7.887
REMARK INTRA:                   0.249
REMARK UNBOUND:                 0.249
REMARK SMILES O=c1c(-c2ccc(O)cc2)coc2c([C@H]3O[C@@H](CO)[C@H](O)[C@H](O)[C@@H]3O)c(O)ccc12
REMARK SMILES IDX 3 1 11 2 12 3 13 4 30 5 2 6 1 7 29 8 28 9 26 10 14 11 4 12
REMARK SMILES IDX 5 13 6 14 7 15 10 16 9 17 8 18 15 20 24 21 16 22 22 23 17 24
REMARK SMILES IDX 20 25 25 26 23 28 18 30 19 31 21 33 27 35
REMARK H PARENT 8 19 25 27 23 29 19 32 21 34 27 36
REMARK Flexibility Score: inf
ROOT
ATOM      1  C   UNL     1      26.083  37.956  25.238  1.00  0.00     0.065 A 
ATOM      2  C   UNL     1      26.158  36.566  25.066  1.00  0.00     0.208 A 
ATOM      3  O   UNL     1      26.345  36.037  23.864  1.00  0.00    -0.463 OA
ATOM      4  C   UNL     1      26.472  36.766  22.759  1.00  0.00     0.147 A 
ATOM      5  C   UNL     1      26.399  38.177  22.837  1.00  0.00     0.066 A 
ATOM      6  C   UNL     1      26.199  38.771  24.096  1.00  0.00     0.200 A 
ATOM      7  O   UNL     1      26.106  40.026  24.200  1.00  0.00    -0.288 OA
ATOM      8  C   UNL     1      26.511  38.943  21.667  1.00  0.00     0.020 A 
ATOM      9  C   UNL     1      26.683  38.319  20.434  1.00  0.00     0.047 A 
ATOM     10  C   UNL     1      26.757  36.923  20.343  1.00  0.00     0.125 A 
ATOM     11  C   UNL     1      26.671  36.131  21.510  1.00  0.00     0.069 A 
ENDROOT
BRANCH   1  12
ATOM     12  C   UNL     1      25.873  38.525  26.594  1.00  0.00    -0.011 A 
ATOM     13  C   UNL     1      26.945  38.644  27.497  1.00  0.00     0.013 A 
ATOM     14  C   UNL     1      26.738  39.177  28.773  1.00  0.00     0.047 A 
ATOM     15  C   UNL     1      25.459  39.590  29.166  1.00  0.00     0.115 A 
ATOM     16  C   UNL     1      24.591  38.935  26.999  1.00  0.00     0.013 A 
ATOM     17  C   UNL     1      24.388  39.466  28.276  1.00  0.00     0.047 A 
BRANCH  15  18
ATOM     18  O   UNL     1      25.241  40.123  30.434  1.00  0.00    -0.508 OA
ATOM     19  H   UNL     1      25.350  41.113  30.618  1.00  0.00     0.293 HD
ENDBRANCH  15  18
ENDBRANCH   1  12
BRANCH  11  20
ATOM     20  C   UNL     1      26.724  34.613  21.413  1.00  0.00     0.188 C 
ATOM     21  C   UNL     1      25.506  34.077  20.615  1.00  0.00     0.179 C 
ATOM     22  O   UNL     1      26.751  34.053  22.715  1.00  0.00    -0.362 OA
ATOM     23  C   UNL     1      25.071  32.692  21.147  1.00  0.00     0.177 C 
ATOM     24  C   UNL     1      27.107  32.677  22.675  1.00  0.00     0.176 C 
ATOM     25  C   UNL     1      26.293  31.871  21.609  1.00  0.00     0.177 C 
BRANCH  21  26
ATOM     26  O   UNL     1      25.854  34.000  19.255  1.00  0.00    -0.387 OA
ATOM     27  H   UNL     1      25.852  33.038  19.005  1.00  0.00     0.211 HD
ENDBRANCH  21  26
BRANCH  23  28
ATOM     28  O   UNL     1      24.342  31.996  20.168  1.00  0.00    -0.387 OA
ATOM     29  H   UNL     1      24.975  31.364  19.733  1.00  0.00     0.211 HD
ENDBRANCH  23  28
BRANCH  24  30
ATOM     30  C   UNL     1      26.896  32.086  24.077  1.00  0.00     0.191 C 
BRANCH  30  31
ATOM     31  O   UNL     1      27.002  33.088  25.052  1.00  0.00    -0.394 OA
ATOM     32  H   UNL     1      26.078  33.305  25.343  1.00  0.00     0.210 HD
ENDBRANCH  30  31
ENDBRANCH  24  30
BRANCH  25  33
ATOM     33  O   UNL     1      27.125  31.585  20.512  1.00  0.00    -0.388 OA
ATOM     34  H   UNL     1      27.138  32.395  19.938  1.00  0.00     0.211 HD
ENDBRANCH  25  33
ENDBRANCH  11  20
BRANCH  10  35
ATOM     35  O   UNL     1      26.913  36.325  19.092  1.00  0.00    -0.507 OA
ATOM     36  H   UNL     1      27.554  36.696  18.400  1.00  0.00     0.293 HD
ENDBRANCH  10  35
TORSDOF 9
ENDMDL
