MODEL 1
REMARK VINA RESULT:    -4.296      0.000      0.000
REMARK INTER + INTRA:          -6.943
REMARK INTER:                  -5.802
REMARK INTRA:                  -1.141
REMARK UNBOUND:                -1.141
REMARK SMILES CC(=O)CCC=C(C)CCC=C(C)C
REMARK SMILES IDX 7 1 6 2 8 3 9 4 10 5 11 6 13 7 12 8 14 9 5 10 4 11 2 12 3 13
REMARK SMILES IDX 1 14
REMARK H PARENT
REMARK Flexibility Score: inf
ROOT
ATOM      1  C   UNL     1      -1.260  -9.805 -42.389  1.00  0.00    -0.077 C 
ATOM      2  C   UNL     1      -0.105  -9.140 -42.623  1.00  0.00    -0.028 C 
ATOM      3  C   UNL     1      -1.312 -11.315 -42.323  1.00  0.00     0.039 C 
ENDROOT
BRANCH   1   4
ATOM      4  C   UNL     1      -2.532  -9.014 -42.180  1.00  0.00     0.034 C 
BRANCH   4   5
ATOM      5  C   UNL     1      -2.999  -9.102 -40.723  1.00  0.00     0.032 C 
BRANCH   5   6
ATOM      6  C   UNL     1      -2.354  -8.023 -39.889  1.00  0.00    -0.028 C 
ATOM      7  C   UNL     1      -0.759  -7.045 -38.295  1.00  0.00     0.039 C 
ATOM      8  C   UNL     1      -1.327  -8.229 -39.035  1.00  0.00    -0.080 C 
ATOM      9  C   UNL     1      -0.752  -9.604 -38.792  1.00  0.00     0.039 C 
ENDBRANCH   5   6
ENDBRANCH   4   5
ENDBRANCH   1   4
BRANCH   2  10
ATOM     10  C   UNL     1       1.224  -9.799 -42.905  1.00  0.00     0.035 C 
BRANCH  10  11
ATOM     11  C   UNL     1       2.047  -9.983 -41.625  1.00  0.00     0.079 C 
BRANCH  11  12
ATOM     12  C   UNL     1       2.914 -11.215 -41.695  1.00  0.00     0.130 C 
ATOM     13  O   UNL     1       4.127 -11.094 -41.773  1.00  0.00    -0.300 OA
ATOM     14  C   UNL     1       2.316 -12.591 -41.670  1.00  0.00     0.087 C 
ENDBRANCH  11  12
ENDBRANCH  10  11
ENDBRANCH   2  10
TORSDOF 6
ENDMDL
MODEL 2
REMARK VINA RESULT:    -4.178      1.716      2.389
REMARK INTER + INTRA:          -6.785
REMARK INTER:                  -6.308
REMARK INTRA:                  -0.477
REMARK UNBOUND:                -1.141
REMARK SMILES CC(=O)CCC=C(C)CCC=C(C)C
REMARK SMILES IDX 7 1 6 2 8 3 9 4 10 5 11 6 13 7 12 8 14 9 5 10 4 11 2 12 3 13
REMARK SMILES IDX 1 14
REMARK H PARENT
REMARK Flexibility Score: inf
ROOT
ATOM      1  C   UNL     1      -1.285  -9.153 -41.308  1.00  0.00    -0.077 C 
ATOM      2  C   UNL     1       0.034  -9.454 -41.297  1.00  0.00    -0.028 C 
ATOM      3  C   UNL     1      -2.061  -9.009 -42.598  1.00  0.00     0.039 C 
ENDROOT
BRANCH   1   4
ATOM      4  C   UNL     1      -2.004  -8.961 -39.990  1.00  0.00     0.034 C 
BRANCH   4   5
ATOM      5  C   UNL     1      -1.065  -8.364 -38.937  1.00  0.00     0.032 C 
BRANCH   5   6
ATOM      6  C   UNL     1      -0.817  -9.349 -37.822  1.00  0.00    -0.028 C 
ATOM      7  C   UNL     1      -0.396 -10.101 -35.520  1.00  0.00     0.039 C 
ATOM      8  C   UNL     1      -0.591  -9.004 -36.535  1.00  0.00    -0.080 C 
ATOM      9  C   UNL     1      -0.509  -7.561 -36.096  1.00  0.00     0.039 C 
ENDBRANCH   5   6
ENDBRANCH   4   5
ENDBRANCH   1   4
BRANCH   2  10
ATOM     10  C   UNL     1       0.888  -9.615 -42.532  1.00  0.00     0.035 C 
BRANCH  10  11
ATOM     11  C   UNL     1       2.232 -10.278 -42.208  1.00  0.00     0.079 C 
BRANCH  11  12
ATOM     12  C   UNL     1       2.227 -11.744 -42.562  1.00  0.00     0.130 C 
ATOM     13  O   UNL     1       2.262 -12.578 -41.671  1.00  0.00    -0.300 OA
ATOM     14  C   UNL     1       2.180 -12.200 -43.990  1.00  0.00     0.087 C 
ENDBRANCH  11  12
ENDBRANCH  10  11
ENDBRANCH   2  10
TORSDOF 6
ENDMDL
MODEL 3
REMARK VINA RESULT:    -4.020      2.637      5.301
REMARK INTER + INTRA:          -6.571
REMARK INTER:                  -5.856
REMARK INTRA:                  -0.715
REMARK UNBOUND:                -1.141
REMARK SMILES CC(=O)CCC=C(C)CCC=C(C)C
REMARK SMILES IDX 7 1 6 2 8 3 9 4 10 5 11 6 13 7 12 8 14 9 5 10 4 11 2 12 3 13
REMARK SMILES IDX 1 14
REMARK H PARENT
REMARK Flexibility Score: inf
ROOT
ATOM      1  C   UNL     1      -1.551  -9.021 -41.022  1.00  0.00    -0.077 C 
ATOM      2  C   UNL     1      -0.622  -8.993 -40.038  1.00  0.00    -0.028 C 
ATOM      3  C   UNL     1      -2.889  -8.334 -40.877  1.00  0.00     0.039 C 
ENDROOT
BRANCH   1   4
ATOM      4  C   UNL     1      -1.235  -9.757 -42.306  1.00  0.00     0.034 C 
BRANCH   4   5
ATOM      5  C   UNL     1      -0.470 -11.053 -42.020  1.00  0.00     0.032 C 
BRANCH   5   6
ATOM      6  C   UNL     1       0.551 -11.320 -43.099  1.00  0.00    -0.028 C 
ATOM      7  C   UNL     1       2.765 -11.331 -44.165  1.00  0.00     0.039 C 
ATOM      8  C   UNL     1       1.852 -10.963 -43.024  1.00  0.00    -0.080 C 
ATOM      9  C   UNL     1       2.405 -10.195 -41.846  1.00  0.00     0.039 C 
ENDBRANCH   5   6
ENDBRANCH   4   5
ENDBRANCH   1   4
BRANCH   2  10
ATOM     10  C   UNL     1      -0.822  -8.348 -38.687  1.00  0.00     0.035 C 
BRANCH  10  11
ATOM     11  C   UNL     1      -1.174  -9.385 -37.613  1.00  0.00     0.079 C 
BRANCH  11  12
ATOM     12  C   UNL     1      -0.461  -9.102 -36.315  1.00  0.00     0.130 C 
ATOM     13  O   UNL     1      -0.050  -7.974 -36.088  1.00  0.00    -0.300 OA
ATOM     14  C   UNL     1      -0.246 -10.178 -35.293  1.00  0.00     0.087 C 
ENDBRANCH  11  12
ENDBRANCH  10  11
ENDBRANCH   2  10
TORSDOF 6
ENDMDL
MODEL 4
REMARK VINA RESULT:    -3.960      3.496      6.125
REMARK INTER + INTRA:          -6.490
REMARK INTER:                  -5.965
REMARK INTRA:                  -0.525
REMARK UNBOUND:                -1.141
REMARK SMILES CC(=O)CCC=C(C)CCC=C(C)C
REMARK SMILES IDX 7 1 6 2 8 3 9 4 10 5 11 6 13 7 12 8 14 9 5 10 4 11 2 12 3 13
REMARK SMILES IDX 1 14
REMARK H PARENT
REMARK Flexibility Score: inf
ROOT
ATOM      1  C   UNL     1      -1.102  -8.853 -38.294  1.00  0.00    -0.077 C 
ATOM      2  C   UNL     1      -0.870  -9.727 -37.287  1.00  0.00    -0.028 C 
ATOM      3  C   UNL     1      -0.813  -7.377 -38.152  1.00  0.00     0.039 C 
ENDROOT
BRANCH   1   4
ATOM      4  C   UNL     1      -1.660  -9.373 -39.601  1.00  0.00     0.034 C 
BRANCH   4   5
ATOM      5  C   UNL     1      -0.749  -8.995 -40.773  1.00  0.00     0.032 C 
BRANCH   5   6
ATOM      6  C   UNL     1       0.486  -9.861 -40.791  1.00  0.00    -0.028 C 
ATOM      7  C   UNL     1       2.587 -10.787 -41.669  1.00  0.00     0.039 C 
ATOM      8  C   UNL     1       1.376  -9.900 -41.808  1.00  0.00    -0.080 C 
ATOM      9  C   UNL     1       1.180  -9.101 -43.075  1.00  0.00     0.039 C 
ENDBRANCH   5   6
ENDBRANCH   4   5
ENDBRANCH   1   4
BRANCH   2  10
ATOM     10  C   UNL     1      -0.372  -9.342 -35.914  1.00  0.00     0.035 C 
BRANCH  10  11
ATOM     11  C   UNL     1      -1.288  -9.882 -34.809  1.00  0.00     0.079 C 
BRANCH  11  12
ATOM     12  C   UNL     1      -0.618 -10.979 -34.020  1.00  0.00     0.130 C 
ATOM     13  O   UNL     1       0.221 -11.682 -34.561  1.00  0.00    -0.300 OA
ATOM     14  C   UNL     1      -0.960 -11.225 -32.581  1.00  0.00     0.087 C 
ENDBRANCH  11  12
ENDBRANCH  10  11
ENDBRANCH   2  10
TORSDOF 6
ENDMDL
MODEL 5
REMARK VINA RESULT:    -3.948      2.865      5.511
REMARK INTER + INTRA:          -6.473
REMARK INTER:                  -5.694
REMARK INTRA:                  -0.779
REMARK UNBOUND:                -1.141
REMARK SMILES CC(=O)CCC=C(C)CCC=C(C)C
REMARK SMILES IDX 7 1 6 2 8 3 9 4 10 5 11 6 13 7 12 8 14 9 5 10 4 11 2 12 3 13
REMARK SMILES IDX 1 14
REMARK H PARENT
REMARK Flexibility Score: inf
ROOT
ATOM      1  C   UNL     1      -1.412 -10.328 -39.652  1.00  0.00    -0.077 C 
ATOM      2  C   UNL     1      -0.635  -9.279 -39.297  1.00  0.00    -0.028 C 
ATOM      3  C   UNL     1      -2.916 -10.213 -39.743  1.00  0.00     0.039 C 
ENDROOT
BRANCH   1   4
ATOM      4  C   UNL     1      -0.752 -11.651 -39.974  1.00  0.00     0.034 C 
BRANCH   4   5
ATOM      5  C   UNL     1      -0.217 -11.662 -41.410  1.00  0.00     0.032 C 
BRANCH   5   6
ATOM      6  C   UNL     1       1.290 -11.710 -41.419  1.00  0.00    -0.028 C 
ATOM      7  C   UNL     1       3.577 -10.886 -41.780  1.00  0.00     0.039 C 
ATOM      8  C   UNL     1       2.083 -10.712 -41.868  1.00  0.00    -0.080 C 
ATOM      9  C   UNL     1       1.515  -9.447 -42.468  1.00  0.00     0.039 C 
ENDBRANCH   5   6
ENDBRANCH   4   5
ENDBRANCH   1   4
BRANCH   2  10
ATOM     10  C   UNL     1      -1.159  -7.921 -38.894  1.00  0.00     0.035 C 
BRANCH  10  11
ATOM     11  C   UNL     1      -0.384  -7.346 -37.703  1.00  0.00     0.079 C 
BRANCH  11  12
ATOM     12  C   UNL     1      -0.919  -7.863 -36.391  1.00  0.00     0.130 C 
ATOM     13  O   UNL     1      -1.707  -7.182 -35.753  1.00  0.00    -0.300 OA
ATOM     14  C   UNL     1      -0.503  -9.198 -35.851  1.00  0.00     0.087 C 
ENDBRANCH  11  12
ENDBRANCH  10  11
ENDBRANCH   2  10
TORSDOF 6
ENDMDL
MODEL 6
REMARK VINA RESULT:    -3.908      2.006      3.700
REMARK INTER + INTRA:          -6.420
REMARK INTER:                  -5.638
REMARK INTRA:                  -0.782
REMARK UNBOUND:                -1.141
REMARK SMILES CC(=O)CCC=C(C)CCC=C(C)C
REMARK SMILES IDX 7 1 6 2 8 3 9 4 10 5 11 6 13 7 12 8 14 9 5 10 4 11 2 12 3 13
REMARK SMILES IDX 1 14
REMARK H PARENT
REMARK Flexibility Score: inf
ROOT
ATOM      1  C   UNL     1      -1.845  -8.746 -41.232  1.00  0.00    -0.077 C 
ATOM      2  C   UNL     1      -0.891  -9.393 -41.942  1.00  0.00    -0.028 C 
ATOM      3  C   UNL     1      -1.646  -8.376 -39.780  1.00  0.00     0.039 C 
ENDROOT
BRANCH   1   4
ATOM      4  C   UNL     1      -3.143  -8.377 -41.916  1.00  0.00     0.034 C 
BRANCH   4   5
ATOM      5  C   UNL     1      -3.285  -9.112 -43.254  1.00  0.00     0.032 C 
BRANCH   5   6
ATOM      6  C   UNL     1      -4.570  -9.900 -43.297  1.00  0.00    -0.028 C 
ATOM      7  C   UNL     1      -6.042 -11.845 -42.998  1.00  0.00     0.039 C 
ATOM      8  C   UNL     1      -4.683 -11.198 -42.938  1.00  0.00    -0.080 C 
ATOM      9  C   UNL     1      -3.488 -12.014 -42.502  1.00  0.00     0.039 C 
ENDBRANCH   5   6
ENDBRANCH   4   5
ENDBRANCH   1   4
BRANCH   2  10
ATOM     10  C   UNL     1       0.424  -9.872 -41.375  1.00  0.00     0.035 C 
BRANCH  10  11
ATOM     11  C   UNL     1       1.587  -9.594 -42.334  1.00  0.00     0.079 C 
BRANCH  11  12
ATOM     12  C   UNL     1       2.484 -10.798 -42.482  1.00  0.00     0.130 C 
ATOM     13  O   UNL     1       3.391 -10.974 -41.683  1.00  0.00    -0.300 OA
ATOM     14  C   UNL     1       2.284 -11.787 -43.591  1.00  0.00     0.087 C 
ENDBRANCH  11  12
ENDBRANCH  10  11
ENDBRANCH   2  10
TORSDOF 6
ENDMDL
MODEL 7
REMARK VINA RESULT:    -3.905      1.805      2.498
REMARK INTER + INTRA:          -6.416
REMARK INTER:                  -5.389
REMARK INTRA:                  -1.027
REMARK UNBOUND:                -1.141
REMARK SMILES CC(=O)CCC=C(C)CCC=C(C)C
REMARK SMILES IDX 7 1 6 2 8 3 9 4 10 5 11 6 13 7 12 8 14 9 5 10 4 11 2 12 3 13
REMARK SMILES IDX 1 14
REMARK H PARENT
REMARK Flexibility Score: inf
ROOT
ATOM      1  C   UNL     1      -0.403 -11.300 -41.089  1.00  0.00    -0.077 C 
ATOM      2  C   UNL     1       0.743 -10.596 -40.942  1.00  0.00    -0.028 C 
ATOM      3  C   UNL     1      -1.055 -11.490 -42.440  1.00  0.00     0.039 C 
ENDROOT
BRANCH   1   4
ATOM      4  C   UNL     1      -1.045 -11.919 -39.867  1.00  0.00     0.034 C 
BRANCH   4   5
ATOM      5  C   UNL     1      -1.636 -10.840 -38.953  1.00  0.00     0.032 C 
BRANCH   5   6
ATOM      6  C   UNL     1      -2.584  -9.951 -39.719  1.00  0.00    -0.028 C 
ATOM      7  C   UNL     1      -3.426  -7.867 -40.712  1.00  0.00     0.039 C 
ATOM      8  C   UNL     1      -2.415  -8.621 -39.888  1.00  0.00    -0.080 C 
ATOM      9  C   UNL     1      -1.260  -7.875 -39.262  1.00  0.00     0.039 C 
ENDBRANCH   5   6
ENDBRANCH   4   5
ENDBRANCH   1   4
BRANCH   2  10
ATOM     10  C   UNL     1       1.459  -9.878 -42.061  1.00  0.00     0.035 C 
BRANCH  10  11
ATOM     11  C   UNL     1       2.617 -10.713 -42.619  1.00  0.00     0.079 C 
BRANCH  11  12
ATOM     12  C   UNL     1       2.360 -11.135 -44.044  1.00  0.00     0.130 C 
ATOM     13  O   UNL     1       2.268 -10.285 -44.916  1.00  0.00    -0.300 OA
ATOM     14  C   UNL     1       2.216 -12.581 -44.415  1.00  0.00     0.087 C 
ENDBRANCH  11  12
ENDBRANCH  10  11
ENDBRANCH   2  10
TORSDOF 6
ENDMDL
MODEL 8
REMARK VINA RESULT:    -3.865      2.950      5.187
REMARK INTER + INTRA:          -6.361
REMARK INTER:                  -5.474
REMARK INTRA:                  -0.887
REMARK UNBOUND:                -1.141
REMARK SMILES CC(=O)CCC=C(C)CCC=C(C)C
REMARK SMILES IDX 7 1 6 2 8 3 9 4 10 5 11 6 13 7 12 8 14 9 5 10 4 11 2 12 3 13
REMARK SMILES IDX 1 14
REMARK H PARENT
REMARK Flexibility Score: inf
ROOT
ATOM      1  C   UNL     1      -1.294  -8.646 -39.969  1.00  0.00    -0.077 C 
ATOM      2  C   UNL     1      -1.316  -7.877 -38.856  1.00  0.00    -0.028 C 
ATOM      3  C   UNL     1      -0.281  -9.753 -40.154  1.00  0.00     0.039 C 
ENDROOT
BRANCH   1   4
ATOM      4  C   UNL     1      -2.317  -8.394 -41.054  1.00  0.00     0.034 C 
BRANCH   4   5
ATOM      5  C   UNL     1      -2.022  -9.246 -42.293  1.00  0.00     0.032 C 
BRANCH   5   6
ATOM      6  C   UNL     1      -3.275  -9.928 -42.784  1.00  0.00    -0.028 C 
ATOM      7  C   UNL     1      -4.880 -11.764 -43.089  1.00  0.00     0.039 C 
ATOM      8  C   UNL     1      -3.570 -11.229 -42.570  1.00  0.00    -0.080 C 
ATOM      9  C   UNL     1      -2.620 -12.157 -41.848  1.00  0.00     0.039 C 
ENDBRANCH   5   6
ENDBRANCH   4   5
ENDBRANCH   1   4
BRANCH   2  10
ATOM     10  C   UNL     1      -0.324  -7.978 -37.722  1.00  0.00     0.035 C 
BRANCH  10  11
ATOM     11  C   UNL     1      -1.000  -8.410 -36.416  1.00  0.00     0.079 C 
BRANCH  11  12
ATOM     12  C   UNL     1      -0.724  -9.859 -36.101  1.00  0.00     0.130 C 
ATOM     13  O   UNL     1       0.146 -10.145 -35.294  1.00  0.00    -0.300 OA
ATOM     14  C   UNL     1      -1.499 -10.961 -36.761  1.00  0.00     0.087 C 
ENDBRANCH  11  12
ENDBRANCH  10  11
ENDBRANCH   2  10
TORSDOF 6
ENDMDL
MODEL 9
REMARK VINA RESULT:    -3.799      3.498      5.160
REMARK INTER + INTRA:          -6.272
REMARK INTER:                  -5.828
REMARK INTRA:                  -0.444
REMARK UNBOUND:                -1.141
REMARK SMILES CC(=O)CCC=C(C)CCC=C(C)C
REMARK SMILES IDX 7 1 6 2 8 3 9 4 10 5 11 6 13 7 12 8 14 9 5 10 4 11 2 12 3 13
REMARK SMILES IDX 1 14
REMARK H PARENT
REMARK Flexibility Score: inf
ROOT
ATOM      1  C   UNL     1      -0.669  -8.262 -37.568  1.00  0.00    -0.077 C 
ATOM      2  C   UNL     1      -0.639  -9.373 -38.340  1.00  0.00    -0.028 C 
ATOM      3  C   UNL     1      -0.749  -6.876 -38.166  1.00  0.00     0.039 C 
ENDROOT
BRANCH   1   4
ATOM      4  C   UNL     1      -0.628  -8.415 -36.063  1.00  0.00     0.034 C 
BRANCH   4   5
ATOM      5  C   UNL     1      -0.290  -9.856 -35.668  1.00  0.00     0.032 C 
BRANCH   5   6
ATOM      6  C   UNL     1      -1.017 -10.250 -34.406  1.00  0.00    -0.028 C 
ATOM      7  C   UNL     1      -1.525 -11.598 -32.416  1.00  0.00     0.039 C 
ATOM      8  C   UNL     1      -0.738 -11.353 -33.678  1.00  0.00    -0.080 C 
ATOM      9  C   UNL     1       0.318 -12.347 -34.102  1.00  0.00     0.039 C 
ENDBRANCH   5   6
ENDBRANCH   4   5
ENDBRANCH   1   4
BRANCH   2  10
ATOM     10  C   UNL     1      -0.615  -9.369 -39.850  1.00  0.00     0.035 C 
BRANCH  10  11
ATOM     11  C   UNL     1      -0.232 -10.742 -40.413  1.00  0.00     0.079 C 
BRANCH  11  12
ATOM     12  C   UNL     1       0.406 -10.625 -41.775  1.00  0.00     0.130 C 
ATOM     13  O   UNL     1      -0.117 -11.173 -42.733  1.00  0.00    -0.300 OA
ATOM     14  C   UNL     1       1.671  -9.847 -41.979  1.00  0.00     0.087 C 
ENDBRANCH  11  12
ENDBRANCH  10  11
ENDBRANCH   2  10
TORSDOF 6
ENDMDL
