MODEL 1
REMARK VINA RESULT:    -6.389      0.000      0.000
REMARK INTER + INTRA:          -7.800
REMARK INTER:                  -7.510
REMARK INTRA:                  -0.290
REMARK UNBOUND:                -0.290
REMARK SMILES O=c1c(O)c(-c2ccc(O)cc2)oc2cc(O)cc(O)c12
REMARK SMILES IDX 5 1 3 2 2 3 1 4 21 5 19 6 18 7 16 8 15 9 14 10 13 11 6 12
REMARK SMILES IDX 7 13 8 14 9 15 12 16 11 17 10 18 4 20 20 22 17 24
REMARK H PARENT 10 19 4 21 20 23 17 25
REMARK Flexibility Score: inf
ROOT
ATOM      1  C   UNL     1     479.582  37.705 459.524  1.00  0.00     0.180 A 
ATOM      2  C   UNL     1     478.678  38.752 459.774  1.00  0.00     0.208 A 
ATOM      3  C   UNL     1     477.607  38.529 460.654  1.00  0.00     0.238 A 
ATOM      4  O   UNL     1     476.769  39.451 460.831  1.00  0.00    -0.285 OA
ATOM      5  C   UNL     1     477.463  37.271 461.286  1.00  0.00     0.111 A 
ATOM      6  C   UNL     1     476.439  36.948 462.227  1.00  0.00     0.134 A 
ATOM      7  C   UNL     1     476.316  35.632 462.690  1.00  0.00     0.093 A 
ATOM      8  C   UNL     1     477.218  34.644 462.299  1.00  0.00     0.123 A 
ATOM      9  C   UNL     1     478.260  34.963 461.425  1.00  0.00     0.094 A 
ATOM     10  C   UNL     1     478.386  36.257 460.918  1.00  0.00     0.146 A 
ATOM     11  O   UNL     1     479.384  36.517 460.082  1.00  0.00    -0.452 OA
ENDROOT
BRANCH   1  12
ATOM     12  C   UNL     1     480.751  37.870 458.629  1.00  0.00     0.021 A 
ATOM     13  C   UNL     1     480.679  37.403 457.306  1.00  0.00     0.016 A 
ATOM     14  C   UNL     1     481.777  37.529 456.450  1.00  0.00     0.047 A 
ATOM     15  C   UNL     1     482.964  38.108 456.908  1.00  0.00     0.115 A 
ATOM     16  C   UNL     1     481.954  38.434 459.090  1.00  0.00     0.016 A 
ATOM     17  C   UNL     1     483.051  38.558 458.232  1.00  0.00     0.047 A 
BRANCH  15  18
ATOM     18  O   UNL     1     484.051  38.228 456.044  1.00  0.00    -0.508 OA
ATOM     19  H   UNL     1     484.661  39.036 456.070  1.00  0.00     0.293 HD
ENDBRANCH  15  18
ENDBRANCH   1  12
BRANCH   2  20
ATOM     20  O   UNL     1     478.824  39.978 459.122  1.00  0.00    -0.502 OA
ATOM     21  H   UNL     1     478.093  40.678 459.108  1.00  0.00     0.293 HD
ENDBRANCH   2  20
BRANCH   6  22
ATOM     22  O   UNL     1     475.541  37.881 462.755  1.00  0.00    -0.507 OA
ATOM     23  H   UNL     1     474.714  37.647 463.283  1.00  0.00     0.293 HD
ENDBRANCH   6  22
BRANCH   8  24
ATOM     24  O   UNL     1     477.075  33.349 462.791  1.00  0.00    -0.508 OA
ATOM     25  H   UNL     1     476.636  32.619 462.244  1.00  0.00     0.293 HD
ENDBRANCH   8  24
TORSDOF 5
ENDMDL
MODEL 2
REMARK VINA RESULT:    -5.980      1.815      6.898
REMARK INTER + INTRA:          -7.318
REMARK INTER:                  -7.074
REMARK INTRA:                  -0.245
REMARK UNBOUND:                -0.290
REMARK SMILES O=c1c(O)c(-c2ccc(O)cc2)oc2cc(O)cc(O)c12
REMARK SMILES IDX 5 1 3 2 2 3 1 4 21 5 19 6 18 7 16 8 15 9 14 10 13 11 6 12
REMARK SMILES IDX 7 13 8 14 9 15 12 16 11 17 10 18 4 20 20 22 17 24
REMARK H PARENT 10 19 4 21 20 23 17 25
REMARK Flexibility Score: inf
ROOT
ATOM      1  C   UNL     1     480.212  37.924 459.268  1.00  0.00     0.180 A 
ATOM      2  C   UNL     1     479.756  38.668 458.166  1.00  0.00     0.208 A 
ATOM      3  C   UNL     1     480.692  39.350 457.372  1.00  0.00     0.238 A 
ATOM      4  O   UNL     1     480.274  40.059 456.420  1.00  0.00    -0.285 OA
ATOM      5  C   UNL     1     482.071  39.266 457.679  1.00  0.00     0.111 A 
ATOM      6  C   UNL     1     483.110  39.883 456.919  1.00  0.00     0.134 A 
ATOM      7  C   UNL     1     484.428  39.841 457.390  1.00  0.00     0.093 A 
ATOM      8  C   UNL     1     484.755  39.151 458.555  1.00  0.00     0.123 A 
ATOM      9  C   UNL     1     483.756  38.493 459.275  1.00  0.00     0.094 A 
ATOM     10  C   UNL     1     482.427  38.548 458.850  1.00  0.00     0.146 A 
ATOM     11  O   UNL     1     481.505  37.918 459.569  1.00  0.00    -0.452 OA
ENDROOT
BRANCH   1  12
ATOM     12  C   UNL     1     479.289  37.158 460.137  1.00  0.00     0.021 A 
ATOM     13  C   UNL     1     478.548  37.831 461.122  1.00  0.00     0.016 A 
ATOM     14  C   UNL     1     477.687  37.124 461.968  1.00  0.00     0.047 A 
ATOM     15  C   UNL     1     477.568  35.737 461.851  1.00  0.00     0.115 A 
ATOM     16  C   UNL     1     479.179  35.759 460.037  1.00  0.00     0.016 A 
ATOM     17  C   UNL     1     478.318  35.054 460.885  1.00  0.00     0.047 A 
BRANCH  15  18
ATOM     18  O   UNL     1     476.706  35.045 462.700  1.00  0.00    -0.508 OA
ATOM     19  H   UNL     1     476.064  35.532 463.313  1.00  0.00     0.293 HD
ENDBRANCH  15  18
ENDBRANCH   1  12
BRANCH   2  20
ATOM     20  O   UNL     1     478.389  38.757 457.895  1.00  0.00    -0.502 OA
ATOM     21  H   UNL     1     477.854  37.976 457.534  1.00  0.00     0.293 HD
ENDBRANCH   2  20
BRANCH   6  22
ATOM     22  O   UNL     1     482.906  40.521 455.692  1.00  0.00    -0.507 OA
ATOM     23  H   UNL     1     483.029  40.084 454.790  1.00  0.00     0.293 HD
ENDBRANCH   6  22
BRANCH   8  24
ATOM     24  O   UNL     1     486.079  39.117 458.986  1.00  0.00    -0.508 OA
ATOM     25  H   UNL     1     486.732  39.856 458.752  1.00  0.00     0.293 HD
ENDBRANCH   8  24
TORSDOF 5
ENDMDL
MODEL 3
REMARK VINA RESULT:    -5.869      1.997      7.071
REMARK INTER + INTRA:          -7.188
REMARK INTER:                  -6.890
REMARK INTRA:                  -0.298
REMARK UNBOUND:                -0.290
REMARK SMILES O=c1c(O)c(-c2ccc(O)cc2)oc2cc(O)cc(O)c12
REMARK SMILES IDX 5 1 3 2 2 3 1 4 21 5 19 6 18 7 16 8 15 9 14 10 13 11 6 12
REMARK SMILES IDX 7 13 8 14 9 15 12 16 11 17 10 18 4 20 20 22 17 24
REMARK H PARENT 10 19 4 21 20 23 17 25
REMARK Flexibility Score: inf
ROOT
ATOM      1  C   UNL     1     480.435  38.249 459.664  1.00  0.00     0.180 A 
ATOM      2  C   UNL     1     480.551  37.980 458.289  1.00  0.00     0.208 A 
ATOM      3  C   UNL     1     481.811  38.085 457.679  1.00  0.00     0.238 A 
ATOM      4  O   UNL     1     481.899  37.898 456.438  1.00  0.00    -0.285 OA
ATOM      5  C   UNL     1     482.942  38.440 458.454  1.00  0.00     0.111 A 
ATOM      6  C   UNL     1     484.273  38.536 457.947  1.00  0.00     0.134 A 
ATOM      7  C   UNL     1     485.293  39.022 458.775  1.00  0.00     0.093 A 
ATOM      8  C   UNL     1     485.045  39.353 460.106  1.00  0.00     0.123 A 
ATOM      9  C   UNL     1     483.758  39.206 460.628  1.00  0.00     0.094 A 
ATOM     10  C   UNL     1     482.713  38.758 459.818  1.00  0.00     0.146 A 
ATOM     11  O   UNL     1     481.502  38.643 460.350  1.00  0.00    -0.452 OA
ENDROOT
BRANCH   1  12
ATOM     12  C   UNL     1     479.146  38.135 460.383  1.00  0.00     0.021 A 
ATOM     13  C   UNL     1     478.339  39.274 460.540  1.00  0.00     0.016 A 
ATOM     14  C   UNL     1     477.128  39.194 461.235  1.00  0.00     0.047 A 
ATOM     15  C   UNL     1     476.715  37.982 461.794  1.00  0.00     0.115 A 
ATOM     16  C   UNL     1     478.735  36.922 460.965  1.00  0.00     0.016 A 
ATOM     17  C   UNL     1     477.523  36.845 461.660  1.00  0.00     0.047 A 
BRANCH  15  18
ATOM     18  O   UNL     1     475.506  37.916 462.483  1.00  0.00    -0.508 OA
ATOM     19  H   UNL     1     475.395  37.332 463.302  1.00  0.00     0.293 HD
ENDBRANCH  15  18
ENDBRANCH   1  12
BRANCH   2  20
ATOM     20  O   UNL     1     479.418  37.654 457.539  1.00  0.00    -0.502 OA
ATOM     21  H   UNL     1     478.609  37.201 457.945  1.00  0.00     0.293 HD
ENDBRANCH   2  20
BRANCH   6  22
ATOM     22  O   UNL     1     484.649  38.145 456.659  1.00  0.00    -0.507 OA
ATOM     23  H   UNL     1     484.595  37.200 456.307  1.00  0.00     0.293 HD
ENDBRANCH   6  22
BRANCH   8  24
ATOM     24  O   UNL     1     486.086  39.818 460.905  1.00  0.00    -0.508 OA
ATOM     25  H   UNL     1     485.921  40.463 461.669  1.00  0.00     0.293 HD
ENDBRANCH   8  24
TORSDOF 5
ENDMDL
MODEL 4
REMARK VINA RESULT:    -5.443      1.259      3.192
REMARK INTER + INTRA:          -6.687
REMARK INTER:                  -6.466
REMARK INTRA:                  -0.222
REMARK UNBOUND:                -0.290
REMARK SMILES O=c1c(O)c(-c2ccc(O)cc2)oc2cc(O)cc(O)c12
REMARK SMILES IDX 5 1 3 2 2 3 1 4 21 5 19 6 18 7 16 8 15 9 14 10 13 11 6 12
REMARK SMILES IDX 7 13 8 14 9 15 12 16 11 17 10 18 4 20 20 22 17 24
REMARK H PARENT 10 19 4 21 20 23 17 25
REMARK Flexibility Score: inf
ROOT
ATOM      1  C   UNL     1     479.627  37.506 459.491  1.00  0.00     0.180 A 
ATOM      2  C   UNL     1     479.272  36.233 459.969  1.00  0.00     0.208 A 
ATOM      3  C   UNL     1     478.230  36.123 460.903  1.00  0.00     0.238 A 
ATOM      4  O   UNL     1     477.953  34.987 461.369  1.00  0.00    -0.285 OA
ATOM      5  C   UNL     1     477.543  37.284 461.333  1.00  0.00     0.111 A 
ATOM      6  C   UNL     1     476.445  37.285 462.245  1.00  0.00     0.134 A 
ATOM      7  C   UNL     1     475.927  38.504 462.701  1.00  0.00     0.093 A 
ATOM      8  C   UNL     1     476.423  39.718 462.230  1.00  0.00     0.123 A 
ATOM      9  C   UNL     1     477.458  39.728 461.292  1.00  0.00     0.094 A 
ATOM     10  C   UNL     1     478.019  38.529 460.846  1.00  0.00     0.146 A 
ATOM     11  O   UNL     1     479.008  38.582 459.963  1.00  0.00    -0.452 OA
ENDROOT
BRANCH   1  12
ATOM     12  C   UNL     1     480.698  37.700 458.487  1.00  0.00     0.021 A 
ATOM     13  C   UNL     1     481.893  38.334 458.865  1.00  0.00     0.016 A 
ATOM     14  C   UNL     1     482.909  38.548 457.928  1.00  0.00     0.047 A 
ATOM     15  C   UNL     1     482.739  38.145 456.600  1.00  0.00     0.115 A 
ATOM     16  C   UNL     1     480.524  37.315 457.145  1.00  0.00     0.016 A 
ATOM     17  C   UNL     1     481.542  37.530 456.210  1.00  0.00     0.047 A 
BRANCH  15  18
ATOM     18  O   UNL     1     483.759  38.364 455.678  1.00  0.00    -0.508 OA
ATOM     19  H   UNL     1     483.584  38.344 454.680  1.00  0.00     0.293 HD
ENDBRANCH  15  18
ENDBRANCH   1  12
BRANCH   2  20
ATOM     20  O   UNL     1     479.978  35.102 459.549  1.00  0.00    -0.502 OA
ATOM     21  H   UNL     1     480.947  35.142 459.259  1.00  0.00     0.293 HD
ENDBRANCH   2  20
BRANCH   6  22
ATOM     22  O   UNL     1     475.814  36.127 462.708  1.00  0.00    -0.507 OA
ATOM     23  H   UNL     1     475.851  35.229 462.249  1.00  0.00     0.293 HD
ENDBRANCH   6  22
BRANCH   8  24
ATOM     24  O   UNL     1     475.874  40.911 462.692  1.00  0.00    -0.508 OA
ATOM     25  H   UNL     1     476.265  41.810 462.436  1.00  0.00     0.293 HD
ENDBRANCH   8  24
TORSDOF 5
ENDMDL
MODEL 5
REMARK VINA RESULT:    -5.391      3.860      6.679
REMARK INTER + INTRA:          -6.627
REMARK INTER:                  -6.335
REMARK INTRA:                  -0.292
REMARK UNBOUND:                -0.290
REMARK SMILES O=c1c(O)c(-c2ccc(O)cc2)oc2cc(O)cc(O)c12
REMARK SMILES IDX 5 1 3 2 2 3 1 4 21 5 19 6 18 7 16 8 15 9 14 10 13 11 6 12
REMARK SMILES IDX 7 13 8 14 9 15 12 16 11 17 10 18 4 20 20 22 17 24
REMARK H PARENT 10 19 4 21 20 23 17 25
REMARK Flexibility Score: inf
ROOT
ATOM      1  C   UNL     1     484.192  39.913 459.743  1.00  0.00     0.180 A 
ATOM      2  C   UNL     1     484.684  39.313 458.571  1.00  0.00     0.208 A 
ATOM      3  C   UNL     1     483.819  38.526 457.795  1.00  0.00     0.238 A 
ATOM      4  O   UNL     1     484.278  37.947 456.777  1.00  0.00    -0.285 OA
ATOM      5  C   UNL     1     482.469  38.363 458.190  1.00  0.00     0.111 A 
ATOM      6  C   UNL     1     481.494  37.621 457.458  1.00  0.00     0.134 A 
ATOM      7  C   UNL     1     480.223  37.418 458.010  1.00  0.00     0.093 A 
ATOM      8  C   UNL     1     479.871  37.983 459.234  1.00  0.00     0.123 A 
ATOM      9  C   UNL     1     480.798  38.761 459.931  1.00  0.00     0.094 A 
ATOM     10  C   UNL     1     482.084  38.951 459.423  1.00  0.00     0.146 A 
ATOM     11  O   UNL     1     482.939  39.688 460.122  1.00  0.00    -0.452 OA
ENDROOT
BRANCH   1  12
ATOM     12  C   UNL     1     485.036  40.777 460.600  1.00  0.00     0.021 A 
ATOM     13  C   UNL     1     485.626  40.240 461.756  1.00  0.00     0.016 A 
ATOM     14  C   UNL     1     486.409  41.043 462.592  1.00  0.00     0.047 A 
ATOM     15  C   UNL     1     486.600  42.394 462.292  1.00  0.00     0.115 A 
ATOM     16  C   UNL     1     485.216  42.143 460.314  1.00  0.00     0.016 A 
ATOM     17  C   UNL     1     485.999  42.944 461.151  1.00  0.00     0.047 A 
BRANCH  15  18
ATOM     18  O   UNL     1     487.383  43.183 463.132  1.00  0.00    -0.508 OA
ATOM     19  H   UNL     1     487.145  44.149 463.324  1.00  0.00     0.293 HD
ENDBRANCH  15  18
ENDBRANCH   1  12
BRANCH   2  20
ATOM     20  O   UNL     1     486.025  39.468 458.212  1.00  0.00    -0.502 OA
ATOM     21  H   UNL     1     486.459  38.919 457.480  1.00  0.00     0.293 HD
ENDBRANCH   2  20
BRANCH   6  22
ATOM     22  O   UNL     1     481.712  37.090 456.183  1.00  0.00    -0.507 OA
ATOM     23  H   UNL     1     482.051  37.617 455.392  1.00  0.00     0.293 HD
ENDBRANCH   6  22
BRANCH   8  24
ATOM     24  O   UNL     1     478.593  37.774 459.746  1.00  0.00    -0.508 OA
ATOM     25  H   UNL     1     477.768  38.121 459.271  1.00  0.00     0.293 HD
ENDBRANCH   8  24
TORSDOF 5
ENDMDL
MODEL 6
REMARK VINA RESULT:    -5.247      3.145      7.029
REMARK INTER + INTRA:          -6.457
REMARK INTER:                  -6.165
REMARK INTRA:                  -0.292
REMARK UNBOUND:                -0.290
REMARK SMILES O=c1c(O)c(-c2ccc(O)cc2)oc2cc(O)cc(O)c12
REMARK SMILES IDX 5 1 3 2 2 3 1 4 21 5 19 6 18 7 16 8 15 9 14 10 13 11 6 12
REMARK SMILES IDX 7 13 8 14 9 15 12 16 11 17 10 18 4 20 20 22 17 24
REMARK H PARENT 10 19 4 21 20 23 17 25
REMARK Flexibility Score: inf
ROOT
ATOM      1  C   UNL     1     475.781  38.865 462.390  1.00  0.00     0.180 A 
ATOM      2  C   UNL     1     476.681  39.337 461.419  1.00  0.00     0.208 A 
ATOM      3  C   UNL     1     477.584  38.437 460.834  1.00  0.00     0.238 A 
ATOM      4  O   UNL     1     478.425  38.876 460.006  1.00  0.00    -0.285 OA
ATOM      5  C   UNL     1     477.565  37.072 461.213  1.00  0.00     0.111 A 
ATOM      6  C   UNL     1     478.408  36.065 460.655  1.00  0.00     0.134 A 
ATOM      7  C   UNL     1     478.393  34.774 461.198  1.00  0.00     0.093 A 
ATOM      8  C   UNL     1     477.522  34.438 462.232  1.00  0.00     0.123 A 
ATOM      9  C   UNL     1     476.651  35.401 462.746  1.00  0.00     0.094 A 
ATOM     10  C   UNL     1     476.668  36.705 462.249  1.00  0.00     0.146 A 
ATOM     11  O   UNL     1     475.831  37.594 462.771  1.00  0.00    -0.452 OA
ENDROOT
BRANCH   1  12
ATOM     12  C   UNL     1     474.781  39.748 463.034  1.00  0.00     0.021 A 
ATOM     13  C   UNL     1     475.049  40.284 464.305  1.00  0.00     0.016 A 
ATOM     14  C   UNL     1     474.110  41.102 464.941  1.00  0.00     0.047 A 
ATOM     15  C   UNL     1     472.888  41.383 464.324  1.00  0.00     0.115 A 
ATOM     16  C   UNL     1     473.541  40.018 462.426  1.00  0.00     0.016 A 
ATOM     17  C   UNL     1     472.604  40.837 463.065  1.00  0.00     0.047 A 
BRANCH  15  18
ATOM     18  O   UNL     1     471.962  42.201 464.968  1.00  0.00    -0.508 OA
ATOM     19  H   UNL     1     471.147  41.815 465.430  1.00  0.00     0.293 HD
ENDBRANCH  15  18
ENDBRANCH   1  12
BRANCH   2  20
ATOM     20  O   UNL     1     476.698  40.692 461.077  1.00  0.00    -0.502 OA
ATOM     21  H   UNL     1     477.559  41.206 460.935  1.00  0.00     0.293 HD
ENDBRANCH   2  20
BRANCH   6  22
ATOM     22  O   UNL     1     479.251  36.270 459.559  1.00  0.00    -0.507 OA
ATOM     23  H   UNL     1     479.922  37.021 459.483  1.00  0.00     0.293 HD
ENDBRANCH   6  22
BRANCH   8  24
ATOM     24  O   UNL     1     477.523  33.140 462.738  1.00  0.00    -0.508 OA
ATOM     25  H   UNL     1     477.528  32.959 463.735  1.00  0.00     0.293 HD
ENDBRANCH   8  24
TORSDOF 5
ENDMDL
MODEL 7
REMARK VINA RESULT:    -5.191      1.774      6.743
REMARK INTER + INTRA:          -6.392
REMARK INTER:                  -6.312
REMARK INTRA:                  -0.080
REMARK UNBOUND:                -0.290
REMARK SMILES O=c1c(O)c(-c2ccc(O)cc2)oc2cc(O)cc(O)c12
REMARK SMILES IDX 5 1 3 2 2 3 1 4 21 5 19 6 18 7 16 8 15 9 14 10 13 11 6 12
REMARK SMILES IDX 7 13 8 14 9 15 12 16 11 17 10 18 4 20 20 22 17 24
REMARK H PARENT 10 19 4 21 20 23 17 25
REMARK Flexibility Score: inf
ROOT
ATOM      1  C   UNL     1     479.574  37.626 460.012  1.00  0.00     0.180 A 
ATOM      2  C   UNL     1     480.414  38.577 460.615  1.00  0.00     0.208 A 
ATOM      3  C   UNL     1     481.302  39.308 459.811  1.00  0.00     0.238 A 
ATOM      4  O   UNL     1     482.091  40.119 460.363  1.00  0.00    -0.285 OA
ATOM      5  C   UNL     1     481.327  39.092 458.412  1.00  0.00     0.111 A 
ATOM      6  C   UNL     1     482.159  39.805 457.496  1.00  0.00     0.134 A 
ATOM      7  C   UNL     1     482.195  39.417 456.151  1.00  0.00     0.093 A 
ATOM      8  C   UNL     1     481.384  38.388 455.676  1.00  0.00     0.123 A 
ATOM      9  C   UNL     1     480.523  37.723 456.551  1.00  0.00     0.094 A 
ATOM     10  C   UNL     1     480.491  38.063 457.905  1.00  0.00     0.146 A 
ATOM     11  O   UNL     1     479.666  37.400 458.707  1.00  0.00    -0.452 OA
ENDROOT
BRANCH   1  12
ATOM     12  C   UNL     1     478.593  36.835 460.790  1.00  0.00     0.021 A 
ATOM     13  C   UNL     1     477.588  37.498 461.514  1.00  0.00     0.016 A 
ATOM     14  C   UNL     1     476.665  36.772 462.273  1.00  0.00     0.047 A 
ATOM     15  C   UNL     1     476.743  35.377 462.331  1.00  0.00     0.115 A 
ATOM     16  C   UNL     1     478.678  35.432 460.867  1.00  0.00     0.016 A 
ATOM     17  C   UNL     1     477.754  34.709 461.628  1.00  0.00     0.047 A 
BRANCH  15  18
ATOM     18  O   UNL     1     475.817  34.666 463.090  1.00  0.00    -0.508 OA
ATOM     19  H   UNL     1     475.376  33.826 462.736  1.00  0.00     0.293 HD
ENDBRANCH  15  18
ENDBRANCH   1  12
BRANCH   2  20
ATOM     20  O   UNL     1     480.389  38.759 462.000  1.00  0.00    -0.502 OA
ATOM     21  H   UNL     1     481.090  39.301 462.491  1.00  0.00     0.293 HD
ENDBRANCH   2  20
BRANCH   6  22
ATOM     22  O   UNL     1     482.940  40.909 457.848  1.00  0.00    -0.507 OA
ATOM     23  H   UNL     1     483.946  40.897 457.934  1.00  0.00     0.293 HD
ENDBRANCH   6  22
BRANCH   8  24
ATOM     24  O   UNL     1     481.434  38.039 454.328  1.00  0.00    -0.508 OA
ATOM     25  H   UNL     1     481.105  38.668 453.605  1.00  0.00     0.293 HD
ENDBRANCH   8  24
TORSDOF 5
ENDMDL
MODEL 8
REMARK VINA RESULT:    -5.140      2.078      7.093
REMARK INTER + INTRA:          -6.331
REMARK INTER:                  -6.215
REMARK INTRA:                  -0.116
REMARK UNBOUND:                -0.290
REMARK SMILES O=c1c(O)c(-c2ccc(O)cc2)oc2cc(O)cc(O)c12
REMARK SMILES IDX 5 1 3 2 2 3 1 4 21 5 19 6 18 7 16 8 15 9 14 10 13 11 6 12
REMARK SMILES IDX 7 13 8 14 9 15 12 16 11 17 10 18 4 20 20 22 17 24
REMARK H PARENT 10 19 4 21 20 23 17 25
REMARK Flexibility Score: inf
ROOT
ATOM      1  C   UNL     1     480.339  37.725 458.721  1.00  0.00     0.180 A 
ATOM      2  C   UNL     1     481.405  38.546 459.128  1.00  0.00     0.208 A 
ATOM      3  C   UNL     1     482.187  39.180 458.150  1.00  0.00     0.238 A 
ATOM      4  O   UNL     1     483.174  39.869 458.519  1.00  0.00    -0.285 OA
ATOM      5  C   UNL     1     481.884  39.000 456.779  1.00  0.00     0.111 A 
ATOM      6  C   UNL     1     482.585  39.627 455.705  1.00  0.00     0.134 A 
ATOM      7  C   UNL     1     482.281  39.274 454.384  1.00  0.00     0.093 A 
ATOM      8  C   UNL     1     481.262  38.369 454.096  1.00  0.00     0.123 A 
ATOM      9  C   UNL     1     480.530  37.795 455.137  1.00  0.00     0.094 A 
ATOM     10  C   UNL     1     480.833  38.099 456.466  1.00  0.00     0.146 A 
ATOM     11  O   UNL     1     480.120  37.524 457.427  1.00  0.00    -0.452 OA
ENDROOT
BRANCH   1  12
ATOM     12  C   UNL     1     479.454  37.043 459.693  1.00  0.00     0.021 A 
ATOM     13  C   UNL     1     478.673  37.810 460.573  1.00  0.00     0.016 A 
ATOM     14  C   UNL     1     477.847  37.187 461.514  1.00  0.00     0.047 A 
ATOM     15  C   UNL     1     477.802  35.793 461.598  1.00  0.00     0.115 A 
ATOM     16  C   UNL     1     479.420  35.640 459.795  1.00  0.00     0.016 A 
ATOM     17  C   UNL     1     478.593  35.020 460.738  1.00  0.00     0.047 A 
BRANCH  15  18
ATOM     18  O   UNL     1     476.974  35.185 462.539  1.00  0.00    -0.508 OA
ATOM     19  H   UNL     1     476.408  34.379 462.304  1.00  0.00     0.293 HD
ENDBRANCH  15  18
ENDBRANCH   1  12
BRANCH   2  20
ATOM     20  O   UNL     1     481.701  38.691 460.486  1.00  0.00    -0.502 OA
ATOM     21  H   UNL     1     482.561  38.348 460.895  1.00  0.00     0.293 HD
ENDBRANCH   2  20
BRANCH   6  22
ATOM     22  O   UNL     1     483.559  40.614 455.879  1.00  0.00    -0.507 OA
ATOM     23  H   UNL     1     484.301  40.811 455.223  1.00  0.00     0.293 HD
ENDBRANCH   6  22
BRANCH   8  24
ATOM     24  O   UNL     1     480.977  38.053 452.770  1.00  0.00    -0.508 OA
ATOM     25  H   UNL     1     480.894  38.771 452.060  1.00  0.00     0.293 HD
ENDBRANCH   8  24
TORSDOF 5
ENDMDL
MODEL 9
REMARK VINA RESULT:    -5.067      2.810      7.153
REMARK INTER + INTRA:          -6.246
REMARK INTER:                  -5.948
REMARK INTRA:                  -0.298
REMARK UNBOUND:                -0.290
REMARK SMILES O=c1c(O)c(-c2ccc(O)cc2)oc2cc(O)cc(O)c12
REMARK SMILES IDX 5 1 3 2 2 3 1 4 21 5 19 6 18 7 16 8 15 9 14 10 13 11 6 12
REMARK SMILES IDX 7 13 8 14 9 15 12 16 11 17 10 18 4 20 20 22 17 24
REMARK H PARENT 10 19 4 21 20 23 17 25
REMARK Flexibility Score: inf
ROOT
ATOM      1  C   UNL     1     480.728  38.988 461.265  1.00  0.00     0.180 A 
ATOM      2  C   UNL     1     481.625  39.385 462.272  1.00  0.00     0.208 A 
ATOM      3  C   UNL     1     482.992  39.482 461.966  1.00  0.00     0.238 A 
ATOM      4  O   UNL     1     483.797  39.784 462.886  1.00  0.00    -0.285 OA
ATOM      5  C   UNL     1     483.443  39.198 460.655  1.00  0.00     0.111 A 
ATOM      6  C   UNL     1     484.800  39.302 460.224  1.00  0.00     0.134 A 
ATOM      7  C   UNL     1     485.151  38.871 458.939  1.00  0.00     0.093 A 
ATOM      8  C   UNL     1     484.188  38.400 458.049  1.00  0.00     0.123 A 
ATOM      9  C   UNL     1     482.848  38.349 458.439  1.00  0.00     0.094 A 
ATOM     10  C   UNL     1     482.473  38.739 459.726  1.00  0.00     0.146 A 
ATOM     11  O   UNL     1     481.190  38.665 460.062  1.00  0.00    -0.452 OA
ENDROOT
BRANCH   1  12
ATOM     12  C   UNL     1     479.270  38.887 461.503  1.00  0.00     0.021 A 
ATOM     13  C   UNL     1     478.706  37.640 461.820  1.00  0.00     0.016 A 
ATOM     14  C   UNL     1     477.328  37.518 462.027  1.00  0.00     0.047 A 
ATOM     15  C   UNL     1     476.496  38.634 461.906  1.00  0.00     0.115 A 
ATOM     16  C   UNL     1     478.425  40.003 461.363  1.00  0.00     0.016 A 
ATOM     17  C   UNL     1     477.048  39.878 461.570  1.00  0.00     0.047 A 
BRANCH  15  18
ATOM     18  O   UNL     1     475.126  38.498 462.116  1.00  0.00    -0.508 OA
ATOM     19  H   UNL     1     474.615  37.694 461.772  1.00  0.00     0.293 HD
ENDBRANCH  15  18
ENDBRANCH   1  12
BRANCH   2  20
ATOM     20  O   UNL     1     481.162  39.638 463.565  1.00  0.00    -0.502 OA
ATOM     21  H   UNL     1     480.900  40.565 463.878  1.00  0.00     0.293 HD
ENDBRANCH   2  20
BRANCH   6  22
ATOM     22  O   UNL     1     485.827  39.844 461.003  1.00  0.00    -0.507 OA
ATOM     23  H   UNL     1     485.721  40.153 461.958  1.00  0.00     0.293 HD
ENDBRANCH   6  22
BRANCH   8  24
ATOM     24  O   UNL     1     484.571  37.994 456.773  1.00  0.00    -0.508 OA
ATOM     25  H   UNL     1     484.640  37.014 456.527  1.00  0.00     0.293 HD
ENDBRANCH   8  24
TORSDOF 5
ENDMDL
