MODEL 1
REMARK VINA RESULT:    -4.799      0.000      0.000
REMARK INTER + INTRA:         -15.201
REMARK INTER:                 -12.656
REMARK INTRA:                  -2.546
REMARK UNBOUND:                -2.546
REMARK SMILES CCCCCCCCCCCCCCCCCCCCCCCCCCCCCC(=O)[O-]
REMARK SMILES IDX 16 1 17 2 18 3 19 4 20 5 21 6 22 7 23 8 24 9 25 10 26 11
REMARK SMILES IDX 27 12 28 13 29 14 30 15 31 16 32 17 15 18 14 19 13 20 12 21
REMARK SMILES IDX 11 22 10 23 9 24 8 25 7 26 6 27 5 28 4 29 3 30 2 31 1 32
REMARK H PARENT
REMARK Flexibility Score: inf
ROOT
ATOM      1  C   UNL     1      50.464  48.481   3.457  1.00  0.00     0.000 C 
ENDROOT
BRANCH   1   2
ATOM      2  C   UNL     1      49.622  47.278   3.932  1.00  0.00     0.000 C 
BRANCH   2   3
ATOM      3  C   UNL     1      50.159  45.894   3.504  1.00  0.00     0.000 C 
BRANCH   3   4
ATOM      4  C   UNL     1      49.151  45.040   2.712  1.00  0.00     0.000 C 
BRANCH   4   5
ATOM      5  C   UNL     1      48.371  45.828   1.640  1.00  0.00     0.000 C 
BRANCH   5   6
ATOM      6  C   UNL     1      47.528  44.904   0.743  1.00  0.00     0.000 C 
BRANCH   6   7
ATOM      7  C   UNL     1      48.377  44.121  -0.274  1.00  0.00     0.000 C 
BRANCH   7   8
ATOM      8  C   UNL     1      47.583  43.154  -1.174  1.00  0.00     0.000 C 
BRANCH   8   9
ATOM      9  C   UNL     1      48.361  42.596  -2.382  1.00  0.00     0.000 C 
BRANCH   9  10
ATOM     10  C   UNL     1      47.652  41.461  -3.144  1.00  0.00     0.000 C 
BRANCH  10  11
ATOM     11  C   UNL     1      47.440  41.781  -4.630  1.00  0.00     0.000 C 
BRANCH  11  12
ATOM     12  C   UNL     1      47.415  40.497  -5.473  1.00  0.00     0.000 C 
BRANCH  12  13
ATOM     13  C   UNL     1      48.795  40.150  -6.055  1.00  0.00     0.006 C 
BRANCH  13  14
ATOM     14  C   UNL     1      49.440  38.945  -5.356  1.00  0.00     0.053 C 
BRANCH  14  15
ATOM     15  C   UNL     1      50.660  39.375  -4.601  1.00  0.00     0.041 C 
ATOM     16  O   UNL     1      50.692  40.503  -4.040  1.00  0.00    -0.550 OA
ATOM     17  O   UNL     1      51.744  38.512  -4.480  1.00  0.00    -0.550 OA
ENDBRANCH  14  15
ENDBRANCH  13  14
ENDBRANCH  12  13
ENDBRANCH  11  12
ENDBRANCH  10  11
ENDBRANCH   9  10
ENDBRANCH   8   9
ENDBRANCH   7   8
ENDBRANCH   6   7
ENDBRANCH   5   6
ENDBRANCH   4   5
ENDBRANCH   3   4
ENDBRANCH   2   3
ENDBRANCH   1   2
BRANCH   1  18
ATOM     18  C   UNL     1      49.804  49.383   2.391  1.00  0.00     0.000 C 
BRANCH  18  19
ATOM     19  C   UNL     1      48.337  49.055   2.064  1.00  0.00     0.000 C 
BRANCH  19  20
ATOM     20  C   UNL     1      47.387  50.233   2.344  1.00  0.00     0.000 C 
BRANCH  20  21
ATOM     21  C   UNL     1      47.176  50.475   3.847  1.00  0.00     0.000 C 
BRANCH  21  22
ATOM     22  C   UNL     1      47.326  51.957   4.235  1.00  0.00     0.000 C 
BRANCH  22  23
ATOM     23  C   UNL     1      48.433  52.667   3.440  1.00  0.00     0.000 C 
BRANCH  23  24
ATOM     24  C   UNL     1      49.778  52.687   4.181  1.00  0.00    -0.000 C 
BRANCH  24  25
ATOM     25  C   UNL     1      49.704  51.864   5.476  1.00  0.00    -0.000 C 
BRANCH  25  26
ATOM     26  C   UNL     1      50.626  52.411   6.576  1.00  0.00    -0.000 C 
BRANCH  26  27
ATOM     27  C   UNL     1      52.098  52.015   6.368  1.00  0.00    -0.000 C 
BRANCH  27  28
ATOM     28  C   UNL     1      52.270  50.542   5.953  1.00  0.00    -0.000 C 
BRANCH  28  29
ATOM     29  C   UNL     1      53.730  50.071   5.811  1.00  0.00    -0.000 C 
BRANCH  29  30
ATOM     30  C   UNL     1      54.122  49.761   4.356  1.00  0.00    -0.000 C 
BRANCH  30  31
ATOM     31  C   UNL     1      55.202  50.714   3.818  1.00  0.00    -0.003 C 
ATOM     32  C   UNL     1      55.303  52.011   4.620  1.00  0.00     0.004 C 
ENDBRANCH  30  31
ENDBRANCH  29  30
ENDBRANCH  28  29
ENDBRANCH  27  28
ENDBRANCH  26  27
ENDBRANCH  25  26
ENDBRANCH  24  25
ENDBRANCH  23  24
ENDBRANCH  22  23
ENDBRANCH  21  22
ENDBRANCH  20  21
ENDBRANCH  19  20
ENDBRANCH  18  19
ENDBRANCH   1  18
TORSDOF 28
ENDMDL
MODEL 2
REMARK VINA RESULT:    -4.227      4.419     12.511
REMARK INTER + INTRA:         -13.692
REMARK INTER:                 -11.935
REMARK INTRA:                  -1.757
REMARK UNBOUND:                -2.546
REMARK SMILES CCCCCCCCCCCCCCCCCCCCCCCCCCCCCC(=O)[O-]
REMARK SMILES IDX 16 1 17 2 18 3 19 4 20 5 21 6 22 7 23 8 24 9 25 10 26 11
REMARK SMILES IDX 27 12 28 13 29 14 30 15 31 16 32 17 15 18 14 19 13 20 12 21
REMARK SMILES IDX 11 22 10 23 9 24 8 25 7 26 6 27 5 28 4 29 3 30 2 31 1 32
REMARK H PARENT
REMARK Flexibility Score: inf
ROOT
ATOM      1  C   UNL     1      49.286  48.609   3.115  1.00  0.00     0.000 C 
ENDROOT
BRANCH   1   2
ATOM      2  C   UNL     1      48.367  49.489   2.242  1.00  0.00     0.000 C 
BRANCH   2   3
ATOM      3  C   UNL     1      46.977  49.786   2.847  1.00  0.00     0.000 C 
BRANCH   3   4
ATOM      4  C   UNL     1      47.016  50.329   4.288  1.00  0.00     0.000 C 
BRANCH   4   5
ATOM      5  C   UNL     1      46.891  51.863   4.382  1.00  0.00     0.000 C 
BRANCH   5   6
ATOM      6  C   UNL     1      47.561  52.571   3.191  1.00  0.00     0.000 C 
BRANCH   6   7
ATOM      7  C   UNL     1      49.030  52.939   3.463  1.00  0.00     0.000 C 
BRANCH   7   8
ATOM      8  C   UNL     1      49.553  52.532   4.854  1.00  0.00     0.000 C 
BRANCH   8   9
ATOM      9  C   UNL     1      51.019  52.054   4.887  1.00  0.00     0.000 C 
BRANCH   9  10
ATOM     10  C   UNL     1      51.212  50.575   5.271  1.00  0.00     0.000 C 
BRANCH  10  11
ATOM     11  C   UNL     1      52.176  49.836   4.332  1.00  0.00     0.000 C 
BRANCH  11  12
ATOM     12  C   UNL     1      53.598  49.811   4.913  1.00  0.00     0.000 C 
BRANCH  12  13
ATOM     13  C   UNL     1      54.530  50.825   4.229  1.00  0.00     0.006 C 
BRANCH  13  14
ATOM     14  C   UNL     1      54.550  52.181   4.949  1.00  0.00     0.053 C 
BRANCH  14  15
ATOM     15  C   UNL     1      54.687  51.982   6.426  1.00  0.00     0.041 C 
ATOM     16  O   UNL     1      55.821  51.783   6.935  1.00  0.00    -0.550 OA
ATOM     17  O   UNL     1      53.566  52.061   7.246  1.00  0.00    -0.550 OA
ENDBRANCH  14  15
ENDBRANCH  13  14
ENDBRANCH  12  13
ENDBRANCH  11  12
ENDBRANCH  10  11
ENDBRANCH   9  10
ENDBRANCH   8   9
ENDBRANCH   7   8
ENDBRANCH   6   7
ENDBRANCH   5   6
ENDBRANCH   4   5
ENDBRANCH   3   4
ENDBRANCH   2   3
ENDBRANCH   1   2
BRANCH   1  18
ATOM     18  C   UNL     1      49.236  47.093   2.826  1.00  0.00     0.000 C 
BRANCH  18  19
ATOM     19  C   UNL     1      48.039  46.620   1.984  1.00  0.00     0.000 C 
BRANCH  19  20
ATOM     20  C   UNL     1      47.996  45.090   1.817  1.00  0.00     0.000 C 
BRANCH  20  21
ATOM     21  C   UNL     1      48.668  44.621   0.516  1.00  0.00     0.000 C 
BRANCH  21  22
ATOM     22  C   UNL     1      47.655  44.099  -0.519  1.00  0.00     0.000 C 
BRANCH  22  23
ATOM     23  C   UNL     1      48.249  43.019  -1.436  1.00  0.00     0.000 C 
BRANCH  23  24
ATOM     24  C   UNL     1      47.191  42.343  -2.321  1.00  0.00    -0.000 C 
BRANCH  24  25
ATOM     25  C   UNL     1      47.846  41.375  -3.318  1.00  0.00    -0.000 C 
BRANCH  25  26
ATOM     26  C   UNL     1      47.211  39.976  -3.286  1.00  0.00    -0.000 C 
BRANCH  26  27
ATOM     27  C   UNL     1      47.331  39.239  -4.631  1.00  0.00    -0.000 C 
BRANCH  27  28
ATOM     28  C   UNL     1      47.857  40.140  -5.763  1.00  0.00    -0.000 C 
BRANCH  28  29
ATOM     29  C   UNL     1      49.292  39.829  -6.230  1.00  0.00    -0.000 C 
BRANCH  29  30
ATOM     30  C   UNL     1      50.332  39.959  -5.103  1.00  0.00    -0.000 C 
BRANCH  30  31
ATOM     31  C   UNL     1      51.317  38.780  -5.069  1.00  0.00    -0.003 C 
ATOM     32  C   UNL     1      52.054  38.659  -3.736  1.00  0.00     0.004 C 
ENDBRANCH  30  31
ENDBRANCH  29  30
ENDBRANCH  28  29
ENDBRANCH  27  28
ENDBRANCH  26  27
ENDBRANCH  25  26
ENDBRANCH  24  25
ENDBRANCH  23  24
ENDBRANCH  22  23
ENDBRANCH  21  22
ENDBRANCH  20  21
ENDBRANCH  19  20
ENDBRANCH  18  19
ENDBRANCH   1  18
TORSDOF 28
ENDMDL
MODEL 3
REMARK VINA RESULT:    -4.006      1.561      2.000
REMARK INTER + INTRA:         -13.109
REMARK INTER:                 -10.961
REMARK INTRA:                  -2.147
REMARK UNBOUND:                -2.546
REMARK SMILES CCCCCCCCCCCCCCCCCCCCCCCCCCCCCC(=O)[O-]
REMARK SMILES IDX 16 1 17 2 18 3 19 4 20 5 21 6 22 7 23 8 24 9 25 10 26 11
REMARK SMILES IDX 27 12 28 13 29 14 30 15 31 16 32 17 15 18 14 19 13 20 12 21
REMARK SMILES IDX 11 22 10 23 9 24 8 25 7 26 6 27 5 28 4 29 3 30 2 31 1 32
REMARK H PARENT
REMARK Flexibility Score: inf
ROOT
ATOM      1  C   UNL     1      50.249  48.728   3.487  1.00  0.00     0.000 C 
ENDROOT
BRANCH   1   2
ATOM      2  C   UNL     1      49.729  47.359   3.978  1.00  0.00     0.000 C 
BRANCH   2   3
ATOM      3  C   UNL     1      50.211  46.143   3.155  1.00  0.00     0.000 C 
BRANCH   3   4
ATOM      4  C   UNL     1      49.076  45.241   2.635  1.00  0.00     0.000 C 
BRANCH   4   5
ATOM      5  C   UNL     1      47.972  46.001   1.873  1.00  0.00     0.000 C 
BRANCH   5   6
ATOM      6  C   UNL     1      47.595  45.303   0.554  1.00  0.00     0.000 C 
BRANCH   6   7
ATOM      7  C   UNL     1      48.478  44.080   0.251  1.00  0.00     0.000 C 
BRANCH   7   8
ATOM      8  C   UNL     1      48.492  43.640  -1.226  1.00  0.00     0.000 C 
BRANCH   8   9
ATOM      9  C   UNL     1      47.403  42.621  -1.616  1.00  0.00     0.000 C 
BRANCH   9  10
ATOM     10  C   UNL     1      47.653  41.877  -2.941  1.00  0.00     0.000 C 
BRANCH  10  11
ATOM     11  C   UNL     1      49.114  41.960  -3.405  1.00  0.00     0.000 C 
BRANCH  11  12
ATOM     12  C   UNL     1      49.222  41.738  -4.922  1.00  0.00     0.000 C 
BRANCH  12  13
ATOM     13  C   UNL     1      49.985  40.449  -5.272  1.00  0.00     0.006 C 
BRANCH  13  14
ATOM     14  C   UNL     1      49.288  39.191  -4.736  1.00  0.00     0.053 C 
BRANCH  14  15
ATOM     15  C   UNL     1      48.017  38.942  -5.485  1.00  0.00     0.041 C 
ATOM     16  O   UNL     1      47.086  38.284  -4.951  1.00  0.00    -0.550 OA
ATOM     17  O   UNL     1      47.843  39.476  -6.758  1.00  0.00    -0.550 OA
ENDBRANCH  14  15
ENDBRANCH  13  14
ENDBRANCH  12  13
ENDBRANCH  11  12
ENDBRANCH  10  11
ENDBRANCH   9  10
ENDBRANCH   8   9
ENDBRANCH   7   8
ENDBRANCH   6   7
ENDBRANCH   5   6
ENDBRANCH   4   5
ENDBRANCH   3   4
ENDBRANCH   2   3
ENDBRANCH   1   2
BRANCH   1  18
ATOM     18  C   UNL     1      49.416  49.402   2.375  1.00  0.00     0.000 C 
BRANCH  18  19
ATOM     19  C   UNL     1      47.899  49.456   2.626  1.00  0.00     0.000 C 
BRANCH  19  20
ATOM     20  C   UNL     1      47.361  50.894   2.713  1.00  0.00     0.000 C 
BRANCH  20  21
ATOM     21  C   UNL     1      48.484  51.937   2.835  1.00  0.00     0.000 C 
BRANCH  21  22
ATOM     22  C   UNL     1      48.736  52.368   4.291  1.00  0.00     0.000 C 
BRANCH  22  23
ATOM     23  C   UNL     1      50.226  52.595   4.592  1.00  0.00     0.000 C 
BRANCH  23  24
ATOM     24  C   UNL     1      50.558  52.467   6.086  1.00  0.00    -0.000 C 
BRANCH  24  25
ATOM     25  C   UNL     1      51.951  53.037   6.390  1.00  0.00    -0.000 C 
BRANCH  25  26
ATOM     26  C   UNL     1      52.236  53.125   7.898  1.00  0.00    -0.000 C 
BRANCH  26  27
ATOM     27  C   UNL     1      53.729  52.966   8.230  1.00  0.00    -0.000 C 
BRANCH  27  28
ATOM     28  C   UNL     1      54.160  51.495   8.368  1.00  0.00    -0.000 C 
BRANCH  28  29
ATOM     29  C   UNL     1      54.551  50.803   7.048  1.00  0.00    -0.000 C 
BRANCH  29  30
ATOM     30  C   UNL     1      55.166  51.771   6.022  1.00  0.00    -0.000 C 
BRANCH  30  31
ATOM     31  C   UNL     1      54.457  51.715   4.658  1.00  0.00    -0.003 C 
ATOM     32  C   UNL     1      54.149  50.288   4.206  1.00  0.00     0.004 C 
ENDBRANCH  30  31
ENDBRANCH  29  30
ENDBRANCH  28  29
ENDBRANCH  27  28
ENDBRANCH  26  27
ENDBRANCH  25  26
ENDBRANCH  24  25
ENDBRANCH  23  24
ENDBRANCH  22  23
ENDBRANCH  21  22
ENDBRANCH  20  21
ENDBRANCH  19  20
ENDBRANCH  18  19
ENDBRANCH   1  18
TORSDOF 28
ENDMDL
MODEL 4
REMARK VINA RESULT:    -3.942      3.505     12.234
REMARK INTER + INTRA:         -12.940
REMARK INTER:                 -10.876
REMARK INTRA:                  -2.063
REMARK UNBOUND:                -2.546
REMARK SMILES CCCCCCCCCCCCCCCCCCCCCCCCCCCCCC(=O)[O-]
REMARK SMILES IDX 16 1 17 2 18 3 19 4 20 5 21 6 22 7 23 8 24 9 25 10 26 11
REMARK SMILES IDX 27 12 28 13 29 14 30 15 31 16 32 17 15 18 14 19 13 20 12 21
REMARK SMILES IDX 11 22 10 23 9 24 8 25 7 26 6 27 5 28 4 29 3 30 2 31 1 32
REMARK H PARENT
REMARK Flexibility Score: inf
ROOT
ATOM      1  C   UNL     1      48.548  48.274   3.187  1.00  0.00     0.000 C 
ENDROOT
BRANCH   1   2
ATOM      2  C   UNL     1      48.317  49.565   2.371  1.00  0.00     0.000 C 
BRANCH   2   3
ATOM      3  C   UNL     1      49.127  50.792   2.847  1.00  0.00     0.000 C 
BRANCH   3   4
ATOM      4  C   UNL     1      48.269  51.925   3.440  1.00  0.00     0.000 C 
BRANCH   4   5
ATOM      5  C   UNL     1      49.089  53.120   3.968  1.00  0.00     0.000 C 
BRANCH   5   6
ATOM      6  C   UNL     1      50.480  52.690   4.467  1.00  0.00     0.000 C 
BRANCH   6   7
ATOM      7  C   UNL     1      50.721  53.043   5.945  1.00  0.00     0.000 C 
BRANCH   7   8
ATOM      8  C   UNL     1      50.290  51.957   6.951  1.00  0.00     0.000 C 
BRANCH   8   9
ATOM      9  C   UNL     1      50.807  50.538   6.642  1.00  0.00     0.000 C 
BRANCH   9  10
ATOM     10  C   UNL     1      52.226  50.478   6.045  1.00  0.00     0.000 C 
BRANCH  10  11
ATOM     11  C   UNL     1      53.326  50.654   7.102  1.00  0.00     0.000 C 
BRANCH  11  12
ATOM     12  C   UNL     1      54.293  51.780   6.707  1.00  0.00     0.000 C 
BRANCH  12  13
ATOM     13  C   UNL     1      54.249  52.090   5.201  1.00  0.00     0.006 C 
BRANCH  13  14
ATOM     14  C   UNL     1      55.552  51.708   4.486  1.00  0.00     0.053 C 
BRANCH  14  15
ATOM     15  C   UNL     1      55.419  50.359   3.851  1.00  0.00     0.041 C 
ATOM     16  O   UNL     1      54.348  49.706   3.970  1.00  0.00    -0.550 OA
ATOM     17  O   UNL     1      56.462  49.842   3.090  1.00  0.00    -0.550 OA
ENDBRANCH  14  15
ENDBRANCH  13  14
ENDBRANCH  12  13
ENDBRANCH  11  12
ENDBRANCH  10  11
ENDBRANCH   9  10
ENDBRANCH   8   9
ENDBRANCH   7   8
ENDBRANCH   6   7
ENDBRANCH   5   6
ENDBRANCH   4   5
ENDBRANCH   3   4
ENDBRANCH   2   3
ENDBRANCH   1   2
BRANCH   1  18
ATOM     18  C   UNL     1      50.019  47.939   3.512  1.00  0.00     0.000 C 
BRANCH  18  19
ATOM     19  C   UNL     1      50.380  46.444   3.474  1.00  0.00     0.000 C 
BRANCH  19  20
ATOM     20  C   UNL     1      49.146  45.537   3.322  1.00  0.00     0.000 C 
BRANCH  20  21
ATOM     21  C   UNL     1      49.298  44.523   2.176  1.00  0.00     0.000 C 
BRANCH  21  22
ATOM     22  C   UNL     1      48.250  44.723   1.066  1.00  0.00     0.000 C 
BRANCH  22  23
ATOM     23  C   UNL     1      48.705  44.153  -0.286  1.00  0.00     0.000 C 
BRANCH  23  24
ATOM     24  C   UNL     1      47.598  43.364  -1.002  1.00  0.00    -0.000 C 
BRANCH  24  25
ATOM     25  C   UNL     1      48.141  42.677  -2.264  1.00  0.00    -0.000 C 
BRANCH  25  26
ATOM     26  C   UNL     1      47.094  41.780  -2.943  1.00  0.00    -0.000 C 
BRANCH  26  27
ATOM     27  C   UNL     1      47.199  41.803  -4.477  1.00  0.00    -0.000 C 
BRANCH  27  28
ATOM     28  C   UNL     1      48.604  41.433  -4.988  1.00  0.00    -0.000 C 
BRANCH  28  29
ATOM     29  C   UNL     1      48.651  40.232  -5.951  1.00  0.00    -0.000 C 
BRANCH  29  30
ATOM     30  C   UNL     1      49.371  39.010  -5.353  1.00  0.00    -0.000 C 
BRANCH  30  31
ATOM     31  C   UNL     1      50.789  39.340  -4.862  1.00  0.00    -0.003 C 
ATOM     32  C   UNL     1      51.770  38.184  -5.055  1.00  0.00     0.004 C 
ENDBRANCH  30  31
ENDBRANCH  29  30
ENDBRANCH  28  29
ENDBRANCH  27  28
ENDBRANCH  26  27
ENDBRANCH  25  26
ENDBRANCH  24  25
ENDBRANCH  23  24
ENDBRANCH  22  23
ENDBRANCH  21  22
ENDBRANCH  20  21
ENDBRANCH  19  20
ENDBRANCH  18  19
ENDBRANCH   1  18
TORSDOF 28
ENDMDL
MODEL 5
REMARK VINA RESULT:    -3.838      3.571     12.251
REMARK INTER + INTRA:         -12.666
REMARK INTER:                 -10.711
REMARK INTRA:                  -1.955
REMARK UNBOUND:                -2.546
REMARK SMILES CCCCCCCCCCCCCCCCCCCCCCCCCCCCCC(=O)[O-]
REMARK SMILES IDX 16 1 17 2 18 3 19 4 20 5 21 6 22 7 23 8 24 9 25 10 26 11
REMARK SMILES IDX 27 12 28 13 29 14 30 15 31 16 32 17 15 18 14 19 13 20 12 21
REMARK SMILES IDX 11 22 10 23 9 24 8 25 7 26 6 27 5 28 4 29 3 30 2 31 1 32
REMARK H PARENT
REMARK Flexibility Score: inf
ROOT
ATOM      1  C   UNL     1      49.492  45.746   3.509  1.00  0.00     0.000 C 
ENDROOT
BRANCH   1   2
ATOM      2  C   UNL     1      50.421  46.979   3.484  1.00  0.00     0.000 C 
BRANCH   2   3
ATOM      3  C   UNL     1      49.726  48.314   3.134  1.00  0.00     0.000 C 
BRANCH   3   4
ATOM      4  C   UNL     1      48.573  48.694   4.081  1.00  0.00     0.000 C 
BRANCH   4   5
ATOM      5  C   UNL     1      47.296  49.164   3.354  1.00  0.00     0.000 C 
BRANCH   5   6
ATOM      6  C   UNL     1      47.434  50.600   2.817  1.00  0.00     0.000 C 
BRANCH   6   7
ATOM      7  C   UNL     1      47.619  51.642   3.933  1.00  0.00     0.000 C 
BRANCH   7   8
ATOM      8  C   UNL     1      48.677  52.724   3.641  1.00  0.00     0.000 C 
BRANCH   8   9
ATOM      9  C   UNL     1      49.909  52.701   4.569  1.00  0.00     0.000 C 
BRANCH   9  10
ATOM     10  C   UNL     1      50.140  51.371   5.310  1.00  0.00     0.000 C 
BRANCH  10  11
ATOM     11  C   UNL     1      51.059  51.521   6.531  1.00  0.00     0.000 C 
BRANCH  11  12
ATOM     12  C   UNL     1      52.529  51.293   6.144  1.00  0.00     0.000 C 
BRANCH  12  13
ATOM     13  C   UNL     1      52.685  50.803   4.695  1.00  0.00     0.006 C 
BRANCH  13  14
ATOM     14  C   UNL     1      53.837  49.800   4.537  1.00  0.00     0.053 C 
BRANCH  14  15
ATOM     15  C   UNL     1      55.060  50.491   4.019  1.00  0.00     0.041 C 
ATOM     16  O   UNL     1      55.230  51.721   4.233  1.00  0.00    -0.550 OA
ATOM     17  O   UNL     1      56.033  49.767   3.339  1.00  0.00    -0.550 OA
ENDBRANCH  14  15
ENDBRANCH  13  14
ENDBRANCH  12  13
ENDBRANCH  11  12
ENDBRANCH  10  11
ENDBRANCH   9  10
ENDBRANCH   8   9
ENDBRANCH   7   8
ENDBRANCH   6   7
ENDBRANCH   5   6
ENDBRANCH   4   5
ENDBRANCH   3   4
ENDBRANCH   2   3
ENDBRANCH   1   2
BRANCH   1  18
ATOM     18  C   UNL     1      49.031  45.224   2.131  1.00  0.00     0.000 C 
BRANCH  18  19
ATOM     19  C   UNL     1      47.712  45.818   1.607  1.00  0.00     0.000 C 
BRANCH  19  20
ATOM     20  C   UNL     1      47.316  45.263   0.227  1.00  0.00     0.000 C 
BRANCH  20  21
ATOM     21  C   UNL     1      48.261  44.149  -0.253  1.00  0.00     0.000 C 
BRANCH  21  22
ATOM     22  C   UNL     1      47.536  43.080  -1.091  1.00  0.00     0.000 C 
BRANCH  22  23
ATOM     23  C   UNL     1      48.292  42.729  -2.383  1.00  0.00     0.000 C 
BRANCH  23  24
ATOM     24  C   UNL     1      48.210  41.235  -2.732  1.00  0.00    -0.000 C 
BRANCH  24  25
ATOM     25  C   UNL     1      46.905  40.916  -3.477  1.00  0.00    -0.000 C 
BRANCH  25  26
ATOM     26  C   UNL     1      46.909  39.511  -4.098  1.00  0.00    -0.000 C 
BRANCH  26  27
ATOM     27  C   UNL     1      47.059  39.540  -5.629  1.00  0.00    -0.000 C 
BRANCH  27  28
ATOM     28  C   UNL     1      48.021  40.639  -6.117  1.00  0.00    -0.000 C 
BRANCH  28  29
ATOM     29  C   UNL     1      49.505  40.230  -6.170  1.00  0.00    -0.000 C 
BRANCH  29  30
ATOM     30  C   UNL     1      50.284  40.630  -4.905  1.00  0.00    -0.000 C 
BRANCH  30  31
ATOM     31  C   UNL     1      50.816  39.415  -4.128  1.00  0.00    -0.003 C 
ATOM     32  C   UNL     1      51.476  38.374  -5.032  1.00  0.00     0.004 C 
ENDBRANCH  30  31
ENDBRANCH  29  30
ENDBRANCH  28  29
ENDBRANCH  27  28
ENDBRANCH  26  27
ENDBRANCH  25  26
ENDBRANCH  24  25
ENDBRANCH  23  24
ENDBRANCH  22  23
ENDBRANCH  21  22
ENDBRANCH  20  21
ENDBRANCH  19  20
ENDBRANCH  18  19
ENDBRANCH   1  18
TORSDOF 28
ENDMDL
MODEL 6
REMARK VINA RESULT:    -3.774      1.377      4.975
REMARK INTER + INTRA:         -12.496
REMARK INTER:                 -10.393
REMARK INTRA:                  -2.103
REMARK UNBOUND:                -2.546
REMARK SMILES CCCCCCCCCCCCCCCCCCCCCCCCCCCCCC(=O)[O-]
REMARK SMILES IDX 16 1 17 2 18 3 19 4 20 5 21 6 22 7 23 8 24 9 25 10 26 11
REMARK SMILES IDX 27 12 28 13 29 14 30 15 31 16 32 17 15 18 14 19 13 20 12 21
REMARK SMILES IDX 11 22 10 23 9 24 8 25 7 26 6 27 5 28 4 29 3 30 2 31 1 32
REMARK H PARENT
REMARK Flexibility Score: inf
ROOT
ATOM      1  C   UNL     1      53.718  50.048   3.634  1.00  0.00     0.000 C 
ENDROOT
BRANCH   1   2
ATOM      2  C   UNL     1      52.486  50.275   4.535  1.00  0.00     0.000 C 
BRANCH   2   3
ATOM      3  C   UNL     1      51.490  49.095   4.592  1.00  0.00     0.000 C 
BRANCH   3   4
ATOM      4  C   UNL     1      50.659  48.905   3.309  1.00  0.00     0.000 C 
BRANCH   4   5
ATOM      5  C   UNL     1      49.646  47.745   3.387  1.00  0.00     0.000 C 
BRANCH   5   6
ATOM      6  C   UNL     1      48.747  47.680   2.139  1.00  0.00     0.000 C 
BRANCH   6   7
ATOM      7  C   UNL     1      47.609  46.653   2.275  1.00  0.00     0.000 C 
BRANCH   7   8
ATOM      8  C   UNL     1      47.950  45.237   1.772  1.00  0.00     0.000 C 
BRANCH   8   9
ATOM      9  C   UNL     1      47.820  45.034   0.249  1.00  0.00     0.000 C 
BRANCH   9  10
ATOM     10  C   UNL     1      48.388  43.705  -0.282  1.00  0.00     0.000 C 
BRANCH  10  11
ATOM     11  C   UNL     1      48.206  43.541  -1.797  1.00  0.00     0.000 C 
BRANCH  11  12
ATOM     12  C   UNL     1      48.054  42.060  -2.176  1.00  0.00     0.000 C 
BRANCH  12  13
ATOM     13  C   UNL     1      48.888  41.681  -3.411  1.00  0.00     0.006 C 
BRANCH  13  14
ATOM     14  C   UNL     1      48.468  40.332  -4.011  1.00  0.00     0.053 C 
BRANCH  14  15
ATOM     15  C   UNL     1      49.334  39.993  -5.184  1.00  0.00     0.041 C 
ATOM     16  O   UNL     1      48.968  40.299  -6.350  1.00  0.00    -0.550 OA
ATOM     17  O   UNL     1      50.565  39.378  -4.985  1.00  0.00    -0.550 OA
ENDBRANCH  14  15
ENDBRANCH  13  14
ENDBRANCH  12  13
ENDBRANCH  11  12
ENDBRANCH  10  11
ENDBRANCH   9  10
ENDBRANCH   8   9
ENDBRANCH   7   8
ENDBRANCH   6   7
ENDBRANCH   5   6
ENDBRANCH   4   5
ENDBRANCH   3   4
ENDBRANCH   2   3
ENDBRANCH   1   2
BRANCH   1  18
ATOM     18  C   UNL     1      55.091  50.255   4.309  1.00  0.00     0.000 C 
BRANCH  18  19
ATOM     19  C   UNL     1      55.647  51.688   4.249  1.00  0.00     0.000 C 
BRANCH  19  20
ATOM     20  C   UNL     1      54.771  52.698   5.011  1.00  0.00     0.000 C 
BRANCH  20  21
ATOM     21  C   UNL     1      55.093  52.742   6.513  1.00  0.00     0.000 C 
BRANCH  21  22
ATOM     22  C   UNL     1      54.176  51.824   7.341  1.00  0.00     0.000 C 
BRANCH  22  23
ATOM     23  C   UNL     1      53.391  52.588   8.419  1.00  0.00     0.000 C 
BRANCH  23  24
ATOM     24  C   UNL     1      52.046  53.125   7.907  1.00  0.00    -0.000 C 
BRANCH  24  25
ATOM     25  C   UNL     1      51.952  53.001   6.379  1.00  0.00    -0.000 C 
BRANCH  25  26
ATOM     26  C   UNL     1      50.501  52.883   5.886  1.00  0.00    -0.000 C 
BRANCH  26  27
ATOM     27  C   UNL     1      50.374  53.071   4.364  1.00  0.00    -0.000 C 
BRANCH  27  28
ATOM     28  C   UNL     1      48.916  53.025   3.873  1.00  0.00    -0.000 C 
BRANCH  28  29
ATOM     29  C   UNL     1      48.422  51.636   3.426  1.00  0.00    -0.000 C 
BRANCH  29  30
ATOM     30  C   UNL     1      47.177  51.163   4.197  1.00  0.00    -0.000 C 
BRANCH  30  31
ATOM     31  C   UNL     1      47.452  49.920   5.058  1.00  0.00    -0.003 C 
ATOM     32  C   UNL     1      48.434  50.190   6.197  1.00  0.00     0.004 C 
ENDBRANCH  30  31
ENDBRANCH  29  30
ENDBRANCH  28  29
ENDBRANCH  27  28
ENDBRANCH  26  27
ENDBRANCH  25  26
ENDBRANCH  24  25
ENDBRANCH  23  24
ENDBRANCH  22  23
ENDBRANCH  21  22
ENDBRANCH  20  21
ENDBRANCH  19  20
ENDBRANCH  18  19
ENDBRANCH   1  18
TORSDOF 28
ENDMDL
MODEL 7
REMARK VINA RESULT:    -3.524      1.330      4.018
REMARK INTER + INTRA:         -11.839
REMARK INTER:                  -9.058
REMARK INTRA:                  -2.781
REMARK UNBOUND:                -2.546
REMARK SMILES CCCCCCCCCCCCCCCCCCCCCCCCCCCCCC(=O)[O-]
REMARK SMILES IDX 16 1 17 2 18 3 19 4 20 5 21 6 22 7 23 8 24 9 25 10 26 11
REMARK SMILES IDX 27 12 28 13 29 14 30 15 31 16 32 17 15 18 14 19 13 20 12 21
REMARK SMILES IDX 11 22 10 23 9 24 8 25 7 26 6 27 5 28 4 29 3 30 2 31 1 32
REMARK H PARENT
REMARK Flexibility Score: inf
ROOT
ATOM      1  C   UNL     1      47.615  50.618   5.060  1.00  0.00     0.000 C 
ENDROOT
BRANCH   1   2
ATOM      2  C   UNL     1      47.061  51.483   3.908  1.00  0.00     0.000 C 
BRANCH   2   3
ATOM      3  C   UNL     1      46.898  50.749   2.559  1.00  0.00     0.000 C 
BRANCH   3   4
ATOM      4  C   UNL     1      46.875  49.213   2.673  1.00  0.00     0.000 C 
BRANCH   4   5
ATOM      5  C   UNL     1      47.122  48.483   1.337  1.00  0.00     0.000 C 
BRANCH   5   6
ATOM      6  C   UNL     1      47.855  47.144   1.537  1.00  0.00     0.000 C 
BRANCH   6   7
ATOM      7  C   UNL     1      46.924  45.927   1.404  1.00  0.00     0.000 C 
BRANCH   7   8
ATOM      8  C   UNL     1      46.877  45.297  -0.003  1.00  0.00     0.000 C 
BRANCH   8   9
ATOM      9  C   UNL     1      48.097  44.428  -0.371  1.00  0.00     0.000 C 
BRANCH   9  10
ATOM     10  C   UNL     1      47.758  43.031  -0.922  1.00  0.00     0.000 C 
BRANCH  10  11
ATOM     11  C   UNL     1      48.535  42.690  -2.202  1.00  0.00     0.000 C 
BRANCH  11  12
ATOM     12  C   UNL     1      47.841  41.563  -2.983  1.00  0.00     0.000 C 
BRANCH  12  13
ATOM     13  C   UNL     1      48.424  41.383  -4.394  1.00  0.00     0.006 C 
BRANCH  13  14
ATOM     14  C   UNL     1      49.788  40.679  -4.379  1.00  0.00     0.053 C 
BRANCH  14  15
ATOM     15  C   UNL     1      49.971  39.875  -5.629  1.00  0.00     0.041 C 
ATOM     16  O   UNL     1      49.356  40.192  -6.681  1.00  0.00    -0.550 OA
ATOM     17  O   UNL     1      50.857  38.803  -5.642  1.00  0.00    -0.550 OA
ENDBRANCH  14  15
ENDBRANCH  13  14
ENDBRANCH  12  13
ENDBRANCH  11  12
ENDBRANCH  10  11
ENDBRANCH   9  10
ENDBRANCH   8   9
ENDBRANCH   7   8
ENDBRANCH   6   7
ENDBRANCH   5   6
ENDBRANCH   4   5
ENDBRANCH   3   4
ENDBRANCH   2   3
ENDBRANCH   1   2
BRANCH   1  18
ATOM     18  C   UNL     1      48.894  51.150   5.744  1.00  0.00     0.000 C 
BRANCH  18  19
ATOM     19  C   UNL     1      49.671  50.120   6.582  1.00  0.00     0.000 C 
BRANCH  19  20
ATOM     20  C   UNL     1      50.841  50.748   7.360  1.00  0.00     0.000 C 
BRANCH  20  21
ATOM     21  C   UNL     1      50.836  52.284   7.293  1.00  0.00     0.000 C 
BRANCH  21  22
ATOM     22  C   UNL     1      52.256  52.878   7.247  1.00  0.00     0.000 C 
BRANCH  22  23
ATOM     23  C   UNL     1      52.771  53.067   5.812  1.00  0.00     0.000 C 
BRANCH  23  24
ATOM     24  C   UNL     1      54.304  53.014   5.719  1.00  0.00    -0.000 C 
BRANCH  24  25
ATOM     25  C   UNL     1      54.756  52.680   4.289  1.00  0.00    -0.000 C 
BRANCH  25  26
ATOM     26  C   UNL     1      55.657  51.436   4.232  1.00  0.00    -0.000 C 
BRANCH  26  27
ATOM     27  C   UNL     1      54.859  50.134   4.047  1.00  0.00    -0.000 C 
BRANCH  27  28
ATOM     28  C   UNL     1      53.952  49.811   5.249  1.00  0.00    -0.000 C 
BRANCH  28  29
ATOM     29  C   UNL     1      52.537  49.323   4.884  1.00  0.00    -0.000 C 
BRANCH  29  30
ATOM     30  C   UNL     1      52.056  49.841   3.517  1.00  0.00    -0.000 C 
BRANCH  30  31
ATOM     31  C   UNL     1      50.647  49.343   3.158  1.00  0.00    -0.003 C 
ATOM     32  C   UNL     1      50.298  48.013   3.824  1.00  0.00     0.004 C 
ENDBRANCH  30  31
ENDBRANCH  29  30
ENDBRANCH  28  29
ENDBRANCH  27  28
ENDBRANCH  26  27
ENDBRANCH  25  26
ENDBRANCH  24  25
ENDBRANCH  23  24
ENDBRANCH  22  23
ENDBRANCH  21  22
ENDBRANCH  20  21
ENDBRANCH  19  20
ENDBRANCH  18  19
ENDBRANCH   1  18
TORSDOF 28
ENDMDL
MODEL 8
REMARK VINA RESULT:    -3.267      1.396      2.697
REMARK INTER + INTRA:         -11.159
REMARK INTER:                 -10.053
REMARK INTRA:                  -1.107
REMARK UNBOUND:                -2.546
REMARK SMILES CCCCCCCCCCCCCCCCCCCCCCCCCCCCCC(=O)[O-]
REMARK SMILES IDX 16 1 17 2 18 3 19 4 20 5 21 6 22 7 23 8 24 9 25 10 26 11
REMARK SMILES IDX 27 12 28 13 29 14 30 15 31 16 32 17 15 18 14 19 13 20 12 21
REMARK SMILES IDX 11 22 10 23 9 24 8 25 7 26 6 27 5 28 4 29 3 30 2 31 1 32
REMARK H PARENT
REMARK Flexibility Score: inf
ROOT
ATOM      1  C   UNL     1      47.339  46.534   2.106  1.00  0.00     0.000 C 
ENDROOT
BRANCH   1   2
ATOM      2  C   UNL     1      46.880  45.437   1.122  1.00  0.00     0.000 C 
BRANCH   2   3
ATOM      3  C   UNL     1      48.021  44.611   0.487  1.00  0.00     0.000 C 
BRANCH   3   4
ATOM      4  C   UNL     1      47.607  43.821  -0.769  1.00  0.00     0.000 C 
BRANCH   4   5
ATOM      5  C   UNL     1      48.797  43.290  -1.595  1.00  0.00     0.000 C 
BRANCH   5   6
ATOM      6  C   UNL     1      48.335  42.474  -2.815  1.00  0.00     0.000 C 
BRANCH   6   7
ATOM      7  C   UNL     1      48.163  40.977  -2.504  1.00  0.00     0.000 C 
BRANCH   7   8
ATOM      8  C   UNL     1      46.895  40.333  -3.098  1.00  0.00     0.000 C 
BRANCH   8   9
ATOM      9  C   UNL     1      46.875  40.225  -4.636  1.00  0.00     0.000 C 
BRANCH   9  10
ATOM     10  C   UNL     1      47.252  38.841  -5.196  1.00  0.00     0.000 C 
BRANCH  10  11
ATOM     11  C   UNL     1      48.757  38.693  -5.457  1.00  0.00     0.000 C 
BRANCH  11  12
ATOM     12  C   UNL     1      49.329  39.958  -6.117  1.00  0.00     0.000 C 
BRANCH  12  13
ATOM     13  C   UNL     1      50.347  40.679  -5.219  1.00  0.00     0.006 C 
BRANCH  13  14
ATOM     14  C   UNL     1      50.679  39.880  -3.951  1.00  0.00     0.053 C 
BRANCH  14  15
ATOM     15  C   UNL     1      51.740  38.864  -4.240  1.00  0.00     0.041 C 
ATOM     16  O   UNL     1      52.223  38.766  -5.399  1.00  0.00    -0.550 OA
ATOM     17  O   UNL     1      52.228  38.057  -3.218  1.00  0.00    -0.550 OA
ENDBRANCH  14  15
ENDBRANCH  13  14
ENDBRANCH  12  13
ENDBRANCH  11  12
ENDBRANCH  10  11
ENDBRANCH   9  10
ENDBRANCH   8   9
ENDBRANCH   7   8
ENDBRANCH   6   7
ENDBRANCH   5   6
ENDBRANCH   4   5
ENDBRANCH   3   4
ENDBRANCH   2   3
ENDBRANCH   1   2
BRANCH   1  18
ATOM     18  C   UNL     1      47.863  47.837   1.463  1.00  0.00     0.000 C 
BRANCH  18  19
ATOM     19  C   UNL     1      48.929  48.592   2.276  1.00  0.00     0.000 C 
BRANCH  19  20
ATOM     20  C   UNL     1      48.484  50.014   2.664  1.00  0.00     0.000 C 
BRANCH  20  21
ATOM     21  C   UNL     1      47.956  50.092   4.105  1.00  0.00     0.000 C 
BRANCH  21  22
ATOM     22  C   UNL     1      48.977  50.714   5.076  1.00  0.00     0.000 C 
BRANCH  22  23
ATOM     23  C   UNL     1      49.799  51.839   4.429  1.00  0.00     0.000 C 
BRANCH  23  24
ATOM     24  C   UNL     1      50.052  53.015   5.384  1.00  0.00    -0.000 C 
BRANCH  24  25
ATOM     25  C   UNL     1      51.538  53.104   5.764  1.00  0.00    -0.000 C 
BRANCH  25  26
ATOM     26  C   UNL     1      51.906  52.168   6.927  1.00  0.00    -0.000 C 
BRANCH  26  27
ATOM     27  C   UNL     1      52.073  50.706   6.481  1.00  0.00    -0.000 C 
BRANCH  27  28
ATOM     28  C   UNL     1      53.545  50.312   6.255  1.00  0.00    -0.000 C 
BRANCH  28  29
ATOM     29  C   UNL     1      54.064  50.527   4.820  1.00  0.00    -0.000 C 
BRANCH  29  30
ATOM     30  C   UNL     1      55.073  51.683   4.713  1.00  0.00    -0.000 C 
BRANCH  30  31
ATOM     31  C   UNL     1      56.338  51.294   3.930  1.00  0.00    -0.003 C 
ATOM     32  C   UNL     1      56.234  49.915   3.280  1.00  0.00     0.004 C 
ENDBRANCH  30  31
ENDBRANCH  29  30
ENDBRANCH  28  29
ENDBRANCH  27  28
ENDBRANCH  26  27
ENDBRANCH  25  26
ENDBRANCH  24  25
ENDBRANCH  23  24
ENDBRANCH  22  23
ENDBRANCH  21  22
ENDBRANCH  20  21
ENDBRANCH  19  20
ENDBRANCH  18  19
ENDBRANCH   1  18
TORSDOF 28
ENDMDL
MODEL 9
REMARK VINA RESULT:    -2.988      1.261      2.305
REMARK INTER + INTRA:         -10.424
REMARK INTER:                  -9.700
REMARK INTRA:                  -0.724
REMARK UNBOUND:                -2.546
REMARK SMILES CCCCCCCCCCCCCCCCCCCCCCCCCCCCCC(=O)[O-]
REMARK SMILES IDX 16 1 17 2 18 3 19 4 20 5 21 6 22 7 23 8 24 9 25 10 26 11
REMARK SMILES IDX 27 12 28 13 29 14 30 15 31 16 32 17 15 18 14 19 13 20 12 21
REMARK SMILES IDX 11 22 10 23 9 24 8 25 7 26 6 27 5 28 4 29 3 30 2 31 1 32
REMARK H PARENT
REMARK Flexibility Score: inf
ROOT
ATOM      1  C   UNL     1      51.182  48.885   3.705  1.00  0.00     0.000 C 
ENDROOT
BRANCH   1   2
ATOM      2  C   UNL     1      50.192  47.711   3.856  1.00  0.00     0.000 C 
BRANCH   2   3
ATOM      3  C   UNL     1      48.717  48.056   3.551  1.00  0.00     0.000 C 
BRANCH   3   4
ATOM      4  C   UNL     1      48.324  47.904   2.070  1.00  0.00     0.000 C 
BRANCH   4   5
ATOM      5  C   UNL     1      47.109  46.983   1.836  1.00  0.00     0.000 C 
BRANCH   5   6
ATOM      6  C   UNL     1      47.519  45.505   1.714  1.00  0.00     0.000 C 
BRANCH   6   7
ATOM      7  C   UNL     1      47.155  44.893   0.350  1.00  0.00     0.000 C 
BRANCH   7   8
ATOM      8  C   UNL     1      48.357  44.420  -0.490  1.00  0.00     0.000 C 
BRANCH   8   9
ATOM      9  C   UNL     1      48.248  42.982  -1.038  1.00  0.00     0.000 C 
BRANCH   9  10
ATOM     10  C   UNL     1      47.072  42.742  -2.003  1.00  0.00     0.000 C 
BRANCH  10  11
ATOM     11  C   UNL     1      47.291  41.530  -2.919  1.00  0.00     0.000 C 
BRANCH  11  12
ATOM     12  C   UNL     1      47.253  41.944  -4.398  1.00  0.00     0.000 C 
BRANCH  12  13
ATOM     13  C   UNL     1      48.263  41.160  -5.253  1.00  0.00     0.006 C 
BRANCH  13  14
ATOM     14  C   UNL     1      48.570  39.772  -4.672  1.00  0.00     0.053 C 
BRANCH  14  15
ATOM     15  C   UNL     1      50.049  39.551  -4.610  1.00  0.00     0.041 C 
ATOM     16  O   UNL     1      50.552  38.497  -5.083  1.00  0.00    -0.550 OA
ATOM     17  O   UNL     1      50.877  40.529  -4.069  1.00  0.00    -0.550 OA
ENDBRANCH  14  15
ENDBRANCH  13  14
ENDBRANCH  12  13
ENDBRANCH  11  12
ENDBRANCH  10  11
ENDBRANCH   9  10
ENDBRANCH   8   9
ENDBRANCH   7   8
ENDBRANCH   6   7
ENDBRANCH   5   6
ENDBRANCH   4   5
ENDBRANCH   3   4
ENDBRANCH   2   3
ENDBRANCH   1   2
BRANCH   1  18
ATOM     18  C   UNL     1      50.584  50.297   3.892  1.00  0.00     0.000 C 
BRANCH  18  19
ATOM     19  C   UNL     1      49.703  50.799   2.736  1.00  0.00     0.000 C 
BRANCH  19  20
ATOM     20  C   UNL     1      48.766  51.946   3.156  1.00  0.00     0.000 C 
BRANCH  20  21
ATOM     21  C   UNL     1      48.739  52.156   4.679  1.00  0.00     0.000 C 
BRANCH  21  22
ATOM     22  C   UNL     1      49.986  52.899   5.195  1.00  0.00     0.000 C 
BRANCH  22  23
ATOM     23  C   UNL     1      50.669  52.167   6.361  1.00  0.00     0.000 C 
BRANCH  23  24
ATOM     24  C   UNL     1      51.158  53.125   7.458  1.00  0.00    -0.000 C 
BRANCH  24  25
ATOM     25  C   UNL     1      52.690  53.102   7.564  1.00  0.00    -0.000 C 
BRANCH  25  26
ATOM     26  C   UNL     1      53.263  51.677   7.529  1.00  0.00    -0.000 C 
BRANCH  26  27
ATOM     27  C   UNL     1      54.750  51.645   7.137  1.00  0.00    -0.000 C 
BRANCH  27  28
ATOM     28  C   UNL     1      55.153  52.811   6.217  1.00  0.00    -0.000 C 
BRANCH  28  29
ATOM     29  C   UNL     1      54.926  52.564   4.713  1.00  0.00    -0.000 C 
BRANCH  29  30
ATOM     30  C   UNL     1      53.938  51.417   4.435  1.00  0.00    -0.000 C 
BRANCH  30  31
ATOM     31  C   UNL     1      54.644  50.115   4.022  1.00  0.00    -0.003 C 
ATOM     32  C   UNL     1      56.077  50.342   3.542  1.00  0.00     0.004 C 
ENDBRANCH  30  31
ENDBRANCH  29  30
ENDBRANCH  28  29
ENDBRANCH  27  28
ENDBRANCH  26  27
ENDBRANCH  25  26
ENDBRANCH  24  25
ENDBRANCH  23  24
ENDBRANCH  22  23
ENDBRANCH  21  22
ENDBRANCH  20  21
ENDBRANCH  19  20
ENDBRANCH  18  19
ENDBRANCH   1  18
TORSDOF 28
ENDMDL
