MODEL 1
REMARK VINA RESULT:    -2.966      0.000      0.000
REMARK INTER + INTRA:          -6.613
REMARK INTER:                  -5.741
REMARK INTRA:                  -0.872
REMARK UNBOUND:                -0.872
REMARK SMILES CCCCCCCCCCCCCCCCCC(=O)[O-]
REMARK SMILES IDX 10 1 11 2 12 3 13 4 14 5 15 6 16 7 17 8 18 9 19 10 20 11
REMARK SMILES IDX 9 12 8 13 7 14 6 15 5 16 4 17 3 18 2 19 1 20
REMARK H PARENT
REMARK Flexibility Score: inf
ROOT
ATOM      1  C   UNL     1      24.888  40.276  24.873  1.00  0.00     0.000 C 
ENDROOT
BRANCH   1   2
ATOM      2  C   UNL     1      25.417  41.298  23.860  1.00  0.00     0.000 C 
BRANCH   2   3
ATOM      3  C   UNL     1      26.501  42.184  24.490  1.00  0.00     0.000 C 
BRANCH   3   4
ATOM      4  C   UNL     1      25.924  43.415  25.207  1.00  0.00     0.000 C 
BRANCH   4   5
ATOM      5  C   UNL     1      26.154  43.444  26.731  1.00  0.00     0.000 C 
BRANCH   5   6
ATOM      6  C   UNL     1      26.943  42.229  27.263  1.00  0.00     0.000 C 
BRANCH   6   7
ATOM      7  C   UNL     1      28.394  42.207  26.751  1.00  0.00     0.006 C 
BRANCH   7   8
ATOM      8  C   UNL     1      29.000  43.613  26.660  1.00  0.00     0.053 C 
BRANCH   8   9
ATOM      9  C   UNL     1      30.436  43.572  26.235  1.00  0.00     0.041 C 
ATOM     10  O   UNL     1      30.926  44.518  25.565  1.00  0.00    -0.550 OA
ATOM     11  O   UNL     1      31.224  42.473  26.553  1.00  0.00    -0.550 OA
ENDBRANCH   8   9
ENDBRANCH   7   8
ENDBRANCH   6   7
ENDBRANCH   5   6
ENDBRANCH   4   5
ENDBRANCH   3   4
ENDBRANCH   2   3
ENDBRANCH   1   2
BRANCH   1  12
ATOM     12  C   UNL     1      25.528  38.900  24.653  1.00  0.00     0.000 C 
BRANCH  12  13
ATOM     13  C   UNL     1      26.471  38.541  25.809  1.00  0.00    -0.000 C 
BRANCH  13  14
ATOM     14  C   UNL     1      26.118  37.199  26.476  1.00  0.00    -0.000 C 
BRANCH  14  15
ATOM     15  C   UNL     1      25.583  37.309  27.918  1.00  0.00    -0.000 C 
BRANCH  15  16
ATOM     16  C   UNL     1      25.656  38.719  28.535  1.00  0.00    -0.000 C 
BRANCH  16  17
ATOM     17  C   UNL     1      25.504  38.769  30.068  1.00  0.00    -0.000 C 
BRANCH  17  18
ATOM     18  C   UNL     1      26.802  38.519  30.858  1.00  0.00    -0.000 C 
BRANCH  18  19
ATOM     19  C   UNL     1      26.671  37.378  31.877  1.00  0.00    -0.003 C 
ATOM     20  C   UNL     1      25.731  37.764  33.016  1.00  0.00     0.004 C 
ENDBRANCH  18  19
ENDBRANCH  17  18
ENDBRANCH  16  17
ENDBRANCH  15  16
ENDBRANCH  14  15
ENDBRANCH  13  14
ENDBRANCH  12  13
ENDBRANCH   1  12
TORSDOF 16
ENDMDL
MODEL 2
REMARK VINA RESULT:    -2.765      1.385      2.033
REMARK INTER + INTRA:          -6.223
REMARK INTER:                  -4.239
REMARK INTRA:                  -1.983
REMARK UNBOUND:                -0.872
REMARK SMILES CCCCCCCCCCCCCCCCCC(=O)[O-]
REMARK SMILES IDX 10 1 11 2 12 3 13 4 14 5 15 6 16 7 17 8 18 9 19 10 20 11
REMARK SMILES IDX 9 12 8 13 7 14 6 15 5 16 4 17 3 18 2 19 1 20
REMARK H PARENT
REMARK Flexibility Score: inf
ROOT
ATOM      1  C   UNL     1      24.903  40.649  27.339  1.00  0.00     0.000 C 
ENDROOT
BRANCH   1   2
ATOM      2  C   UNL     1      26.306  40.817  27.933  1.00  0.00     0.000 C 
BRANCH   2   3
ATOM      3  C   UNL     1      26.700  42.299  28.001  1.00  0.00     0.000 C 
BRANCH   3   4
ATOM      4  C   UNL     1      25.947  43.164  26.976  1.00  0.00     0.000 C 
BRANCH   4   5
ATOM      5  C   UNL     1      26.618  43.259  25.592  1.00  0.00     0.000 C 
BRANCH   5   6
ATOM      6  C   UNL     1      27.931  42.456  25.481  1.00  0.00     0.000 C 
BRANCH   6   7
ATOM      7  C   UNL     1      29.164  43.368  25.358  1.00  0.00     0.006 C 
BRANCH   7   8
ATOM      8  C   UNL     1      29.749  43.743  26.726  1.00  0.00     0.053 C 
BRANCH   8   9
ATOM      9  C   UNL     1      30.396  42.569  27.393  1.00  0.00     0.041 C 
ATOM     10  O   UNL     1      31.309  41.931  26.807  1.00  0.00    -0.550 OA
ATOM     11  O   UNL     1      29.968  42.161  28.650  1.00  0.00    -0.550 OA
ENDBRANCH   8   9
ENDBRANCH   7   8
ENDBRANCH   6   7
ENDBRANCH   5   6
ENDBRANCH   4   5
ENDBRANCH   3   4
ENDBRANCH   2   3
ENDBRANCH   1   2
BRANCH   1  12
ATOM     12  C   UNL     1      24.877  39.530  26.291  1.00  0.00     0.000 C 
BRANCH  12  13
ATOM     13  C   UNL     1      26.295  39.019  25.998  1.00  0.00    -0.000 C 
BRANCH  13  14
ATOM     14  C   UNL     1      26.565  37.627  26.596  1.00  0.00    -0.000 C 
BRANCH  14  15
ATOM     15  C   UNL     1      25.323  36.907  27.159  1.00  0.00    -0.000 C 
BRANCH  15  16
ATOM     16  C   UNL     1      25.214  36.900  28.696  1.00  0.00    -0.000 C 
BRANCH  16  17
ATOM     17  C   UNL     1      26.541  37.135  29.445  1.00  0.00    -0.000 C 
BRANCH  17  18
ATOM     18  C   UNL     1      26.519  38.295  30.457  1.00  0.00    -0.000 C 
BRANCH  18  19
ATOM     19  C   UNL     1      25.258  38.298  31.333  1.00  0.00    -0.003 C 
ATOM     20  C   UNL     1      25.606  38.053  32.799  1.00  0.00     0.004 C 
ENDBRANCH  18  19
ENDBRANCH  17  18
ENDBRANCH  16  17
ENDBRANCH  15  16
ENDBRANCH  14  15
ENDBRANCH  13  14
ENDBRANCH  12  13
ENDBRANCH   1  12
TORSDOF 16
ENDMDL
MODEL 3
REMARK VINA RESULT:    -2.719     12.849     15.356
REMARK INTER + INTRA:          -6.135
REMARK INTER:                  -5.638
REMARK INTRA:                  -0.497
REMARK UNBOUND:                -0.872
REMARK SMILES CCCCCCCCCCCCCCCCCC(=O)[O-]
REMARK SMILES IDX 10 1 11 2 12 3 13 4 14 5 15 6 16 7 17 8 18 9 19 10 20 11
REMARK SMILES IDX 9 12 8 13 7 14 6 15 5 16 4 17 3 18 2 19 1 20
REMARK H PARENT
REMARK Flexibility Score: inf
ROOT
ATOM      1  C   UNL     1      30.293  46.239  41.220  1.00  0.00     0.000 C 
ENDROOT
BRANCH   1   2
ATOM      2  C   UNL     1      30.784  47.678  41.417  1.00  0.00     0.000 C 
BRANCH   2   3
ATOM      3  C   UNL     1      29.607  48.664  41.413  1.00  0.00     0.000 C 
BRANCH   3   4
ATOM      4  C   UNL     1      28.984  48.844  40.020  1.00  0.00     0.000 C 
BRANCH   4   5
ATOM      5  C   UNL     1      29.034  50.283  39.469  1.00  0.00     0.000 C 
BRANCH   5   6
ATOM      6  C   UNL     1      30.437  50.719  38.998  1.00  0.00     0.000 C 
BRANCH   6   7
ATOM      7  C   UNL     1      30.432  52.127  38.377  1.00  0.00     0.006 C 
BRANCH   7   8
ATOM      8  C   UNL     1      29.028  52.745  38.348  1.00  0.00     0.053 C 
BRANCH   8   9
ATOM      9  C   UNL     1      28.764  53.577  39.566  1.00  0.00     0.041 C 
ATOM     10  O   UNL     1      27.759  54.334  39.610  1.00  0.00    -0.550 OA
ATOM     11  O   UNL     1      29.646  53.541  40.638  1.00  0.00    -0.550 OA
ENDBRANCH   8   9
ENDBRANCH   7   8
ENDBRANCH   6   7
ENDBRANCH   5   6
ENDBRANCH   4   5
ENDBRANCH   3   4
ENDBRANCH   2   3
ENDBRANCH   1   2
BRANCH   1  12
ATOM     12  C   UNL     1      28.992  45.989  41.992  1.00  0.00     0.000 C 
BRANCH  12  13
ATOM     13  C   UNL     1      28.712  44.486  42.125  1.00  0.00    -0.000 C 
BRANCH  13  14
ATOM     14  C   UNL     1      27.216  44.142  42.001  1.00  0.00    -0.000 C 
BRANCH  14  15
ATOM     15  C   UNL     1      26.915  42.736  41.445  1.00  0.00    -0.000 C 
BRANCH  15  16
ATOM     16  C   UNL     1      25.667  42.644  40.545  1.00  0.00    -0.000 C 
BRANCH  16  17
ATOM     17  C   UNL     1      25.938  42.188  39.097  1.00  0.00    -0.000 C 
BRANCH  17  18
ATOM     18  C   UNL     1      26.056  40.665  38.907  1.00  0.00    -0.000 C 
BRANCH  18  19
ATOM     19  C   UNL     1      27.504  40.163  39.000  1.00  0.00    -0.003 C 
ATOM     20  C   UNL     1      27.570  38.800  39.684  1.00  0.00     0.004 C 
ENDBRANCH  18  19
ENDBRANCH  17  18
ENDBRANCH  16  17
ENDBRANCH  15  16
ENDBRANCH  14  15
ENDBRANCH  13  14
ENDBRANCH  12  13
ENDBRANCH   1  12
TORSDOF 16
ENDMDL
MODEL 4
REMARK VINA RESULT:    -2.718      2.828      6.439
REMARK INTER + INTRA:          -6.133
REMARK INTER:                  -5.043
REMARK INTRA:                  -1.090
REMARK UNBOUND:                -0.872
REMARK SMILES CCCCCCCCCCCCCCCCCC(=O)[O-]
REMARK SMILES IDX 10 1 11 2 12 3 13 4 14 5 15 6 16 7 17 8 18 9 19 10 20 11
REMARK SMILES IDX 9 12 8 13 7 14 6 15 5 16 4 17 3 18 2 19 1 20
REMARK H PARENT
REMARK Flexibility Score: inf
ROOT
ATOM      1  C   UNL     1      25.535  40.626  25.285  1.00  0.00     0.000 C 
ENDROOT
BRANCH   1   2
ATOM      2  C   UNL     1      25.265  39.601  24.177  1.00  0.00     0.000 C 
BRANCH   2   3
ATOM      3  C   UNL     1      25.615  38.181  24.647  1.00  0.00     0.000 C 
BRANCH   3   4
ATOM      4  C   UNL     1      26.989  38.101  25.330  1.00  0.00     0.000 C 
BRANCH   4   5
ATOM      5  C   UNL     1      27.031  37.225  26.598  1.00  0.00     0.000 C 
BRANCH   5   6
ATOM      6  C   UNL     1      25.685  37.154  27.349  1.00  0.00     0.000 C 
BRANCH   6   7
ATOM      7  C   UNL     1      25.869  36.875  28.851  1.00  0.00     0.006 C 
BRANCH   7   8
ATOM      8  C   UNL     1      25.548  38.102  29.714  1.00  0.00     0.053 C 
BRANCH   8   9
ATOM      9  C   UNL     1      26.245  38.047  31.039  1.00  0.00     0.041 C 
ATOM     10  O   UNL     1      27.444  38.419  31.140  1.00  0.00    -0.550 OA
ATOM     11  O   UNL     1      25.581  37.553  32.154  1.00  0.00    -0.550 OA
ENDBRANCH   8   9
ENDBRANCH   7   8
ENDBRANCH   6   7
ENDBRANCH   5   6
ENDBRANCH   4   5
ENDBRANCH   3   4
ENDBRANCH   2   3
ENDBRANCH   1   2
BRANCH   1  12
ATOM     12  C   UNL     1      24.883  40.196  26.605  1.00  0.00     0.000 C 
BRANCH  12  13
ATOM     13  C   UNL     1      25.279  41.144  27.746  1.00  0.00    -0.000 C 
BRANCH  13  14
ATOM     14  C   UNL     1      25.262  42.625  27.327  1.00  0.00    -0.000 C 
BRANCH  14  15
ATOM     15  C   UNL     1      26.631  43.200  26.911  1.00  0.00    -0.000 C 
BRANCH  15  16
ATOM     16  C   UNL     1      27.850  42.518  27.561  1.00  0.00    -0.000 C 
BRANCH  16  17
ATOM     17  C   UNL     1      28.834  41.859  26.573  1.00  0.00    -0.000 C 
BRANCH  17  18
ATOM     18  C   UNL     1      30.320  42.154  26.843  1.00  0.00    -0.000 C 
BRANCH  18  19
ATOM     19  C   UNL     1      30.903  43.204  25.886  1.00  0.00    -0.003 C 
ATOM     20  C   UNL     1      30.445  44.609  26.266  1.00  0.00     0.004 C 
ENDBRANCH  18  19
ENDBRANCH  17  18
ENDBRANCH  16  17
ENDBRANCH  15  16
ENDBRANCH  14  15
ENDBRANCH  13  14
ENDBRANCH  12  13
ENDBRANCH   1  12
TORSDOF 16
ENDMDL
MODEL 5
REMARK VINA RESULT:    -2.696     12.663     16.560
REMARK INTER + INTRA:          -6.089
REMARK INTER:                  -5.325
REMARK INTRA:                  -0.764
REMARK UNBOUND:                -0.872
REMARK SMILES CCCCCCCCCCCCCCCCCC(=O)[O-]
REMARK SMILES IDX 10 1 11 2 12 3 13 4 14 5 15 6 16 7 17 8 18 9 19 10 20 11
REMARK SMILES IDX 9 12 8 13 7 14 6 15 5 16 4 17 3 18 2 19 1 20
REMARK H PARENT
REMARK Flexibility Score: inf
ROOT
ATOM      1  C   UNL     1      29.375  45.977  40.935  1.00  0.00     0.000 C 
ENDROOT
BRANCH   1   2
ATOM      2  C   UNL     1      28.635  45.354  42.125  1.00  0.00     0.000 C 
BRANCH   2   3
ATOM      3  C   UNL     1      27.895  44.077  41.703  1.00  0.00     0.000 C 
BRANCH   3   4
ATOM      4  C   UNL     1      26.413  44.084  42.112  1.00  0.00     0.000 C 
BRANCH   4   5
ATOM      5  C   UNL     1      25.605  42.860  41.636  1.00  0.00     0.000 C 
BRANCH   5   6
ATOM      6  C   UNL     1      26.339  41.517  41.831  1.00  0.00     0.000 C 
BRANCH   6   7
ATOM      7  C   UNL     1      25.682  40.373  41.040  1.00  0.00     0.006 C 
BRANCH   7   8
ATOM      8  C   UNL     1      25.542  40.703  39.548  1.00  0.00     0.053 C 
BRANCH   8   9
ATOM      9  C   UNL     1      26.420  39.834  38.702  1.00  0.00     0.041 C 
ATOM     10  O   UNL     1      25.915  38.933  37.982  1.00  0.00    -0.550 OA
ATOM     11  O   UNL     1      27.798  39.998  38.734  1.00  0.00    -0.550 OA
ENDBRANCH   8   9
ENDBRANCH   7   8
ENDBRANCH   6   7
ENDBRANCH   5   6
ENDBRANCH   4   5
ENDBRANCH   3   4
ENDBRANCH   2   3
ENDBRANCH   1   2
BRANCH   1  12
ATOM     12  C   UNL     1      30.878  46.089  41.217  1.00  0.00     0.000 C 
BRANCH  12  13
ATOM     13  C   UNL     1      31.209  47.419  41.909  1.00  0.00    -0.000 C 
BRANCH  13  14
ATOM     14  C   UNL     1      30.220  48.543  41.551  1.00  0.00    -0.000 C 
BRANCH  14  15
ATOM     15  C   UNL     1      30.818  49.964  41.559  1.00  0.00    -0.000 C 
BRANCH  15  16
ATOM     16  C   UNL     1      29.961  51.036  40.859  1.00  0.00    -0.000 C 
BRANCH  16  17
ATOM     17  C   UNL     1      29.250  50.566  39.574  1.00  0.00    -0.000 C 
BRANCH  17  18
ATOM     18  C   UNL     1      27.843  51.154  39.358  1.00  0.00    -0.000 C 
BRANCH  18  19
ATOM     19  C   UNL     1      27.845  52.687  39.269  1.00  0.00    -0.003 C 
ATOM     20  C   UNL     1      28.903  53.180  38.286  1.00  0.00     0.004 C 
ENDBRANCH  18  19
ENDBRANCH  17  18
ENDBRANCH  16  17
ENDBRANCH  15  16
ENDBRANCH  14  15
ENDBRANCH  13  14
ENDBRANCH  12  13
ENDBRANCH   1  12
TORSDOF 16
ENDMDL
MODEL 6
REMARK VINA RESULT:    -2.679      9.218     12.389
REMARK INTER + INTRA:          -6.057
REMARK INTER:                  -4.402
REMARK INTRA:                  -1.655
REMARK UNBOUND:                -0.872
REMARK SMILES CCCCCCCCCCCCCCCCCC(=O)[O-]
REMARK SMILES IDX 10 1 11 2 12 3 13 4 14 5 15 6 16 7 17 8 18 9 19 10 20 11
REMARK SMILES IDX 9 12 8 13 7 14 6 15 5 16 4 17 3 18 2 19 1 20
REMARK H PARENT
REMARK Flexibility Score: inf
ROOT
ATOM      1  C   UNL     1      30.381  37.553  40.545  1.00  0.00     0.000 C 
ENDROOT
BRANCH   1   2
ATOM      2  C   UNL     1      31.866  37.927  40.473  1.00  0.00     0.000 C 
BRANCH   2   3
ATOM      3  C   UNL     1      32.311  38.128  39.018  1.00  0.00     0.000 C 
BRANCH   3   4
ATOM      4  C   UNL     1      31.403  37.405  38.010  1.00  0.00     0.000 C 
BRANCH   4   5
ATOM      5  C   UNL     1      30.784  38.312  36.928  1.00  0.00     0.000 C 
BRANCH   5   6
ATOM      6  C   UNL     1      31.829  39.079  36.090  1.00  0.00     0.000 C 
BRANCH   6   7
ATOM      7  C   UNL     1      32.994  38.179  35.644  1.00  0.00     0.006 C 
BRANCH   7   8
ATOM      8  C   UNL     1      32.553  37.117  34.628  1.00  0.00     0.053 C 
BRANCH   8   9
ATOM      9  C   UNL     1      31.917  37.735  33.421  1.00  0.00     0.041 C 
ATOM     10  O   UNL     1      32.533  38.612  32.759  1.00  0.00    -0.550 OA
ATOM     11  O   UNL     1      30.632  37.365  33.046  1.00  0.00    -0.550 OA
ENDBRANCH   8   9
ENDBRANCH   7   8
ENDBRANCH   6   7
ENDBRANCH   5   6
ENDBRANCH   4   5
ENDBRANCH   3   4
ENDBRANCH   2   3
ENDBRANCH   1   2
BRANCH   1  12
ATOM     12  C   UNL     1      29.619  38.497  41.483  1.00  0.00     0.000 C 
BRANCH  12  13
ATOM     13  C   UNL     1      28.592  39.332  40.705  1.00  0.00    -0.000 C 
BRANCH  13  14
ATOM     14  C   UNL     1      28.061  38.612  39.452  1.00  0.00    -0.000 C 
BRANCH  14  15
ATOM     15  C   UNL     1      26.571  38.221  39.508  1.00  0.00    -0.000 C 
BRANCH  15  16
ATOM     16  C   UNL     1      25.780  38.476  38.211  1.00  0.00    -0.000 C 
BRANCH  16  17
ATOM     17  C   UNL     1      25.471  39.958  37.917  1.00  0.00    -0.000 C 
BRANCH  17  18
ATOM     18  C   UNL     1      25.035  40.786  39.140  1.00  0.00    -0.000 C 
BRANCH  18  19
ATOM     19  C   UNL     1      25.579  42.221  39.113  1.00  0.00    -0.003 C 
ATOM     20  C   UNL     1      26.620  42.434  40.209  1.00  0.00     0.004 C 
ENDBRANCH  18  19
ENDBRANCH  17  18
ENDBRANCH  16  17
ENDBRANCH  15  16
ENDBRANCH  14  15
ENDBRANCH  13  14
ENDBRANCH  12  13
ENDBRANCH   1  12
TORSDOF 16
ENDMDL
MODEL 7
REMARK VINA RESULT:    -2.635     10.586     13.118
REMARK INTER + INTRA:          -5.972
REMARK INTER:                  -4.261
REMARK INTRA:                  -1.711
REMARK UNBOUND:                -0.872
REMARK SMILES CCCCCCCCCCCCCCCCCC(=O)[O-]
REMARK SMILES IDX 10 1 11 2 12 3 13 4 14 5 15 6 16 7 17 8 18 9 19 10 20 11
REMARK SMILES IDX 9 12 8 13 7 14 6 15 5 16 4 17 3 18 2 19 1 20
REMARK H PARENT
REMARK Flexibility Score: inf
ROOT
ATOM      1  C   UNL     1      28.584  39.564  41.378  1.00  0.00     0.000 C 
ENDROOT
BRANCH   1   2
ATOM      2  C   UNL     1      29.834  38.934  42.004  1.00  0.00     0.000 C 
BRANCH   2   3
ATOM      3  C   UNL     1      30.214  37.634  41.282  1.00  0.00     0.000 C 
BRANCH   3   4
ATOM      4  C   UNL     1      31.697  37.586  40.879  1.00  0.00     0.000 C 
BRANCH   4   5
ATOM      5  C   UNL     1      31.981  37.957  39.410  1.00  0.00     0.000 C 
BRANCH   5   6
ATOM      6  C   UNL     1      30.783  37.718  38.467  1.00  0.00     0.000 C 
BRANCH   6   7
ATOM      7  C   UNL     1      30.716  38.759  37.335  1.00  0.00     0.006 C 
BRANCH   7   8
ATOM      8  C   UNL     1      31.460  38.297  36.076  1.00  0.00     0.053 C 
BRANCH   8   9
ATOM      9  C   UNL     1      32.551  39.251  35.695  1.00  0.00     0.041 C 
ATOM     10  O   UNL     1      32.788  39.491  34.482  1.00  0.00    -0.550 OA
ATOM     11  O   UNL     1      33.327  39.848  36.680  1.00  0.00    -0.550 OA
ENDBRANCH   8   9
ENDBRANCH   7   8
ENDBRANCH   6   7
ENDBRANCH   5   6
ENDBRANCH   4   5
ENDBRANCH   3   4
ENDBRANCH   2   3
ENDBRANCH   1   2
BRANCH   1  12
ATOM     12  C   UNL     1      27.687  38.495  40.742  1.00  0.00     0.000 C 
BRANCH  12  13
ATOM     13  C   UNL     1      26.211  38.912  40.796  1.00  0.00    -0.000 C 
BRANCH  13  14
ATOM     14  C   UNL     1      25.331  38.129  39.806  1.00  0.00    -0.000 C 
BRANCH  14  15
ATOM     15  C   UNL     1      25.209  38.758  38.403  1.00  0.00    -0.000 C 
BRANCH  15  16
ATOM     16  C   UNL     1      25.882  40.135  38.246  1.00  0.00    -0.000 C 
BRANCH  16  17
ATOM     17  C   UNL     1      24.962  41.256  37.723  1.00  0.00    -0.000 C 
BRANCH  17  18
ATOM     18  C   UNL     1      24.880  42.503  38.622  1.00  0.00    -0.000 C 
BRANCH  18  19
ATOM     19  C   UNL     1      25.847  42.443  39.813  1.00  0.00    -0.003 C 
ATOM     20  C   UNL     1      25.091  42.488  41.138  1.00  0.00     0.004 C 
ENDBRANCH  18  19
ENDBRANCH  17  18
ENDBRANCH  16  17
ENDBRANCH  15  16
ENDBRANCH  14  15
ENDBRANCH  13  14
ENDBRANCH  12  13
ENDBRANCH   1  12
TORSDOF 16
ENDMDL
MODEL 8
REMARK VINA RESULT:    -2.568     13.710     16.076
REMARK INTER + INTRA:          -5.842
REMARK INTER:                  -5.230
REMARK INTRA:                  -0.611
REMARK UNBOUND:                -0.872
REMARK SMILES CCCCCCCCCCCCCCCCCC(=O)[O-]
REMARK SMILES IDX 10 1 11 2 12 3 13 4 14 5 15 6 16 7 17 8 18 9 19 10 20 11
REMARK SMILES IDX 9 12 8 13 7 14 6 15 5 16 4 17 3 18 2 19 1 20
REMARK H PARENT
REMARK Flexibility Score: inf
ROOT
ATOM      1  C   UNL     1      30.183  47.857  40.510  1.00  0.00     0.000 C 
ENDROOT
BRANCH   1   2
ATOM      2  C   UNL     1      30.391  49.353  40.772  1.00  0.00     0.000 C 
BRANCH   2   3
ATOM      3  C   UNL     1      29.226  49.934  41.586  1.00  0.00     0.000 C 
BRANCH   3   4
ATOM      4  C   UNL     1      27.928  50.049  40.771  1.00  0.00     0.000 C 
BRANCH   4   5
ATOM      5  C   UNL     1      27.540  51.487  40.372  1.00  0.00     0.000 C 
BRANCH   5   6
ATOM      6  C   UNL     1      27.498  51.719  38.847  1.00  0.00     0.000 C 
BRANCH   6   7
ATOM      7  C   UNL     1      28.653  52.613  38.361  1.00  0.00     0.006 C 
BRANCH   7   8
ATOM      8  C   UNL     1      29.714  52.832  39.447  1.00  0.00     0.053 C 
BRANCH   8   9
ATOM      9  C   UNL     1      29.314  53.912  40.405  1.00  0.00     0.041 C 
ATOM     10  O   UNL     1      28.591  54.867  40.018  1.00  0.00    -0.550 OA
ATOM     11  O   UNL     1      29.767  53.880  41.717  1.00  0.00    -0.550 OA
ENDBRANCH   8   9
ENDBRANCH   7   8
ENDBRANCH   6   7
ENDBRANCH   5   6
ENDBRANCH   4   5
ENDBRANCH   3   4
ENDBRANCH   2   3
ENDBRANCH   1   2
BRANCH   1  12
ATOM     12  C   UNL     1      31.174  47.011  41.320  1.00  0.00     0.000 C 
BRANCH  12  13
ATOM     13  C   UNL     1      30.474  45.801  41.952  1.00  0.00    -0.000 C 
BRANCH  13  14
ATOM     14  C   UNL     1      29.039  45.600  41.432  1.00  0.00    -0.000 C 
BRANCH  14  15
ATOM     15  C   UNL     1      28.246  44.473  42.125  1.00  0.00    -0.000 C 
BRANCH  15  16
ATOM     16  C   UNL     1      27.124  43.847  41.274  1.00  0.00    -0.000 C 
BRANCH  16  17
ATOM     17  C   UNL     1      26.519  42.549  41.846  1.00  0.00    -0.000 C 
BRANCH  17  18
ATOM     18  C   UNL     1      25.832  41.642  40.809  1.00  0.00    -0.000 C 
BRANCH  18  19
ATOM     19  C   UNL     1      25.354  42.410  39.568  1.00  0.00    -0.003 C 
ATOM     20  C   UNL     1      25.452  41.544  38.315  1.00  0.00     0.004 C 
ENDBRANCH  18  19
ENDBRANCH  17  18
ENDBRANCH  16  17
ENDBRANCH  15  16
ENDBRANCH  14  15
ENDBRANCH  13  14
ENDBRANCH  12  13
ENDBRANCH   1  12
TORSDOF 16
ENDMDL
