MODEL 1
REMARK VINA RESULT:    20.115      0.000      0.000
REMARK INTER + INTRA:          33.747
REMARK INTER:                  27.171
REMARK INTRA:                   6.576
REMARK UNBOUND:                 6.576
REMARK SMILES O=c1c(-c2ccc(O)cc2)coc2c([C@H]3O[C@H](CO)[C@H](O)[C@H](O)[C@@H]3O)c(O)ccc12
REMARK SMILES IDX 3 1 11 2 12 3 13 4 30 5 2 6 1 7 29 8 28 9 26 10 14 11 4 12
REMARK SMILES IDX 5 13 6 14 7 15 10 16 9 17 8 18 15 20 24 21 16 22 22 23 17 24
REMARK SMILES IDX 20 25 25 26 23 28 18 30 19 31 21 33 27 35
REMARK H PARENT 8 19 25 27 23 29 19 32 21 34 27 36
REMARK Flexibility Score: inf
ROOT
ATOM      1  C   UNL     1      -3.127  13.309   7.943  1.00  0.00     0.065 A 
ATOM      2  C   UNL     1      -2.942  11.922   7.978  1.00  0.00     0.208 A 
ATOM      3  O   UNL     1      -3.076  11.245   9.111  1.00  0.00    -0.463 OA
ATOM      4  C   UNL     1      -3.388  11.815  10.273  1.00  0.00     0.147 A 
ATOM      5  C   UNL     1      -3.612  13.210  10.322  1.00  0.00     0.066 A 
ATOM      6  C   UNL     1      -3.479  13.959   9.138  1.00  0.00     0.200 A 
ATOM      7  O   UNL     1      -3.696  15.204   9.144  1.00  0.00    -0.288 OA
ATOM      8  C   UNL     1      -3.970  13.810  11.534  1.00  0.00     0.020 A 
ATOM      9  C   UNL     1      -4.124  13.037  12.677  1.00  0.00     0.047 A 
ATOM     10  C   UNL     1      -3.908  11.653  12.650  1.00  0.00     0.125 A 
ATOM     11  C   UNL     1      -3.493  11.017  11.445  1.00  0.00     0.069 A 
ENDROOT
BRANCH   1  12
ATOM     12  C   UNL     1      -2.957  14.048   6.666  1.00  0.00    -0.011 A 
ATOM     13  C   UNL     1      -3.569  15.300   6.484  1.00  0.00     0.013 A 
ATOM     14  C   UNL     1      -3.418  15.993   5.280  1.00  0.00     0.047 A 
ATOM     15  C   UNL     1      -2.658  15.441   4.240  1.00  0.00     0.115 A 
ATOM     16  C   UNL     1      -2.200  13.498   5.615  1.00  0.00     0.013 A 
ATOM     17  C   UNL     1      -2.052  14.194   4.412  1.00  0.00     0.047 A 
BRANCH  15  18
ATOM     18  O   UNL     1      -2.501  16.123   3.036  1.00  0.00    -0.508 OA
ATOM     19  H   UNL     1      -1.588  16.422   2.711  1.00  0.00     0.293 HD
ENDBRANCH  15  18
ENDBRANCH   1  12
BRANCH  11  20
ATOM     20  C   UNL     1      -3.196   9.506  11.294  1.00  0.00     0.188 C 
ATOM     21  C   UNL     1      -1.732   8.980  11.366  1.00  0.00     0.179 C 
ATOM     22  O   UNL     1      -3.834   8.970  10.140  1.00  0.00    -0.362 OA
ATOM     23  C   UNL     1      -0.981   9.320  10.057  1.00  0.00     0.177 C 
ATOM     24  C   UNL     1      -3.219   9.422   8.940  1.00  0.00     0.176 C 
ATOM     25  C   UNL     1      -1.785   8.867   8.821  1.00  0.00     0.177 C 
BRANCH  21  26
ATOM     26  O   UNL     1      -1.762   7.583  11.533  1.00  0.00    -0.387 OA
ATOM     27  H   UNL     1      -1.303   7.380  12.391  1.00  0.00     0.211 HD
ENDBRANCH  21  26
BRANCH  23  28
ATOM     28  O   UNL     1       0.326   8.798  10.051  1.00  0.00    -0.387 OA
ATOM     29  H   UNL     1       0.277   7.833   9.835  1.00  0.00     0.211 HD
ENDBRANCH  23  28
BRANCH  24  30
ATOM     30  C   UNL     1      -4.082   8.996   7.747  1.00  0.00     0.191 C 
BRANCH  30  31
ATOM     31  O   UNL     1      -3.281   8.893   6.603  1.00  0.00    -0.394 OA
ATOM     32  H   UNL     1      -3.196   7.922   6.412  1.00  0.00     0.210 HD
ENDBRANCH  30  31
ENDBRANCH  24  30
BRANCH  25  33
ATOM     33  O   UNL     1      -1.823   7.463   8.735  1.00  0.00    -0.388 OA
ATOM     34  H   UNL     1      -1.301   7.109   9.501  1.00  0.00     0.211 HD
ENDBRANCH  25  33
ENDBRANCH  11  20
BRANCH  10  35
ATOM     35  O   UNL     1      -4.124  10.940  13.826  1.00  0.00    -0.507 OA
ATOM     36  H   UNL     1      -4.890  10.284  13.926  1.00  0.00     0.293 HD
ENDBRANCH  10  35
TORSDOF 9
ENDMDL
MODEL 2
REMARK VINA RESULT:    20.233      2.484      6.997
REMARK INTER + INTRA:          33.906
REMARK INTER:                  30.344
REMARK INTRA:                   3.562
REMARK UNBOUND:                 6.576
REMARK SMILES O=c1c(-c2ccc(O)cc2)coc2c([C@H]3O[C@H](CO)[C@H](O)[C@H](O)[C@@H]3O)c(O)ccc12
REMARK SMILES IDX 3 1 11 2 12 3 13 4 30 5 2 6 1 7 29 8 28 9 26 10 14 11 4 12
REMARK SMILES IDX 5 13 6 14 7 15 10 16 9 17 8 18 15 20 24 21 16 22 22 23 17 24
REMARK SMILES IDX 20 25 25 26 23 28 18 30 19 31 21 33 27 35
REMARK H PARENT 8 19 25 27 23 29 19 32 21 34 27 36
REMARK Flexibility Score: inf
ROOT
ATOM      1  C   UNL     1      -3.862  11.362  13.673  1.00  0.00     0.065 A 
ATOM      2  C   UNL     1      -3.660  10.251  12.843  1.00  0.00     0.208 A 
ATOM      3  O   UNL     1      -3.601  10.388  11.525  1.00  0.00    -0.463 OA
ATOM      4  C   UNL     1      -3.726  11.559  10.902  1.00  0.00     0.147 A 
ATOM      5  C   UNL     1      -3.912  12.732  11.667  1.00  0.00     0.066 A 
ATOM      6  C   UNL     1      -3.979  12.625  13.068  1.00  0.00     0.200 A 
ATOM      7  O   UNL     1      -4.120  13.658  13.781  1.00  0.00    -0.288 OA
ATOM      8  C   UNL     1      -4.014  13.969  11.020  1.00  0.00     0.020 A 
ATOM      9  C   UNL     1      -3.912  14.044   9.638  1.00  0.00     0.047 A 
ATOM     10  C   UNL     1      -3.726  12.893   8.861  1.00  0.00     0.125 A 
ATOM     11  C   UNL     1      -3.670  11.612   9.483  1.00  0.00     0.069 A 
ENDROOT
BRANCH   1  12
ATOM     12  C   UNL     1      -3.939  11.183  15.145  1.00  0.00    -0.011 A 
ATOM     13  C   UNL     1      -4.006  12.302  15.992  1.00  0.00     0.013 A 
ATOM     14  C   UNL     1      -4.069  12.136  17.379  1.00  0.00     0.047 A 
ATOM     15  C   UNL     1      -4.061  10.851  17.936  1.00  0.00     0.115 A 
ATOM     16  C   UNL     1      -3.925   9.896  15.712  1.00  0.00     0.013 A 
ATOM     17  C   UNL     1      -3.988   9.734  17.099  1.00  0.00     0.047 A 
BRANCH  15  18
ATOM     18  O   UNL     1      -4.124  10.674  19.316  1.00  0.00    -0.508 OA
ATOM     19  H   UNL     1      -3.314  10.821  19.907  1.00  0.00     0.293 HD
ENDBRANCH  15  18
ENDBRANCH   1  12
BRANCH  11  20
ATOM     20  C   UNL     1      -3.498  10.268   8.736  1.00  0.00     0.188 C 
ATOM     21  C   UNL     1      -4.108   8.960   9.318  1.00  0.00     0.179 C 
ATOM     22  O   UNL     1      -2.134  10.042   8.394  1.00  0.00    -0.362 OA
ATOM     23  C   UNL     1      -3.265   8.469  10.519  1.00  0.00     0.177 C 
ATOM     24  C   UNL     1      -1.346   9.744   9.539  1.00  0.00     0.176 C 
ATOM     25  C   UNL     1      -1.768   8.394  10.154  1.00  0.00     0.177 C 
BRANCH  21  26
ATOM     26  O   UNL     1      -4.102   7.973   8.314  1.00  0.00    -0.387 OA
ATOM     27  H   UNL     1      -3.421   8.242   7.642  1.00  0.00     0.211 HD
ENDBRANCH  21  26
BRANCH  23  28
ATOM     28  O   UNL     1      -3.742   7.248  11.031  1.00  0.00    -0.387 OA
ATOM     29  H   UNL     1      -3.450   7.168  11.974  1.00  0.00     0.211 HD
ENDBRANCH  23  28
BRANCH  24  30
ATOM     30  C   UNL     1       0.132   9.734   9.138  1.00  0.00     0.191 C 
BRANCH  30  31
ATOM     31  O   UNL     1       0.931   9.706  10.289  1.00  0.00    -0.394 OA
ATOM     32  H   UNL     1       0.304   9.666  11.058  1.00  0.00     0.210 HD
ENDBRANCH  30  31
ENDBRANCH  24  30
BRANCH  25  33
ATOM     33  O   UNL     1      -1.529   7.356   9.235  1.00  0.00    -0.388 OA
ATOM     34  H   UNL     1      -2.376   7.201   8.741  1.00  0.00     0.211 HD
ENDBRANCH  25  33
ENDBRANCH  11  20
BRANCH  10  35
ATOM     35  O   UNL     1      -3.591  13.053   7.485  1.00  0.00    -0.507 OA
ATOM     36  H   UNL     1      -2.861  12.588   6.958  1.00  0.00     0.293 HD
ENDBRANCH  10  35
TORSDOF 9
ENDMDL
MODEL 3
REMARK VINA RESULT:    21.294      0.638      1.097
REMARK INTER + INTRA:          35.339
REMARK INTER:                  28.903
REMARK INTRA:                   6.436
REMARK UNBOUND:                 6.576
REMARK SMILES O=c1c(-c2ccc(O)cc2)coc2c([C@H]3O[C@H](CO)[C@H](O)[C@H](O)[C@@H]3O)c(O)ccc12
REMARK SMILES IDX 3 1 11 2 12 3 13 4 30 5 2 6 1 7 29 8 28 9 26 10 14 11 4 12
REMARK SMILES IDX 5 13 6 14 7 15 10 16 9 17 8 18 15 20 24 21 16 22 22 23 17 24
REMARK SMILES IDX 20 25 25 26 23 28 18 30 19 31 21 33 27 35
REMARK H PARENT 8 19 25 27 23 29 19 32 21 34 27 36
REMARK Flexibility Score: inf
ROOT
ATOM      1  C   UNL     1      -3.236  12.974   8.497  1.00  0.00     0.065 A 
ATOM      2  C   UNL     1      -2.979  11.598   8.448  1.00  0.00     0.208 A 
ATOM      3  O   UNL     1      -3.056  10.852   9.543  1.00  0.00    -0.463 OA
ATOM      4  C   UNL     1      -3.374  11.339  10.742  1.00  0.00     0.147 A 
ATOM      5  C   UNL     1      -3.668  12.715  10.874  1.00  0.00     0.066 A 
ATOM      6  C   UNL     1      -3.597  13.536   9.733  1.00  0.00     0.200 A 
ATOM      7  O   UNL     1      -3.877  14.765   9.814  1.00  0.00    -0.288 OA
ATOM      8  C   UNL     1      -4.032  13.226  12.124  1.00  0.00     0.020 A 
ATOM      9  C   UNL     1      -4.124  12.383  13.224  1.00  0.00     0.047 A 
ATOM     10  C   UNL     1      -3.838  11.015  13.113  1.00  0.00     0.125 A 
ATOM     11  C   UNL     1      -3.414  10.471  11.867  1.00  0.00     0.069 A 
ENDROOT
BRANCH   1  12
ATOM     12  C   UNL     1      -3.129  13.791   7.261  1.00  0.00    -0.011 A 
ATOM     13  C   UNL     1      -2.315  13.365   6.198  1.00  0.00     0.013 A 
ATOM     14  C   UNL     1      -2.206  14.138   5.038  1.00  0.00     0.047 A 
ATOM     15  C   UNL     1      -2.904  15.347   4.928  1.00  0.00     0.115 A 
ATOM     16  C   UNL     1      -3.822  15.010   7.147  1.00  0.00     0.013 A 
ATOM     17  C   UNL     1      -3.710  15.780   5.985  1.00  0.00     0.047 A 
BRANCH  15  18
ATOM     18  O   UNL     1      -2.803  16.125   3.777  1.00  0.00    -0.508 OA
ATOM     19  H   UNL     1      -3.576  16.214   3.128  1.00  0.00     0.293 HD
ENDBRANCH  15  18
ENDBRANCH   1  12
BRANCH  11  20
ATOM     20  C   UNL     1      -3.043   8.988  11.624  1.00  0.00     0.188 C 
ATOM     21  C   UNL     1      -1.551   8.546  11.593  1.00  0.00     0.179 C 
ATOM     22  O   UNL     1      -3.713   8.472  10.479  1.00  0.00    -0.362 OA
ATOM     23  C   UNL     1      -0.893   8.990  10.264  1.00  0.00     0.177 C 
ATOM     24  C   UNL     1      -3.192   9.016   9.274  1.00  0.00     0.176 C 
ATOM     25  C   UNL     1      -1.738   8.551   9.051  1.00  0.00     0.177 C 
BRANCH  21  26
ATOM     26  O   UNL     1      -1.494   7.143  11.690  1.00  0.00    -0.387 OA
ATOM     27  H   UNL     1      -0.547   6.899  11.867  1.00  0.00     0.211 HD
ENDBRANCH  21  26
BRANCH  23  28
ATOM     28  O   UNL     1       0.439   8.546  10.164  1.00  0.00    -0.387 OA
ATOM     29  H   UNL     1       0.664   8.445   9.204  1.00  0.00     0.211 HD
ENDBRANCH  23  28
BRANCH  24  30
ATOM     30  C   UNL     1      -4.094   8.597   8.108  1.00  0.00     0.191 C 
BRANCH  30  31
ATOM     31  O   UNL     1      -3.406   8.764   6.899  1.00  0.00    -0.394 OA
ATOM     32  H   UNL     1      -3.123   7.855   6.615  1.00  0.00     0.210 HD
ENDBRANCH  30  31
ENDBRANCH  24  30
BRANCH  25  33
ATOM     33  O   UNL     1      -1.703   7.153   8.897  1.00  0.00    -0.388 OA
ATOM     34  H   UNL     1      -0.782   6.857   9.119  1.00  0.00     0.211 HD
ENDBRANCH  25  33
ENDBRANCH  11  20
BRANCH  10  35
ATOM     35  O   UNL     1      -3.994  10.227  14.250  1.00  0.00    -0.507 OA
ATOM     36  H   UNL     1      -4.258  10.619  15.146  1.00  0.00     0.293 HD
ENDBRANCH  10  35
TORSDOF 9
ENDMDL
