MODEL 1
REMARK VINA RESULT:    -3.898      0.000      0.000
REMARK INTER + INTRA:          -8.501
REMARK INTER:                  -6.747
REMARK INTRA:                  -1.754
REMARK UNBOUND:                -1.754
REMARK SMILES CCCCCCCCCCCCCCO
REMARK SMILES IDX 8 1 7 2 6 3 5 4 4 5 3 6 2 7 1 8 9 9 10 10 11 11 12 12 13 13
REMARK SMILES IDX 14 14 15 15
REMARK H PARENT 15 16
REMARK Flexibility Score: inf
ROOT
ATOM      1  C   UNL     1     180.952 177.921 183.830  1.00  0.00     0.000 C 
ENDROOT
BRANCH   1   2
ATOM      2  C   UNL     1     180.675 178.427 185.255  1.00  0.00    -0.000 C 
BRANCH   2   3
ATOM      3  C   UNL     1     179.668 179.586 185.288  1.00  0.00    -0.000 C 
BRANCH   3   4
ATOM      4  C   UNL     1     180.158 180.713 186.207  1.00  0.00    -0.000 C 
BRANCH   4   5
ATOM      5  C   UNL     1     181.510 181.260 185.736  1.00  0.00    -0.000 C 
BRANCH   5   6
ATOM      6  C   UNL     1     182.463 181.466 186.923  1.00  0.00    -0.000 C 
BRANCH   6   7
ATOM      7  C   UNL     1     183.284 180.209 187.248  1.00  0.00    -0.003 C 
ATOM      8  C   UNL     1     183.002 179.664 188.648  1.00  0.00     0.004 C 
ENDBRANCH   6   7
ENDBRANCH   5   6
ENDBRANCH   4   5
ENDBRANCH   3   4
ENDBRANCH   2   3
ENDBRANCH   1   2
BRANCH   1   9
ATOM      9  C   UNL     1     182.293 178.428 183.272  1.00  0.00     0.000 C 
BRANCH   9  10
ATOM     10  C   UNL     1     182.116 179.560 182.247  1.00  0.00     0.000 C 
BRANCH  10  11
ATOM     11  C   UNL     1     180.734 179.534 181.571  1.00  0.00     0.000 C 
BRANCH  11  12
ATOM     12  C   UNL     1     180.220 180.941 181.226  1.00  0.00     0.002 C 
BRANCH  12  13
ATOM     13  C   UNL     1     180.416 181.943 182.374  1.00  0.00     0.028 C 
BRANCH  13  14
ATOM     14  C   UNL     1     179.075 182.395 182.965  1.00  0.00     0.156 C 
BRANCH  14  15
ATOM     15  O   UNL     1     178.002 181.788 182.297  1.00  0.00    -0.396 OA
ATOM     16  H   UNL     1     177.396 181.431 182.999  1.00  0.00     0.210 HD
ENDBRANCH  14  15
ENDBRANCH  13  14
ENDBRANCH  12  13
ENDBRANCH  11  12
ENDBRANCH  10  11
ENDBRANCH   9  10
ENDBRANCH   1   9
TORSDOF 13
ENDMDL
MODEL 2
REMARK VINA RESULT:    -3.865      4.039      6.114
REMARK INTER + INTRA:          -8.443
REMARK INTER:                  -7.371
REMARK INTRA:                  -1.072
REMARK UNBOUND:                -1.754
REMARK SMILES CCCCCCCCCCCCCCO
REMARK SMILES IDX 8 1 7 2 6 3 5 4 4 5 3 6 2 7 1 8 9 9 10 10 11 11 12 12 13 13
REMARK SMILES IDX 14 14 15 15
REMARK H PARENT 15 16
REMARK Flexibility Score: inf
ROOT
ATOM      1  C   UNL     1     182.437 177.954 183.815  1.00  0.00     0.000 C 
ENDROOT
BRANCH   1   2
ATOM      2  C   UNL     1     182.057 179.179 184.664  1.00  0.00    -0.000 C 
BRANCH   2   3
ATOM      3  C   UNL     1     180.927 178.883 185.661  1.00  0.00    -0.000 C 
BRANCH   3   4
ATOM      4  C   UNL     1     179.636 179.607 185.257  1.00  0.00    -0.000 C 
BRANCH   4   5
ATOM      5  C   UNL     1     179.938 180.810 184.355  1.00  0.00    -0.000 C 
BRANCH   5   6
ATOM      6  C   UNL     1     179.010 180.825 183.131  1.00  0.00    -0.000 C 
BRANCH   6   7
ATOM      7  C   UNL     1     179.764 181.110 181.823  1.00  0.00    -0.003 C 
ATOM      8  C   UNL     1     180.490 179.879 181.279  1.00  0.00     0.004 C 
ENDBRANCH   6   7
ENDBRANCH   5   6
ENDBRANCH   4   5
ENDBRANCH   3   4
ENDBRANCH   2   3
ENDBRANCH   1   2
BRANCH   1   9
ATOM      9  C   UNL     1     181.299 176.921 183.726  1.00  0.00     0.000 C 
BRANCH   9  10
ATOM     10  C   UNL     1     181.238 176.228 182.355  1.00  0.00     0.000 C 
BRANCH  10  11
ATOM     11  C   UNL     1     182.399 175.241 182.139  1.00  0.00     0.000 C 
BRANCH  11  12
ATOM     12  C   UNL     1     182.032 173.802 182.534  1.00  0.00     0.002 C 
BRANCH  12  13
ATOM     13  C   UNL     1     182.590 172.757 181.554  1.00  0.00     0.028 C 
BRANCH  13  14
ATOM     14  C   UNL     1     181.547 172.352 180.506  1.00  0.00     0.156 C 
BRANCH  14  15
ATOM     15  O   UNL     1     180.806 171.242 180.937  1.00  0.00    -0.396 OA
ATOM     16  H   UNL     1     181.331 170.817 181.666  1.00  0.00     0.210 HD
ENDBRANCH  14  15
ENDBRANCH  13  14
ENDBRANCH  12  13
ENDBRANCH  11  12
ENDBRANCH  10  11
ENDBRANCH   9  10
ENDBRANCH   1   9
TORSDOF 13
ENDMDL
MODEL 3
REMARK VINA RESULT:    -3.858      2.605      3.981
REMARK INTER + INTRA:          -8.431
REMARK INTER:                  -6.444
REMARK INTRA:                  -1.987
REMARK UNBOUND:                -1.754
REMARK SMILES CCCCCCCCCCCCCCO
REMARK SMILES IDX 8 1 7 2 6 3 5 4 4 5 3 6 2 7 1 8 9 9 10 10 11 11 12 12 13 13
REMARK SMILES IDX 14 14 15 15
REMARK H PARENT 15 16
REMARK Flexibility Score: inf
ROOT
ATOM      1  C   UNL     1     180.364 181.057 182.430  1.00  0.00     0.000 C 
ENDROOT
BRANCH   1   2
ATOM      2  C   UNL     1     179.344 180.969 183.578  1.00  0.00    -0.000 C 
BRANCH   2   3
ATOM      3  C   UNL     1     179.184 179.541 184.120  1.00  0.00    -0.000 C 
BRANCH   3   4
ATOM      4  C   UNL     1     179.758 179.424 185.538  1.00  0.00    -0.000 C 
BRANCH   4   5
ATOM      5  C   UNL     1     179.950 180.808 186.170  1.00  0.00    -0.000 C 
BRANCH   5   6
ATOM      6  C   UNL     1     181.393 180.990 186.665  1.00  0.00    -0.000 C 
BRANCH   6   7
ATOM      7  C   UNL     1     182.216 179.697 186.577  1.00  0.00    -0.003 C 
ATOM      8  C   UNL     1     183.639 179.935 186.071  1.00  0.00     0.004 C 
ENDBRANCH   6   7
ENDBRANCH   5   6
ENDBRANCH   4   5
ENDBRANCH   3   4
ENDBRANCH   2   3
ENDBRANCH   1   2
BRANCH   1   9
ATOM      9  C   UNL     1     181.819 180.954 182.922  1.00  0.00     0.000 C 
BRANCH   9  10
ATOM     10  C   UNL     1     182.665 180.001 182.064  1.00  0.00     0.000 C 
BRANCH  10  11
ATOM     11  C   UNL     1     182.089 178.574 182.021  1.00  0.00     0.000 C 
BRANCH  11  12
ATOM     12  C   UNL     1     182.332 177.800 183.327  1.00  0.00     0.002 C 
BRANCH  12  13
ATOM     13  C   UNL     1     181.520 176.498 183.405  1.00  0.00     0.028 C 
BRANCH  13  14
ATOM     14  C   UNL     1     182.314 175.303 182.862  1.00  0.00     0.156 C 
BRANCH  14  15
ATOM     15  O   UNL     1     181.935 174.116 183.504  1.00  0.00    -0.396 OA
ATOM     16  H   UNL     1     181.180 174.347 184.106  1.00  0.00     0.210 HD
ENDBRANCH  14  15
ENDBRANCH  13  14
ENDBRANCH  12  13
ENDBRANCH  11  12
ENDBRANCH  10  11
ENDBRANCH   9  10
ENDBRANCH   1   9
TORSDOF 13
ENDMDL
MODEL 4
REMARK VINA RESULT:    -3.845      1.431      3.124
REMARK INTER + INTRA:          -8.408
REMARK INTER:                  -7.065
REMARK INTRA:                  -1.343
REMARK UNBOUND:                -1.754
REMARK SMILES CCCCCCCCCCCCCCO
REMARK SMILES IDX 8 1 7 2 6 3 5 4 4 5 3 6 2 7 1 8 9 9 10 10 11 11 12 12 13 13
REMARK SMILES IDX 14 14 15 15
REMARK H PARENT 15 16
REMARK Flexibility Score: inf
ROOT
ATOM      1  C   UNL     1     181.977 179.617 181.379  1.00  0.00     0.000 C 
ENDROOT
BRANCH   1   2
ATOM      2  C   UNL     1     182.255 178.813 182.661  1.00  0.00    -0.000 C 
BRANCH   2   3
ATOM      3  C   UNL     1     181.245 177.677 182.879  1.00  0.00    -0.000 C 
BRANCH   3   4
ATOM      4  C   UNL     1     180.911 177.519 184.368  1.00  0.00    -0.000 C 
BRANCH   4   5
ATOM      5  C   UNL     1     181.083 178.847 185.116  1.00  0.00    -0.000 C 
BRANCH   5   6
ATOM      6  C   UNL     1     179.719 179.480 185.432  1.00  0.00    -0.000 C 
BRANCH   6   7
ATOM      7  C   UNL     1     179.843 180.920 185.952  1.00  0.00    -0.003 C 
ATOM      8  C   UNL     1     180.997 181.094 186.940  1.00  0.00     0.004 C 
ENDBRANCH   6   7
ENDBRANCH   5   6
ENDBRANCH   4   5
ENDBRANCH   3   4
ENDBRANCH   2   3
ENDBRANCH   1   2
BRANCH   1   9
ATOM      9  C   UNL     1     180.475 179.857 181.146  1.00  0.00     0.000 C 
BRANCH   9  10
ATOM     10  C   UNL     1     180.117 181.352 181.096  1.00  0.00     0.000 C 
BRANCH  10  11
ATOM     11  C   UNL     1     180.033 181.987 182.496  1.00  0.00     0.000 C 
BRANCH  11  12
ATOM     12  C   UNL     1     178.629 182.524 182.816  1.00  0.00     0.002 C 
BRANCH  12  13
ATOM     13  C   UNL     1     178.659 183.743 183.751  1.00  0.00     0.028 C 
BRANCH  13  14
ATOM     14  C   UNL     1     177.374 184.572 183.641  1.00  0.00     0.156 C 
BRANCH  14  15
ATOM     15  O   UNL     1     176.764 184.389 182.392  1.00  0.00    -0.396 OA
ATOM     16  H   UNL     1     177.307 184.899 181.734  1.00  0.00     0.210 HD
ENDBRANCH  14  15
ENDBRANCH  13  14
ENDBRANCH  12  13
ENDBRANCH  11  12
ENDBRANCH  10  11
ENDBRANCH   9  10
ENDBRANCH   1   9
TORSDOF 13
ENDMDL
MODEL 5
REMARK VINA RESULT:    -3.838      2.782      5.576
REMARK INTER + INTRA:          -8.396
REMARK INTER:                  -7.048
REMARK INTRA:                  -1.348
REMARK UNBOUND:                -1.754
REMARK SMILES CCCCCCCCCCCCCCO
REMARK SMILES IDX 8 1 7 2 6 3 5 4 4 5 3 6 2 7 1 8 9 9 10 10 11 11 12 12 13 13
REMARK SMILES IDX 14 14 15 15
REMARK H PARENT 15 16
REMARK Flexibility Score: inf
ROOT
ATOM      1  C   UNL     1     180.080 179.165 185.435  1.00  0.00     0.000 C 
ENDROOT
BRANCH   1   2
ATOM      2  C   UNL     1     179.351 179.494 184.122  1.00  0.00    -0.000 C 
BRANCH   2   3
ATOM      3  C   UNL     1     180.284 179.466 182.902  1.00  0.00    -0.000 C 
BRANCH   3   4
ATOM      4  C   UNL     1     180.056 180.691 182.008  1.00  0.00    -0.000 C 
BRANCH   4   5
ATOM      5  C   UNL     1     179.006 181.629 182.615  1.00  0.00    -0.000 C 
BRANCH   5   6
ATOM      6  C   UNL     1     179.525 183.074 182.668  1.00  0.00    -0.000 C 
BRANCH   6   7
ATOM      7  C   UNL     1     179.982 183.488 184.074  1.00  0.00    -0.003 C 
ATOM      8  C   UNL     1     179.045 182.984 185.172  1.00  0.00     0.004 C 
ENDBRANCH   6   7
ENDBRANCH   5   6
ENDBRANCH   4   5
ENDBRANCH   3   4
ENDBRANCH   2   3
ENDBRANCH   1   2
BRANCH   1   9
ATOM      9  C   UNL     1     181.598 179.004 185.244  1.00  0.00     0.000 C 
BRANCH   9  10
ATOM     10  C   UNL     1     182.411 179.828 186.256  1.00  0.00     0.000 C 
BRANCH  10  11
ATOM     11  C   UNL     1     181.555 180.880 186.984  1.00  0.00     0.000 C 
BRANCH  11  12
ATOM     12  C   UNL     1     182.028 181.130 188.425  1.00  0.00     0.002 C 
BRANCH  12  13
ATOM     13  C   UNL     1     183.160 180.182 188.851  1.00  0.00     0.028 C 
BRANCH  13  14
ATOM     14  C   UNL     1     184.506 180.912 188.936  1.00  0.00     0.156 C 
BRANCH  14  15
ATOM     15  O   UNL     1     184.330 182.245 189.336  1.00  0.00    -0.396 OA
ATOM     16  H   UNL     1     183.987 182.218 190.268  1.00  0.00     0.210 HD
ENDBRANCH  14  15
ENDBRANCH  13  14
ENDBRANCH  12  13
ENDBRANCH  11  12
ENDBRANCH  10  11
ENDBRANCH   9  10
ENDBRANCH   1   9
TORSDOF 13
ENDMDL
MODEL 6
REMARK VINA RESULT:    -3.810      3.620      4.960
REMARK INTER + INTRA:          -8.347
REMARK INTER:                  -7.685
REMARK INTRA:                  -0.663
REMARK UNBOUND:                -1.754
REMARK SMILES CCCCCCCCCCCCCCO
REMARK SMILES IDX 8 1 7 2 6 3 5 4 4 5 3 6 2 7 1 8 9 9 10 10 11 11 12 12 13 13
REMARK SMILES IDX 14 14 15 15
REMARK H PARENT 15 16
REMARK Flexibility Score: inf
ROOT
ATOM      1  C   UNL     1     180.704 179.270 183.458  1.00  0.00     0.000 C 
ENDROOT
BRANCH   1   2
ATOM      2  C   UNL     1     179.371 179.691 184.098  1.00  0.00    -0.000 C 
BRANCH   2   3
ATOM      3  C   UNL     1     179.474 179.872 185.620  1.00  0.00    -0.000 C 
BRANCH   3   4
ATOM      4  C   UNL     1     180.149 181.205 185.969  1.00  0.00    -0.000 C 
BRANCH   4   5
ATOM      5  C   UNL     1     181.082 181.051 187.176  1.00  0.00    -0.000 C 
BRANCH   5   6
ATOM      6  C   UNL     1     182.523 181.437 186.809  1.00  0.00    -0.000 C 
BRANCH   6   7
ATOM      7  C   UNL     1     183.517 181.161 187.947  1.00  0.00    -0.003 C 
ATOM      8  C   UNL     1     183.101 179.978 188.821  1.00  0.00     0.004 C 
ENDBRANCH   6   7
ENDBRANCH   5   6
ENDBRANCH   4   5
ENDBRANCH   3   4
ENDBRANCH   2   3
ENDBRANCH   1   2
BRANCH   1   9
ATOM      9  C   UNL     1     181.395 178.131 184.229  1.00  0.00     0.000 C 
BRANCH   9  10
ATOM     10  C   UNL     1     180.955 176.739 183.745  1.00  0.00     0.000 C 
BRANCH  10  11
ATOM     11  C   UNL     1     182.023 176.049 182.878  1.00  0.00     0.000 C 
BRANCH  11  12
ATOM     12  C   UNL     1     181.872 174.520 182.863  1.00  0.00     0.002 C 
BRANCH  12  13
ATOM     13  C   UNL     1     181.242 173.998 181.562  1.00  0.00     0.028 C 
BRANCH  13  14
ATOM     14  C   UNL     1     181.838 172.647 181.147  1.00  0.00     0.156 C 
BRANCH  14  15
ATOM     15  O   UNL     1     180.835 171.675 181.017  1.00  0.00    -0.396 OA
ATOM     16  H   UNL     1     181.278 170.856 180.670  1.00  0.00     0.210 HD
ENDBRANCH  14  15
ENDBRANCH  13  14
ENDBRANCH  12  13
ENDBRANCH  11  12
ENDBRANCH  10  11
ENDBRANCH   9  10
ENDBRANCH   1   9
TORSDOF 13
ENDMDL
MODEL 7
REMARK VINA RESULT:    -3.786      1.637      3.450
REMARK INTER + INTRA:          -8.307
REMARK INTER:                  -6.377
REMARK INTRA:                  -1.930
REMARK UNBOUND:                -1.754
REMARK SMILES CCCCCCCCCCCCCCO
REMARK SMILES IDX 8 1 7 2 6 3 5 4 4 5 3 6 2 7 1 8 9 9 10 10 11 11 12 12 13 13
REMARK SMILES IDX 14 14 15 15
REMARK H PARENT 15 16
REMARK Flexibility Score: inf
ROOT
ATOM      1  C   UNL     1     182.577 181.582 183.821  1.00  0.00     0.000 C 
ENDROOT
BRANCH   1   2
ATOM      2  C   UNL     1     181.975 182.305 185.037  1.00  0.00    -0.000 C 
BRANCH   2   3
ATOM      3  C   UNL     1     181.617 181.344 186.181  1.00  0.00    -0.000 C 
BRANCH   3   4
ATOM      4  C   UNL     1     180.186 180.814 186.024  1.00  0.00    -0.000 C 
BRANCH   4   5
ATOM      5  C   UNL     1     180.186 179.325 185.659  1.00  0.00    -0.000 C 
BRANCH   5   6
ATOM      6  C   UNL     1     179.772 179.117 184.195  1.00  0.00    -0.000 C 
BRANCH   6   7
ATOM      7  C   UNL     1     180.538 177.968 183.522  1.00  0.00    -0.003 C 
ATOM      8  C   UNL     1     182.014 177.930 183.917  1.00  0.00     0.004 C 
ENDBRANCH   6   7
ENDBRANCH   5   6
ENDBRANCH   4   5
ENDBRANCH   3   4
ENDBRANCH   2   3
ENDBRANCH   1   2
BRANCH   1   9
ATOM      9  C   UNL     1     182.168 182.229 182.486  1.00  0.00     0.000 C 
BRANCH   9  10
ATOM     10  C   UNL     1     180.917 181.578 181.874  1.00  0.00     0.000 C 
BRANCH  10  11
ATOM     11  C   UNL     1     179.774 182.585 181.653  1.00  0.00     0.000 C 
BRANCH  11  12
ATOM     12  C   UNL     1     178.610 182.382 182.635  1.00  0.00     0.002 C 
BRANCH  12  13
ATOM     13  C   UNL     1     178.680 183.328 183.844  1.00  0.00     0.028 C 
BRANCH  13  14
ATOM     14  C   UNL     1     177.747 184.533 183.674  1.00  0.00     0.156 C 
BRANCH  14  15
ATOM     15  O   UNL     1     176.871 184.341 182.596  1.00  0.00    -0.396 OA
ATOM     16  H   UNL     1     175.973 184.173 182.987  1.00  0.00     0.210 HD
ENDBRANCH  14  15
ENDBRANCH  13  14
ENDBRANCH  12  13
ENDBRANCH  11  12
ENDBRANCH  10  11
ENDBRANCH   9  10
ENDBRANCH   1   9
TORSDOF 13
ENDMDL
MODEL 8
REMARK VINA RESULT:    -3.754      4.025      6.130
REMARK INTER + INTRA:          -8.251
REMARK INTER:                  -7.702
REMARK INTRA:                  -0.549
REMARK UNBOUND:                -1.754
REMARK SMILES CCCCCCCCCCCCCCO
REMARK SMILES IDX 8 1 7 2 6 3 5 4 4 5 3 6 2 7 1 8 9 9 10 10 11 11 12 12 13 13
REMARK SMILES IDX 14 14 15 15
REMARK H PARENT 15 16
REMARK Flexibility Score: inf
ROOT
ATOM      1  C   UNL     1     181.808 178.552 184.488  1.00  0.00     0.000 C 
ENDROOT
BRANCH   1   2
ATOM      2  C   UNL     1     180.506 178.819 185.262  1.00  0.00    -0.000 C 
BRANCH   2   3
ATOM      3  C   UNL     1     179.406 179.427 184.379  1.00  0.00    -0.000 C 
BRANCH   3   4
ATOM      4  C   UNL     1     179.715 180.892 184.046  1.00  0.00    -0.000 C 
BRANCH   4   5
ATOM      5  C   UNL     1     179.011 181.325 182.755  1.00  0.00    -0.000 C 
BRANCH   5   6
ATOM      6  C   UNL     1     178.943 182.856 182.653  1.00  0.00    -0.000 C 
BRANCH   6   7
ATOM      7  C   UNL     1     179.323 183.554 183.968  1.00  0.00    -0.003 C 
ATOM      8  C   UNL     1     178.289 184.591 184.406  1.00  0.00     0.004 C 
ENDBRANCH   6   7
ENDBRANCH   5   6
ENDBRANCH   4   5
ENDBRANCH   3   4
ENDBRANCH   2   3
ENDBRANCH   1   2
BRANCH   1   9
ATOM      9  C   UNL     1     181.580 177.706 183.222  1.00  0.00     0.000 C 
BRANCH   9  10
ATOM     10  C   UNL     1     181.027 176.307 183.539  1.00  0.00     0.000 C 
BRANCH  10  11
ATOM     11  C   UNL     1     181.996 175.182 183.132  1.00  0.00     0.000 C 
BRANCH  11  12
ATOM     12  C   UNL     1     181.425 174.286 182.021  1.00  0.00     0.002 C 
BRANCH  12  13
ATOM     13  C   UNL     1     182.279 173.033 181.772  1.00  0.00     0.028 C 
BRANCH  13  14
ATOM     14  C   UNL     1     181.740 172.205 180.599  1.00  0.00     0.156 C 
BRANCH  14  15
ATOM     15  O   UNL     1     180.910 171.171 181.055  1.00  0.00    -0.396 OA
ATOM     16  H   UNL     1     181.042 170.407 180.434  1.00  0.00     0.210 HD
ENDBRANCH  14  15
ENDBRANCH  13  14
ENDBRANCH  12  13
ENDBRANCH  11  12
ENDBRANCH  10  11
ENDBRANCH   9  10
ENDBRANCH   1   9
TORSDOF 13
ENDMDL
MODEL 9
REMARK VINA RESULT:    -3.737      1.667      2.421
REMARK INTER + INTRA:          -8.222
REMARK INTER:                  -6.667
REMARK INTRA:                  -1.555
REMARK UNBOUND:                -1.754
REMARK SMILES CCCCCCCCCCCCCCO
REMARK SMILES IDX 8 1 7 2 6 3 5 4 4 5 3 6 2 7 1 8 9 9 10 10 11 11 12 12 13 13
REMARK SMILES IDX 14 14 15 15
REMARK H PARENT 15 16
REMARK Flexibility Score: inf
ROOT
ATOM      1  C   UNL     1     180.486 179.042 183.158  1.00  0.00     0.000 C 
ENDROOT
BRANCH   1   2
ATOM      2  C   UNL     1     179.325 179.478 184.067  1.00  0.00    -0.000 C 
BRANCH   2   3
ATOM      3  C   UNL     1     179.722 179.535 185.550  1.00  0.00    -0.000 C 
BRANCH   3   4
ATOM      4  C   UNL     1     179.805 180.986 186.040  1.00  0.00    -0.000 C 
BRANCH   4   5
ATOM      5  C   UNL     1     181.121 181.242 186.786  1.00  0.00    -0.000 C 
BRANCH   5   6
ATOM      6  C   UNL     1     182.309 181.266 185.812  1.00  0.00    -0.000 C 
BRANCH   6   7
ATOM      7  C   UNL     1     183.343 180.171 186.115  1.00  0.00    -0.003 C 
ATOM      8  C   UNL     1     183.697 179.336 184.885  1.00  0.00     0.004 C 
ENDBRANCH   6   7
ENDBRANCH   5   6
ENDBRANCH   4   5
ENDBRANCH   3   4
ENDBRANCH   2   3
ENDBRANCH   1   2
BRANCH   1   9
ATOM      9  C   UNL     1     180.762 180.051 182.028  1.00  0.00     0.000 C 
BRANCH   9  10
ATOM     10  C   UNL     1     179.729 181.188 181.987  1.00  0.00     0.000 C 
BRANCH  10  11
ATOM     11  C   UNL     1     180.364 182.552 181.665  1.00  0.00     0.000 C 
BRANCH  11  12
ATOM     12  C   UNL     1     179.531 183.731 182.193  1.00  0.00     0.002 C 
BRANCH  12  13
ATOM     13  C   UNL     1     178.559 183.317 183.310  1.00  0.00     0.028 C 
BRANCH  13  14
ATOM     14  C   UNL     1     178.486 184.375 184.417  1.00  0.00     0.156 C 
BRANCH  14  15
ATOM     15  O   UNL     1     177.822 185.526 183.969  1.00  0.00    -0.396 OA
ATOM     16  H   UNL     1     178.476 186.272 184.029  1.00  0.00     0.210 HD
ENDBRANCH  14  15
ENDBRANCH  13  14
ENDBRANCH  12  13
ENDBRANCH  11  12
ENDBRANCH  10  11
ENDBRANCH   9  10
ENDBRANCH   1   9
TORSDOF 13
ENDMDL
