MODEL 1
REMARK VINA RESULT:    -3.123      0.000      0.000
REMARK INTER + INTRA:          -7.962
REMARK INTER:                  -5.679
REMARK INTRA:                  -2.283
REMARK UNBOUND:                -2.283
REMARK SMILES CCCCCCCCCCCCCCCC(=O)[O-]
REMARK SMILES IDX 9 1 10 2 11 3 12 4 13 5 14 6 15 7 16 8 17 9 18 10 8 11 7 12
REMARK SMILES IDX 6 13 5 14 4 15 3 16 2 17 1 18
REMARK H PARENT
REMARK Flexibility Score: inf
ROOT
ATOM      1  C   UNL     1      53.791  33.891  86.516  1.00  0.00     0.000 C 
ENDROOT
BRANCH   1   2
ATOM      2  C   UNL     1      54.350  33.828  87.946  1.00  0.00     0.000 C 
BRANCH   2   3
ATOM      3  C   UNL     1      53.795  32.614  88.700  1.00  0.00     0.000 C 
BRANCH   3   4
ATOM      4  C   UNL     1      53.006  31.694  87.756  1.00  0.00     0.000 C 
BRANCH   4   5
ATOM      5  C   UNL     1      51.544  31.509  88.192  1.00  0.00     0.000 C 
BRANCH   5   6
ATOM      6  C   UNL     1      51.200  32.305  89.462  1.00  0.00     0.006 C 
BRANCH   6   7
ATOM      7  C   UNL     1      50.789  31.393  90.626  1.00  0.00     0.053 C 
BRANCH   7   8
ATOM      8  C   UNL     1      51.515  31.739  91.890  1.00  0.00     0.041 C 
ATOM      9  O   UNL     1      50.937  32.405  92.789  1.00  0.00    -0.550 OA
ATOM     10  O   UNL     1      52.818  31.301  92.088  1.00  0.00    -0.550 OA
ENDBRANCH   7   8
ENDBRANCH   6   7
ENDBRANCH   5   6
ENDBRANCH   4   5
ENDBRANCH   3   4
ENDBRANCH   2   3
ENDBRANCH   1   2
BRANCH   1  11
ATOM     11  C   UNL     1      52.790  35.041  86.314  1.00  0.00     0.000 C 
BRANCH  11  12
ATOM     12  C   UNL     1      52.058  35.504  87.591  1.00  0.00    -0.000 C 
BRANCH  12  13
ATOM     13  C   UNL     1      50.534  35.663  87.444  1.00  0.00    -0.000 C 
BRANCH  13  14
ATOM     14  C   UNL     1      49.917  34.623  86.492  1.00  0.00    -0.000 C 
BRANCH  14  15
ATOM     15  C   UNL     1      48.709  33.899  87.109  1.00  0.00    -0.000 C 
BRANCH  15  16
ATOM     16  C   UNL     1      48.494  32.498  86.510  1.00  0.00    -0.000 C 
BRANCH  16  17
ATOM     17  C   UNL     1      47.531  31.642  87.348  1.00  0.00    -0.003 C 
ATOM     18  C   UNL     1      47.514  32.042  88.823  1.00  0.00     0.004 C 
ENDBRANCH  16  17
ENDBRANCH  15  16
ENDBRANCH  14  15
ENDBRANCH  13  14
ENDBRANCH  12  13
ENDBRANCH  11  12
ENDBRANCH   1  11
TORSDOF 14
ENDMDL
MODEL 2
REMARK VINA RESULT:    -3.027      2.908      4.874
REMARK INTER + INTRA:          -7.787
REMARK INTER:                  -5.639
REMARK INTRA:                  -2.148
REMARK UNBOUND:                -2.283
REMARK SMILES CCCCCCCCCCCCCCCC(=O)[O-]
REMARK SMILES IDX 9 1 10 2 11 3 12 4 13 5 14 6 15 7 16 8 17 9 18 10 8 11 7 12
REMARK SMILES IDX 6 13 5 14 4 15 3 16 2 17 1 18
REMARK H PARENT
REMARK Flexibility Score: inf
ROOT
ATOM      1  C   UNL     1      48.370  33.657  87.602  1.00  0.00     0.000 C 
ENDROOT
BRANCH   1   2
ATOM      2  C   UNL     1      48.356  32.386  86.740  1.00  0.00     0.000 C 
BRANCH   2   3
ATOM      3  C   UNL     1      49.151  31.259  87.410  1.00  0.00     0.000 C 
BRANCH   3   4
ATOM      4  C   UNL     1      49.772  31.734  88.732  1.00  0.00     0.000 C 
BRANCH   4   5
ATOM      5  C   UNL     1      49.258  30.945  89.946  1.00  0.00     0.000 C 
BRANCH   5   6
ATOM      6  C   UNL     1      47.811  30.457  89.766  1.00  0.00     0.006 C 
BRANCH   6   7
ATOM      7  C   UNL     1      46.785  31.504  90.221  1.00  0.00     0.053 C 
BRANCH   7   8
ATOM      8  C   UNL     1      45.708  30.898  91.068  1.00  0.00     0.041 C 
ATOM      9  O   UNL     1      45.755  29.676  91.372  1.00  0.00    -0.550 OA
ATOM     10  O   UNL     1      44.670  31.687  91.547  1.00  0.00    -0.550 OA
ENDBRANCH   7   8
ENDBRANCH   6   7
ENDBRANCH   5   6
ENDBRANCH   4   5
ENDBRANCH   3   4
ENDBRANCH   2   3
ENDBRANCH   1   2
BRANCH   1  11
ATOM     11  C   UNL     1      48.679  34.927  86.791  1.00  0.00     0.000 C 
BRANCH  11  12
ATOM     12  C   UNL     1      49.860  35.769  87.317  1.00  0.00    -0.000 C 
BRANCH  12  13
ATOM     13  C   UNL     1      51.183  34.999  87.482  1.00  0.00    -0.000 C 
BRANCH  13  14
ATOM     14  C   UNL     1      51.904  34.762  86.142  1.00  0.00    -0.000 C 
BRANCH  14  15
ATOM     15  C   UNL     1      51.931  33.280  85.738  1.00  0.00    -0.000 C 
BRANCH  15  16
ATOM     16  C   UNL     1      51.121  33.004  84.458  1.00  0.00    -0.000 C 
BRANCH  16  17
ATOM     17  C   UNL     1      50.706  34.295  83.736  1.00  0.00    -0.003 C 
ATOM     18  C   UNL     1      51.233  34.370  82.304  1.00  0.00     0.004 C 
ENDBRANCH  16  17
ENDBRANCH  15  16
ENDBRANCH  14  15
ENDBRANCH  13  14
ENDBRANCH  12  13
ENDBRANCH  11  12
ENDBRANCH   1  11
TORSDOF 14
ENDMDL
MODEL 3
REMARK VINA RESULT:    -2.969      1.523      4.304
REMARK INTER + INTRA:          -7.683
REMARK INTER:                  -5.590
REMARK INTRA:                  -2.093
REMARK UNBOUND:                -2.283
REMARK SMILES CCCCCCCCCCCCCCCC(=O)[O-]
REMARK SMILES IDX 9 1 10 2 11 3 12 4 13 5 14 6 15 7 16 8 17 9 18 10 8 11 7 12
REMARK SMILES IDX 6 13 5 14 4 15 3 16 2 17 1 18
REMARK H PARENT
REMARK Flexibility Score: inf
ROOT
ATOM      1  C   UNL     1      48.221  32.198  87.020  1.00  0.00     0.000 C 
ENDROOT
BRANCH   1   2
ATOM      2  C   UNL     1      47.230  31.308  87.785  1.00  0.00     0.000 C 
BRANCH   2   3
ATOM      3  C   UNL     1      47.139  31.726  89.258  1.00  0.00     0.000 C 
BRANCH   3   4
ATOM      4  C   UNL     1      47.752  30.654  90.172  1.00  0.00     0.000 C 
BRANCH   4   5
ATOM      5  C   UNL     1      49.107  31.079  90.758  1.00  0.00     0.000 C 
BRANCH   5   6
ATOM      6  C   UNL     1      50.284  30.754  89.821  1.00  0.00     0.006 C 
BRANCH   6   7
ATOM      7  C   UNL     1      51.168  31.980  89.555  1.00  0.00     0.053 C 
BRANCH   7   8
ATOM      8  C   UNL     1      52.392  31.983  90.418  1.00  0.00     0.041 C 
ATOM      9  O   UNL     1      52.333  32.421  91.598  1.00  0.00    -0.550 OA
ATOM     10  O   UNL     1      53.590  31.475  89.932  1.00  0.00    -0.550 OA
ENDBRANCH   7   8
ENDBRANCH   6   7
ENDBRANCH   5   6
ENDBRANCH   4   5
ENDBRANCH   3   4
ENDBRANCH   2   3
ENDBRANCH   1   2
BRANCH   1  11
ATOM     11  C   UNL     1      48.411  33.579  87.670  1.00  0.00     0.000 C 
BRANCH  11  12
ATOM     12  C   UNL     1      48.748  34.723  86.691  1.00  0.00    -0.000 C 
BRANCH  12  13
ATOM     13  C   UNL     1      49.760  35.754  87.222  1.00  0.00    -0.000 C 
BRANCH  13  14
ATOM     14  C   UNL     1      51.115  35.124  87.589  1.00  0.00    -0.000 C 
BRANCH  14  15
ATOM     15  C   UNL     1      52.019  34.909  86.364  1.00  0.00    -0.000 C 
BRANCH  15  16
ATOM     16  C   UNL     1      52.171  33.422  85.998  1.00  0.00    -0.000 C 
BRANCH  16  17
ATOM     17  C   UNL     1      51.406  33.052  84.717  1.00  0.00    -0.003 C 
ATOM     18  C   UNL     1      51.114  34.262  83.830  1.00  0.00     0.004 C 
ENDBRANCH  16  17
ENDBRANCH  15  16
ENDBRANCH  14  15
ENDBRANCH  13  14
ENDBRANCH  12  13
ENDBRANCH  11  12
ENDBRANCH   1  11
TORSDOF 14
ENDMDL
MODEL 4
REMARK VINA RESULT:    -2.925     17.155     19.030
REMARK INTER + INTRA:          -7.603
REMARK INTER:                  -5.618
REMARK INTRA:                  -1.985
REMARK UNBOUND:                -2.283
REMARK SMILES CCCCCCCCCCCCCCCC(=O)[O-]
REMARK SMILES IDX 9 1 10 2 11 3 12 4 13 5 14 6 15 7 16 8 17 9 18 10 8 11 7 12
REMARK SMILES IDX 6 13 5 14 4 15 3 16 2 17 1 18
REMARK H PARENT
REMARK Flexibility Score: inf
ROOT
ATOM      1  C   UNL     1      44.044  22.486  77.802  1.00  0.00     0.000 C 
ENDROOT
BRANCH   1   2
ATOM      2  C   UNL     1      43.080  21.964  76.725  1.00  0.00     0.000 C 
BRANCH   2   3
ATOM      3  C   UNL     1      41.982  22.991  76.425  1.00  0.00     0.000 C 
BRANCH   3   4
ATOM      4  C   UNL     1      40.592  22.413  76.727  1.00  0.00     0.000 C 
BRANCH   4   5
ATOM      5  C   UNL     1      40.655  21.103  77.529  1.00  0.00     0.000 C 
BRANCH   5   6
ATOM      6  C   UNL     1      40.184  21.277  78.983  1.00  0.00     0.006 C 
BRANCH   6   7
ATOM      7  C   UNL     1      40.385  20.001  79.813  1.00  0.00     0.053 C 
BRANCH   7   8
ATOM      8  C   UNL     1      39.086  19.312  80.099  1.00  0.00     0.041 C 
ATOM      9  O   UNL     1      38.326  19.745  81.004  1.00  0.00    -0.550 OA
ATOM     10  O   UNL     1      38.702  18.209  79.347  1.00  0.00    -0.550 OA
ENDBRANCH   7   8
ENDBRANCH   6   7
ENDBRANCH   5   6
ENDBRANCH   4   5
ENDBRANCH   3   4
ENDBRANCH   2   3
ENDBRANCH   1   2
BRANCH   1  11
ATOM     11  C   UNL     1      44.383  21.428  78.866  1.00  0.00     0.000 C 
BRANCH  11  12
ATOM     12  C   UNL     1      44.047  19.974  78.475  1.00  0.00    -0.000 C 
BRANCH  12  13
ATOM     13  C   UNL     1      45.225  19.169  77.896  1.00  0.00    -0.000 C 
BRANCH  13  14
ATOM     14  C   UNL     1      46.594  19.763  78.274  1.00  0.00    -0.000 C 
BRANCH  14  15
ATOM     15  C   UNL     1      47.409  20.200  77.047  1.00  0.00    -0.000 C 
BRANCH  15  16
ATOM     16  C   UNL     1      46.764  19.755  75.722  1.00  0.00    -0.000 C 
BRANCH  16  17
ATOM     17  C   UNL     1      46.571  20.922  74.741  1.00  0.00    -0.003 C 
ATOM     18  C   UNL     1      45.298  20.791  73.905  1.00  0.00     0.004 C 
ENDBRANCH  16  17
ENDBRANCH  15  16
ENDBRANCH  14  15
ENDBRANCH  13  14
ENDBRANCH  12  13
ENDBRANCH  11  12
ENDBRANCH   1  11
TORSDOF 14
ENDMDL
MODEL 5
REMARK VINA RESULT:    -2.921     15.911     17.926
REMARK INTER + INTRA:          -7.595
REMARK INTER:                  -5.182
REMARK INTRA:                  -2.413
REMARK UNBOUND:                -2.283
REMARK SMILES CCCCCCCCCCCCCCCC(=O)[O-]
REMARK SMILES IDX 9 1 10 2 11 3 12 4 13 5 14 6 15 7 16 8 17 9 18 10 8 11 7 12
REMARK SMILES IDX 6 13 5 14 4 15 3 16 2 17 1 18
REMARK H PARENT
REMARK Flexibility Score: inf
ROOT
ATOM      1  C   UNL     1      45.997  20.491  78.417  1.00  0.00     0.000 C 
ENDROOT
BRANCH   1   2
ATOM      2  C   UNL     1      47.247  21.351  78.655  1.00  0.00     0.000 C 
BRANCH   2   3
ATOM      3  C   UNL     1      48.525  20.519  78.500  1.00  0.00     0.000 C 
BRANCH   3   4
ATOM      4  C   UNL     1      49.386  21.043  77.341  1.00  0.00     0.000 C 
BRANCH   4   5
ATOM      5  C   UNL     1      49.520  22.574  77.347  1.00  0.00     0.000 C 
BRANCH   5   6
ATOM      6  C   UNL     1      50.659  23.071  76.440  1.00  0.00     0.006 C 
BRANCH   6   7
ATOM      7  C   UNL     1      50.887  22.146  75.236  1.00  0.00     0.053 C 
BRANCH   7   8
ATOM      8  C   UNL     1      52.328  21.764  75.091  1.00  0.00     0.041 C 
ATOM      9  O   UNL     1      52.753  21.298  74.001  1.00  0.00    -0.550 OA
ATOM     10  O   UNL     1      53.208  21.950  76.150  1.00  0.00    -0.550 OA
ENDBRANCH   7   8
ENDBRANCH   6   7
ENDBRANCH   5   6
ENDBRANCH   4   5
ENDBRANCH   3   4
ENDBRANCH   2   3
ENDBRANCH   1   2
BRANCH   1  11
ATOM     11  C   UNL     1      46.332  19.028  78.078  1.00  0.00     0.000 C 
BRANCH  11  12
ATOM     12  C   UNL     1      45.853  18.551  76.691  1.00  0.00    -0.000 C 
BRANCH  12  13
ATOM     13  C   UNL     1      45.669  19.668  75.648  1.00  0.00    -0.000 C 
BRANCH  13  14
ATOM     14  C   UNL     1      46.704  19.597  74.511  1.00  0.00    -0.000 C 
BRANCH  14  15
ATOM     15  C   UNL     1      47.398  20.944  74.256  1.00  0.00    -0.000 C 
BRANCH  15  16
ATOM     16  C   UNL     1      46.695  22.113  74.970  1.00  0.00    -0.000 C 
BRANCH  16  17
ATOM     17  C   UNL     1      46.701  23.401  74.132  1.00  0.00    -0.003 C 
ATOM     18  C   UNL     1      47.703  24.436  74.642  1.00  0.00     0.004 C 
ENDBRANCH  16  17
ENDBRANCH  15  16
ENDBRANCH  14  15
ENDBRANCH  13  14
ENDBRANCH  12  13
ENDBRANCH  11  12
ENDBRANCH   1  11
TORSDOF 14
ENDMDL
MODEL 6
REMARK VINA RESULT:    -2.912      3.027      5.140
REMARK INTER + INTRA:          -7.577
REMARK INTER:                  -4.865
REMARK INTRA:                  -2.712
REMARK UNBOUND:                -2.283
REMARK SMILES CCCCCCCCCCCCCCCC(=O)[O-]
REMARK SMILES IDX 9 1 10 2 11 3 12 4 13 5 14 6 15 7 16 8 17 9 18 10 8 11 7 12
REMARK SMILES IDX 6 13 5 14 4 15 3 16 2 17 1 18
REMARK H PARENT
REMARK Flexibility Score: inf
ROOT
ATOM      1  C   UNL     1      54.706  31.797  87.270  1.00  0.00     0.000 C 
ENDROOT
BRANCH   1   2
ATOM      2  C   UNL     1      53.816  32.908  86.694  1.00  0.00     0.000 C 
BRANCH   2   3
ATOM      3  C   UNL     1      54.248  34.284  87.214  1.00  0.00     0.000 C 
BRANCH   3   4
ATOM      4  C   UNL     1      53.027  35.148  87.565  1.00  0.00     0.000 C 
BRANCH   4   5
ATOM      5  C   UNL     1      51.777  34.764  86.758  1.00  0.00     0.000 C 
BRANCH   5   6
ATOM      6  C   UNL     1      50.491  35.386  87.328  1.00  0.00     0.006 C 
BRANCH   6   7
ATOM      7  C   UNL     1      49.309  34.407  87.295  1.00  0.00     0.053 C 
BRANCH   7   8
ATOM      8  C   UNL     1      48.949  34.016  85.894  1.00  0.00     0.041 C 
ATOM      9  O   UNL     1      48.756  32.805  85.605  1.00  0.00    -0.550 OA
ATOM     10  O   UNL     1      48.796  34.990  84.916  1.00  0.00    -0.550 OA
ENDBRANCH   7   8
ENDBRANCH   6   7
ENDBRANCH   5   6
ENDBRANCH   4   5
ENDBRANCH   3   4
ENDBRANCH   2   3
ENDBRANCH   1   2
BRANCH   1  11
ATOM     11  C   UNL     1      55.701  32.312  88.324  1.00  0.00     0.000 C 
BRANCH  11  12
ATOM     12  C   UNL     1      55.467  31.791  89.757  1.00  0.00    -0.000 C 
BRANCH  12  13
ATOM     13  C   UNL     1      55.264  32.886  90.820  1.00  0.00    -0.000 C 
BRANCH  13  14
ATOM     14  C   UNL     1      53.847  33.487  90.793  1.00  0.00    -0.000 C 
BRANCH  14  15
ATOM     15  C   UNL     1      52.750  32.424  90.958  1.00  0.00    -0.000 C 
BRANCH  15  16
ATOM     16  C   UNL     1      51.755  32.418  89.784  1.00  0.00    -0.000 C 
BRANCH  16  17
ATOM     17  C   UNL     1      51.620  31.031  89.135  1.00  0.00    -0.003 C 
ATOM     18  C   UNL     1      50.837  31.063  87.823  1.00  0.00     0.004 C 
ENDBRANCH  16  17
ENDBRANCH  15  16
ENDBRANCH  14  15
ENDBRANCH  13  14
ENDBRANCH  12  13
ENDBRANCH  11  12
ENDBRANCH   1  11
TORSDOF 14
ENDMDL
MODEL 7
REMARK VINA RESULT:    -2.889      3.213      5.550
REMARK INTER + INTRA:          -7.536
REMARK INTER:                  -5.346
REMARK INTRA:                  -2.189
REMARK UNBOUND:                -2.283
REMARK SMILES CCCCCCCCCCCCCCCC(=O)[O-]
REMARK SMILES IDX 9 1 10 2 11 3 12 4 13 5 14 6 15 7 16 8 17 9 18 10 8 11 7 12
REMARK SMILES IDX 6 13 5 14 4 15 3 16 2 17 1 18
REMARK H PARENT
REMARK Flexibility Score: inf
ROOT
ATOM      1  C   UNL     1      50.884  29.884  87.790  1.00  0.00     0.000 C 
ENDROOT
BRANCH   1   2
ATOM      2  C   UNL     1      50.489  31.296  87.333  1.00  0.00     0.000 C 
BRANCH   2   3
ATOM      3  C   UNL     1      49.368  31.244  86.288  1.00  0.00     0.000 C 
BRANCH   3   4
ATOM      4  C   UNL     1      48.157  32.072  86.739  1.00  0.00     0.000 C 
BRANCH   4   5
ATOM      5  C   UNL     1      48.523  33.139  87.783  1.00  0.00     0.000 C 
BRANCH   5   6
ATOM      6  C   UNL     1      48.704  34.535  87.163  1.00  0.00     0.006 C 
BRANCH   6   7
ATOM      7  C   UNL     1      50.152  35.033  87.268  1.00  0.00     0.053 C 
BRANCH   7   8
ATOM      8  C   UNL     1      50.920  34.786  86.005  1.00  0.00     0.041 C 
ATOM      9  O   UNL     1      52.178  34.827  86.012  1.00  0.00    -0.550 OA
ATOM     10  O   UNL     1      50.247  34.481  84.829  1.00  0.00    -0.550 OA
ENDBRANCH   7   8
ENDBRANCH   6   7
ENDBRANCH   5   6
ENDBRANCH   4   5
ENDBRANCH   3   4
ENDBRANCH   2   3
ENDBRANCH   1   2
BRANCH   1  11
ATOM     11  C   UNL     1      50.686  29.665  89.299  1.00  0.00     0.000 C 
BRANCH  11  12
ATOM     12  C   UNL     1      50.433  30.947  90.120  1.00  0.00    -0.000 C 
BRANCH  12  13
ATOM     13  C   UNL     1      49.072  31.002  90.836  1.00  0.00    -0.000 C 
BRANCH  13  14
ATOM     14  C   UNL     1      48.145  29.838  90.440  1.00  0.00    -0.000 C 
BRANCH  14  15
ATOM     15  C   UNL     1      46.827  30.317  89.813  1.00  0.00    -0.000 C 
BRANCH  15  16
ATOM     16  C   UNL     1      46.333  31.643  90.420  1.00  0.00    -0.000 C 
BRANCH  16  17
ATOM     17  C   UNL     1      45.002  31.485  91.171  1.00  0.00    -0.003 C 
ATOM     18  C   UNL     1      44.803  30.080  91.738  1.00  0.00     0.004 C 
ENDBRANCH  16  17
ENDBRANCH  15  16
ENDBRANCH  14  15
ENDBRANCH  13  14
ENDBRANCH  12  13
ENDBRANCH  11  12
ENDBRANCH   1  11
TORSDOF 14
ENDMDL
MODEL 8
REMARK VINA RESULT:    -2.874     17.232     19.126
REMARK INTER + INTRA:          -7.510
REMARK INTER:                  -5.968
REMARK INTRA:                  -1.541
REMARK UNBOUND:                -2.283
REMARK SMILES CCCCCCCCCCCCCCCC(=O)[O-]
REMARK SMILES IDX 9 1 10 2 11 3 12 4 13 5 14 6 15 7 16 8 17 9 18 10 8 11 7 12
REMARK SMILES IDX 6 13 5 14 4 15 3 16 2 17 1 18
REMARK H PARENT
REMARK Flexibility Score: inf
ROOT
ATOM      1  C   UNL     1      44.540  19.611  78.171  1.00  0.00     0.000 C 
ENDROOT
BRANCH   1   2
ATOM      2  C   UNL     1      44.816  20.968  78.834  1.00  0.00     0.000 C 
BRANCH   2   3
ATOM      3  C   UNL     1      43.507  21.689  79.179  1.00  0.00     0.000 C 
BRANCH   3   4
ATOM      4  C   UNL     1      42.359  20.685  79.363  1.00  0.00     0.000 C 
BRANCH   4   5
ATOM      5  C   UNL     1      41.216  21.243  80.225  1.00  0.00     0.000 C 
BRANCH   5   6
ATOM      6  C   UNL     1      39.828  20.844  79.697  1.00  0.00     0.006 C 
BRANCH   6   7
ATOM      7  C   UNL     1      39.589  19.330  79.778  1.00  0.00     0.053 C 
BRANCH   7   8
ATOM      8  C   UNL     1      38.267  19.007  80.404  1.00  0.00     0.041 C 
ATOM      9  O   UNL     1      37.774  19.775  81.273  1.00  0.00    -0.550 OA
ATOM     10  O   UNL     1      37.566  17.875  80.008  1.00  0.00    -0.550 OA
ENDBRANCH   7   8
ENDBRANCH   6   7
ENDBRANCH   5   6
ENDBRANCH   4   5
ENDBRANCH   3   4
ENDBRANCH   2   3
ENDBRANCH   1   2
BRANCH   1  11
ATOM     11  C   UNL     1      45.819  18.910  77.684  1.00  0.00     0.000 C 
BRANCH  11  12
ATOM     12  C   UNL     1      46.527  19.590  76.494  1.00  0.00    -0.000 C 
BRANCH  12  13
ATOM     13  C   UNL     1      45.723  19.601  75.182  1.00  0.00    -0.000 C 
BRANCH  13  14
ATOM     14  C   UNL     1      45.907  20.904  74.382  1.00  0.00    -0.000 C 
BRANCH  14  15
ATOM     15  C   UNL     1      44.573  21.595  74.061  1.00  0.00    -0.000 C 
BRANCH  15  16
ATOM     16  C   UNL     1      43.724  21.850  75.320  1.00  0.00    -0.000 C 
BRANCH  16  17
ATOM     17  C   UNL     1      42.263  22.188  74.985  1.00  0.00    -0.003 C 
ATOM     18  C   UNL     1      41.283  21.705  76.053  1.00  0.00     0.004 C 
ENDBRANCH  16  17
ENDBRANCH  15  16
ENDBRANCH  14  15
ENDBRANCH  13  14
ENDBRANCH  12  13
ENDBRANCH  11  12
ENDBRANCH   1  11
TORSDOF 14
ENDMDL
MODEL 9
REMARK VINA RESULT:    -2.857      3.508      5.863
REMARK INTER + INTRA:          -7.477
REMARK INTER:                  -5.522
REMARK INTRA:                  -1.955
REMARK UNBOUND:                -2.283
REMARK SMILES CCCCCCCCCCCCCCCC(=O)[O-]
REMARK SMILES IDX 9 1 10 2 11 3 12 4 13 5 14 6 15 7 16 8 17 9 18 10 8 11 7 12
REMARK SMILES IDX 6 13 5 14 4 15 3 16 2 17 1 18
REMARK H PARENT
REMARK Flexibility Score: inf
ROOT
ATOM      1  C   UNL     1      48.945  29.959  90.293  1.00  0.00     0.000 C 
ENDROOT
BRANCH   1   2
ATOM      2  C   UNL     1      50.310  30.010  90.995  1.00  0.00     0.000 C 
BRANCH   2   3
ATOM      3  C   UNL     1      50.861  31.441  91.023  1.00  0.00     0.000 C 
BRANCH   3   4
ATOM      4  C   UNL     1      51.980  31.619  89.986  1.00  0.00     0.000 C 
BRANCH   4   5
ATOM      5  C   UNL     1      51.737  32.814  89.051  1.00  0.00     0.000 C 
BRANCH   5   6
ATOM      6  C   UNL     1      50.832  32.459  87.860  1.00  0.00     0.006 C 
BRANCH   6   7
ATOM      7  C   UNL     1      49.812  33.565  87.556  1.00  0.00     0.053 C 
BRANCH   7   8
ATOM      8  C   UNL     1      50.444  34.729  86.855  1.00  0.00     0.041 C 
ATOM      9  O   UNL     1      50.724  35.776  87.496  1.00  0.00    -0.550 OA
ATOM     10  O   UNL     1      50.749  34.646  85.503  1.00  0.00    -0.550 OA
ENDBRANCH   7   8
ENDBRANCH   6   7
ENDBRANCH   5   6
ENDBRANCH   4   5
ENDBRANCH   3   4
ENDBRANCH   2   3
ENDBRANCH   1   2
BRANCH   1  11
ATOM     11  C   UNL     1      48.119  31.241  90.494  1.00  0.00     0.000 C 
BRANCH  11  12
ATOM     12  C   UNL     1      47.137  31.574  89.352  1.00  0.00    -0.000 C 
BRANCH  12  13
ATOM     13  C   UNL     1      45.651  31.577  89.755  1.00  0.00    -0.000 C 
BRANCH  13  14
ATOM     14  C   UNL     1      45.449  31.587  91.280  1.00  0.00    -0.000 C 
BRANCH  14  15
ATOM     15  C   UNL     1      44.634  30.383  91.778  1.00  0.00    -0.000 C 
BRANCH  15  16
ATOM     16  C   UNL     1      45.502  29.129  91.983  1.00  0.00    -0.000 C 
BRANCH  16  17
ATOM     17  C   UNL     1      45.077  27.965  91.075  1.00  0.00    -0.003 C 
ATOM     18  C   UNL     1      45.932  27.854  89.813  1.00  0.00     0.004 C 
ENDBRANCH  16  17
ENDBRANCH  15  16
ENDBRANCH  14  15
ENDBRANCH  13  14
ENDBRANCH  12  13
ENDBRANCH  11  12
ENDBRANCH   1  11
TORSDOF 14
ENDMDL
