MODEL 1
REMARK VINA RESULT:    -4.047      0.000      0.000
REMARK INTER + INTRA:          -5.716
REMARK INTER:                  -5.467
REMARK INTRA:                  -0.250
REMARK UNBOUND:                -0.250
REMARK SMILES CCCCCCC=CC(=O)[O-]
REMARK SMILES IDX 5 1 6 2 7 3 8 4 9 5 10 6 11 7 4 8 3 9 2 10 1 11
REMARK H PARENT
REMARK Flexibility Score: inf
ROOT
ATOM      1  C   UNL     1      -7.919  -2.517 -39.248  1.00  0.00     0.004 C 
ENDROOT
BRANCH   1   2
ATOM      2  C   UNL     1      -6.694  -2.741 -40.150  1.00  0.00     0.027 C 
BRANCH   2   3
ATOM      3  C   UNL     1      -6.553  -4.181 -40.573  1.00  0.00    -0.025 C 
ATOM      4  C   UNL     1      -5.855  -5.130 -39.927  1.00  0.00     0.020 C 
BRANCH   4   5
ATOM      5  C   UNL     1      -5.047  -4.951 -38.702  1.00  0.00     0.064 C 
ATOM      6  O   UNL     1      -5.572  -4.847 -37.564  1.00  0.00    -0.545 OA
ATOM      7  O   UNL     1      -3.666  -4.865 -38.817  1.00  0.00    -0.545 OA
ENDBRANCH   4   5
ENDBRANCH   2   3
ENDBRANCH   1   2
BRANCH   1   8
ATOM      8  C   UNL     1      -8.339  -1.036 -39.204  1.00  0.00     0.000 C 
BRANCH   8   9
ATOM      9  C   UNL     1      -9.447  -0.766 -38.175  1.00  0.00    -0.000 C 
BRANCH   9  10
ATOM     10  C   UNL     1      -9.059   0.324 -37.164  1.00  0.00    -0.003 C 
ATOM     11  C   UNL     1     -10.286   1.107 -36.703  1.00  0.00     0.004 C 
ENDBRANCH   9  10
ENDBRANCH   8   9
ENDBRANCH   1   8
TORSDOF 6
ENDMDL
MODEL 2
REMARK VINA RESULT:    -3.942      3.073      5.605
REMARK INTER + INTRA:          -5.574
REMARK INTER:                  -5.171
REMARK INTRA:                  -0.403
REMARK UNBOUND:                -0.250
REMARK SMILES CCCCCCC=CC(=O)[O-]
REMARK SMILES IDX 5 1 6 2 7 3 8 4 9 5 10 6 11 7 4 8 3 9 2 10 1 11
REMARK H PARENT
REMARK Flexibility Score: inf
ROOT
ATOM      1  C   UNL     1      -7.820  -3.890 -40.131  1.00  0.00     0.004 C 
ENDROOT
BRANCH   1   2
ATOM      2  C   UNL     1      -7.882  -2.811 -39.038  1.00  0.00     0.027 C 
BRANCH   2   3
ATOM      3  C   UNL     1      -7.976  -1.421 -39.612  1.00  0.00    -0.025 C 
ATOM      4  C   UNL     1      -8.527  -0.353 -39.010  1.00  0.00     0.020 C 
BRANCH   4   5
ATOM      5  C   UNL     1      -9.193  -0.329 -37.691  1.00  0.00     0.064 C 
ATOM      6  O   UNL     1      -8.761   0.367 -36.737  1.00  0.00    -0.545 OA
ATOM      7  O   UNL     1     -10.313  -1.125 -37.492  1.00  0.00    -0.545 OA
ENDBRANCH   4   5
ENDBRANCH   2   3
ENDBRANCH   1   2
BRANCH   1   8
ATOM      8  C   UNL     1      -6.417  -3.997 -40.756  1.00  0.00     0.000 C 
BRANCH   8   9
ATOM      9  C   UNL     1      -5.294  -3.889 -39.713  1.00  0.00    -0.000 C 
BRANCH   9  10
ATOM     10  C   UNL     1      -4.966  -5.238 -39.058  1.00  0.00    -0.003 C 
ATOM     11  C   UNL     1      -5.263  -5.208 -37.561  1.00  0.00     0.004 C 
ENDBRANCH   9  10
ENDBRANCH   8   9
ENDBRANCH   1   8
TORSDOF 6
ENDMDL
MODEL 3
REMARK VINA RESULT:    -3.936     10.111     11.634
REMARK INTER + INTRA:          -5.566
REMARK INTER:                  -4.786
REMARK INTRA:                  -0.780
REMARK UNBOUND:                -0.250
REMARK SMILES CCCCCCC=CC(=O)[O-]
REMARK SMILES IDX 5 1 6 2 7 3 8 4 9 5 10 6 11 7 4 8 3 9 2 10 1 11
REMARK H PARENT
REMARK Flexibility Score: inf
ROOT
ATOM      1  C   UNL     1       1.833  -7.282 -30.128  1.00  0.00     0.004 C 
ENDROOT
BRANCH   1   2
ATOM      2  C   UNL     1       2.620  -7.114 -31.438  1.00  0.00     0.027 C 
BRANCH   2   3
ATOM      3  C   UNL     1       2.145  -8.054 -32.515  1.00  0.00    -0.025 C 
ATOM      4  C   UNL     1       1.792  -7.710 -33.766  1.00  0.00     0.020 C 
BRANCH   4   5
ATOM      5  C   UNL     1       1.750  -6.343 -34.326  1.00  0.00     0.064 C 
ATOM      6  O   UNL     1       0.861  -5.514 -34.000  1.00  0.00    -0.545 OA
ATOM      7  O   UNL     1       2.704  -5.973 -35.264  1.00  0.00    -0.545 OA
ENDBRANCH   4   5
ENDBRANCH   2   3
ENDBRANCH   1   2
BRANCH   1   8
ATOM      8  C   UNL     1       0.360  -7.649 -30.384  1.00  0.00     0.000 C 
BRANCH   8   9
ATOM      9  C   UNL     1      -0.594  -6.468 -30.146  1.00  0.00    -0.000 C 
BRANCH   9  10
ATOM     10  C   UNL     1      -1.407  -6.105 -31.398  1.00  0.00    -0.003 C 
ATOM     11  C   UNL     1      -1.633  -7.330 -32.280  1.00  0.00     0.004 C 
ENDBRANCH   9  10
ENDBRANCH   8   9
ENDBRANCH   1   8
TORSDOF 6
ENDMDL
MODEL 4
REMARK VINA RESULT:    -3.921      3.250      6.130
REMARK INTER + INTRA:          -5.545
REMARK INTER:                  -5.302
REMARK INTRA:                  -0.244
REMARK UNBOUND:                -0.250
REMARK SMILES CCCCCCC=CC(=O)[O-]
REMARK SMILES IDX 5 1 6 2 7 3 8 4 9 5 10 6 11 7 4 8 3 9 2 10 1 11
REMARK H PARENT
REMARK Flexibility Score: inf
ROOT
ATOM      1  C   UNL     1      -7.796  -1.915 -40.429  1.00  0.00     0.004 C 
ENDROOT
BRANCH   1   2
ATOM      2  C   UNL     1      -8.402  -0.871 -39.478  1.00  0.00     0.027 C 
BRANCH   2   3
ATOM      3  C   UNL     1      -9.515  -1.442 -38.637  1.00  0.00    -0.025 C 
ATOM      4  C   UNL     1     -10.124  -0.826 -37.610  1.00  0.00     0.020 C 
BRANCH   4   5
ATOM      5  C   UNL     1      -9.800   0.508 -37.062  1.00  0.00     0.064 C 
ATOM      6  O   UNL     1      -8.759   0.719 -36.389  1.00  0.00    -0.545 OA
ATOM      7  O   UNL     1     -10.689   1.553 -37.273  1.00  0.00    -0.545 OA
ENDBRANCH   4   5
ENDBRANCH   2   3
ENDBRANCH   1   2
BRANCH   1   8
ATOM      8  C   UNL     1      -7.332  -3.178 -39.681  1.00  0.00     0.000 C 
BRANCH   8   9
ATOM      9  C   UNL     1      -5.911  -3.610 -40.075  1.00  0.00    -0.000 C 
BRANCH   9  10
ATOM     10  C   UNL     1      -5.554  -5.010 -39.553  1.00  0.00    -0.003 C 
ATOM     11  C   UNL     1      -4.349  -4.956 -38.618  1.00  0.00     0.004 C 
ENDBRANCH   9  10
ENDBRANCH   8   9
ENDBRANCH   1   8
TORSDOF 6
ENDMDL
MODEL 5
REMARK VINA RESULT:    -3.881      5.918      8.916
REMARK INTER + INTRA:          -5.492
REMARK INTER:                  -5.204
REMARK INTRA:                  -0.288
REMARK UNBOUND:                -0.250
REMARK SMILES CCCCCCC=CC(=O)[O-]
REMARK SMILES IDX 5 1 6 2 7 3 8 4 9 5 10 6 11 7 4 8 3 9 2 10 1 11
REMARK H PARENT
REMARK Flexibility Score: inf
ROOT
ATOM      1  C   UNL     1     -11.193   2.461 -36.057  1.00  0.00     0.004 C 
ENDROOT
BRANCH   1   2
ATOM      2  C   UNL     1     -10.521   2.223 -34.695  1.00  0.00     0.027 C 
BRANCH   2   3
ATOM      3  C   UNL     1     -11.437   2.538 -33.542  1.00  0.00    -0.025 C 
ATOM      4  C   UNL     1     -11.214   3.451 -32.581  1.00  0.00     0.020 C 
BRANCH   4   5
ATOM      5  C   UNL     1     -10.010   4.295 -32.429  1.00  0.00     0.064 C 
ATOM      6  O   UNL     1      -9.110   4.030 -31.591  1.00  0.00    -0.545 OA
ATOM      7  O   UNL     1      -9.883   5.431 -33.216  1.00  0.00    -0.545 OA
ENDBRANCH   4   5
ENDBRANCH   2   3
ENDBRANCH   1   2
BRANCH   1   8
ATOM      8  C   UNL     1     -10.975   1.282 -37.022  1.00  0.00     0.000 C 
BRANCH   8   9
ATOM      9  C   UNL     1      -9.581   0.652 -36.881  1.00  0.00    -0.000 C 
BRANCH   9  10
ATOM     10  C   UNL     1      -9.444  -0.659 -37.670  1.00  0.00    -0.003 C 
ATOM     11  C   UNL     1      -8.460  -0.503 -38.826  1.00  0.00     0.004 C 
ENDBRANCH   9  10
ENDBRANCH   8   9
ENDBRANCH   1   8
TORSDOF 6
ENDMDL
MODEL 6
REMARK VINA RESULT:    -3.875      1.458      2.225
REMARK INTER + INTRA:          -5.483
REMARK INTER:                  -5.129
REMARK INTRA:                  -0.355
REMARK UNBOUND:                -0.250
REMARK SMILES CCCCCCC=CC(=O)[O-]
REMARK SMILES IDX 5 1 6 2 7 3 8 4 9 5 10 6 11 7 4 8 3 9 2 10 1 11
REMARK H PARENT
REMARK Flexibility Score: inf
ROOT
ATOM      1  C   UNL     1      -8.439  -0.712 -38.695  1.00  0.00     0.004 C 
ENDROOT
BRANCH   1   2
ATOM      2  C   UNL     1      -8.341  -1.180 -40.156  1.00  0.00     0.027 C 
BRANCH   2   3
ATOM      3  C   UNL     1      -8.772  -2.614 -40.327  1.00  0.00    -0.025 C 
ATOM      4  C   UNL     1      -8.018  -3.700 -40.088  1.00  0.00     0.020 C 
BRANCH   4   5
ATOM      5  C   UNL     1      -6.604  -3.714 -39.657  1.00  0.00     0.064 C 
ATOM      6  O   UNL     1      -5.665  -3.412 -40.437  1.00  0.00    -0.545 OA
ATOM      7  O   UNL     1      -6.303  -4.103 -38.359  1.00  0.00    -0.545 OA
ENDBRANCH   4   5
ENDBRANCH   2   3
ENDBRANCH   1   2
BRANCH   1   8
ATOM      8  C   UNL     1      -9.660  -1.314 -37.977  1.00  0.00     0.000 C 
BRANCH   8   9
ATOM      9  C   UNL     1     -10.672  -0.246 -37.535  1.00  0.00    -0.000 C 
BRANCH   9  10
ATOM     10  C   UNL     1     -10.007   0.932 -36.808  1.00  0.00    -0.003 C 
ATOM     11  C   UNL     1     -11.044   1.781 -36.075  1.00  0.00     0.004 C 
ENDBRANCH   9  10
ENDBRANCH   8   9
ENDBRANCH   1   8
TORSDOF 6
ENDMDL
MODEL 7
REMARK VINA RESULT:    -3.848      4.667      6.762
REMARK INTER + INTRA:          -5.447
REMARK INTER:                  -5.220
REMARK INTRA:                  -0.227
REMARK UNBOUND:                -0.250
REMARK SMILES CCCCCCC=CC(=O)[O-]
REMARK SMILES IDX 5 1 6 2 7 3 8 4 9 5 10 6 11 7 4 8 3 9 2 10 1 11
REMARK H PARENT
REMARK Flexibility Score: inf
ROOT
ATOM      1  C   UNL     1     -11.793   2.275 -35.291  1.00  0.00     0.004 C 
ENDROOT
BRANCH   1   2
ATOM      2  C   UNL     1     -11.413   2.136 -36.774  1.00  0.00     0.027 C 
BRANCH   2   3
ATOM      3  C   UNL     1     -11.613   0.733 -37.287  1.00  0.00    -0.025 C 
ATOM      4  C   UNL     1     -10.640  -0.140 -37.598  1.00  0.00     0.020 C 
BRANCH   4   5
ATOM      5  C   UNL     1      -9.184   0.106 -37.549  1.00  0.00     0.064 C 
ATOM      6  O   UNL     1      -8.619   0.575 -36.527  1.00  0.00    -0.545 OA
ATOM      7  O   UNL     1      -8.421  -0.160 -38.678  1.00  0.00    -0.545 OA
ENDBRANCH   4   5
ENDBRANCH   2   3
ENDBRANCH   1   2
BRANCH   1   8
ATOM      8  C   UNL     1     -10.557   2.479 -34.396  1.00  0.00     0.000 C 
BRANCH   8   9
ATOM      9  C   UNL     1     -10.926   2.910 -32.968  1.00  0.00    -0.000 C 
BRANCH   9  10
ATOM     10  C   UNL     1      -9.940   3.936 -32.389  1.00  0.00    -0.003 C 
ATOM     11  C   UNL     1      -9.990   5.247 -33.171  1.00  0.00     0.004 C 
ENDBRANCH   9  10
ENDBRANCH   8   9
ENDBRANCH   1   8
TORSDOF 6
ENDMDL
MODEL 8
REMARK VINA RESULT:    -3.837     10.865     12.239
REMARK INTER + INTRA:          -5.433
REMARK INTER:                  -4.955
REMARK INTRA:                  -0.478
REMARK UNBOUND:                -0.250
REMARK SMILES CCCCCCC=CC(=O)[O-]
REMARK SMILES IDX 5 1 6 2 7 3 8 4 9 5 10 6 11 7 4 8 3 9 2 10 1 11
REMARK H PARENT
REMARK Flexibility Score: inf
ROOT
ATOM      1  C   UNL     1       5.006  -4.075 -39.546  1.00  0.00     0.004 C 
ENDROOT
BRANCH   1   2
ATOM      2  C   UNL     1       5.159  -5.282 -38.607  1.00  0.00     0.027 C 
BRANCH   2   3
ATOM      3  C   UNL     1       5.665  -4.886 -37.244  1.00  0.00    -0.025 C 
ATOM      4  C   UNL     1       5.170  -5.301 -36.066  1.00  0.00     0.020 C 
BRANCH   4   5
ATOM      5  C   UNL     1       4.004  -6.186 -35.861  1.00  0.00     0.064 C 
ATOM      6  O   UNL     1       2.903  -5.754 -35.431  1.00  0.00    -0.545 OA
ATOM      7  O   UNL     1       4.137  -7.543 -36.125  1.00  0.00    -0.545 OA
ENDBRANCH   4   5
ENDBRANCH   2   3
ENDBRANCH   1   2
BRANCH   1   8
ATOM      8  C   UNL     1       5.969  -2.932 -39.177  1.00  0.00     0.000 C 
BRANCH   8   9
ATOM      9  C   UNL     1       5.295  -1.552 -39.227  1.00  0.00    -0.000 C 
BRANCH   9  10
ATOM     10  C   UNL     1       3.774  -1.630 -39.028  1.00  0.00    -0.003 C 
ATOM     11  C   UNL     1       3.116  -0.277 -39.282  1.00  0.00     0.004 C 
ENDBRANCH   9  10
ENDBRANCH   8   9
ENDBRANCH   1   8
TORSDOF 6
ENDMDL
MODEL 9
REMARK VINA RESULT:    -3.760      5.986      9.407
REMARK INTER + INTRA:          -5.328
REMARK INTER:                  -5.042
REMARK INTRA:                  -0.286
REMARK UNBOUND:                -0.250
REMARK SMILES CCCCCCC=CC(=O)[O-]
REMARK SMILES IDX 5 1 6 2 7 3 8 4 9 5 10 6 11 7 4 8 3 9 2 10 1 11
REMARK H PARENT
REMARK Flexibility Score: inf
ROOT
ATOM      1  C   UNL     1     -10.546   2.089 -35.085  1.00  0.00     0.004 C 
ENDROOT
BRANCH   1   2
ATOM      2  C   UNL     1     -11.374   3.122 -34.305  1.00  0.00     0.027 C 
BRANCH   2   3
ATOM      3  C   UNL     1     -10.836   4.521 -34.460  1.00  0.00    -0.025 C 
ATOM      4  C   UNL     1     -10.222   5.242 -33.506  1.00  0.00     0.020 C 
BRANCH   4   5
ATOM      5  C   UNL     1      -9.992   4.836 -32.104  1.00  0.00     0.064 C 
ATOM      6  O   UNL     1      -9.074   4.038 -31.781  1.00  0.00    -0.545 OA
ATOM      7  O   UNL     1     -10.834   5.328 -31.116  1.00  0.00    -0.545 OA
ENDBRANCH   4   5
ENDBRANCH   2   3
ENDBRANCH   1   2
BRANCH   1   8
ATOM      8  C   UNL     1     -11.046   1.921 -36.531  1.00  0.00     0.000 C 
BRANCH   8   9
ATOM      9  C   UNL     1     -10.616   0.585 -37.154  1.00  0.00    -0.000 C 
BRANCH   9  10
ATOM     10  C   UNL     1      -9.093   0.387 -37.134  1.00  0.00    -0.003 C 
ATOM     11  C   UNL     1      -8.628  -0.425 -38.339  1.00  0.00     0.004 C 
ENDBRANCH   9  10
ENDBRANCH   8   9
ENDBRANCH   1   8
TORSDOF 6
ENDMDL
