MODEL 1
REMARK VINA RESULT:    -3.932      0.000      0.000
REMARK INTER + INTRA:          -5.840
REMARK INTER:                  -5.082
REMARK INTRA:                  -0.758
REMARK UNBOUND:                -0.758
REMARK SMILES CO[C@]1(CO)O[C@@H](CO)[C@@H](O)[C@H]1O
REMARK SMILES IDX 3 1 12 2 10 3 7 4 6 5 2 6 1 7 4 8 5 9 13 11 11 13 8 15 9 16
REMARK H PARENT 5 10 13 12 11 14 9 17
REMARK Flexibility Score: inf
ROOT
ATOM      1  C   UNL     1      21.941  36.392  51.368  1.00  0.00     0.221 C 
ATOM      2  C   UNL     1      23.042  37.466  51.564  1.00  0.00     0.207 C 
ATOM      3  C   UNL     1      24.258  36.867  50.899  1.00  0.00     0.180 C 
ATOM      4  C   UNL     1      23.972  35.378  51.046  1.00  0.00     0.179 C 
ATOM      5  O   UNL     1      22.578  35.187  50.957  1.00  0.00    -0.337 OA
ENDROOT
BRANCH   1   6
ATOM      6  O   UNL     1      21.267  36.241  52.617  1.00  0.00    -0.349 OA
ATOM      7  C   UNL     1      20.072  36.991  52.697  1.00  0.00     0.198 C 
ENDBRANCH   1   6
BRANCH   1   8
ATOM      8  C   UNL     1      20.908  36.791  50.287  1.00  0.00     0.224 C 
BRANCH   8   9
ATOM      9  O   UNL     1      21.551  37.130  49.088  1.00  0.00    -0.391 OA
ATOM     10  H   UNL     1      20.957  36.817  48.357  1.00  0.00     0.210 HD
ENDBRANCH   8   9
ENDBRANCH   1   8
BRANCH   2  11
ATOM     11  O   UNL     1      22.718  38.723  51.022  1.00  0.00    -0.385 OA
ATOM     12  H   UNL     1      22.948  38.680  50.057  1.00  0.00     0.211 HD
ENDBRANCH   2  11
BRANCH   3  13
ATOM     13  O   UNL     1      24.327  37.236  49.544  1.00  0.00    -0.387 OA
ATOM     14  H   UNL     1      24.683  36.450  49.051  1.00  0.00     0.211 HD
ENDBRANCH   3  13
BRANCH   4  15
ATOM     15  C   UNL     1      24.697  34.513  50.005  1.00  0.00     0.191 C 
BRANCH  15  16
ATOM     16  O   UNL     1      24.079  34.639  48.753  1.00  0.00    -0.394 OA
ATOM     17  H   UNL     1      23.243  35.156  48.896  1.00  0.00     0.210 HD
ENDBRANCH  15  16
ENDBRANCH   4  15
TORSDOF 7
ENDMDL
MODEL 2
REMARK VINA RESULT:    -3.825     17.600     18.642
REMARK INTER + INTRA:          -5.701
REMARK INTER:                  -4.921
REMARK INTRA:                  -0.780
REMARK UNBOUND:                -0.758
REMARK SMILES CO[C@]1(CO)O[C@@H](CO)[C@@H](O)[C@H]1O
REMARK SMILES IDX 3 1 12 2 10 3 7 4 6 5 2 6 1 7 4 8 5 9 13 11 11 13 8 15 9 16
REMARK H PARENT 5 10 13 12 11 14 9 17
REMARK Flexibility Score: inf
ROOT
ATOM      1  C   UNL     1      11.050  32.993  64.703  1.00  0.00     0.221 C 
ATOM      2  C   UNL     1      10.083  33.977  63.994  1.00  0.00     0.207 C 
ATOM      3  C   UNL     1       9.627  33.221  62.769  1.00  0.00     0.180 C 
ATOM      4  C   UNL     1      10.817  32.301  62.529  1.00  0.00     0.179 C 
ATOM      5  O   UNL     1      11.364  31.955  63.781  1.00  0.00    -0.337 OA
ENDROOT
BRANCH   1   6
ATOM      6  O   UNL     1      12.206  33.736  65.086  1.00  0.00    -0.349 OA
ATOM      7  C   UNL     1      12.350  34.947  64.372  1.00  0.00     0.198 C 
ENDBRANCH   1   6
BRANCH   1   8
ATOM      8  C   UNL     1      10.425  32.352  65.965  1.00  0.00     0.224 C 
BRANCH   8   9
ATOM      9  O   UNL     1       9.541  31.323  65.613  1.00  0.00    -0.391 OA
ATOM     10  H   UNL     1       9.712  30.581  66.249  1.00  0.00     0.210 HD
ENDBRANCH   8   9
ENDBRANCH   1   8
BRANCH   2  11
ATOM     11  O   UNL     1       8.997  34.384  64.790  1.00  0.00    -0.385 OA
ATOM     12  H   UNL     1       8.614  33.558  65.185  1.00  0.00     0.211 HD
ENDBRANCH   2  11
BRANCH   3  13
ATOM     13  O   UNL     1       8.462  32.480  63.038  1.00  0.00    -0.387 OA
ATOM     14  H   UNL     1       7.956  32.423  62.185  1.00  0.00     0.211 HD
ENDBRANCH   3  13
BRANCH   4  15
ATOM     15  C   UNL     1      10.458  31.037  61.735  1.00  0.00     0.191 C 
BRANCH  15  16
ATOM     16  O   UNL     1       9.735  30.146  62.540  1.00  0.00    -0.394 OA
ATOM     17  H   UNL     1       8.841  30.042  62.120  1.00  0.00     0.210 HD
ENDBRANCH  15  16
ENDBRANCH   4  15
TORSDOF 7
ENDMDL
MODEL 3
REMARK VINA RESULT:    -3.802     15.737     18.264
REMARK INTER + INTRA:          -5.672
REMARK INTER:                  -4.789
REMARK INTRA:                  -0.883
REMARK UNBOUND:                -0.758
REMARK SMILES CO[C@]1(CO)O[C@@H](CO)[C@@H](O)[C@H]1O
REMARK SMILES IDX 3 1 12 2 10 3 7 4 6 5 2 6 1 7 4 8 5 9 13 11 11 13 8 15 9 16
REMARK H PARENT 5 10 13 12 11 14 9 17
REMARK Flexibility Score: inf
ROOT
ATOM      1  C   UNL     1      12.268  32.602  63.710  1.00  0.00     0.221 C 
ATOM      2  C   UNL     1      11.596  33.995  63.837  1.00  0.00     0.207 C 
ATOM      3  C   UNL     1      10.119  33.695  63.757  1.00  0.00     0.180 C 
ATOM      4  C   UNL     1      10.120  32.417  62.929  1.00  0.00     0.179 C 
ATOM      5  O   UNL     1      11.280  31.685  63.253  1.00  0.00    -0.337 OA
ENDROOT
BRANCH   1   6
ATOM      6  O   UNL     1      13.346  32.733  62.785  1.00  0.00    -0.349 OA
ATOM      7  C   UNL     1      14.609  32.473  63.364  1.00  0.00     0.198 C 
ENDBRANCH   1   6
BRANCH   1   8
ATOM      8  C   UNL     1      12.824  32.087  65.059  1.00  0.00     0.224 C 
BRANCH   8   9
ATOM      9  O   UNL     1      11.781  31.694  65.908  1.00  0.00    -0.391 OA
ATOM     10  H   UNL     1      12.068  31.933  66.828  1.00  0.00     0.210 HD
ENDBRANCH   8   9
ENDBRANCH   1   8
BRANCH   2  11
ATOM     11  O   UNL     1      11.925  34.683  65.018  1.00  0.00    -0.385 OA
ATOM     12  H   UNL     1      12.915  34.656  65.093  1.00  0.00     0.211 HD
ENDBRANCH   2  11
BRANCH   3  13
ATOM     13  O   UNL     1       9.579  33.467  65.036  1.00  0.00    -0.387 OA
ATOM     14  H   UNL     1       8.643  33.165  64.901  1.00  0.00     0.211 HD
ENDBRANCH   3  13
BRANCH   4  15
ATOM     15  C   UNL     1       8.868  31.554  63.140  1.00  0.00     0.191 C 
BRANCH  15  16
ATOM     16  O   UNL     1       8.965  30.841  64.343  1.00  0.00    -0.394 OA
ATOM     17  H   UNL     1       9.813  31.124  64.776  1.00  0.00     0.210 HD
ENDBRANCH  15  16
ENDBRANCH   4  15
TORSDOF 7
ENDMDL
MODEL 4
REMARK VINA RESULT:    -3.649     14.173     15.809
REMARK INTER + INTRA:          -5.473
REMARK INTER:                  -4.911
REMARK INTRA:                  -0.563
REMARK UNBOUND:                -0.758
REMARK SMILES CO[C@]1(CO)O[C@@H](CO)[C@@H](O)[C@H]1O
REMARK SMILES IDX 3 1 12 2 10 3 7 4 6 5 2 6 1 7 4 8 5 9 13 11 11 13 8 15 9 16
REMARK H PARENT 5 10 13 12 11 14 9 17
REMARK Flexibility Score: inf
ROOT
ATOM      1  C   UNL     1      11.494  43.078  57.530  1.00  0.00     0.221 C 
ATOM      2  C   UNL     1      10.148  43.814  57.761  1.00  0.00     0.207 C 
ATOM      3  C   UNL     1       9.984  43.812  59.262  1.00  0.00     0.180 C 
ATOM      4  C   UNL     1      10.769  42.564  59.644  1.00  0.00     0.179 C 
ATOM      5  O   UNL     1      11.849  42.432  58.748  1.00  0.00    -0.337 OA
ENDROOT
BRANCH   1   6
ATOM      6  O   UNL     1      11.292  42.146  56.469  1.00  0.00    -0.349 OA
ATOM      7  C   UNL     1       9.927  41.918  56.182  1.00  0.00     0.198 C 
ENDBRANCH   1   6
BRANCH   1   8
ATOM      8  C   UNL     1      12.638  44.044  57.138  1.00  0.00     0.224 C 
BRANCH   8   9
ATOM      9  O   UNL     1      12.519  44.435  55.798  1.00  0.00    -0.391 OA
ATOM     10  H   UNL     1      11.584  44.750  55.684  1.00  0.00     0.210 HD
ENDBRANCH   8   9
ENDBRANCH   1   8
BRANCH   2  11
ATOM     11  O   UNL     1      10.111  45.117  57.234  1.00  0.00    -0.385 OA
ATOM     12  H   UNL     1       9.878  45.719  57.988  1.00  0.00     0.211 HD
ENDBRANCH   2  11
BRANCH   3  13
ATOM     13  O   UNL     1      10.557  44.963  59.833  1.00  0.00    -0.387 OA
ATOM     14  H   UNL     1      11.286  45.252  59.224  1.00  0.00     0.211 HD
ENDBRANCH   3  13
BRANCH   4  15
ATOM     15  C   UNL     1      11.276  42.584  61.093  1.00  0.00     0.191 C 
BRANCH  15  16
ATOM     16  O   UNL     1      12.479  43.299  61.177  1.00  0.00    -0.394 OA
ATOM     17  H   UNL     1      12.478  43.951  60.429  1.00  0.00     0.210 HD
ENDBRANCH  15  16
ENDBRANCH   4  15
TORSDOF 7
ENDMDL
MODEL 5
REMARK VINA RESULT:    -3.638      2.307      4.261
REMARK INTER + INTRA:          -5.459
REMARK INTER:                  -4.640
REMARK INTRA:                  -0.819
REMARK UNBOUND:                -0.758
REMARK SMILES CO[C@]1(CO)O[C@@H](CO)[C@@H](O)[C@H]1O
REMARK SMILES IDX 3 1 12 2 10 3 7 4 6 5 2 6 1 7 4 8 5 9 13 11 11 13 8 15 9 16
REMARK H PARENT 5 10 13 12 11 14 9 17
REMARK Flexibility Score: inf
ROOT
ATOM      1  C   UNL     1      25.337  34.382  51.472  1.00  0.00     0.221 C 
ATOM      2  C   UNL     1      23.950  33.807  51.859  1.00  0.00     0.207 C 
ATOM      3  C   UNL     1      22.970  34.721  51.163  1.00  0.00     0.180 C 
ATOM      4  C   UNL     1      23.772  36.013  51.089  1.00  0.00     0.179 C 
ATOM      5  O   UNL     1      25.131  35.678  50.921  1.00  0.00    -0.337 OA
ENDROOT
BRANCH   1   6
ATOM      6  O   UNL     1      26.125  34.426  52.661  1.00  0.00    -0.349 OA
ATOM      7  C   UNL     1      25.369  34.217  53.837  1.00  0.00     0.198 C 
ENDBRANCH   1   6
BRANCH   1   8
ATOM      8  C   UNL     1      26.067  33.515  50.419  1.00  0.00     0.224 C 
BRANCH   8   9
ATOM      9  O   UNL     1      25.532  33.730  49.142  1.00  0.00    -0.391 OA
ATOM     10  H   UNL     1      25.932  33.038  48.554  1.00  0.00     0.210 HD
ENDBRANCH   8   9
ENDBRANCH   1   8
BRANCH   2  11
ATOM     11  O   UNL     1      23.764  32.463  51.486  1.00  0.00    -0.385 OA
ATOM     12  H   UNL     1      23.741  31.939  52.329  1.00  0.00     0.211 HD
ENDBRANCH   2  11
BRANCH   3  13
ATOM     13  O   UNL     1      22.660  34.244  49.877  1.00  0.00    -0.387 OA
ATOM     14  H   UNL     1      21.785  34.643  49.627  1.00  0.00     0.211 HD
ENDBRANCH   3  13
BRANCH   4  15
ATOM     15  C   UNL     1      23.310  36.952  49.965  1.00  0.00     0.191 C 
BRANCH  15  16
ATOM     16  O   UNL     1      23.866  36.555  48.741  1.00  0.00    -0.394 OA
ATOM     17  H   UNL     1      23.303  35.813  48.397  1.00  0.00     0.210 HD
ENDBRANCH  15  16
ENDBRANCH   4  15
TORSDOF 7
ENDMDL
MODEL 6
REMARK VINA RESULT:    -3.626     13.973     15.424
REMARK INTER + INTRA:          -5.444
REMARK INTER:                  -4.551
REMARK INTRA:                  -0.893
REMARK UNBOUND:                -0.758
REMARK SMILES CO[C@]1(CO)O[C@@H](CO)[C@@H](O)[C@H]1O
REMARK SMILES IDX 3 1 12 2 10 3 7 4 6 5 2 6 1 7 4 8 5 9 13 11 11 13 8 15 9 16
REMARK H PARENT 5 10 13 12 11 14 9 17
REMARK Flexibility Score: inf
ROOT
ATOM      1  C   UNL     1      23.357  41.761  65.174  1.00  0.00     0.221 C 
ATOM      2  C   UNL     1      23.203  43.069  65.992  1.00  0.00     0.207 C 
ATOM      3  C   UNL     1      23.530  44.159  65.000  1.00  0.00     0.180 C 
ATOM      4  C   UNL     1      24.464  43.424  64.049  1.00  0.00     0.179 C 
ATOM      5  O   UNL     1      24.040  42.082  63.967  1.00  0.00    -0.337 OA
ENDROOT
BRANCH   1   6
ATOM      6  O   UNL     1      24.095  40.841  65.978  1.00  0.00    -0.349 OA
ATOM      7  C   UNL     1      23.329  39.728  66.394  1.00  0.00     0.198 C 
ENDBRANCH   1   6
BRANCH   1   8
ATOM      8  C   UNL     1      21.994  41.125  64.809  1.00  0.00     0.224 C 
BRANCH   8   9
ATOM      9  O   UNL     1      21.387  41.824  63.757  1.00  0.00    -0.391 OA
ATOM     10  H   UNL     1      21.856  42.697  63.698  1.00  0.00     0.210 HD
ENDBRANCH   8   9
ENDBRANCH   1   8
BRANCH   2  11
ATOM     11  O   UNL     1      21.926  43.243  66.556  1.00  0.00    -0.385 OA
ATOM     12  H   UNL     1      22.069  43.447  67.517  1.00  0.00     0.211 HD
ENDBRANCH   2  11
BRANCH   3  13
ATOM     13  O   UNL     1      22.372  44.599  64.332  1.00  0.00    -0.387 OA
ATOM     14  H   UNL     1      22.033  43.826  63.809  1.00  0.00     0.211 HD
ENDBRANCH   3  13
BRANCH   4  15
ATOM     15  C   UNL     1      24.523  44.051  62.649  1.00  0.00     0.191 C 
BRANCH  15  16
ATOM     16  O   UNL     1      23.406  43.664  61.895  1.00  0.00    -0.394 OA
ATOM     17  H   UNL     1      23.694  43.645  60.945  1.00  0.00     0.210 HD
ENDBRANCH  15  16
ENDBRANCH   4  15
TORSDOF 7
ENDMDL
MODEL 7
REMARK VINA RESULT:    -3.588     14.569     15.842
REMARK INTER + INTRA:          -5.395
REMARK INTER:                  -4.622
REMARK INTRA:                  -0.773
REMARK UNBOUND:                -0.758
REMARK SMILES CO[C@]1(CO)O[C@@H](CO)[C@@H](O)[C@H]1O
REMARK SMILES IDX 3 1 12 2 10 3 7 4 6 5 2 6 1 7 4 8 5 9 13 11 11 13 8 15 9 16
REMARK H PARENT 5 10 13 12 11 14 9 17
REMARK Flexibility Score: inf
ROOT
ATOM      1  C   UNL     1      23.735  42.356  65.310  1.00  0.00     0.221 C 
ATOM      2  C   UNL     1      22.887  41.902  64.093  1.00  0.00     0.207 C 
ATOM      3  C   UNL     1      22.239  40.621  64.558  1.00  0.00     0.180 C 
ATOM      4  C   UNL     1      23.253  40.131  65.583  1.00  0.00     0.179 C 
ATOM      5  O   UNL     1      23.822  41.257  66.211  1.00  0.00    -0.337 OA
ENDROOT
BRANCH   1   6
ATOM      6  O   UNL     1      25.015  42.745  64.814  1.00  0.00    -0.349 OA
ATOM      7  C   UNL     1      25.292  44.118  65.006  1.00  0.00     0.198 C 
ENDBRANCH   1   6
BRANCH   1   8
ATOM      8  C   UNL     1      23.103  43.553  66.060  1.00  0.00     0.224 C 
BRANCH   8   9
ATOM      9  O   UNL     1      21.878  43.188  66.634  1.00  0.00    -0.391 OA
ATOM     10  H   UNL     1      21.675  42.276  66.298  1.00  0.00     0.210 HD
ENDBRANCH   8   9
ENDBRANCH   1   8
BRANCH   2  11
ATOM     11  O   UNL     1      21.932  42.848  63.677  1.00  0.00    -0.385 OA
ATOM     12  H   UNL     1      22.403  43.721  63.632  1.00  0.00     0.211 HD
ENDBRANCH   2  11
BRANCH   3  13
ATOM     13  O   UNL     1      20.993  40.874  65.161  1.00  0.00    -0.387 OA
ATOM     14  H   UNL     1      20.972  40.348  66.004  1.00  0.00     0.211 HD
ENDBRANCH   3  13
BRANCH   4  15
ATOM     15  C   UNL     1      22.651  39.183  66.630  1.00  0.00     0.191 C 
BRANCH  15  16
ATOM     16  O   UNL     1      21.839  38.224  66.008  1.00  0.00    -0.394 OA
ATOM     17  H   UNL     1      21.970  38.329  65.030  1.00  0.00     0.210 HD
ENDBRANCH  15  16
ENDBRANCH   4  15
TORSDOF 7
ENDMDL
MODEL 8
REMARK VINA RESULT:    -3.583     16.112     18.155
REMARK INTER + INTRA:          -5.388
REMARK INTER:                  -4.632
REMARK INTRA:                  -0.757
REMARK UNBOUND:                -0.758
REMARK SMILES CO[C@]1(CO)O[C@@H](CO)[C@@H](O)[C@H]1O
REMARK SMILES IDX 3 1 12 2 10 3 7 4 6 5 2 6 1 7 4 8 5 9 13 11 11 13 8 15 9 16
REMARK H PARENT 5 10 13 12 11 14 9 17
REMARK Flexibility Score: inf
ROOT
ATOM      1  C   UNL     1      10.223  32.667  63.760  1.00  0.00     0.221 C 
ATOM      2  C   UNL     1      10.638  32.177  65.172  1.00  0.00     0.207 C 
ATOM      3  C   UNL     1      12.140  32.332  65.185  1.00  0.00     0.180 C 
ATOM      4  C   UNL     1      12.465  32.188  63.704  1.00  0.00     0.179 C 
ATOM      5  O   UNL     1      11.401  32.743  62.964  1.00  0.00    -0.337 OA
ENDROOT
BRANCH   1   6
ATOM      6  O   UNL     1       9.288  31.723  63.241  1.00  0.00    -0.349 OA
ATOM      7  C   UNL     1       8.378  32.292  62.320  1.00  0.00     0.198 C 
ENDBRANCH   1   6
BRANCH   1   8
ATOM      8  C   UNL     1       9.562  34.065  63.788  1.00  0.00     0.224 C 
BRANCH   8   9
ATOM      9  O   UNL     1      10.516  35.060  64.041  1.00  0.00    -0.391 OA
ATOM     10  H   UNL     1      11.214  34.637  64.605  1.00  0.00     0.210 HD
ENDBRANCH   8   9
ENDBRANCH   1   8
BRANCH   2  11
ATOM     11  O   UNL     1      10.032  32.886  66.224  1.00  0.00    -0.385 OA
ATOM     12  H   UNL     1       9.966  33.830  65.925  1.00  0.00     0.211 HD
ENDBRANCH   2  11
BRANCH   3  13
ATOM     13  O   UNL     1      12.513  33.602  65.662  1.00  0.00    -0.387 OA
ATOM     14  H   UNL     1      13.451  33.523  65.979  1.00  0.00     0.211 HD
ENDBRANCH   3  13
BRANCH   4  15
ATOM     15  C   UNL     1      13.793  32.847  63.305  1.00  0.00     0.191 C 
BRANCH  15  16
ATOM     16  O   UNL     1      14.795  32.519  64.230  1.00  0.00    -0.394 OA
ATOM     17  H   UNL     1      14.782  33.224  64.929  1.00  0.00     0.210 HD
ENDBRANCH  15  16
ENDBRANCH   4  15
TORSDOF 7
ENDMDL
MODEL 9
REMARK VINA RESULT:    -3.580      1.888      4.051
REMARK INTER + INTRA:          -5.384
REMARK INTER:                  -4.849
REMARK INTRA:                  -0.535
REMARK UNBOUND:                -0.758
REMARK SMILES CO[C@]1(CO)O[C@@H](CO)[C@@H](O)[C@H]1O
REMARK SMILES IDX 3 1 12 2 10 3 7 4 6 5 2 6 1 7 4 8 5 9 13 11 11 13 8 15 9 16
REMARK H PARENT 5 10 13 12 11 14 9 17
REMARK Flexibility Score: inf
ROOT
ATOM      1  C   UNL     1      24.402  34.474  51.187  1.00  0.00     0.221 C 
ATOM      2  C   UNL     1      23.590  34.860  49.923  1.00  0.00     0.207 C 
ATOM      3  C   UNL     1      23.286  36.326  50.119  1.00  0.00     0.180 C 
ATOM      4  C   UNL     1      23.292  36.429  51.639  1.00  0.00     0.179 C 
ATOM      5  O   UNL     1      24.251  35.524  52.137  1.00  0.00    -0.337 OA
ENDROOT
BRANCH   1   6
ATOM      6  O   UNL     1      23.876  33.238  51.669  1.00  0.00    -0.349 OA
ATOM      7  C   UNL     1      24.145  33.016  53.039  1.00  0.00     0.198 C 
ENDBRANCH   1   6
BRANCH   1   8
ATOM      8  C   UNL     1      25.910  34.297  50.892  1.00  0.00     0.224 C 
BRANCH   8   9
ATOM      9  O   UNL     1      26.125  33.196  50.052  1.00  0.00    -0.391 OA
ATOM     10  H   UNL     1      27.096  32.996  50.100  1.00  0.00     0.210 HD
ENDBRANCH   8   9
ENDBRANCH   1   8
BRANCH   2  11
ATOM     11  O   UNL     1      24.268  34.625  48.714  1.00  0.00    -0.385 OA
ATOM     12  H   UNL     1      24.259  35.483  48.216  1.00  0.00     0.211 HD
ENDBRANCH   2  11
BRANCH   3  13
ATOM     13  O   UNL     1      24.292  37.130  49.555  1.00  0.00    -0.387 OA
ATOM     14  H   UNL     1      24.455  36.784  48.638  1.00  0.00     0.211 HD
ENDBRANCH   3  13
BRANCH   4  15
ATOM     15  C   UNL     1      23.580  37.848  52.151  1.00  0.00     0.191 C 
BRANCH  15  16
ATOM     16  O   UNL     1      22.812  38.785  51.445  1.00  0.00    -0.394 OA
ATOM     17  H   UNL     1      21.973  38.326  51.180  1.00  0.00     0.210 HD
ENDBRANCH  15  16
ENDBRANCH   4  15
TORSDOF 7
ENDMDL
