MODEL 1
REMARK VINA RESULT:    -4.249      0.000      0.000
REMARK INTER + INTRA:          -6.460
REMARK INTER:                  -6.485
REMARK INTRA:                   0.025
REMARK UNBOUND:                 0.025
REMARK SMILES CC1=CCC[C@@H](C)C(=O)C[C@@H](C(C)C)C(=O)C1
REMARK SMILES IDX 8 1 9 2 6 3 7 4 5 5 4 6 3 7 2 8 1 9 10 11 11 12 15 13 16 14
REMARK SMILES IDX 17 15 12 17 13 18 14 19
REMARK H PARENT
REMARK Flexibility Score: 70.00
ROOT
ATOM      1  C   UNL     1      13.369  19.094  57.884  1.00  0.00     0.136 C 
ATOM      2  O   UNL     1      13.281  18.638  59.014  1.00  0.00    -0.299 OA
ENDROOT
BRANCH   1   3
ATOM      3  C   UNL     1      14.612  18.834  57.060  1.00  0.00     0.053 C 
ATOM      4  C   UNL     1      15.677  19.881  57.400  1.00  0.00     0.016 C 
BRANCH   3   5
ATOM      5  C   UNL     1      14.321  18.843  55.542  1.00  0.00     0.015 C 
BRANCH   5   6
ATOM      6  C   UNL     1      13.719  17.526  55.032  1.00  0.00     0.028 C 
BRANCH   6   7
ATOM      7  C   UNL     1      12.923  17.743  53.767  1.00  0.00    -0.028 C 
ATOM      8  C   UNL     1      11.574  17.772  53.668  1.00  0.00    -0.070 CG0
ATOM      9  C   UNL     1      10.975  17.978  52.299  1.00  0.00     0.039 C 
ATOM     10  G   UNL     1      10.633  17.591  54.846  1.00  0.00     0.000 G0
ENDBRANCH   6   7
ENDBRANCH   5   6
ENDBRANCH   3   5
ENDBRANCH   1   3
BRANCH   1  11
ATOM     11  C   UNL     1      12.188  19.813  57.281  1.00  0.00     0.087 C 
BRANCH  11  12
ATOM     12  C   UNL     1      10.911  18.943  57.163  1.00  0.00     0.066 C 
BRANCH  12  13
ATOM     13  C   UNL     1      10.508  18.824  55.693  1.00  0.00     0.140 C 
ATOM     14  O   UNL     1      10.066  19.825  55.147  1.00  0.00    -0.299 OA
BRANCH  13  15
ATOM     15  C   UNL     1      10.649  17.569  54.856  1.00  0.00     0.106 CG0
ATOM     16  G   UNL     1      11.577  17.789  53.673  1.00  0.00     0.000 G0
ENDBRANCH  13  15
ENDBRANCH  12  13
BRANCH  12  17
ATOM     17  C   UNL     1       9.763  19.325  58.156  1.00  0.00    -0.006 C 
ATOM     18  C   UNL     1       9.790  20.823  58.520  1.00  0.00     0.008 C 
ATOM     19  C   UNL     1       9.868  18.519  59.467  1.00  0.00     0.008 C 
ENDBRANCH  12  17
ENDBRANCH  11  12
ENDBRANCH   1  11
TORSDOF 1
ENDMDL
MODEL 2
REMARK VINA RESULT:    -3.993      1.748      2.317
REMARK INTER + INTRA:          -6.069
REMARK INTER:                  -5.951
REMARK INTRA:                  -0.117
REMARK UNBOUND:                 0.025
REMARK SMILES CC1=CCC[C@@H](C)C(=O)C[C@@H](C(C)C)C(=O)C1
REMARK SMILES IDX 8 1 9 2 6 3 7 4 5 5 4 6 3 7 2 8 1 9 10 11 11 12 15 13 16 14
REMARK SMILES IDX 17 15 12 17 13 18 14 19
REMARK H PARENT
REMARK Flexibility Score: 70.00
ROOT
ATOM      1  C   UNL     1      12.948  18.750  55.918  1.00  0.00     0.136 C 
ATOM      2  O   UNL     1      13.373  18.922  57.051  1.00  0.00    -0.299 OA
ENDROOT
BRANCH   1   3
ATOM      3  C   UNL     1      13.819  18.076  54.879  1.00  0.00     0.053 C 
ATOM      4  C   UNL     1      13.921  18.973  53.641  1.00  0.00     0.016 C 
BRANCH   3   5
ATOM      5  C   UNL     1      13.285  16.680  54.484  1.00  0.00     0.015 C 
BRANCH   5   6
ATOM      6  C   UNL     1      12.289  16.720  53.317  1.00  0.00     0.028 C 
BRANCH   6   7
ATOM      7  C   UNL     1      11.134  15.776  53.552  1.00  0.00    -0.028 C 
ATOM      8  C   UNL     1       9.884  16.122  53.936  1.00  0.00    -0.070 CG0
ATOM      9  C   UNL     1       8.880  15.016  54.140  1.00  0.00     0.039 C 
ATOM     10  G   UNL     1       9.442  17.552  54.193  1.00  0.00     0.000 G0
ENDBRANCH   6   7
ENDBRANCH   5   6
ENDBRANCH   3   5
ENDBRANCH   1   3
BRANCH   1  11
ATOM     11  C   UNL     1      11.516  19.107  55.602  1.00  0.00     0.087 C 
BRANCH  11  12
ATOM     12  C   UNL     1      10.477  18.442  56.540  1.00  0.00     0.066 C 
BRANCH  12  13
ATOM     13  C   UNL     1       9.345  17.845  55.704  1.00  0.00     0.140 C 
ATOM     14  O   UNL     1       8.285  17.616  56.271  1.00  0.00    -0.299 OA
BRANCH  13  15
ATOM     15  C   UNL     1       9.428  17.548  54.220  1.00  0.00     0.106 CG0
ATOM     16  G   UNL     1       9.899  16.127  53.962  1.00  0.00     0.000 G0
ENDBRANCH  13  15
ENDBRANCH  12  13
BRANCH  12  17
ATOM     17  C   UNL     1      10.036  19.320  57.758  1.00  0.00    -0.006 C 
ATOM     18  C   UNL     1      10.449  20.796  57.584  1.00  0.00     0.008 C 
ATOM     19  C   UNL     1      10.661  18.808  59.071  1.00  0.00     0.008 C 
ENDBRANCH  12  17
ENDBRANCH  11  12
ENDBRANCH   1  11
TORSDOF 1
ENDMDL
MODEL 3
REMARK VINA RESULT:    -3.921      2.994      5.915
REMARK INTER + INTRA:          -5.960
REMARK INTER:                  -5.667
REMARK INTRA:                  -0.292
REMARK UNBOUND:                 0.025
REMARK SMILES CC1=CCC[C@@H](C)C(=O)C[C@@H](C(C)C)C(=O)C1
REMARK SMILES IDX 8 1 9 2 6 3 7 4 5 5 4 6 3 7 2 8 1 9 10 11 11 12 15 13 16 14
REMARK SMILES IDX 17 15 12 17 13 18 14 19
REMARK H PARENT
REMARK Flexibility Score: 70.00
ROOT
ATOM      1  C   UNL     1       6.754  18.874  57.513  1.00  0.00     0.136 C 
ATOM      2  O   UNL     1       6.383  20.038  57.554  1.00  0.00    -0.299 OA
ENDROOT
BRANCH   1   3
ATOM      3  C   UNL     1       6.835  18.062  58.789  1.00  0.00     0.053 C 
ATOM      4  C   UNL     1       5.420  17.741  59.279  1.00  0.00     0.016 C 
BRANCH   3   5
ATOM      5  C   UNL     1       7.631  18.790  59.896  1.00  0.00     0.015 C 
BRANCH   5   6
ATOM      6  C   UNL     1       9.148  18.579  59.792  1.00  0.00     0.028 C 
BRANCH   6   7
ATOM      7  C   UNL     1       9.837  19.815  59.264  1.00  0.00    -0.028 C 
ATOM      8  C   UNL     1      10.486  19.925  58.083  1.00  0.00    -0.070 CG0
ATOM      9  C   UNL     1      11.131  21.248  57.757  1.00  0.00     0.039 C 
ATOM     10  G   UNL     1      10.620  18.792  57.080  1.00  0.00     0.000 G0
ENDBRANCH   6   7
ENDBRANCH   5   6
ENDBRANCH   3   5
ENDBRANCH   1   3
BRANCH   1  11
ATOM     11  C   UNL     1       7.014  18.226  56.175  1.00  0.00     0.087 C 
BRANCH  11  12
ATOM     12  C   UNL     1       8.432  17.617  56.034  1.00  0.00     0.066 C 
BRANCH  12  13
ATOM     13  C   UNL     1       9.475  18.733  56.087  1.00  0.00     0.140 C 
ATOM     14  O   UNL     1       9.349  19.660  55.300  1.00  0.00    -0.299 OA
BRANCH  13  15
ATOM     15  C   UNL     1      10.630  18.792  57.066  1.00  0.00     0.106 CG0
ATOM     16  G   UNL     1      10.452  19.916  58.072  1.00  0.00     0.000 G0
ENDBRANCH  13  15
ENDBRANCH  12  13
BRANCH  12  17
ATOM     17  C   UNL     1       8.590  16.590  54.863  1.00  0.00    -0.006 C 
ATOM     18  C   UNL     1       7.591  15.422  54.981  1.00  0.00     0.008 C 
ATOM     19  C   UNL     1      10.012  15.994  54.832  1.00  0.00     0.008 C 
ENDBRANCH  12  17
ENDBRANCH  11  12
ENDBRANCH   1  11
TORSDOF 1
ENDMDL
MODEL 4
REMARK VINA RESULT:    -3.826      3.696      4.650
REMARK INTER + INTRA:          -5.814
REMARK INTER:                  -5.361
REMARK INTRA:                  -0.453
REMARK UNBOUND:                 0.025
REMARK SMILES CC1=CCC[C@@H](C)C(=O)C[C@@H](C(C)C)C(=O)C1
REMARK SMILES IDX 8 1 9 2 6 3 7 4 5 5 4 6 3 7 2 8 1 9 10 11 11 12 15 13 16 14
REMARK SMILES IDX 17 15 12 17 13 18 14 19
REMARK H PARENT
REMARK Flexibility Score: 70.00
ROOT
ATOM      1  C   UNL     1       9.733  21.629  57.119  1.00  0.00     0.136 C 
ATOM      2  O   UNL     1      10.901  21.509  57.459  1.00  0.00    -0.299 OA
ENDROOT
BRANCH   1   3
ATOM      3  C   UNL     1       9.388  22.393  55.858  1.00  0.00     0.053 C 
ATOM      4  C   UNL     1       7.968  22.956  55.975  1.00  0.00     0.016 C 
BRANCH   3   5
ATOM      5  C   UNL     1       9.513  21.518  54.590  1.00  0.00     0.015 C 
BRANCH   5   6
ATOM      6  C   UNL     1       8.159  21.189  53.945  1.00  0.00     0.028 C 
BRANCH   6   7
ATOM      7  C   UNL     1       7.963  19.697  53.815  1.00  0.00    -0.028 C 
ATOM      8  C   UNL     1       7.365  18.888  54.719  1.00  0.00    -0.070 CG0
ATOM      9  C   UNL     1       7.294  17.415  54.405  1.00  0.00     0.039 C 
ATOM     10  G   UNL     1       6.779  19.372  56.034  1.00  0.00     0.000 G0
ENDBRANCH   6   7
ENDBRANCH   5   6
ENDBRANCH   3   5
ENDBRANCH   1   3
BRANCH   1  11
ATOM     11  C   UNL     1       8.657  20.914  57.898  1.00  0.00     0.087 C 
BRANCH  11  12
ATOM     12  C   UNL     1       8.764  19.369  57.852  1.00  0.00     0.066 C 
BRANCH  12  13
ATOM     13  C   UNL     1       7.490  18.787  57.240  1.00  0.00     0.140 C 
ATOM     14  O   UNL     1       7.006  17.800  57.776  1.00  0.00    -0.299 OA
BRANCH  13  15
ATOM     15  C   UNL     1       6.764  19.364  56.041  1.00  0.00     0.106 CG0
ATOM     16  G   UNL     1       7.395  18.909  54.736  1.00  0.00     0.000 G0
ENDBRANCH  13  15
ENDBRANCH  12  13
BRANCH  12  17
ATOM     17  C   UNL     1       9.246  18.705  59.185  1.00  0.00    -0.006 C 
ATOM     18  C   UNL     1       8.984  19.608  60.407  1.00  0.00     0.008 C 
ATOM     19  C   UNL     1      10.756  18.396  59.141  1.00  0.00     0.008 C 
ENDBRANCH  12  17
ENDBRANCH  11  12
ENDBRANCH   1  11
TORSDOF 1
ENDMDL
MODEL 5
REMARK VINA RESULT:    -3.817     10.387     12.143
REMARK INTER + INTRA:          -5.800
REMARK INTER:                  -5.846
REMARK INTRA:                   0.046
REMARK UNBOUND:                 0.025
REMARK SMILES CC1=CCC[C@@H](C)C(=O)C[C@@H](C(C)C)C(=O)C1
REMARK SMILES IDX 8 1 9 2 6 3 7 4 5 5 4 6 3 7 2 8 1 9 10 11 11 12 15 13 16 14
REMARK SMILES IDX 17 15 12 17 13 18 14 19
REMARK H PARENT
REMARK Flexibility Score: 70.00
ROOT
ATOM      1  C   UNL     1      18.021  11.999  52.527  1.00  0.00     0.136 C 
ATOM      2  O   UNL     1      17.219  12.376  53.369  1.00  0.00    -0.299 OA
ENDROOT
BRANCH   1   3
ATOM      3  C   UNL     1      19.189  12.883  52.148  1.00  0.00     0.053 C 
ATOM      4  C   UNL     1      18.917  13.530  50.786  1.00  0.00     0.016 C 
BRANCH   3   5
ATOM      5  C   UNL     1      20.525  12.106  52.111  1.00  0.00     0.015 C 
BRANCH   5   6
ATOM      6  C   UNL     1      20.811  11.331  53.405  1.00  0.00     0.028 C 
BRANCH   6   7
ATOM      7  C   UNL     1      21.518  10.028  53.117  1.00  0.00    -0.028 C 
ATOM      8  C   UNL     1      21.055   8.789  53.399  1.00  0.00    -0.070 CG0
ATOM      9  C   UNL     1      21.935   7.615  53.049  1.00  0.00     0.039 C 
ATOM     10  G   UNL     1      19.718   8.514  54.063  1.00  0.00     0.000 G0
ENDBRANCH   6   7
ENDBRANCH   5   6
ENDBRANCH   3   5
ENDBRANCH   1   3
BRANCH   1  11
ATOM     11  C   UNL     1      17.901  10.605  51.962  1.00  0.00     0.087 C 
BRANCH  11  12
ATOM     12  C   UNL     1      17.477   9.536  53.002  1.00  0.00     0.066 C 
BRANCH  12  13
ATOM     13  C   UNL     1      18.566   8.469  53.109  1.00  0.00     0.140 C 
ATOM     14  O   UNL     1      18.515   7.531  52.327  1.00  0.00    -0.299 OA
BRANCH  13  15
ATOM     15  C   UNL     1      19.721   8.506  54.090  1.00  0.00     0.106 CG0
ATOM     16  G   UNL     1      21.038   8.787  53.389  1.00  0.00     0.000 G0
ENDBRANCH  13  15
ENDBRANCH  12  13
BRANCH  12  17
ATOM     17  C   UNL     1      16.014   9.004  52.835  1.00  0.00    -0.006 C 
ATOM     18  C   UNL     1      15.139   9.970  52.011  1.00  0.00     0.008 C 
ATOM     19  C   UNL     1      15.334   8.804  54.204  1.00  0.00     0.008 C 
ENDBRANCH  12  17
ENDBRANCH  11  12
ENDBRANCH   1  11
TORSDOF 1
ENDMDL
MODEL 6
REMARK VINA RESULT:    -3.761      5.851      7.978
REMARK INTER + INTRA:          -5.715
REMARK INTER:                  -5.447
REMARK INTRA:                  -0.268
REMARK UNBOUND:                 0.025
REMARK SMILES CC1=CCC[C@@H](C)C(=O)C[C@@H](C(C)C)C(=O)C1
REMARK SMILES IDX 8 1 9 2 6 3 7 4 5 5 4 6 3 7 2 8 1 9 10 11 11 12 15 13 16 14
REMARK SMILES IDX 17 15 12 17 13 18 14 19
REMARK H PARENT
REMARK Flexibility Score: 70.00
ROOT
ATOM      1  C   UNL     1       8.016  24.638  55.306  1.00  0.00     0.136 C 
ATOM      2  O   UNL     1       8.831  24.366  54.437  1.00  0.00    -0.299 OA
ENDROOT
BRANCH   1   3
ATOM      3  C   UNL     1       7.275  25.957  55.260  1.00  0.00     0.053 C 
ATOM      4  C   UNL     1       6.784  26.315  56.666  1.00  0.00     0.016 C 
BRANCH   3   5
ATOM      5  C   UNL     1       6.088  25.929  54.271  1.00  0.00     0.015 C 
BRANCH   5   6
ATOM      6  C   UNL     1       4.817  25.306  54.867  1.00  0.00     0.028 C 
BRANCH   6   7
ATOM      7  C   UNL     1       4.423  24.052  54.125  1.00  0.00    -0.028 C 
ATOM      8  C   UNL     1       4.465  22.790  54.610  1.00  0.00    -0.070 CG0
ATOM      9  C   UNL     1       4.048  21.670  53.690  1.00  0.00     0.039 C 
ATOM     10  G   UNL     1       4.923  22.436  56.013  1.00  0.00     0.000 G0
ENDBRANCH   6   7
ENDBRANCH   5   6
ENDBRANCH   3   5
ENDBRANCH   1   3
BRANCH   1  11
ATOM     11  C   UNL     1       7.672  23.603  56.349  1.00  0.00     0.087 C 
BRANCH  11  12
ATOM     12  C   UNL     1       7.595  22.155  55.801  1.00  0.00     0.066 C 
BRANCH  12  13
ATOM     13  C   UNL     1       6.189  21.598  56.026  1.00  0.00     0.140 C 
ATOM     14  O   UNL     1       6.086  20.400  56.248  1.00  0.00    -0.299 OA
BRANCH  13  15
ATOM     15  C   UNL     1       4.920  22.427  56.028  1.00  0.00     0.106 CG0
ATOM     16  G   UNL     1       4.491  22.791  54.617  1.00  0.00     0.000 G0
ENDBRANCH  13  15
ENDBRANCH  12  13
BRANCH  12  17
ATOM     17  C   UNL     1       8.776  21.225  56.240  1.00  0.00    -0.006 C 
ATOM     18  C   UNL     1       9.183  21.465  57.708  1.00  0.00     0.008 C 
ATOM     19  C   UNL     1      10.022  21.452  55.361  1.00  0.00     0.008 C 
ENDBRANCH  12  17
ENDBRANCH  11  12
ENDBRANCH   1  11
TORSDOF 1
ENDMDL
MODEL 7
REMARK VINA RESULT:    -3.672      6.523      8.733
REMARK INTER + INTRA:          -5.579
REMARK INTER:                  -5.229
REMARK INTRA:                  -0.350
REMARK UNBOUND:                 0.025
REMARK SMILES CC1=CCC[C@@H](C)C(=O)C[C@@H](C(C)C)C(=O)C1
REMARK SMILES IDX 8 1 9 2 6 3 7 4 5 5 4 6 3 7 2 8 1 9 10 11 11 12 15 13 16 14
REMARK SMILES IDX 17 15 12 17 13 18 14 19
REMARK H PARENT
REMARK Flexibility Score: 70.00
ROOT
ATOM      1  C   UNL     1       4.856  25.427  54.041  1.00  0.00     0.136 C 
ATOM      2  O   UNL     1       4.544  26.491  53.525  1.00  0.00    -0.299 OA
ENDROOT
BRANCH   1   3
ATOM      3  C   UNL     1       5.234  25.382  55.506  1.00  0.00     0.053 C 
ATOM      4  C   UNL     1       4.085  25.949  56.346  1.00  0.00     0.016 C 
BRANCH   3   5
ATOM      5  C   UNL     1       6.540  26.154  55.798  1.00  0.00     0.015 C 
BRANCH   5   6
ATOM      6  C   UNL     1       7.790  25.473  55.224  1.00  0.00     0.028 C 
BRANCH   6   7
ATOM      7  C   UNL     1       8.021  24.125  55.866  1.00  0.00    -0.028 C 
ATOM      8  C   UNL     1       8.048  22.932  55.230  1.00  0.00    -0.070 CG0
ATOM      9  C   UNL     1       8.271  21.696  56.066  1.00  0.00     0.039 C 
ATOM     10  G   UNL     1       7.849  22.763  53.734  1.00  0.00     0.000 G0
ENDBRANCH   6   7
ENDBRANCH   5   6
ENDBRANCH   3   5
ENDBRANCH   1   3
BRANCH   1  11
ATOM     11  C   UNL     1       4.747  24.154  53.238  1.00  0.00     0.087 C 
BRANCH  11  12
ATOM     12  C   UNL     1       5.180  22.882  54.009  1.00  0.00     0.066 C 
BRANCH  12  13
ATOM     13  C   UNL     1       6.450  22.311  53.379  1.00  0.00     0.140 C 
ATOM     14  O   UNL     1       6.315  21.457  52.513  1.00  0.00    -0.299 OA
BRANCH  13  15
ATOM     15  C   UNL     1       7.859  22.749  53.722  1.00  0.00     0.106 CG0
ATOM     16  G   UNL     1       8.037  22.930  55.219  1.00  0.00     0.000 G0
ENDBRANCH  13  15
ENDBRANCH  12  13
BRANCH  12  17
ATOM     17  C   UNL     1       4.029  21.855  54.277  1.00  0.00    -0.006 C 
ATOM     18  C   UNL     1       2.831  22.507  54.997  1.00  0.00     0.008 C 
ATOM     19  C   UNL     1       4.521  20.681  55.148  1.00  0.00     0.008 C 
ENDBRANCH  12  17
ENDBRANCH  11  12
ENDBRANCH   1  11
TORSDOF 1
ENDMDL
MODEL 8
REMARK VINA RESULT:    -3.670      2.272      5.746
REMARK INTER + INTRA:          -5.575
REMARK INTER:                  -5.115
REMARK INTRA:                  -0.461
REMARK UNBOUND:                 0.025
REMARK SMILES CC1=CCC[C@@H](C)C(=O)C[C@@H](C(C)C)C(=O)C1
REMARK SMILES IDX 8 1 9 2 6 3 7 4 5 5 4 6 3 7 2 8 1 9 10 11 11 12 15 13 16 14
REMARK SMILES IDX 17 15 12 17 13 18 14 19
REMARK H PARENT
REMARK Flexibility Score: 70.00
ROOT
ATOM      1  C   UNL     1       9.069  17.492  53.633  1.00  0.00     0.136 C 
ATOM      2  O   UNL     1       8.292  17.545  52.690  1.00  0.00    -0.299 OA
ENDROOT
BRANCH   1   3
ATOM      3  C   UNL     1       8.726  16.655  54.847  1.00  0.00     0.053 C 
ATOM      4  C   UNL     1       8.353  15.238  54.400  1.00  0.00     0.016 C 
BRANCH   3   5
ATOM      5  C   UNL     1       7.578  17.271  55.678  1.00  0.00     0.015 C 
BRANCH   5   6
ATOM      6  C   UNL     1       7.928  18.643  56.272  1.00  0.00     0.028 C 
BRANCH   6   7
ATOM      7  C   UNL     1       8.901  18.510  57.418  1.00  0.00    -0.028 C 
ATOM      8  C   UNL     1      10.214  18.835  57.394  1.00  0.00    -0.070 CG0
ATOM      9  C   UNL     1      11.019  18.600  58.647  1.00  0.00     0.039 C 
ATOM     10  G   UNL     1      10.924  19.403  56.177  1.00  0.00     0.000 G0
ENDBRANCH   6   7
ENDBRANCH   5   6
ENDBRANCH   3   5
ENDBRANCH   1   3
BRANCH   1  11
ATOM     11  C   UNL     1      10.413  18.168  53.524  1.00  0.00     0.087 C 
BRANCH  11  12
ATOM     12  C   UNL     1      11.525  17.504  54.374  1.00  0.00     0.066 C 
BRANCH  12  13
ATOM     13  C   UNL     1      11.886  18.418  55.545  1.00  0.00     0.140 C 
ATOM     14  O   UNL     1      13.029  18.358  55.976  1.00  0.00    -0.299 OA
BRANCH  13  15
ATOM     15  C   UNL     1      10.943  19.416  56.187  1.00  0.00     0.106 CG0
ATOM     16  G   UNL     1      10.227  18.815  57.384  1.00  0.00     0.000 G0
ENDBRANCH  13  15
ENDBRANCH  12  13
BRANCH  12  17
ATOM     17  C   UNL     1      12.732  16.941  53.551  1.00  0.00    -0.006 C 
ATOM     18  C   UNL     1      13.200  17.930  52.464  1.00  0.00     0.008 C 
ATOM     19  C   UNL     1      12.362  15.616  52.855  1.00  0.00     0.008 C 
ENDBRANCH  12  17
ENDBRANCH  11  12
ENDBRANCH   1  11
TORSDOF 1
ENDMDL
MODEL 9
REMARK VINA RESULT:    -3.652      6.436      8.260
REMARK INTER + INTRA:          -5.549
REMARK INTER:                  -4.975
REMARK INTRA:                  -0.574
REMARK UNBOUND:                 0.025
REMARK SMILES CC1=CCC[C@@H](C)C(=O)C[C@@H](C(C)C)C(=O)C1
REMARK SMILES IDX 8 1 9 2 6 3 7 4 5 5 4 6 3 7 2 8 1 9 10 11 11 12 15 13 16 14
REMARK SMILES IDX 17 15 12 17 13 18 14 19
REMARK H PARENT
REMARK Flexibility Score: 70.00
ROOT
ATOM      1  C   UNL     1       5.748  23.742  55.104  1.00  0.00     0.136 C 
ATOM      2  O   UNL     1       4.933  23.949  55.992  1.00  0.00    -0.299 OA
ENDROOT
BRANCH   1   3
ATOM      3  C   UNL     1       6.095  24.844  54.125  1.00  0.00     0.053 C 
ATOM      4  C   UNL     1       6.369  26.140  54.895  1.00  0.00     0.016 C 
BRANCH   3   5
ATOM      5  C   UNL     1       4.980  25.071  53.079  1.00  0.00     0.015 C 
BRANCH   5   6
ATOM      6  C   UNL     1       5.199  24.285  51.779  1.00  0.00     0.028 C 
BRANCH   6   7
ATOM      7  C   UNL     1       4.360  23.029  51.751  1.00  0.00    -0.028 C 
ATOM      8  C   UNL     1       4.822  21.761  51.660  1.00  0.00    -0.070 CG0
ATOM      9  C   UNL     1       3.809  20.645  51.623  1.00  0.00     0.039 C 
ATOM     10  G   UNL     1       6.295  21.400  51.574  1.00  0.00     0.000 G0
ENDBRANCH   6   7
ENDBRANCH   5   6
ENDBRANCH   3   5
ENDBRANCH   1   3
BRANCH   1  11
ATOM     11  C   UNL     1       6.483  22.425  55.066  1.00  0.00     0.087 C 
BRANCH  11  12
ATOM     12  C   UNL     1       7.441  22.271  53.858  1.00  0.00     0.066 C 
BRANCH  12  13
ATOM     13  C   UNL     1       6.926  21.164  52.937  1.00  0.00     0.140 C 
ATOM     14  O   UNL     1       6.991  20.014  53.347  1.00  0.00    -0.299 OA
BRANCH  13  15
ATOM     15  C   UNL     1       6.310  21.392  51.571  1.00  0.00     0.106 CG0
ATOM     16  G   UNL     1       4.840  21.759  51.677  1.00  0.00     0.000 G0
ENDBRANCH  13  15
ENDBRANCH  12  13
BRANCH  12  17
ATOM     17  C   UNL     1       8.960  22.197  54.230  1.00  0.00    -0.006 C 
ATOM     18  C   UNL     1       9.177  22.123  55.755  1.00  0.00     0.008 C 
ATOM     19  C   UNL     1       9.724  23.428  53.704  1.00  0.00     0.008 C 
ENDBRANCH  12  17
ENDBRANCH  11  12
ENDBRANCH   1  11
TORSDOF 1
ENDMDL
