MODEL 1
REMARK VINA RESULT:    -5.813      0.000      0.000
REMARK INTER + INTRA:          -6.400
REMARK INTER:                  -6.323
REMARK INTRA:                  -0.077
REMARK UNBOUND:                -0.077
REMARK SMILES Cc1ccc(C(C)C)c(O)c1
REMARK SMILES IDX 1 1 2 2 11 3 9 4 5 5 4 6 3 7 10 8 6 10 7 11 8 12
REMARK H PARENT 10 9
REMARK Flexibility Score: inf
ROOT
ATOM      1  C   UNL     1       1.936  28.134  78.293  1.00  0.00     0.044 C 
ATOM      2  C   UNL     1       1.827  29.616  78.090  1.00  0.00    -0.047 A 
ATOM      3  C   UNL     1       1.407  30.132  76.859  1.00  0.00     0.049 A 
ATOM      4  C   UNL     1       1.325  31.514  76.647  1.00  0.00     0.119 A 
ATOM      5  C   UNL     1       1.738  32.414  77.667  1.00  0.00    -0.004 A 
ATOM      6  C   UNL     1       2.131  31.877  78.912  1.00  0.00     0.008 A 
ATOM      7  C   UNL     1       2.191  30.498  79.114  1.00  0.00     0.004 A 
ENDROOT
BRANCH   4   8
ATOM      8  O   UNL     1       0.812  31.944  75.419  1.00  0.00    -0.508 OA
ATOM      9  H   UNL     1       1.333  31.940  74.555  1.00  0.00     0.293 HD
ENDBRANCH   4   8
BRANCH   5  10
ATOM     10  C   UNL     1       1.698  33.926  77.462  1.00  0.00     0.017 C 
ATOM     11  C   UNL     1       0.249  34.420  77.455  1.00  0.00     0.012 C 
ATOM     12  C   UNL     1       2.533  34.704  78.493  1.00  0.00     0.012 C 
ENDBRANCH   5  10
TORSDOF 2
ENDMDL
MODEL 2
REMARK VINA RESULT:    -5.592      2.585      5.621
REMARK INTER + INTRA:          -6.159
REMARK INTER:                  -5.967
REMARK INTRA:                  -0.192
REMARK UNBOUND:                -0.077
REMARK SMILES Cc1ccc(C(C)C)c(O)c1
REMARK SMILES IDX 1 1 2 2 11 3 9 4 5 5 4 6 3 7 10 8 6 10 7 11 8 12
REMARK H PARENT 10 9
REMARK Flexibility Score: inf
ROOT
ATOM      1  C   UNL     1       2.123  32.110  78.518  1.00  0.00     0.044 C 
ATOM      2  C   UNL     1       2.349  30.668  78.864  1.00  0.00    -0.047 A 
ATOM      3  C   UNL     1       3.281  29.908  78.150  1.00  0.00     0.049 A 
ATOM      4  C   UNL     1       3.485  28.554  78.446  1.00  0.00     0.119 A 
ATOM      5  C   UNL     1       2.689  27.917  79.437  1.00  0.00    -0.004 A 
ATOM      6  C   UNL     1       1.775  28.706  80.168  1.00  0.00     0.008 A 
ATOM      7  C   UNL     1       1.596  30.058  79.873  1.00  0.00     0.004 A 
ENDROOT
BRANCH   4   8
ATOM      8  O   UNL     1       4.497  27.891  77.745  1.00  0.00    -0.508 OA
ATOM      9  H   UNL     1       4.560  27.857  76.738  1.00  0.00     0.293 HD
ENDBRANCH   4   8
BRANCH   5  10
ATOM     10  C   UNL     1       2.856  26.435  79.763  1.00  0.00     0.017 C 
ATOM     11  C   UNL     1       2.572  26.185  81.246  1.00  0.00     0.012 C 
ATOM     12  C   UNL     1       1.995  25.515  78.882  1.00  0.00     0.012 C 
ENDBRANCH   5  10
TORSDOF 2
ENDMDL
MODEL 3
REMARK VINA RESULT:    -5.550      3.354      6.274
REMARK INTER + INTRA:          -6.113
REMARK INTER:                  -5.922
REMARK INTRA:                  -0.191
REMARK UNBOUND:                -0.077
REMARK SMILES Cc1ccc(C(C)C)c(O)c1
REMARK SMILES IDX 1 1 2 2 11 3 9 4 5 5 4 6 3 7 10 8 6 10 7 11 8 12
REMARK H PARENT 10 9
REMARK Flexibility Score: inf
ROOT
ATOM      1  C   UNL     1       1.928  30.927  77.940  1.00  0.00     0.044 C 
ATOM      2  C   UNL     1       1.964  29.676  78.766  1.00  0.00    -0.047 A 
ATOM      3  C   UNL     1       1.718  29.732  80.142  1.00  0.00     0.049 A 
ATOM      4  C   UNL     1       1.773  28.576  80.932  1.00  0.00     0.119 A 
ATOM      5  C   UNL     1       2.151  27.336  80.349  1.00  0.00    -0.004 A 
ATOM      6  C   UNL     1       2.367  27.293  78.954  1.00  0.00     0.008 A 
ATOM      7  C   UNL     1       2.291  28.450  78.178  1.00  0.00     0.004 A 
ENDROOT
BRANCH   4   8
ATOM      8  O   UNL     1       1.428  28.705  82.281  1.00  0.00    -0.508 OA
ATOM      9  H   UNL     1       0.510  28.967  82.608  1.00  0.00     0.293 HD
ENDBRANCH   4   8
BRANCH   5  10
ATOM     10  C   UNL     1       2.257  26.062  81.182  1.00  0.00     0.017 C 
ATOM     11  C   UNL     1       1.802  24.853  80.360  1.00  0.00     0.012 C 
ATOM     12  C   UNL     1       3.663  25.827  81.761  1.00  0.00     0.012 C 
ENDBRANCH   5  10
TORSDOF 2
ENDMDL
MODEL 4
REMARK VINA RESULT:    -5.466      2.883      4.760
REMARK INTER + INTRA:          -6.022
REMARK INTER:                  -5.831
REMARK INTRA:                  -0.191
REMARK UNBOUND:                -0.077
REMARK SMILES Cc1ccc(C(C)C)c(O)c1
REMARK SMILES IDX 1 1 2 2 11 3 9 4 5 5 4 6 3 7 10 8 6 10 7 11 8 12
REMARK H PARENT 10 9
REMARK Flexibility Score: inf
ROOT
ATOM      1  C   UNL     1       1.006  29.862  81.757  1.00  0.00     0.044 C 
ATOM      2  C   UNL     1       1.691  29.444  80.490  1.00  0.00    -0.047 A 
ATOM      3  C   UNL     1       1.991  30.391  79.504  1.00  0.00     0.049 A 
ATOM      4  C   UNL     1       2.607  30.011  78.305  1.00  0.00     0.119 A 
ATOM      5  C   UNL     1       2.873  28.639  78.046  1.00  0.00    -0.004 A 
ATOM      6  C   UNL     1       2.591  27.702  79.064  1.00  0.00     0.008 A 
ATOM      7  C   UNL     1       1.993  28.098  80.261  1.00  0.00     0.004 A 
ENDROOT
BRANCH   4   8
ATOM      8  O   UNL     1       2.952  31.031  77.412  1.00  0.00    -0.508 OA
ATOM      9  H   UNL     1       2.382  31.845  77.234  1.00  0.00     0.293 HD
ENDBRANCH   4   8
BRANCH   5  10
ATOM     10  C   UNL     1       3.511  28.182  76.737  1.00  0.00     0.017 C 
ATOM     11  C   UNL     1       4.329  26.908  76.964  1.00  0.00     0.012 C 
ATOM     12  C   UNL     1       2.494  27.980  75.601  1.00  0.00     0.012 C 
ENDBRANCH   5  10
TORSDOF 2
ENDMDL
MODEL 5
REMARK VINA RESULT:    -5.464      5.861      8.052
REMARK INTER + INTRA:          -6.020
REMARK INTER:                  -5.829
REMARK INTRA:                  -0.191
REMARK UNBOUND:                -0.077
REMARK SMILES Cc1ccc(C(C)C)c(O)c1
REMARK SMILES IDX 1 1 2 2 11 3 9 4 5 5 4 6 3 7 10 8 6 10 7 11 8 12
REMARK H PARENT 10 9
REMARK Flexibility Score: inf
ROOT
ATOM      1  C   UNL     1       8.027  25.373  82.286  1.00  0.00     0.044 C 
ATOM      2  C   UNL     1       6.676  25.374  81.634  1.00  0.00    -0.047 A 
ATOM      3  C   UNL     1       6.562  25.509  80.246  1.00  0.00     0.049 A 
ATOM      4  C   UNL     1       5.306  25.537  79.626  1.00  0.00     0.119 A 
ATOM      5  C   UNL     1       4.124  25.497  80.414  1.00  0.00    -0.004 A 
ATOM      6  C   UNL     1       4.258  25.330  81.810  1.00  0.00     0.008 A 
ATOM      7  C   UNL     1       5.516  25.287  82.411  1.00  0.00     0.004 A 
ENDROOT
BRANCH   4   8
ATOM      8  O   UNL     1       5.284  25.586  78.228  1.00  0.00    -0.508 OA
ATOM      9  H   UNL     1       4.810  24.912  77.645  1.00  0.00     0.293 HD
ENDBRANCH   4   8
BRANCH   5  10
ATOM     10  C   UNL     1       2.738  25.561  79.778  1.00  0.00     0.017 C 
ATOM     11  C   UNL     1       1.761  24.671  80.551  1.00  0.00     0.012 C 
ATOM     12  C   UNL     1       2.189  26.992  79.654  1.00  0.00     0.012 C 
ENDBRANCH   5  10
TORSDOF 2
ENDMDL
MODEL 6
REMARK VINA RESULT:    -5.412      1.921      4.251
REMARK INTER + INTRA:          -5.963
REMARK INTER:                  -5.803
REMARK INTRA:                  -0.161
REMARK UNBOUND:                -0.077
REMARK SMILES Cc1ccc(C(C)C)c(O)c1
REMARK SMILES IDX 1 1 2 2 11 3 9 4 5 5 4 6 3 7 10 8 6 10 7 11 8 12
REMARK H PARENT 10 9
REMARK Flexibility Score: inf
ROOT
ATOM      1  C   UNL     1      -0.170  33.613  76.318  1.00  0.00     0.044 C 
ATOM      2  C   UNL     1       0.382  32.617  77.295  1.00  0.00    -0.047 A 
ATOM      3  C   UNL     1       1.642  32.046  77.084  1.00  0.00     0.049 A 
ATOM      4  C   UNL     1       2.159  31.096  77.974  1.00  0.00     0.119 A 
ATOM      5  C   UNL     1       1.375  30.649  79.071  1.00  0.00    -0.004 A 
ATOM      6  C   UNL     1       0.119  31.258  79.285  1.00  0.00     0.008 A 
ATOM      7  C   UNL     1      -0.376  32.216  78.399  1.00  0.00     0.004 A 
ENDROOT
BRANCH   4   8
ATOM      8  O   UNL     1       3.461  30.640  77.738  1.00  0.00    -0.508 OA
ATOM      9  H   UNL     1       4.007  30.116  78.405  1.00  0.00     0.293 HD
ENDBRANCH   4   8
BRANCH   5  10
ATOM     10  C   UNL     1       1.889  29.590  80.042  1.00  0.00     0.017 C 
ATOM     11  C   UNL     1       1.115  29.661  81.361  1.00  0.00     0.012 C 
ATOM     12  C   UNL     1       1.852  28.164  79.466  1.00  0.00     0.012 C 
ENDBRANCH   5  10
TORSDOF 2
ENDMDL
MODEL 7
REMARK VINA RESULT:    -5.370      7.153      8.435
REMARK INTER + INTRA:          -5.918
REMARK INTER:                  -5.736
REMARK INTRA:                  -0.182
REMARK UNBOUND:                -0.077
REMARK SMILES Cc1ccc(C(C)C)c(O)c1
REMARK SMILES IDX 1 1 2 2 11 3 9 4 5 5 4 6 3 7 10 8 6 10 7 11 8 12
REMARK H PARENT 10 9
REMARK Flexibility Score: inf
ROOT
ATOM      1  C   UNL     1       5.994  25.390  82.586  1.00  0.00     0.044 C 
ATOM      2  C   UNL     1       4.842  25.054  81.688  1.00  0.00    -0.047 A 
ATOM      3  C   UNL     1       4.984  24.086  80.688  1.00  0.00     0.049 A 
ATOM      4  C   UNL     1       3.924  23.780  79.825  1.00  0.00     0.119 A 
ATOM      5  C   UNL     1       2.705  24.505  79.913  1.00  0.00    -0.004 A 
ATOM      6  C   UNL     1       2.568  25.457  80.948  1.00  0.00     0.008 A 
ATOM      7  C   UNL     1       3.628  25.738  81.810  1.00  0.00     0.004 A 
ENDROOT
BRANCH   4   8
ATOM      8  O   UNL     1       4.122  22.739  78.912  1.00  0.00    -0.508 OA
ATOM      9  H   UNL     1       4.762  22.784  78.132  1.00  0.00     0.293 HD
ENDBRANCH   4   8
BRANCH   5  10
ATOM     10  C   UNL     1       1.539  24.225  78.969  1.00  0.00     0.017 C 
ATOM     11  C   UNL     1       0.298  23.816  79.767  1.00  0.00     0.012 C 
ATOM     12  C   UNL     1       1.219  25.400  78.030  1.00  0.00     0.012 C 
ENDBRANCH   5  10
TORSDOF 2
ENDMDL
MODEL 8
REMARK VINA RESULT:    -5.370      1.155      4.084
REMARK INTER + INTRA:          -5.917
REMARK INTER:                  -5.730
REMARK INTRA:                  -0.187
REMARK UNBOUND:                -0.077
REMARK SMILES Cc1ccc(C(C)C)c(O)c1
REMARK SMILES IDX 1 1 2 2 11 3 9 4 5 5 4 6 3 7 10 8 6 10 7 11 8 12
REMARK H PARENT 10 9
REMARK Flexibility Score: inf
ROOT
ATOM      1  C   UNL     1       0.680  34.707  77.391  1.00  0.00     0.044 C 
ATOM      2  C   UNL     1       1.164  33.290  77.463  1.00  0.00    -0.047 A 
ATOM      3  C   UNL     1       0.765  32.358  76.498  1.00  0.00     0.049 A 
ATOM      4  C   UNL     1       1.189  31.025  76.566  1.00  0.00     0.119 A 
ATOM      5  C   UNL     1       1.977  30.586  77.664  1.00  0.00    -0.004 A 
ATOM      6  C   UNL     1       2.395  31.546  78.612  1.00  0.00     0.008 A 
ATOM      7  C   UNL     1       1.979  32.874  78.521  1.00  0.00     0.004 A 
ENDROOT
BRANCH   4   8
ATOM      8  O   UNL     1       0.817  30.181  75.515  1.00  0.00    -0.508 OA
ATOM      9  H   UNL     1       0.162  29.417  75.605  1.00  0.00     0.293 HD
ENDBRANCH   4   8
BRANCH   5  10
ATOM     10  C   UNL     1       2.428  29.133  77.793  1.00  0.00     0.017 C 
ATOM     11  C   UNL     1       3.903  29.001  77.403  1.00  0.00     0.012 C 
ATOM     12  C   UNL     1       2.180  28.539  79.190  1.00  0.00     0.012 C 
ENDBRANCH   5  10
TORSDOF 2
ENDMDL
MODEL 9
REMARK VINA RESULT:    -5.356      2.992      3.939
REMARK INTER + INTRA:          -5.902
REMARK INTER:                  -5.758
REMARK INTRA:                  -0.144
REMARK UNBOUND:                -0.077
REMARK SMILES Cc1ccc(C(C)C)c(O)c1
REMARK SMILES IDX 1 1 2 2 11 3 9 4 5 5 4 6 3 7 10 8 6 10 7 11 8 12
REMARK H PARENT 10 9
REMARK Flexibility Score: inf
ROOT
ATOM      1  C   UNL     1       4.489  26.019  77.138  1.00  0.00     0.044 C 
ATOM      2  C   UNL     1       3.721  27.096  77.844  1.00  0.00    -0.047 A 
ATOM      3  C   UNL     1       3.850  28.432  77.447  1.00  0.00     0.049 A 
ATOM      4  C   UNL     1       3.159  29.452  78.113  1.00  0.00     0.119 A 
ATOM      5  C   UNL     1       2.366  29.145  79.252  1.00  0.00    -0.004 A 
ATOM      6  C   UNL     1       2.223  27.789  79.620  1.00  0.00     0.008 A 
ATOM      7  C   UNL     1       2.905  26.783  78.936  1.00  0.00     0.004 A 
ENDROOT
BRANCH   4   8
ATOM      8  O   UNL     1       3.276  30.746  77.597  1.00  0.00    -0.508 OA
ATOM      9  H   UNL     1       2.950  31.023  76.683  1.00  0.00     0.293 HD
ENDBRANCH   4   8
BRANCH   5  10
ATOM     10  C   UNL     1       1.626  30.233  80.026  1.00  0.00     0.017 C 
ATOM     11  C   UNL     1       0.350  30.635  79.282  1.00  0.00     0.012 C 
ATOM     12  C   UNL     1       1.309  29.840  81.478  1.00  0.00     0.012 C 
ENDBRANCH   5  10
TORSDOF 2
ENDMDL
