MODEL 1
REMARK VINA RESULT:    -3.809      0.000      0.000
REMARK INTER + INTRA:          -4.345
REMARK INTER:                  -4.144
REMARK INTRA:                  -0.202
REMARK UNBOUND:                -0.202
REMARK SMILES C=C(C)[C@H]1CC=C(C)[C@H](O)C1
REMARK SMILES IDX 8 1 7 2 6 3 5 4 4 5 11 6 9 7 10 8 2 10 1 11 3 12
REMARK H PARENT 10 9
REMARK Flexibility Score: inf
ROOT
ATOM      1  C   UNL     1       2.161   0.786  -3.371  1.00  0.00     0.042 C 
ATOM      2  C   UNL     1       1.471   1.929  -4.062  1.00  0.00    -0.049 C 
ATOM      3  C   UNL     1       0.128   1.996  -4.069  1.00  0.00    -0.025 C 
ATOM      4  C   UNL     1      -0.568   3.134  -4.767  1.00  0.00     0.035 C 
ATOM      5  C   UNL     1       0.089   3.491  -6.132  1.00  0.00     0.021 C 
ATOM      6  C   UNL     1       1.614   3.166  -6.212  1.00  0.00     0.044 C 
ATOM      7  C   UNL     1       2.261   2.967  -4.831  1.00  0.00     0.140 C 
ENDROOT
BRANCH   7   8
ATOM      8  O   UNL     1       2.270   4.184  -4.133  1.00  0.00    -0.389 OA
ATOM      9  H   UNL     1       2.936   4.089  -3.403  1.00  0.00     0.211 HD
ENDBRANCH   7   8
BRANCH   5  10
ATOM     10  C   UNL     1      -0.666   2.862  -7.294  1.00  0.00    -0.077 C 
ATOM     11  C   UNL     1      -0.010   2.255  -8.298  1.00  0.00     0.008 C 
ATOM     12  C   UNL     1      -2.171   2.899  -7.288  1.00  0.00     0.039 C 
ENDBRANCH   5  10
TORSDOF 2
ENDMDL
MODEL 2
REMARK VINA RESULT:    -3.696      2.271      4.019
REMARK INTER + INTRA:          -4.222
REMARK INTER:                  -4.035
REMARK INTRA:                  -0.187
REMARK UNBOUND:                -0.202
REMARK SMILES C=C(C)[C@H]1CC=C(C)[C@H](O)C1
REMARK SMILES IDX 8 1 7 2 6 3 5 4 4 5 11 6 9 7 10 8 2 10 1 11 3 12
REMARK H PARENT 10 9
REMARK Flexibility Score: inf
ROOT
ATOM      1  C   UNL     1      -3.214   4.963  -4.479  1.00  0.00     0.042 C 
ATOM      2  C   UNL     1      -2.306   3.831  -4.873  1.00  0.00    -0.049 C 
ATOM      3  C   UNL     1      -1.303   3.461  -4.057  1.00  0.00    -0.025 C 
ATOM      4  C   UNL     1      -0.385   2.335  -4.451  1.00  0.00     0.035 C 
ATOM      5  C   UNL     1       0.010   2.382  -5.955  1.00  0.00     0.021 C 
ATOM      6  C   UNL     1      -1.056   3.056  -6.875  1.00  0.00     0.044 C 
ATOM      7  C   UNL     1      -2.444   3.153  -6.220  1.00  0.00     0.140 C 
ENDROOT
BRANCH   7   8
ATOM      8  O   UNL     1      -2.982   1.867  -6.062  1.00  0.00    -0.389 OA
ATOM      9  H   UNL     1      -2.773   1.367  -6.893  1.00  0.00     0.211 HD
ENDBRANCH   7   8
BRANCH   5  10
ATOM     10  C   UNL     1       1.380   3.016  -6.150  1.00  0.00    -0.077 C 
ATOM     11  C   UNL     1       1.713   3.600  -7.314  1.00  0.00     0.008 C 
ATOM     12  C   UNL     1       2.354   3.008  -5.002  1.00  0.00     0.039 C 
ENDBRANCH   5  10
TORSDOF 2
ENDMDL
MODEL 3
REMARK VINA RESULT:    -3.634      2.596      4.053
REMARK INTER + INTRA:          -4.155
REMARK INTER:                  -3.936
REMARK INTRA:                  -0.219
REMARK UNBOUND:                -0.202
REMARK SMILES C=C(C)[C@H]1CC=C(C)[C@H](O)C1
REMARK SMILES IDX 8 1 7 2 6 3 5 4 4 5 11 6 9 7 10 8 2 10 1 11 3 12
REMARK H PARENT 10 9
REMARK Flexibility Score: inf
ROOT
ATOM      1  C   UNL     1       0.717   2.805  -7.214  1.00  0.00     0.042 C 
ATOM      2  C   UNL     1      -0.481   2.850  -6.307  1.00  0.00    -0.049 C 
ATOM      3  C   UNL     1      -1.690   3.160  -6.808  1.00  0.00    -0.025 C 
ATOM      4  C   UNL     1      -2.891   3.215  -5.902  1.00  0.00     0.035 C 
ATOM      5  C   UNL     1      -2.581   3.891  -4.536  1.00  0.00     0.021 C 
ATOM      6  C   UNL     1      -1.096   3.752  -4.076  1.00  0.00     0.044 C 
ATOM      7  C   UNL     1      -0.338   2.636  -4.815  1.00  0.00     0.140 C 
ENDROOT
BRANCH   7   8
ATOM      8  O   UNL     1      -0.864   1.387  -4.451  1.00  0.00    -0.389 OA
ATOM      9  H   UNL     1      -0.809   0.810  -5.257  1.00  0.00     0.211 HD
ENDBRANCH   7   8
BRANCH   5  10
ATOM     10  C   UNL     1      -3.023   5.348  -4.524  1.00  0.00    -0.077 C 
ATOM     11  C   UNL     1      -4.266   5.692  -4.145  1.00  0.00     0.008 C 
ATOM     12  C   UNL     1      -2.031   6.411  -4.916  1.00  0.00     0.039 C 
ENDBRANCH   5  10
TORSDOF 2
ENDMDL
MODEL 4
REMARK VINA RESULT:    -3.364      1.700      3.045
REMARK INTER + INTRA:          -3.861
REMARK INTER:                  -3.803
REMARK INTRA:                  -0.057
REMARK UNBOUND:                -0.202
REMARK SMILES C=C(C)[C@H]1CC=C(C)[C@H](O)C1
REMARK SMILES IDX 8 1 7 2 6 3 5 4 4 5 11 6 9 7 10 8 2 10 1 11 3 12
REMARK H PARENT 10 9
REMARK Flexibility Score: inf
ROOT
ATOM      1  C   UNL     1       2.082   3.792  -7.564  1.00  0.00     0.042 C 
ATOM      2  C   UNL     1       1.289   3.588  -6.303  1.00  0.00    -0.049 C 
ATOM      3  C   UNL     1       0.454   2.539  -6.199  1.00  0.00    -0.025 C 
ATOM      4  C   UNL     1      -0.349   2.335  -4.941  1.00  0.00     0.035 C 
ATOM      5  C   UNL     1      -0.930   3.664  -4.380  1.00  0.00     0.021 C 
ATOM      6  C   UNL     1      -0.087   4.929  -4.729  1.00  0.00     0.044 C 
ATOM      7  C   UNL     1       1.347   4.594  -5.174  1.00  0.00     0.140 C 
ENDROOT
BRANCH   7   8
ATOM      8  O   UNL     1       2.067   4.067  -4.090  1.00  0.00    -0.389 OA
ATOM      9  H   UNL     1       1.545   4.277  -3.273  1.00  0.00     0.211 HD
ENDBRANCH   7   8
BRANCH   5  10
ATOM     10  C   UNL     1      -2.386   3.849  -4.785  1.00  0.00    -0.077 C 
ATOM     11  C   UNL     1      -3.160   4.771  -4.187  1.00  0.00     0.008 C 
ATOM     12  C   UNL     1      -2.945   2.999  -5.896  1.00  0.00     0.039 C 
ENDBRANCH   5  10
TORSDOF 2
ENDMDL
MODEL 5
REMARK VINA RESULT:    -3.356      1.918      3.242
REMARK INTER + INTRA:          -3.852
REMARK INTER:                  -3.715
REMARK INTRA:                  -0.137
REMARK UNBOUND:                -0.202
REMARK SMILES C=C(C)[C@H]1CC=C(C)[C@H](O)C1
REMARK SMILES IDX 8 1 7 2 6 3 5 4 4 5 11 6 9 7 10 8 2 10 1 11 3 12
REMARK H PARENT 10 9
REMARK Flexibility Score: inf
ROOT
ATOM      1  C   UNL     1      -0.572   6.312  -4.133  1.00  0.00     0.042 C 
ATOM      2  C   UNL     1      -0.107   4.946  -4.552  1.00  0.00    -0.049 C 
ATOM      3  C   UNL     1       1.128   4.784  -5.057  1.00  0.00    -0.025 C 
ATOM      4  C   UNL     1       1.596   3.418  -5.487  1.00  0.00     0.035 C 
ATOM      5  C   UNL     1       0.495   2.618  -6.241  1.00  0.00     0.021 C 
ATOM      6  C   UNL     1      -0.963   2.998  -5.836  1.00  0.00     0.044 C 
ATOM      7  C   UNL     1      -1.039   3.753  -4.498  1.00  0.00     0.140 C 
ENDROOT
BRANCH   7   8
ATOM      8  O   UNL     1      -0.670   2.896  -3.450  1.00  0.00    -0.389 OA
ATOM      9  H   UNL     1      -0.658   1.978  -3.824  1.00  0.00     0.211 HD
ENDBRANCH   7   8
BRANCH   5  10
ATOM     10  C   UNL     1       0.683   2.703  -7.750  1.00  0.00    -0.077 C 
ATOM     11  C   UNL     1      -0.231   2.187  -8.591  1.00  0.00     0.008 C 
ATOM     12  C   UNL     1       1.899   3.404  -8.293  1.00  0.00     0.039 C 
ENDBRANCH   5  10
TORSDOF 2
ENDMDL
MODEL 6
REMARK VINA RESULT:    -3.352      1.958      4.162
REMARK INTER + INTRA:          -3.848
REMARK INTER:                  -3.656
REMARK INTRA:                  -0.192
REMARK UNBOUND:                -0.202
REMARK SMILES C=C(C)[C@H]1CC=C(C)[C@H](O)C1
REMARK SMILES IDX 8 1 7 2 6 3 5 4 4 5 11 6 9 7 10 8 2 10 1 11 3 12
REMARK H PARENT 10 9
REMARK Flexibility Score: inf
ROOT
ATOM      1  C   UNL     1      -0.769   6.098  -6.657  1.00  0.00     0.042 C 
ATOM      2  C   UNL     1      -0.699   4.712  -6.079  1.00  0.00    -0.049 C 
ATOM      3  C   UNL     1      -0.619   4.543  -4.748  1.00  0.00    -0.025 C 
ATOM      4  C   UNL     1      -0.540   3.157  -4.165  1.00  0.00     0.035 C 
ATOM      5  C   UNL     1       0.397   2.218  -4.978  1.00  0.00     0.021 C 
ATOM      6  C   UNL     1       0.507   2.580  -6.492  1.00  0.00     0.044 C 
ATOM      7  C   UNL     1      -0.629   3.495  -6.978  1.00  0.00     0.140 C 
ENDROOT
BRANCH   7   8
ATOM      8  O   UNL     1      -1.846   2.796  -6.944  1.00  0.00    -0.389 OA
ATOM      9  H   UNL     1      -2.452   3.309  -6.349  1.00  0.00     0.211 HD
ENDBRANCH   7   8
BRANCH   5  10
ATOM     10  C   UNL     1       1.774   2.118  -4.337  1.00  0.00    -0.077 C 
ATOM     11  C   UNL     1       2.719   3.043  -4.579  1.00  0.00     0.008 C 
ATOM     12  C   UNL     1       2.057   0.977  -3.397  1.00  0.00     0.039 C 
ENDBRANCH   5  10
TORSDOF 2
ENDMDL
MODEL 7
REMARK VINA RESULT:    -3.303     12.518     14.004
REMARK INTER + INTRA:          -3.795
REMARK INTER:                  -3.635
REMARK INTRA:                  -0.160
REMARK UNBOUND:                -0.202
REMARK SMILES C=C(C)[C@H]1CC=C(C)[C@H](O)C1
REMARK SMILES IDX 8 1 7 2 6 3 5 4 4 5 11 6 9 7 10 8 2 10 1 11 3 12
REMARK H PARENT 10 9
REMARK Flexibility Score: inf
ROOT
ATOM      1  C   UNL     1      -3.259  -1.462   7.597  1.00  0.00     0.042 C 
ATOM      2  C   UNL     1      -2.121  -0.506   7.370  1.00  0.00    -0.049 C 
ATOM      3  C   UNL     1      -0.987  -0.633   8.080  1.00  0.00    -0.025 C 
ATOM      4  C   UNL     1       0.152   0.327   7.862  1.00  0.00     0.035 C 
ATOM      5  C   UNL     1      -0.327   1.798   7.695  1.00  0.00     0.021 C 
ATOM      6  C   UNL     1      -1.765   1.938   7.105  1.00  0.00     0.044 C 
ATOM      7  C   UNL     1      -2.260   0.658   6.411  1.00  0.00     0.140 C 
ENDROOT
BRANCH   7   8
ATOM      8  O   UNL     1      -1.502   0.426   5.253  1.00  0.00    -0.389 OA
ATOM      9  H   UNL     1      -2.148   0.339   4.504  1.00  0.00     0.211 HD
ENDBRANCH   7   8
BRANCH   5  10
ATOM     10  C   UNL     1      -0.191   2.577   8.995  1.00  0.00    -0.077 C 
ATOM     11  C   UNL     1       0.741   3.537   9.132  1.00  0.00     0.008 C 
ATOM     12  C   UNL     1      -1.140   2.279  10.125  1.00  0.00     0.039 C 
ENDBRANCH   5  10
TORSDOF 2
ENDMDL
MODEL 8
REMARK VINA RESULT:    -3.265     13.018     14.222
REMARK INTER + INTRA:          -3.753
REMARK INTER:                  -3.540
REMARK INTRA:                  -0.213
REMARK UNBOUND:                -0.202
REMARK SMILES C=C(C)[C@H]1CC=C(C)[C@H](O)C1
REMARK SMILES IDX 8 1 7 2 6 3 5 4 4 5 11 6 9 7 10 8 2 10 1 11 3 12
REMARK H PARENT 10 9
REMARK Flexibility Score: inf
ROOT
ATOM      1  C   UNL     1       0.668  -0.031   9.557  1.00  0.00     0.042 C 
ATOM      2  C   UNL     1      -0.259   1.072   9.126  1.00  0.00    -0.049 C 
ATOM      3  C   UNL     1      -1.262   1.458   9.933  1.00  0.00    -0.025 C 
ATOM      4  C   UNL     1      -2.199   2.556   9.502  1.00  0.00     0.035 C 
ATOM      5  C   UNL     1      -2.600   2.446   8.003  1.00  0.00     0.021 C 
ATOM      6  C   UNL     1      -1.530   1.753   7.103  1.00  0.00     0.044 C 
ATOM      7  C   UNL     1      -0.137   1.701   7.754  1.00  0.00     0.140 C 
ENDROOT
BRANCH   7   8
ATOM      8  O   UNL     1       0.384   3.000   7.860  1.00  0.00    -0.389 OA
ATOM      9  H   UNL     1       1.118   2.958   8.526  1.00  0.00     0.211 HD
ENDBRANCH   7   8
BRANCH   5  10
ATOM     10  C   UNL     1      -3.962   1.786   7.840  1.00  0.00    -0.077 C 
ATOM     11  C   UNL     1      -5.083   2.523   7.755  1.00  0.00     0.008 C 
ATOM     12  C   UNL     1      -4.036   0.285   7.742  1.00  0.00     0.039 C 
ENDBRANCH   5  10
TORSDOF 2
ENDMDL
MODEL 9
REMARK VINA RESULT:    -3.204      2.215      3.171
REMARK INTER + INTRA:          -3.686
REMARK INTER:                  -3.473
REMARK INTRA:                  -0.214
REMARK UNBOUND:                -0.202
REMARK SMILES C=C(C)[C@H]1CC=C(C)[C@H](O)C1
REMARK SMILES IDX 8 1 7 2 6 3 5 4 4 5 11 6 9 7 10 8 2 10 1 11 3 12
REMARK H PARENT 10 9
REMARK Flexibility Score: inf
ROOT
ATOM      1  C   UNL     1       1.693   1.450  -3.722  1.00  0.00     0.042 C 
ATOM      2  C   UNL     1       0.746   2.225  -4.595  1.00  0.00    -0.049 C 
ATOM      3  C   UNL     1       1.151   2.663  -5.800  1.00  0.00    -0.025 C 
ATOM      4  C   UNL     1       0.209   3.448  -6.674  1.00  0.00     0.035 C 
ATOM      5  C   UNL     1      -0.627   4.487  -5.873  1.00  0.00     0.021 C 
ATOM      6  C   UNL     1      -0.876   4.095  -4.383  1.00  0.00     0.044 C 
ATOM      7  C   UNL     1      -0.637   2.601  -4.104  1.00  0.00     0.140 C 
ENDROOT
BRANCH   7   8
ATOM      8  O   UNL     1      -1.610   1.835  -4.763  1.00  0.00    -0.389 OA
ATOM      9  H   UNL     1      -2.489   2.239  -4.540  1.00  0.00     0.211 HD
ENDBRANCH   7   8
BRANCH   5  10
ATOM     10  C   UNL     1      -0.026   5.882  -5.977  1.00  0.00    -0.077 C 
ATOM     11  C   UNL     1      -0.034   6.553  -7.142  1.00  0.00     0.008 C 
ATOM     12  C   UNL     1       0.553   6.519  -4.742  1.00  0.00     0.039 C 
ENDBRANCH   5  10
TORSDOF 2
ENDMDL
