MODEL 1
REMARK VINA RESULT:    -8.582      0.000      0.000
REMARK INTER + INTRA:         -10.831
REMARK INTER:                 -10.588
REMARK INTRA:                  -0.243
REMARK UNBOUND:                -0.243
REMARK SMILES O=c1c(O)c(-c2cc(O)c(O)c(O)c2)oc2cc(O)cc(O)c12
REMARK SMILES IDX 5 1 3 2 2 3 1 4 23 5 21 6 20 7 18 8 17 9 16 10 15 11 6 12
REMARK SMILES IDX 7 13 8 14 14 15 10 16 12 17 9 18 11 20 13 22 4 24 22 26
REMARK SMILES IDX 19 28
REMARK H PARENT 9 19 11 21 13 23 4 25 22 27 19 29
REMARK Flexibility Score: inf
ROOT
ATOM      1  C   UNL     1      17.200  -2.929  18.296  1.00  0.00     0.180 A 
ATOM      2  C   UNL     1      17.796  -1.692  17.995  1.00  0.00     0.208 A 
ATOM      3  C   UNL     1      19.191  -1.628  17.841  1.00  0.00     0.238 A 
ATOM      4  O   UNL     1      19.724  -0.508  17.625  1.00  0.00    -0.285 OA
ATOM      5  C   UNL     1      19.968  -2.804  17.971  1.00  0.00     0.111 A 
ATOM      6  C   UNL     1      21.384  -2.862  17.795  1.00  0.00     0.134 A 
ATOM      7  C   UNL     1      22.066  -4.052  18.077  1.00  0.00     0.093 A 
ATOM      8  C   UNL     1      21.379  -5.202  18.465  1.00  0.00     0.123 A 
ATOM      9  C   UNL     1      19.988  -5.171  18.583  1.00  0.00     0.094 A 
ATOM     10  C   UNL     1      19.284  -3.990  18.344  1.00  0.00     0.146 A 
ATOM     11  O   UNL     1      17.963  -4.001  18.477  1.00  0.00    -0.452 OA
ENDROOT
BRANCH   1  12
ATOM     12  C   UNL     1      15.735  -3.081  18.450  1.00  0.00     0.029 A 
ATOM     13  C   UNL     1      15.054  -2.519  19.544  1.00  0.00     0.062 A 
ATOM     14  C   UNL     1      13.663  -2.653  19.661  1.00  0.00     0.162 A 
ATOM     15  C   UNL     1      15.001  -3.747  17.458  1.00  0.00     0.062 A 
ATOM     16  C   UNL     1      12.938  -3.342  18.674  1.00  0.00     0.200 A 
ATOM     17  C   UNL     1      13.613  -3.885  17.567  1.00  0.00     0.162 A 
BRANCH  14  18
ATOM     18  O   UNL     1      12.998  -2.097  20.754  1.00  0.00    -0.504 OA
ATOM     19  H   UNL     1      12.011  -1.873  20.717  1.00  0.00     0.293 HD
ENDBRANCH  14  18
BRANCH  16  20
ATOM     20  O   UNL     1      11.554  -3.487  18.777  1.00  0.00    -0.502 OA
ATOM     21  H   UNL     1      11.129  -4.234  19.312  1.00  0.00     0.293 HD
ENDBRANCH  16  20
BRANCH  17  22
ATOM     22  O   UNL     1      12.922  -4.567  16.566  1.00  0.00    -0.504 OA
ATOM     23  H   UNL     1      13.286  -4.656  15.625  1.00  0.00     0.293 HD
ENDBRANCH  17  22
ENDBRANCH   1  12
BRANCH   2  24
ATOM     24  O   UNL     1      17.012  -0.540  17.892  1.00  0.00    -0.502 OA
ATOM     25  H   UNL     1      16.493  -0.308  17.055  1.00  0.00     0.293 HD
ENDBRANCH   2  24
BRANCH   6  26
ATOM     26  O   UNL     1      22.156  -1.797  17.322  1.00  0.00    -0.507 OA
ATOM     27  H   UNL     1      22.447  -1.008  17.877  1.00  0.00     0.293 HD
ENDBRANCH   6  26
BRANCH   8  28
ATOM     28  O   UNL     1      22.089  -6.373  18.723  1.00  0.00    -0.508 OA
ATOM     29  H   UNL     1      22.894  -6.638  18.167  1.00  0.00     0.293 HD
ENDBRANCH   8  28
TORSDOF 7
ENDMDL
MODEL 2
REMARK VINA RESULT:    -8.403      2.042      3.590
REMARK INTER + INTRA:         -10.611
REMARK INTER:                 -10.260
REMARK INTRA:                  -0.350
REMARK UNBOUND:                -0.243
REMARK SMILES O=c1c(O)c(-c2cc(O)c(O)c(O)c2)oc2cc(O)cc(O)c12
REMARK SMILES IDX 5 1 3 2 2 3 1 4 23 5 21 6 20 7 18 8 17 9 16 10 15 11 6 12
REMARK SMILES IDX 7 13 8 14 14 15 10 16 12 17 9 18 11 20 13 22 4 24 22 26
REMARK SMILES IDX 19 28
REMARK H PARENT 9 19 11 21 13 23 4 25 22 27 19 29
REMARK Flexibility Score: inf
ROOT
ATOM      1  C   UNL     1      17.828  -2.275  17.760  1.00  0.00     0.180 A 
ATOM      2  C   UNL     1      18.045  -3.571  18.261  1.00  0.00     0.208 A 
ATOM      3  C   UNL     1      19.349  -4.091  18.263  1.00  0.00     0.238 A 
ATOM      4  O   UNL     1      19.528  -5.271  18.663  1.00  0.00    -0.285 OA
ATOM      5  C   UNL     1      20.422  -3.304  17.779  1.00  0.00     0.111 A 
ATOM      6  C   UNL     1      21.789  -3.716  17.771  1.00  0.00     0.134 A 
ATOM      7  C   UNL     1      22.749  -2.908  17.149  1.00  0.00     0.093 A 
ATOM      8  C   UNL     1      22.405  -1.677  16.593  1.00  0.00     0.123 A 
ATOM      9  C   UNL     1      21.081  -1.238  16.648  1.00  0.00     0.094 A 
ATOM     10  C   UNL     1      20.094  -2.037  17.229  1.00  0.00     0.146 A 
ATOM     11  O   UNL     1      18.845  -1.588  17.252  1.00  0.00    -0.452 OA
ENDROOT
BRANCH   1  12
ATOM     12  C   UNL     1      16.487  -1.649  17.747  1.00  0.00     0.029 A 
ATOM     13  C   UNL     1      15.585  -1.877  16.694  1.00  0.00     0.062 A 
ATOM     14  C   UNL     1      14.310  -1.294  16.710  1.00  0.00     0.162 A 
ATOM     15  C   UNL     1      16.082  -0.860  18.834  1.00  0.00     0.062 A 
ATOM     16  C   UNL     1      13.921  -0.486  17.792  1.00  0.00     0.200 A 
ATOM     17  C   UNL     1      14.812  -0.274  18.858  1.00  0.00     0.162 A 
BRANCH  14  18
ATOM     18  O   UNL     1      13.425  -1.522  15.656  1.00  0.00    -0.504 OA
ATOM     19  H   UNL     1      12.491  -1.129  15.653  1.00  0.00     0.293 HD
ENDBRANCH  14  18
BRANCH  16  20
ATOM     20  O   UNL     1      12.657   0.104  17.822  1.00  0.00    -0.502 OA
ATOM     21  H   UNL     1      12.463   0.935  18.368  1.00  0.00     0.293 HD
ENDBRANCH  16  20
BRANCH  17  22
ATOM     22  O   UNL     1      14.454   0.516  19.950  1.00  0.00    -0.504 OA
ATOM     23  H   UNL     1      14.278   1.509  19.862  1.00  0.00     0.293 HD
ENDBRANCH  17  22
ENDBRANCH   1  12
BRANCH   2  24
ATOM     24  O   UNL     1      16.969  -4.338  18.714  1.00  0.00    -0.502 OA
ATOM     25  H   UNL     1      16.527  -5.047  18.141  1.00  0.00     0.293 HD
ENDBRANCH   2  24
BRANCH   6  26
ATOM     26  O   UNL     1      22.256  -4.885  18.380  1.00  0.00    -0.507 OA
ATOM     27  H   UNL     1      21.724  -5.736  18.471  1.00  0.00     0.293 HD
ENDBRANCH   6  26
BRANCH   8  28
ATOM     28  O   UNL     1      23.389  -0.893  15.996  1.00  0.00    -0.508 OA
ATOM     29  H   UNL     1      23.995  -0.293  16.545  1.00  0.00     0.293 HD
ENDBRANCH   8  28
TORSDOF 7
ENDMDL
MODEL 3
REMARK VINA RESULT:    -8.321      3.540      9.216
REMARK INTER + INTRA:         -10.509
REMARK INTER:                 -10.346
REMARK INTRA:                  -0.163
REMARK UNBOUND:                -0.243
REMARK SMILES O=c1c(O)c(-c2cc(O)c(O)c(O)c2)oc2cc(O)cc(O)c12
REMARK SMILES IDX 5 1 3 2 2 3 1 4 23 5 21 6 20 7 18 8 17 9 16 10 15 11 6 12
REMARK SMILES IDX 7 13 8 14 14 15 10 16 12 17 9 18 11 20 13 22 4 24 22 26
REMARK SMILES IDX 19 28
REMARK H PARENT 9 19 11 21 13 23 4 25 22 27 19 29
REMARK Flexibility Score: inf
ROOT
ATOM      1  C   UNL     1      11.847  -2.258  19.651  1.00  0.00     0.180 A 
ATOM      2  C   UNL     1      11.322  -0.968  19.846  1.00  0.00     0.208 A 
ATOM      3  C   UNL     1       9.935  -0.814  20.002  1.00  0.00     0.238 A 
ATOM      4  O   UNL     1       9.466   0.348  20.122  1.00  0.00    -0.285 OA
ATOM      5  C   UNL     1       9.093  -1.952  19.980  1.00  0.00     0.111 A 
ATOM      6  C   UNL     1       7.678  -1.916  20.168  1.00  0.00     0.134 A 
ATOM      7  C   UNL     1       6.929  -3.087  19.995  1.00  0.00     0.093 A 
ATOM      8  C   UNL     1       7.548  -4.302  19.705  1.00  0.00     0.123 A 
ATOM      9  C   UNL     1       8.937  -4.359  19.577  1.00  0.00     0.094 A 
ATOM     10  C   UNL     1       9.708  -3.202  19.707  1.00  0.00     0.146 A 
ATOM     11  O   UNL     1      11.024  -3.297  19.568  1.00  0.00    -0.452 OA
ENDROOT
BRANCH   1  12
ATOM     12  C   UNL     1      13.299  -2.503  19.502  1.00  0.00     0.029 A 
ATOM     13  C   UNL     1      13.835  -3.014  18.307  1.00  0.00     0.062 A 
ATOM     14  C   UNL     1      15.216  -3.218  18.176  1.00  0.00     0.162 A 
ATOM     15  C   UNL     1      14.168  -2.166  20.550  1.00  0.00     0.062 A 
ATOM     16  C   UNL     1      16.076  -2.898  19.240  1.00  0.00     0.200 A 
ATOM     17  C   UNL     1      15.547  -2.366  20.428  1.00  0.00     0.162 A 
BRANCH  14  18
ATOM     18  O   UNL     1      15.736  -3.731  16.988  1.00  0.00    -0.504 OA
ATOM     19  H   UNL     1      15.136  -4.121  16.270  1.00  0.00     0.293 HD
ENDBRANCH  14  18
BRANCH  16  20
ATOM     20  O   UNL     1      17.453  -3.098  19.127  1.00  0.00    -0.502 OA
ATOM     21  H   UNL     1      17.946  -3.780  19.691  1.00  0.00     0.293 HD
ENDBRANCH  16  20
BRANCH  17  22
ATOM     22  O   UNL     1      16.375  -2.032  21.499  1.00  0.00    -0.504 OA
ATOM     23  H   UNL     1      17.373  -2.201  21.482  1.00  0.00     0.293 HD
ENDBRANCH  17  22
ENDBRANCH   1  12
BRANCH   2  24
ATOM     24  O   UNL     1      12.169   0.143  19.843  1.00  0.00    -0.502 OA
ATOM     25  H   UNL     1      13.157   0.074  19.631  1.00  0.00     0.293 HD
ENDBRANCH   2  24
BRANCH   6  26
ATOM     26  O   UNL     1       6.970  -0.773  20.551  1.00  0.00    -0.507 OA
ATOM     27  H   UNL     1       6.168  -0.404  20.065  1.00  0.00     0.293 HD
ENDBRANCH   6  26
BRANCH   8  28
ATOM     28  O   UNL     1       6.773  -5.450  19.555  1.00  0.00    -0.508 OA
ATOM     29  H   UNL     1       7.167  -6.375  19.676  1.00  0.00     0.293 HD
ENDBRANCH   8  28
TORSDOF 7
ENDMDL
MODEL 4
REMARK VINA RESULT:    -8.157      3.816      9.498
REMARK INTER + INTRA:         -10.307
REMARK INTER:                 -10.104
REMARK INTRA:                  -0.203
REMARK UNBOUND:                -0.243
REMARK SMILES O=c1c(O)c(-c2cc(O)c(O)c(O)c2)oc2cc(O)cc(O)c12
REMARK SMILES IDX 5 1 3 2 2 3 1 4 23 5 21 6 20 7 18 8 17 9 16 10 15 11 6 12
REMARK SMILES IDX 7 13 8 14 14 15 10 16 12 17 9 18 11 20 13 22 4 24 22 26
REMARK SMILES IDX 19 28
REMARK H PARENT 9 19 11 21 13 23 4 25 22 27 19 29
REMARK Flexibility Score: inf
ROOT
ATOM      1  C   UNL     1      12.106  -1.173  19.931  1.00  0.00     0.180 A 
ATOM      2  C   UNL     1      11.308  -2.241  19.485  1.00  0.00     0.208 A 
ATOM      3  C   UNL     1       9.993  -2.355  19.963  1.00  0.00     0.238 A 
ATOM      4  O   UNL     1       9.302  -3.343  19.602  1.00  0.00    -0.285 OA
ATOM      5  C   UNL     1       9.486  -1.391  20.867  1.00  0.00     0.111 A 
ATOM      6  C   UNL     1       8.156  -1.386  21.385  1.00  0.00     0.134 A 
ATOM      7  C   UNL     1       7.804  -0.459  22.374  1.00  0.00     0.093 A 
ATOM      8  C   UNL     1       8.711   0.502  22.817  1.00  0.00     0.123 A 
ATOM      9  C   UNL     1       9.996   0.543  22.275  1.00  0.00     0.094 A 
ATOM     10  C   UNL     1      10.389  -0.390  21.314  1.00  0.00     0.146 A 
ATOM     11  O   UNL     1      11.624  -0.323  20.831  1.00  0.00    -0.452 OA
ENDROOT
BRANCH   1  12
ATOM     12  C   UNL     1      13.494  -0.973  19.455  1.00  0.00     0.029 A 
ATOM     13  C   UNL     1      14.509  -1.897  19.754  1.00  0.00     0.062 A 
ATOM     14  C   UNL     1      15.812  -1.702  19.275  1.00  0.00     0.162 A 
ATOM     15  C   UNL     1      13.792   0.129  18.639  1.00  0.00     0.062 A 
ATOM     16  C   UNL     1      16.107  -0.584  18.477  1.00  0.00     0.200 A 
ATOM     17  C   UNL     1      15.090   0.331  18.157  1.00  0.00     0.162 A 
BRANCH  14  18
ATOM     18  O   UNL     1      16.814  -2.622  19.584  1.00  0.00    -0.504 OA
ATOM     19  H   UNL     1      16.789  -3.169  20.436  1.00  0.00     0.293 HD
ENDBRANCH  14  18
BRANCH  16  20
ATOM     20  O   UNL     1      17.400  -0.373  17.995  1.00  0.00    -0.502 OA
ATOM     21  H   UNL     1      18.196  -0.271  18.612  1.00  0.00     0.293 HD
ENDBRANCH  16  20
BRANCH  17  22
ATOM     22  O   UNL     1      15.348   1.446  17.361  1.00  0.00    -0.504 OA
ATOM     23  H   UNL     1      14.934   1.561  16.444  1.00  0.00     0.293 HD
ENDBRANCH  17  22
ENDBRANCH   1  12
BRANCH   2  24
ATOM     24  O   UNL     1      11.835  -3.193  18.609  1.00  0.00    -0.502 OA
ATOM     25  H   UNL     1      11.805  -4.187  18.802  1.00  0.00     0.293 HD
ENDBRANCH   2  24
BRANCH   6  26
ATOM     26  O   UNL     1       7.144  -2.243  20.943  1.00  0.00    -0.507 OA
ATOM     27  H   UNL     1       7.294  -3.176  20.592  1.00  0.00     0.293 HD
ENDBRANCH   6  26
BRANCH   8  28
ATOM     28  O   UNL     1       8.321   1.418  23.792  1.00  0.00    -0.508 OA
ATOM     29  H   UNL     1       7.684   2.177  23.581  1.00  0.00     0.293 HD
ENDBRANCH   8  28
TORSDOF 7
ENDMDL
MODEL 5
REMARK VINA RESULT:    -8.053      1.968      7.203
REMARK INTER + INTRA:         -10.178
REMARK INTER:                  -9.840
REMARK INTRA:                  -0.338
REMARK UNBOUND:                -0.243
REMARK SMILES O=c1c(O)c(-c2cc(O)c(O)c(O)c2)oc2cc(O)cc(O)c12
REMARK SMILES IDX 5 1 3 2 2 3 1 4 23 5 21 6 20 7 18 8 17 9 16 10 15 11 6 12
REMARK SMILES IDX 7 13 8 14 14 15 10 16 12 17 9 18 11 20 13 22 4 24 22 26
REMARK SMILES IDX 19 28
REMARK H PARENT 9 19 11 21 13 23 4 25 22 27 19 29
REMARK Flexibility Score: inf
ROOT
ATOM      1  C   UNL     1      16.868  -2.480  17.503  1.00  0.00     0.180 A 
ATOM      2  C   UNL     1      16.230  -2.567  16.254  1.00  0.00     0.208 A 
ATOM      3  C   UNL     1      14.883  -2.184  16.150  1.00  0.00     0.238 A 
ATOM      4  O   UNL     1      14.302  -2.315  15.040  1.00  0.00    -0.285 OA
ATOM      5  C   UNL     1      14.196  -1.703  17.290  1.00  0.00     0.111 A 
ATOM      6  C   UNL     1      12.842  -1.250  17.290  1.00  0.00     0.134 A 
ATOM      7  C   UNL     1      12.225  -0.920  18.503  1.00  0.00     0.093 A 
ATOM      8  C   UNL     1      12.930  -0.963  19.705  1.00  0.00     0.123 A 
ATOM      9  C   UNL     1      14.271  -1.348  19.709  1.00  0.00     0.094 A 
ATOM     10  C   UNL     1      14.904  -1.719  18.521  1.00  0.00     0.146 A 
ATOM     11  O   UNL     1      16.178  -2.088  18.569  1.00  0.00    -0.452 OA
ENDROOT
BRANCH   1  12
ATOM     12  C   UNL     1      18.292  -2.843  17.688  1.00  0.00     0.029 A 
ATOM     13  C   UNL     1      18.667  -4.116  18.150  1.00  0.00     0.062 A 
ATOM     14  C   UNL     1      20.021  -4.449  18.296  1.00  0.00     0.162 A 
ATOM     15  C   UNL     1      19.290  -1.921  17.340  1.00  0.00     0.062 A 
ATOM     16  C   UNL     1      21.014  -3.512  17.967  1.00  0.00     0.200 A 
ATOM     17  C   UNL     1      20.644  -2.245  17.484  1.00  0.00     0.162 A 
BRANCH  14  18
ATOM     18  O   UNL     1      20.382  -5.713  18.762  1.00  0.00    -0.504 OA
ATOM     19  H   UNL     1      21.304  -6.099  18.592  1.00  0.00     0.293 HD
ENDBRANCH  14  18
BRANCH  16  20
ATOM     20  O   UNL     1      22.366  -3.826  18.110  1.00  0.00    -0.502 OA
ATOM     21  H   UNL     1      22.957  -3.368  18.794  1.00  0.00     0.293 HD
ENDBRANCH  16  20
BRANCH  17  22
ATOM     22  O   UNL     1      21.605  -1.295  17.140  1.00  0.00    -0.504 OA
ATOM     23  H   UNL     1      21.471  -0.306  17.313  1.00  0.00     0.293 HD
ENDBRANCH  17  22
ENDBRANCH   1  12
BRANCH   2  24
ATOM     24  O   UNL     1      16.920  -3.064  15.145  1.00  0.00    -0.502 OA
ATOM     25  H   UNL     1      17.763  -2.631  14.789  1.00  0.00     0.293 HD
ENDBRANCH   2  24
BRANCH   6  26
ATOM     26  O   UNL     1      12.076  -1.081  16.133  1.00  0.00    -0.507 OA
ATOM     27  H   UNL     1      11.243  -0.518  16.073  1.00  0.00     0.293 HD
ENDBRANCH   6  26
BRANCH   8  28
ATOM     28  O   UNL     1      12.288  -0.612  20.891  1.00  0.00    -0.508 OA
ATOM     29  H   UNL     1      12.103  -1.297  21.616  1.00  0.00     0.293 HD
ENDBRANCH   8  28
TORSDOF 7
ENDMDL
MODEL 6
REMARK VINA RESULT:    -7.822      3.546      5.837
REMARK INTER + INTRA:          -9.893
REMARK INTER:                  -9.536
REMARK INTRA:                  -0.357
REMARK UNBOUND:                -0.243
REMARK SMILES O=c1c(O)c(-c2cc(O)c(O)c(O)c2)oc2cc(O)cc(O)c12
REMARK SMILES IDX 5 1 3 2 2 3 1 4 23 5 21 6 20 7 18 8 17 9 16 10 15 11 6 12
REMARK SMILES IDX 7 13 8 14 14 15 10 16 12 17 9 18 11 20 13 22 4 24 22 26
REMARK SMILES IDX 19 28
REMARK H PARENT 9 19 11 21 13 23 4 25 22 27 19 29
REMARK Flexibility Score: inf
ROOT
ATOM      1  C   UNL     1      12.001  -1.231  18.955  1.00  0.00     0.180 A 
ATOM      2  C   UNL     1      12.075  -0.546  17.729  1.00  0.00     0.208 A 
ATOM      3  C   UNL     1      13.200  -0.736  16.910  1.00  0.00     0.238 A 
ATOM      4  O   UNL     1      13.285  -0.078  15.839  1.00  0.00    -0.285 OA
ATOM      5  C   UNL     1      14.227  -1.620  17.317  1.00  0.00     0.111 A 
ATOM      6  C   UNL     1      15.392  -1.918  16.547  1.00  0.00     0.134 A 
ATOM      7  C   UNL     1      16.406  -2.705  17.106  1.00  0.00     0.093 A 
ATOM      8  C   UNL     1      16.270  -3.258  18.378  1.00  0.00     0.123 A 
ATOM      9  C   UNL     1      15.109  -3.022  19.116  1.00  0.00     0.094 A 
ATOM     10  C   UNL     1      14.096  -2.210  18.601  1.00  0.00     0.146 A 
ATOM     11  O   UNL     1      13.012  -2.002  19.339  1.00  0.00    -0.452 OA
ENDROOT
BRANCH   1  12
ATOM     12  C   UNL     1      10.838  -1.102  19.861  1.00  0.00     0.029 A 
ATOM     13  C   UNL     1      10.789  -0.102  20.847  1.00  0.00     0.062 A 
ATOM     14  C   UNL     1       9.668   0.020  21.681  1.00  0.00     0.162 A 
ATOM     15  C   UNL     1       9.736  -1.954  19.697  1.00  0.00     0.062 A 
ATOM     16  C   UNL     1       8.579  -0.853  21.526  1.00  0.00     0.200 A 
ATOM     17  C   UNL     1       8.615  -1.840  20.526  1.00  0.00     0.162 A 
BRANCH  14  18
ATOM     18  O   UNL     1       9.633   1.012  22.661  1.00  0.00    -0.504 OA
ATOM     19  H   UNL     1      10.189   0.945  23.506  1.00  0.00     0.293 HD
ENDBRANCH  14  18
BRANCH  16  20
ATOM     20  O   UNL     1       7.457  -0.747  22.350  1.00  0.00    -0.502 OA
ATOM     21  H   UNL     1       7.153   0.138  22.736  1.00  0.00     0.293 HD
ENDBRANCH  16  20
BRANCH  17  22
ATOM     22  O   UNL     1       7.546  -2.716  20.340  1.00  0.00    -0.504 OA
ATOM     23  H   UNL     1       6.582  -2.413  20.406  1.00  0.00     0.293 HD
ENDBRANCH  17  22
ENDBRANCH   1  12
BRANCH   2  24
ATOM     24  O   UNL     1      11.060   0.338  17.356  1.00  0.00    -0.502 OA
ATOM     25  H   UNL     1      10.084   0.165  17.563  1.00  0.00     0.293 HD
ENDBRANCH   2  24
BRANCH   6  26
ATOM     26  O   UNL     1      15.587  -1.492  15.230  1.00  0.00    -0.507 OA
ATOM     27  H   UNL     1      16.115  -0.676  14.962  1.00  0.00     0.293 HD
ENDBRANCH   6  26
BRANCH   8  28
ATOM     28  O   UNL     1      17.292  -4.050  18.897  1.00  0.00    -0.508 OA
ATOM     29  H   UNL     1      17.265  -4.394  19.850  1.00  0.00     0.293 HD
ENDBRANCH   8  28
TORSDOF 7
ENDMDL
MODEL 7
REMARK VINA RESULT:    -7.763      2.088      3.481
REMARK INTER + INTRA:          -9.820
REMARK INTER:                  -9.787
REMARK INTRA:                  -0.033
REMARK UNBOUND:                -0.243
REMARK SMILES O=c1c(O)c(-c2cc(O)c(O)c(O)c2)oc2cc(O)cc(O)c12
REMARK SMILES IDX 5 1 3 2 2 3 1 4 23 5 21 6 20 7 18 8 17 9 16 10 15 11 6 12
REMARK SMILES IDX 7 13 8 14 14 15 10 16 12 17 9 18 11 20 13 22 4 24 22 26
REMARK SMILES IDX 19 28
REMARK H PARENT 9 19 11 21 13 23 4 25 22 27 19 29
REMARK Flexibility Score: inf
ROOT
ATOM      1  C   UNL     1      17.477  -2.024  18.584  1.00  0.00     0.180 A 
ATOM      2  C   UNL     1      17.964  -3.292  18.221  1.00  0.00     0.208 A 
ATOM      3  C   UNL     1      19.280  -3.405  17.742  1.00  0.00     0.238 A 
ATOM      4  O   UNL     1      19.691  -4.534  17.367  1.00  0.00    -0.285 OA
ATOM      5  C   UNL     1      20.096  -2.252  17.648  1.00  0.00     0.111 A 
ATOM      6  C   UNL     1      21.456  -2.256  17.213  1.00  0.00     0.134 A 
ATOM      7  C   UNL     1      22.127  -1.040  17.035  1.00  0.00     0.093 A 
ATOM      8  C   UNL     1      21.511   0.173  17.335  1.00  0.00     0.123 A 
ATOM      9  C   UNL     1      20.201   0.185  17.817  1.00  0.00     0.094 A 
ATOM     10  C   UNL     1      19.493  -1.009  17.971  1.00  0.00     0.146 A 
ATOM     11  O   UNL     1      18.246  -0.953  18.422  1.00  0.00    -0.452 OA
ENDROOT
BRANCH   1  12
ATOM     12  C   UNL     1      16.111  -1.829  19.120  1.00  0.00     0.029 A 
ATOM     13  C   UNL     1      15.222  -0.910  18.535  1.00  0.00     0.062 A 
ATOM     14  C   UNL     1      13.924  -0.756  19.042  1.00  0.00     0.162 A 
ATOM     15  C   UNL     1      15.671  -2.615  20.195  1.00  0.00     0.062 A 
ATOM     16  C   UNL     1      13.499  -1.531  20.134  1.00  0.00     0.200 A 
ATOM     17  C   UNL     1      14.377  -2.467  20.707  1.00  0.00     0.162 A 
BRANCH  14  18
ATOM     18  O   UNL     1      13.052   0.163  18.459  1.00  0.00    -0.504 OA
ATOM     19  H   UNL     1      13.382   1.046  18.087  1.00  0.00     0.293 HD
ENDBRANCH  14  18
BRANCH  16  20
ATOM     20  O   UNL     1      12.212  -1.387  20.653  1.00  0.00    -0.502 OA
ATOM     21  H   UNL     1      11.437  -1.060  20.089  1.00  0.00     0.293 HD
ENDBRANCH  16  20
BRANCH  17  22
ATOM     22  O   UNL     1      13.984  -3.258  21.785  1.00  0.00    -0.504 OA
ATOM     23  H   UNL     1      13.165  -3.043  22.341  1.00  0.00     0.293 HD
ENDBRANCH  17  22
ENDBRANCH   1  12
BRANCH   2  24
ATOM     24  O   UNL     1      17.134  -4.413  18.301  1.00  0.00    -0.502 OA
ATOM     25  H   UNL     1      16.651  -4.792  17.496  1.00  0.00     0.293 HD
ENDBRANCH   2  24
BRANCH   6  26
ATOM     26  O   UNL     1      22.195  -3.419  16.974  1.00  0.00    -0.507 OA
ATOM     27  H   UNL     1      22.925  -3.503  16.285  1.00  0.00     0.293 HD
ENDBRANCH   6  26
BRANCH   8  28
ATOM     28  O   UNL     1      22.214   1.363  17.160  1.00  0.00    -0.508 OA
ATOM     29  H   UNL     1      21.744   2.262  17.157  1.00  0.00     0.293 HD
ENDBRANCH   8  28
TORSDOF 7
ENDMDL
MODEL 8
REMARK VINA RESULT:    -7.744      3.051      5.348
REMARK INTER + INTRA:          -9.797
REMARK INTER:                  -9.437
REMARK INTRA:                  -0.360
REMARK UNBOUND:                -0.243
REMARK SMILES O=c1c(O)c(-c2cc(O)c(O)c(O)c2)oc2cc(O)cc(O)c12
REMARK SMILES IDX 5 1 3 2 2 3 1 4 23 5 21 6 20 7 18 8 17 9 16 10 15 11 6 12
REMARK SMILES IDX 7 13 8 14 14 15 10 16 12 17 9 18 11 20 13 22 4 24 22 26
REMARK SMILES IDX 19 28
REMARK H PARENT 9 19 11 21 13 23 4 25 22 27 19 29
REMARK Flexibility Score: inf
ROOT
ATOM      1  C   UNL     1      12.742  -2.630  19.212  1.00  0.00     0.180 A 
ATOM      2  C   UNL     1      13.757  -2.931  20.137  1.00  0.00     0.208 A 
ATOM      3  C   UNL     1      15.085  -3.016  19.687  1.00  0.00     0.238 A 
ATOM      4  O   UNL     1      15.982  -3.339  20.510  1.00  0.00    -0.285 OA
ATOM      5  C   UNL     1      15.383  -2.784  18.324  1.00  0.00     0.111 A 
ATOM      6  C   UNL     1      16.698  -2.805  17.767  1.00  0.00     0.134 A 
ATOM      7  C   UNL     1      16.862  -2.690  16.381  1.00  0.00     0.093 A 
ATOM      8  C   UNL     1      15.768  -2.491  15.540  1.00  0.00     0.123 A 
ATOM      9  C   UNL     1      14.484  -2.409  16.080  1.00  0.00     0.094 A 
ATOM     10  C   UNL     1      14.284  -2.556  17.455  1.00  0.00     0.146 A 
ATOM     11  O   UNL     1      13.046  -2.482  17.927  1.00  0.00    -0.452 OA
ENDROOT
BRANCH   1  12
ATOM     12  C   UNL     1      11.323  -2.499  19.614  1.00  0.00     0.029 A 
ATOM     13  C   UNL     1      10.771  -1.251  19.948  1.00  0.00     0.062 A 
ATOM     14  C   UNL     1       9.419  -1.143  20.304  1.00  0.00     0.162 A 
ATOM     15  C   UNL     1      10.496  -3.632  19.605  1.00  0.00     0.062 A 
ATOM     16  C   UNL     1       8.603  -2.287  20.315  1.00  0.00     0.200 A 
ATOM     17  C   UNL     1       9.146  -3.533  19.959  1.00  0.00     0.162 A 
BRANCH  14  18
ATOM     18  O   UNL     1       8.883   0.099  20.640  1.00  0.00    -0.504 OA
ATOM     19  H   UNL     1       8.419   0.682  19.953  1.00  0.00     0.293 HD
ENDBRANCH  14  18
BRANCH  16  20
ATOM     20  O   UNL     1       7.256  -2.198  20.670  1.00  0.00    -0.502 OA
ATOM     21  H   UNL     1       6.569  -1.758  20.071  1.00  0.00     0.293 HD
ENDBRANCH  16  20
BRANCH  17  22
ATOM     22  O   UNL     1       8.361  -4.686  19.952  1.00  0.00    -0.504 OA
ATOM     23  H   UNL     1       8.215  -5.233  19.113  1.00  0.00     0.293 HD
ENDBRANCH  17  22
ENDBRANCH   1  12
BRANCH   2  24
ATOM     24  O   UNL     1      13.438  -3.178  21.475  1.00  0.00    -0.502 OA
ATOM     25  H   UNL     1      13.811  -2.623  22.235  1.00  0.00     0.293 HD
ENDBRANCH   2  24
BRANCH   6  26
ATOM     26  O   UNL     1      17.866  -2.906  18.528  1.00  0.00    -0.507 OA
ATOM     27  H   UNL     1      18.356  -3.766  18.715  1.00  0.00     0.293 HD
ENDBRANCH   6  26
BRANCH   8  28
ATOM     28  O   UNL     1      15.971  -2.366  14.167  1.00  0.00    -0.508 OA
ATOM     29  H   UNL     1      16.163  -1.467  13.739  1.00  0.00     0.293 HD
ENDBRANCH   8  28
TORSDOF 7
ENDMDL
MODEL 9
REMARK VINA RESULT:    -7.717      2.647      7.692
REMARK INTER + INTRA:          -9.764
REMARK INTER:                  -9.717
REMARK INTRA:                  -0.047
REMARK UNBOUND:                -0.243
REMARK SMILES O=c1c(O)c(-c2cc(O)c(O)c(O)c2)oc2cc(O)cc(O)c12
REMARK SMILES IDX 5 1 3 2 2 3 1 4 23 5 21 6 20 7 18 8 17 9 16 10 15 11 6 12
REMARK SMILES IDX 7 13 8 14 14 15 10 16 12 17 9 18 11 20 13 22 4 24 22 26
REMARK SMILES IDX 19 28
REMARK H PARENT 9 19 11 21 13 23 4 25 22 27 19 29
REMARK Flexibility Score: inf
ROOT
ATOM      1  C   UNL     1      15.544  -1.215  17.683  1.00  0.00     0.180 A 
ATOM      2  C   UNL     1      14.872  -0.993  16.469  1.00  0.00     0.208 A 
ATOM      3  C   UNL     1      13.524  -0.600  16.499  1.00  0.00     0.238 A 
ATOM      4  O   UNL     1      12.913  -0.455  15.408  1.00  0.00    -0.285 OA
ATOM      5  C   UNL     1      12.871  -0.418  17.741  1.00  0.00     0.111 A 
ATOM      6  C   UNL     1      11.519   0.017  17.890  1.00  0.00     0.134 A 
ATOM      7  C   UNL     1      10.936   0.036  19.163  1.00  0.00     0.093 A 
ATOM      8  C   UNL     1      11.673  -0.301  20.297  1.00  0.00     0.123 A 
ATOM      9  C   UNL     1      13.013  -0.670  20.170  1.00  0.00     0.094 A 
ATOM     10  C   UNL     1      13.612  -0.734  18.910  1.00  0.00     0.146 A 
ATOM     11  O   UNL     1      14.885  -1.100  18.831  1.00  0.00    -0.452 OA
ENDROOT
BRANCH   1  12
ATOM     12  C   UNL     1      16.971  -1.608  17.734  1.00  0.00     0.029 A 
ATOM     13  C   UNL     1      17.451  -2.711  17.007  1.00  0.00     0.062 A 
ATOM     14  C   UNL     1      18.810  -3.054  17.049  1.00  0.00     0.162 A 
ATOM     15  C   UNL     1      17.875  -0.832  18.474  1.00  0.00     0.062 A 
ATOM     16  C   UNL     1      19.705  -2.285  17.811  1.00  0.00     0.200 A 
ATOM     17  C   UNL     1      19.233  -1.168  18.521  1.00  0.00     0.162 A 
BRANCH  14  18
ATOM     18  O   UNL     1      19.274  -4.154  16.329  1.00  0.00    -0.504 OA
ATOM     19  H   UNL     1      18.823  -5.059  16.391  1.00  0.00     0.293 HD
ENDBRANCH  14  18
BRANCH  16  20
ATOM     20  O   UNL     1      21.060  -2.614  17.866  1.00  0.00    -0.502 OA
ATOM     21  H   UNL     1      21.787  -1.909  17.856  1.00  0.00     0.293 HD
ENDBRANCH  16  20
BRANCH  17  22
ATOM     22  O   UNL     1      20.097  -0.379  19.280  1.00  0.00    -0.504 OA
ATOM     23  H   UNL     1      20.120  -0.425  20.292  1.00  0.00     0.293 HD
ENDBRANCH  17  22
ENDBRANCH   1  12
BRANCH   2  24
ATOM     24  O   UNL     1      15.530  -1.199  15.253  1.00  0.00    -0.502 OA
ATOM     25  H   UNL     1      15.837  -2.115  14.949  1.00  0.00     0.293 HD
ENDBRANCH   2  24
BRANCH   6  26
ATOM     26  O   UNL     1      10.723   0.464  16.831  1.00  0.00    -0.507 OA
ATOM     27  H   UNL     1       9.853   0.962  16.937  1.00  0.00     0.293 HD
ENDBRANCH   6  26
BRANCH   8  28
ATOM     28  O   UNL     1      11.064  -0.255  21.550  1.00  0.00    -0.508 OA
ATOM     29  H   UNL     1      10.519  -1.034  21.903  1.00  0.00     0.293 HD
ENDBRANCH   8  28
TORSDOF 7
ENDMDL
