MODEL 1
REMARK VINA RESULT:    -3.480      0.000      0.000
REMARK INTER + INTRA:          -3.786
REMARK INTER:                  -3.786
REMARK INTRA:                   0.000
REMARK UNBOUND:                 0.000
REMARK SMILES [NH3+]CC(=O)[O-]
REMARK SMILES IDX 2 1 1 2 3 6 4 7 5 8
REMARK H PARENT 1 3 1 4 1 5
REMARK Flexibility Score: inf
ROOT
ATOM      1  C   UNL     1      28.012  58.436 -13.654  1.00  0.00     0.312 C 
ENDROOT
BRANCH   1   2
ATOM      2  N   UNL     1      29.125  58.863 -14.499  1.00  0.00    -0.353 N 
ATOM      3  H   UNL     1      29.616  58.029 -14.894  1.00  0.00     0.344 HD
ATOM      4  H   UNL     1      28.773  59.469 -15.278  1.00  0.00     0.344 HD
ATOM      5  H   UNL     1      29.802  59.414 -13.922  1.00  0.00     0.344 HD
ENDBRANCH   1   2
BRANCH   1   6
ATOM      6  C   UNL     1      27.454  57.132 -14.133  1.00  0.00     0.096 C 
ATOM      7  O   UNL     1      26.873  57.063 -15.248  1.00  0.00    -0.544 OA
ATOM      8  O   UNL     1      27.622  55.982 -13.372  1.00  0.00    -0.544 OA
ENDBRANCH   1   6
TORSDOF 2
ENDMDL
MODEL 2
REMARK VINA RESULT:    -3.418     12.133     12.372
REMARK INTER + INTRA:          -3.718
REMARK INTER:                  -3.718
REMARK INTRA:                   0.000
REMARK UNBOUND:                 0.000
REMARK SMILES [NH3+]CC(=O)[O-]
REMARK SMILES IDX 2 1 1 2 3 6 4 7 5 8
REMARK H PARENT 1 3 1 4 1 5
REMARK Flexibility Score: inf
ROOT
ATOM      1  C   UNL     1      17.894  63.192 -10.665  1.00  0.00     0.312 C 
ENDROOT
BRANCH   1   2
ATOM      2  N   UNL     1      19.207  62.629 -10.971  1.00  0.00    -0.353 N 
ATOM      3  H   UNL     1      19.911  63.395 -11.078  1.00  0.00     0.344 HD
ATOM      4  H   UNL     1      19.505  61.979 -10.206  1.00  0.00     0.344 HD
ATOM      5  H   UNL     1      19.150  62.093 -11.867  1.00  0.00     0.344 HD
ENDBRANCH   1   2
BRANCH   1   6
ATOM      6  C   UNL     1      17.675  64.465 -11.422  1.00  0.00     0.096 C 
ATOM      7  O   UNL     1      17.327  64.432 -12.631  1.00  0.00    -0.544 OA
ATOM      8  O   UNL     1      17.805  65.689 -10.777  1.00  0.00    -0.544 OA
ENDBRANCH   1   6
TORSDOF 2
ENDMDL
MODEL 3
REMARK VINA RESULT:    -3.399     12.560     12.692
REMARK INTER + INTRA:          -3.697
REMARK INTER:                  -3.697
REMARK INTRA:                   0.000
REMARK UNBOUND:                 0.000
REMARK SMILES [NH3+]CC(=O)[O-]
REMARK SMILES IDX 2 1 1 2 3 6 4 7 5 8
REMARK H PARENT 1 3 1 4 1 5
REMARK Flexibility Score: inf
ROOT
ATOM      1  C   UNL     1      17.582  64.928 -11.159  1.00  0.00     0.312 C 
ENDROOT
BRANCH   1   2
ATOM      2  N   UNL     1      16.177  65.255 -11.388  1.00  0.00    -0.353 N 
ATOM      3  H   UNL     1      15.923  65.072 -12.386  1.00  0.00     0.344 HD
ATOM      4  H   UNL     1      15.568  64.682 -10.757  1.00  0.00     0.344 HD
ATOM      5  H   UNL     1      16.022  66.268 -11.179  1.00  0.00     0.344 HD
ENDBRANCH   1   2
BRANCH   1   6
ATOM      6  C   UNL     1      17.742  63.475 -10.835  1.00  0.00     0.096 C 
ATOM      7  O   UNL     1      17.543  62.602 -11.720  1.00  0.00    -0.544 OA
ATOM      8  O   UNL     1      18.160  63.087  -9.568  1.00  0.00    -0.544 OA
ENDBRANCH   1   6
TORSDOF 2
ENDMDL
MODEL 4
REMARK VINA RESULT:    -3.379      2.290      2.459
REMARK INTER + INTRA:          -3.675
REMARK INTER:                  -3.675
REMARK INTRA:                   0.000
REMARK UNBOUND:                 0.000
REMARK SMILES [NH3+]CC(=O)[O-]
REMARK SMILES IDX 2 1 1 2 3 6 4 7 5 8
REMARK H PARENT 1 3 1 4 1 5
REMARK Flexibility Score: inf
ROOT
ATOM      1  C   UNL     1      27.676  56.310 -13.645  1.00  0.00     0.312 C 
ENDROOT
BRANCH   1   2
ATOM      2  N   UNL     1      26.784  55.876 -14.718  1.00  0.00    -0.353 N 
ATOM      3  H   UNL     1      26.978  54.878 -14.964  1.00  0.00     0.344 HD
ATOM      4  H   UNL     1      25.786  55.980 -14.419  1.00  0.00     0.344 HD
ATOM      5  H   UNL     1      26.948  56.472 -15.562  1.00  0.00     0.344 HD
ENDBRANCH   1   2
BRANCH   1   6
ATOM      6  C   UNL     1      28.071  57.742 -13.832  1.00  0.00     0.096 C 
ATOM      7  O   UNL     1      27.423  58.481 -14.618  1.00  0.00    -0.544 OA
ATOM      8  O   UNL     1      29.124  58.274 -13.098  1.00  0.00    -0.544 OA
ENDBRANCH   1   6
TORSDOF 2
ENDMDL
MODEL 5
REMARK VINA RESULT:    -2.991     19.924     20.190
REMARK INTER + INTRA:          -3.253
REMARK INTER:                  -3.253
REMARK INTRA:                   0.000
REMARK UNBOUND:                 0.000
REMARK SMILES [NH3+]CC(=O)[O-]
REMARK SMILES IDX 2 1 1 2 3 6 4 7 5 8
REMARK H PARENT 1 3 1 4 1 5
REMARK Flexibility Score: inf
ROOT
ATOM      1  C   UNL     1      22.202  70.458  -1.000  1.00  0.00     0.312 C 
ENDROOT
BRANCH   1   2
ATOM      2  N   UNL     1      21.532  69.737  -2.080  1.00  0.00    -0.353 N 
ATOM      3  H   UNL     1      21.772  68.719  -2.035  1.00  0.00     0.344 HD
ATOM      4  H   UNL     1      20.495  69.860  -2.006  1.00  0.00     0.344 HD
ATOM      5  H   UNL     1      21.853  70.121  -2.999  1.00  0.00     0.344 HD
ENDBRANCH   1   2
BRANCH   1   6
ATOM      6  C   UNL     1      21.699  71.866  -0.912  1.00  0.00     0.096 C 
ATOM      7  O   UNL     1      21.061  72.248   0.103  1.00  0.00    -0.544 OA
ATOM      8  O   UNL     1      21.981  72.769  -1.928  1.00  0.00    -0.544 OA
ENDBRANCH   1   6
TORSDOF 2
ENDMDL
MODEL 6
REMARK VINA RESULT:    -2.973     20.090     20.345
REMARK INTER + INTRA:          -3.233
REMARK INTER:                  -3.233
REMARK INTRA:                   0.000
REMARK UNBOUND:                 0.000
REMARK SMILES [NH3+]CC(=O)[O-]
REMARK SMILES IDX 2 1 1 2 3 6 4 7 5 8
REMARK H PARENT 1 3 1 4 1 5
REMARK Flexibility Score: inf
ROOT
ATOM      1  C   UNL     1      20.264  67.222   1.974  1.00  0.00     0.312 C 
ENDROOT
BRANCH   1   2
ATOM      2  N   UNL     1      19.678  65.884   1.980  1.00  0.00    -0.353 N 
ATOM      3  H   UNL     1      19.958  65.366   1.115  1.00  0.00     0.344 HD
ATOM      4  H   UNL     1      19.996  65.356   2.826  1.00  0.00     0.344 HD
ATOM      5  H   UNL     1      18.636  65.965   2.004  1.00  0.00     0.344 HD
ENDBRANCH   1   2
BRANCH   1   6
ATOM      6  C   UNL     1      19.523  68.120   1.032  1.00  0.00     0.096 C 
ATOM      7  O   UNL     1      19.100  69.238   1.424  1.00  0.00    -0.544 OA
ATOM      8  O   UNL     1      19.347  67.743  -0.294  1.00  0.00    -0.544 OA
ENDBRANCH   1   6
TORSDOF 2
ENDMDL
MODEL 7
REMARK VINA RESULT:    -2.936     20.234     20.465
REMARK INTER + INTRA:          -3.193
REMARK INTER:                  -3.193
REMARK INTRA:                   0.000
REMARK UNBOUND:                 0.000
REMARK SMILES [NH3+]CC(=O)[O-]
REMARK SMILES IDX 2 1 1 2 3 6 4 7 5 8
REMARK H PARENT 1 3 1 4 1 5
REMARK Flexibility Score: inf
ROOT
ATOM      1  C   UNL     1      19.417  69.280   1.399  1.00  0.00     0.312 C 
ENDROOT
BRANCH   1   2
ATOM      2  N   UNL     1      18.399  70.118   0.769  1.00  0.00    -0.353 N 
ATOM      3  H   UNL     1      17.603  69.526   0.435  1.00  0.00     0.344 HD
ATOM      4  H   UNL     1      18.049  70.830   1.451  1.00  0.00     0.344 HD
ATOM      5  H   UNL     1      18.821  70.612  -0.050  1.00  0.00     0.344 HD
ENDBRANCH   1   2
BRANCH   1   6
ATOM      6  C   UNL     1      19.409  67.903   0.808  1.00  0.00     0.096 C 
ATOM      7  O   UNL     1      19.201  67.743  -0.422  1.00  0.00    -0.544 OA
ATOM      8  O   UNL     1      19.683  66.802   1.609  1.00  0.00    -0.544 OA
ENDBRANCH   1   6
TORSDOF 2
ENDMDL
MODEL 8
REMARK VINA RESULT:    -2.917     19.611     19.903
REMARK INTER + INTRA:          -3.172
REMARK INTER:                  -3.172
REMARK INTRA:                   0.000
REMARK UNBOUND:                 0.000
REMARK SMILES [NH3+]CC(=O)[O-]
REMARK SMILES IDX 2 1 1 2 3 6 4 7 5 8
REMARK H PARENT 1 3 1 4 1 5
REMARK Flexibility Score: inf
ROOT
ATOM      1  C   UNL     1      21.371  71.695  -0.295  1.00  0.00     0.312 C 
ENDROOT
BRANCH   1   2
ATOM      2  N   UNL     1      21.674  72.733  -1.278  1.00  0.00    -0.353 N 
ATOM      3  H   UNL     1      22.688  72.986  -1.232  1.00  0.00     0.344 HD
ATOM      4  H   UNL     1      21.438  72.395  -2.241  1.00  0.00     0.344 HD
ATOM      5  H   UNL     1      21.102  73.583  -1.068  1.00  0.00     0.344 HD
ENDBRANCH   1   2
BRANCH   1   6
ATOM      6  C   UNL     1      22.012  70.398  -0.680  1.00  0.00     0.096 C 
ATOM      7  O   UNL     1      22.858  69.859   0.081  1.00  0.00    -0.544 OA
ATOM      8  O   UNL     1      21.636  69.758  -1.854  1.00  0.00    -0.544 OA
ENDBRANCH   1   6
TORSDOF 2
ENDMDL
MODEL 9
REMARK VINA RESULT:    -2.852     19.031     19.275
REMARK INTER + INTRA:          -3.102
REMARK INTER:                  -3.102
REMARK INTRA:                   0.000
REMARK UNBOUND:                 0.000
REMARK SMILES [NH3+]CC(=O)[O-]
REMARK SMILES IDX 2 1 1 2 3 6 4 7 5 8
REMARK H PARENT 1 3 1 4 1 5
REMARK Flexibility Score: inf
ROOT
ATOM      1  C   UNL     1      22.015  68.986   0.232  1.00  0.00     0.312 C 
ENDROOT
BRANCH   1   2
ATOM      2  N   UNL     1      23.454  68.897   0.469  1.00  0.00    -0.353 N 
ATOM      3  H   UNL     1      23.760  67.896   0.448  1.00  0.00     0.344 HD
ATOM      4  H   UNL     1      23.972  69.441  -0.261  1.00  0.00     0.344 HD
ATOM      5  H   UNL     1      23.672  69.299   1.409  1.00  0.00     0.344 HD
ENDBRANCH   1   2
BRANCH   1   6
ATOM      6  C   UNL     1      21.721  69.926  -0.896  1.00  0.00     0.096 C 
ATOM      7  O   UNL     1      21.346  69.479  -2.011  1.00  0.00    -0.544 OA
ATOM      8  O   UNL     1      21.812  71.298  -0.700  1.00  0.00    -0.544 OA
ENDBRANCH   1   6
TORSDOF 2
ENDMDL
