MODEL 1
REMARK VINA RESULT:    -4.067      0.000      0.000
REMARK INTER + INTRA:          -4.186
REMARK INTER:                  -4.186
REMARK INTRA:                   0.000
REMARK UNBOUND:                 0.000
REMARK SMILES Oc1ccc2[nH]ccc2c1
REMARK SMILES IDX 3 1 4 2 5 3 9 4 8 5 7 6 6 7 10 8 2 9 1 11
REMARK H PARENT 6 10 1 12
REMARK Flexibility Score: inf
ROOT
ATOM      1  C   UNL     1      -4.243  -9.287  -3.415  1.00  0.00     0.048 A 
ATOM      2  C   UNL     1      -5.066  -8.877  -4.481  1.00  0.00     0.030 A 
ATOM      3  C   UNL     1      -6.442  -8.845  -4.265  1.00  0.00     0.046 A 
ATOM      4  C   UNL     1      -6.989  -9.196  -3.060  1.00  0.00     0.003 A 
ATOM      5  C   UNL     1      -8.356  -9.058  -3.172  1.00  0.00     0.028 A 
ATOM      6  C   UNL     1      -8.570  -8.617  -4.475  1.00  0.00     0.083 A 
ATOM      7  N   UNL     1      -7.398  -8.487  -5.138  1.00  0.00    -0.361 N 
ATOM      8  C   UNL     1      -6.204  -9.607  -1.985  1.00  0.00     0.056 A 
ATOM      9  C   UNL     1      -4.806  -9.651  -2.170  1.00  0.00     0.116 A 
ATOM     10  H   UNL     1      -7.268  -8.175  -6.126  1.00  0.00     0.166 HD
ENDROOT
BRANCH   9  11
ATOM     11  O   UNL     1      -3.969 -10.053  -1.133  1.00  0.00    -0.508 OA
ATOM     12  H   UNL     1      -4.283 -10.703  -0.422  1.00  0.00     0.293 HD
ENDBRANCH   9  11
TORSDOF 1
ENDMDL
MODEL 2
REMARK VINA RESULT:    -3.795     10.766     11.203
REMARK INTER + INTRA:          -3.906
REMARK INTER:                  -3.906
REMARK INTRA:                   0.000
REMARK UNBOUND:                 0.000
REMARK SMILES Oc1ccc2[nH]ccc2c1
REMARK SMILES IDX 3 1 4 2 5 3 9 4 8 5 7 6 6 7 10 8 2 9 1 11
REMARK H PARENT 6 10 1 12
REMARK Flexibility Score: inf
ROOT
ATOM      1  C   UNL     1       2.633  -3.065  -7.404  1.00  0.00     0.048 A 
ATOM      2  C   UNL     1       1.703  -3.682  -8.262  1.00  0.00     0.030 A 
ATOM      3  C   UNL     1       0.600  -2.935  -8.670  1.00  0.00     0.046 A 
ATOM      4  C   UNL     1       0.414  -1.642  -8.260  1.00  0.00     0.003 A 
ATOM      5  C   UNL     1      -0.755  -1.191  -8.833  1.00  0.00     0.028 A 
ATOM      6  C   UNL     1      -1.229  -2.265  -9.582  1.00  0.00     0.083 A 
ATOM      7  N   UNL     1      -0.397  -3.327  -9.480  1.00  0.00    -0.361 N 
ATOM      8  C   UNL     1       1.314  -1.002  -7.411  1.00  0.00     0.056 A 
ATOM      9  C   UNL     1       2.443  -1.730  -6.978  1.00  0.00     0.116 A 
ATOM     10  H   UNL     1      -0.512  -4.259  -9.937  1.00  0.00     0.166 HD
ENDROOT
BRANCH   9  11
ATOM     11  O   UNL     1       3.378  -1.143  -6.129  1.00  0.00    -0.508 OA
ATOM     12  H   UNL     1       3.612  -1.558  -5.234  1.00  0.00     0.293 HD
ENDBRANCH   9  11
TORSDOF 1
ENDMDL
MODEL 3
REMARK VINA RESULT:    -3.711     17.045     17.397
REMARK INTER + INTRA:          -3.819
REMARK INTER:                  -3.819
REMARK INTRA:                   0.000
REMARK UNBOUND:                 0.000
REMARK SMILES Oc1ccc2[nH]ccc2c1
REMARK SMILES IDX 3 1 4 2 5 3 9 4 8 5 7 6 6 7 10 8 2 9 1 11
REMARK H PARENT 6 10 1 12
REMARK Flexibility Score: inf
ROOT
ATOM      1  C   UNL     1      -3.595   6.338  -0.591  1.00  0.00     0.048 A 
ATOM      2  C   UNL     1      -3.972   6.449   0.760  1.00  0.00     0.030 A 
ATOM      3  C   UNL     1      -3.000   6.847   1.676  1.00  0.00     0.046 A 
ATOM      4  C   UNL     1      -1.717   7.125   1.288  1.00  0.00     0.003 A 
ATOM      5  C   UNL     1      -1.013   7.484   2.417  1.00  0.00     0.028 A 
ATOM      6  C   UNL     1      -1.933   7.404   3.459  1.00  0.00     0.083 A 
ATOM      7  N   UNL     1      -3.145   7.015   3.001  1.00  0.00    -0.361 N 
ATOM      8  C   UNL     1      -1.310   7.024  -0.041  1.00  0.00     0.056 A 
ATOM      9  C   UNL     1      -2.271   6.624  -0.995  1.00  0.00     0.116 A 
ATOM     10  H   UNL     1      -4.013   6.873   3.565  1.00  0.00     0.166 HD
ENDROOT
BRANCH   9  11
ATOM     11  O   UNL     1      -1.924   6.506  -2.338  1.00  0.00    -0.508 OA
ATOM     12  H   UNL     1      -2.016   7.287  -2.978  1.00  0.00     0.293 HD
ENDBRANCH   9  11
TORSDOF 1
ENDMDL
MODEL 4
REMARK VINA RESULT:    -3.680     11.198     12.213
REMARK INTER + INTRA:          -3.788
REMARK INTER:                  -3.788
REMARK INTRA:                   0.000
REMARK UNBOUND:                 0.000
REMARK SMILES Oc1ccc2[nH]ccc2c1
REMARK SMILES IDX 3 1 4 2 5 3 9 4 8 5 7 6 6 7 10 8 2 9 1 11
REMARK H PARENT 6 10 1 12
REMARK Flexibility Score: inf
ROOT
ATOM      1  C   UNL     1       0.932  -1.141  -7.721  1.00  0.00     0.048 A 
ATOM      2  C   UNL     1       2.151  -0.871  -7.071  1.00  0.00     0.030 A 
ATOM      3  C   UNL     1       3.054  -1.921  -6.920  1.00  0.00     0.046 A 
ATOM      4  C   UNL     1       2.780  -3.178  -7.386  1.00  0.00     0.003 A 
ATOM      5  C   UNL     1       3.863  -3.975  -7.083  1.00  0.00     0.028 A 
ATOM      6  C   UNL     1       4.762  -3.134  -6.432  1.00  0.00     0.083 A 
ATOM      7  N   UNL     1       4.263  -1.880  -6.336  1.00  0.00    -0.361 N 
ATOM      8  C   UNL     1       1.585  -3.480  -8.034  1.00  0.00     0.056 A 
ATOM      9  C   UNL     1       0.646  -2.439  -8.203  1.00  0.00     0.116 A 
ATOM     10  H   UNL     1       4.726  -1.054  -5.895  1.00  0.00     0.166 HD
ENDROOT
BRANCH   9  11
ATOM     11  O   UNL     1      -0.567  -2.679  -8.843  1.00  0.00    -0.508 OA
ATOM     12  H   UNL     1      -1.214  -3.381  -8.503  1.00  0.00     0.293 HD
ENDBRANCH   9  11
TORSDOF 1
ENDMDL
MODEL 5
REMARK VINA RESULT:    -3.584     18.331     18.804
REMARK INTER + INTRA:          -3.689
REMARK INTER:                  -3.689
REMARK INTRA:                   0.000
REMARK UNBOUND:                 0.000
REMARK SMILES Oc1ccc2[nH]ccc2c1
REMARK SMILES IDX 3 1 4 2 5 3 9 4 8 5 7 6 6 7 10 8 2 9 1 11
REMARK H PARENT 6 10 1 12
REMARK Flexibility Score: inf
ROOT
ATOM      1  C   UNL     1      -1.749   6.890   1.164  1.00  0.00     0.048 A 
ATOM      2  C   UNL     1      -0.944   7.894   1.733  1.00  0.00     0.030 A 
ATOM      3  C   UNL     1      -0.139   8.644   0.879  1.00  0.00     0.046 A 
ATOM      4  C   UNL     1      -0.123   8.424  -0.472  1.00  0.00     0.003 A 
ATOM      5  C   UNL     1       0.765   9.321  -1.025  1.00  0.00     0.028 A 
ATOM      6  C   UNL     1       1.253  10.059   0.050  1.00  0.00     0.083 A 
ATOM      7  N   UNL     1       0.697   9.642   1.211  1.00  0.00    -0.361 N 
ATOM      8  C   UNL     1      -0.907   7.439  -1.068  1.00  0.00     0.056 A 
ATOM      9  C   UNL     1      -1.734   6.660  -0.232  1.00  0.00     0.116 A 
ATOM     10  H   UNL     1       0.884  10.019   2.166  1.00  0.00     0.166 HD
ENDROOT
BRANCH   9  11
ATOM     11  O   UNL     1      -2.541   5.660  -0.769  1.00  0.00    -0.508 OA
ATOM     12  H   UNL     1      -3.190   5.854  -1.522  1.00  0.00     0.293 HD
ENDBRANCH   9  11
TORSDOF 1
ENDMDL
MODEL 6
REMARK VINA RESULT:    -3.554     19.874     20.386
REMARK INTER + INTRA:          -3.658
REMARK INTER:                  -3.658
REMARK INTRA:                   0.000
REMARK UNBOUND:                 0.000
REMARK SMILES Oc1ccc2[nH]ccc2c1
REMARK SMILES IDX 3 1 4 2 5 3 9 4 8 5 7 6 6 7 10 8 2 9 1 11
REMARK H PARENT 6 10 1 12
REMARK Flexibility Score: inf
ROOT
ATOM      1  C   UNL     1       7.474   0.893   6.789  1.00  0.00     0.048 A 
ATOM      2  C   UNL     1       6.780   1.970   7.372  1.00  0.00     0.030 A 
ATOM      3  C   UNL     1       6.731   3.170   6.666  1.00  0.00     0.046 A 
ATOM      4  C   UNL     1       7.332   3.311   5.445  1.00  0.00     0.003 A 
ATOM      5  C   UNL     1       7.102   4.602   5.019  1.00  0.00     0.028 A 
ATOM      6  C   UNL     1       6.351   5.190   6.033  1.00  0.00     0.083 A 
ATOM      7  N   UNL     1       6.127   4.311   7.037  1.00  0.00    -0.361 N 
ATOM      8  C   UNL     1       8.027   2.267   4.840  1.00  0.00     0.056 A 
ATOM      9  C   UNL     1       8.097   1.037   5.528  1.00  0.00     0.116 A 
ATOM     10  H   UNL     1       5.595   4.489   7.917  1.00  0.00     0.166 HD
ENDROOT
BRANCH   9  11
ATOM     11  O   UNL     1       8.777  -0.045   4.974  1.00  0.00    -0.508 OA
ATOM     12  H   UNL     1       9.734   0.042   4.653  1.00  0.00     0.293 HD
ENDBRANCH   9  11
TORSDOF 1
ENDMDL
MODEL 7
REMARK VINA RESULT:    -3.537     16.639     16.799
REMARK INTER + INTRA:          -3.640
REMARK INTER:                  -3.640
REMARK INTRA:                   0.000
REMARK UNBOUND:                 0.000
REMARK SMILES Oc1ccc2[nH]ccc2c1
REMARK SMILES IDX 3 1 4 2 5 3 9 4 8 5 7 6 6 7 10 8 2 9 1 11
REMARK H PARENT 6 10 1 12
REMARK Flexibility Score: inf
ROOT
ATOM      1  C   UNL     1      -1.388   7.001   0.133  1.00  0.00     0.048 A 
ATOM      2  C   UNL     1      -1.764   7.117   1.484  1.00  0.00     0.030 A 
ATOM      3  C   UNL     1      -3.069   6.769   1.827  1.00  0.00     0.046 A 
ATOM      4  C   UNL     1      -3.966   6.328   0.893  1.00  0.00     0.003 A 
ATOM      5  C   UNL     1      -5.151   6.071   1.547  1.00  0.00     0.028 A 
ATOM      6  C   UNL     1      -4.903   6.379   2.882  1.00  0.00     0.083 A 
ATOM      7  N   UNL     1      -3.629   6.804   3.048  1.00  0.00    -0.361 N 
ATOM      8  C   UNL     1      -3.627   6.202  -0.453  1.00  0.00     0.056 A 
ATOM      9  C   UNL     1      -2.312   6.546  -0.835  1.00  0.00     0.116 A 
ATOM     10  H   UNL     1      -3.179   7.100   3.943  1.00  0.00     0.166 HD
ENDROOT
BRANCH   9  11
ATOM     11  O   UNL     1      -1.914   6.441  -2.165  1.00  0.00    -0.508 OA
ATOM     12  H   UNL     1      -2.324   7.023  -2.887  1.00  0.00     0.293 HD
ENDBRANCH   9  11
TORSDOF 1
ENDMDL
MODEL 8
REMARK VINA RESULT:    -3.519     18.019     18.417
REMARK INTER + INTRA:          -3.622
REMARK INTER:                  -3.622
REMARK INTRA:                   0.000
REMARK UNBOUND:                 0.000
REMARK SMILES Oc1ccc2[nH]ccc2c1
REMARK SMILES IDX 3 1 4 2 5 3 9 4 8 5 7 6 6 7 10 8 2 9 1 11
REMARK H PARENT 6 10 1 12
REMARK Flexibility Score: inf
ROOT
ATOM      1  C   UNL     1      -1.922   6.412   0.664  1.00  0.00     0.048 A 
ATOM      2  C   UNL     1      -1.655   6.754  -0.675  1.00  0.00     0.030 A 
ATOM      3  C   UNL     1      -0.803   7.831  -0.913  1.00  0.00     0.046 A 
ATOM      4  C   UNL     1      -0.237   8.542   0.111  1.00  0.00     0.003 A 
ATOM      5  C   UNL     1       0.541   9.529  -0.453  1.00  0.00     0.028 A 
ATOM      6  C   UNL     1       0.403   9.359  -1.828  1.00  0.00     0.083 A 
ATOM      7  N   UNL     1      -0.419   8.320  -2.104  1.00  0.00    -0.361 N 
ATOM      8  C   UNL     1      -0.481   8.231   1.447  1.00  0.00     0.056 A 
ATOM      9  C   UNL     1      -1.339   7.145   1.724  1.00  0.00     0.116 A 
ATOM     10  H   UNL     1      -0.696   7.975  -3.050  1.00  0.00     0.166 HD
ENDROOT
BRANCH   9  11
ATOM     11  O   UNL     1      -1.621   6.786   3.039  1.00  0.00    -0.508 OA
ATOM     12  H   UNL     1      -1.383   5.869   3.399  1.00  0.00     0.293 HD
ENDBRANCH   9  11
TORSDOF 1
ENDMDL
MODEL 9
REMARK VINA RESULT:    -3.517     17.853     18.055
REMARK INTER + INTRA:          -3.620
REMARK INTER:                  -3.620
REMARK INTRA:                   0.000
REMARK UNBOUND:                 0.000
REMARK SMILES Oc1ccc2[nH]ccc2c1
REMARK SMILES IDX 3 1 4 2 5 3 9 4 8 5 7 6 6 7 10 8 2 9 1 11
REMARK H PARENT 6 10 1 12
REMARK Flexibility Score: inf
ROOT
ATOM      1  C   UNL     1      -1.633   7.548   1.475  1.00  0.00     0.048 A 
ATOM      2  C   UNL     1      -1.364   7.547   2.857  1.00  0.00     0.030 A 
ATOM      3  C   UNL     1      -2.416   7.258   3.723  1.00  0.00     0.046 A 
ATOM      4  C   UNL     1      -3.675   6.982   3.260  1.00  0.00     0.003 A 
ATOM      5  C   UNL     1      -4.474   6.742   4.357  1.00  0.00     0.028 A 
ATOM      6  C   UNL     1      -3.634   6.889   5.458  1.00  0.00     0.083 A 
ATOM      7  N   UNL     1      -2.378   7.204   5.065  1.00  0.00    -0.361 N 
ATOM      8  C   UNL     1      -3.975   6.975   1.900  1.00  0.00     0.056 A 
ATOM      9  C   UNL     1      -2.932   7.264   0.994  1.00  0.00     0.116 A 
ATOM     10  H   UNL     1      -1.552   7.371   5.682  1.00  0.00     0.166 HD
ENDROOT
BRANCH   9  11
ATOM     11  O   UNL     1      -3.170   7.272  -0.378  1.00  0.00    -0.508 OA
ATOM     12  H   UNL     1      -3.625   8.056  -0.830  1.00  0.00     0.293 HD
ENDBRANCH   9  11
TORSDOF 1
ENDMDL
