MODEL 1
REMARK VINA RESULT:    -7.554      0.000      0.000
REMARK INTER + INTRA:          -8.722
REMARK INTER:                  -8.658
REMARK INTRA:                  -0.065
REMARK UNBOUND:                -0.065
REMARK SMILES O=C1C[C@H](c2ccc(O)cc2)Oc2cc(O)cc(O)c21
REMARK SMILES IDX 3 1 4 2 12 3 13 4 14 5 15 6 17 7 18 8 20 9 2 10 1 11 5 12
REMARK SMILES IDX 6 13 11 14 7 15 10 16 8 17 9 18 19 20 16 22
REMARK H PARENT 9 19 19 21 16 23
REMARK Flexibility Score: inf
ROOT
ATOM      1  C   UNL     1     152.807 146.193 134.358  1.00  0.00     0.131 C 
ATOM      2  C   UNL     1     152.354 145.592 133.016  1.00  0.00     0.211 C 
ATOM      3  O   UNL     1     153.101 146.131 131.919  1.00  0.00    -0.484 OA
ATOM      4  C   UNL     1     154.433 146.558 132.011  1.00  0.00     0.138 A 
ATOM      5  C   UNL     1     155.115 146.890 130.838  1.00  0.00     0.093 A 
ATOM      6  C   UNL     1     156.454 147.282 130.886  1.00  0.00     0.123 A 
ATOM      7  C   UNL     1     157.107 147.371 132.121  1.00  0.00     0.093 A 
ATOM      8  C   UNL     1     156.429 147.090 133.314  1.00  0.00     0.133 A 
ATOM      9  C   UNL     1     155.082 146.644 133.262  1.00  0.00     0.102 A 
ATOM     10  C   UNL     1     154.302 146.221 134.447  1.00  0.00     0.174 C 
ATOM     11  O   UNL     1     154.864 145.838 135.508  1.00  0.00    -0.294 OA
ENDROOT
BRANCH   2  12
ATOM     12  C   UNL     1     152.422 144.075 133.026  1.00  0.00    -0.007 A 
ATOM     13  C   UNL     1     151.971 143.309 131.934  1.00  0.00     0.011 A 
ATOM     14  C   UNL     1     152.982 143.411 134.136  1.00  0.00     0.011 A 
ATOM     15  C   UNL     1     152.077 141.915 131.954  1.00  0.00     0.046 A 
ATOM     16  C   UNL     1     153.082 142.017 134.157  1.00  0.00     0.046 A 
ATOM     17  C   UNL     1     152.630 141.265 133.064  1.00  0.00     0.115 A 
BRANCH  17  18
ATOM     18  O   UNL     1     152.729 139.877 133.065  1.00  0.00    -0.508 OA
ATOM     19  H   UNL     1     152.389 139.326 133.849  1.00  0.00     0.293 HD
ENDBRANCH  17  18
ENDBRANCH   2  12
BRANCH   8  20
ATOM     20  O   UNL     1     157.119 147.298 134.512  1.00  0.00    -0.507 OA
ATOM     21  H   UNL     1     158.037 146.926 134.707  1.00  0.00     0.293 HD
ENDBRANCH   8  20
BRANCH   6  22
ATOM     22  O   UNL     1     157.125 147.584 129.702  1.00  0.00    -0.508 OA
ATOM     23  H   UNL     1     157.964 147.084 129.427  1.00  0.00     0.293 HD
ENDBRANCH   6  22
TORSDOF 4
ENDMDL
MODEL 2
REMARK VINA RESULT:    -6.627      2.736      5.848
REMARK INTER + INTRA:          -7.660
REMARK INTER:                  -7.195
REMARK INTRA:                  -0.465
REMARK UNBOUND:                -0.065
REMARK SMILES O=C1C[C@H](c2ccc(O)cc2)Oc2cc(O)cc(O)c21
REMARK SMILES IDX 3 1 4 2 12 3 13 4 14 5 15 6 17 7 18 8 20 9 2 10 1 11 5 12
REMARK SMILES IDX 6 13 11 14 7 15 10 16 8 17 9 18 19 20 16 22
REMARK H PARENT 9 19 19 21 16 23
REMARK Flexibility Score: inf
ROOT
ATOM      1  C   UNL     1     153.864 144.992 134.299  1.00  0.00     0.131 C 
ATOM      2  C   UNL     1     153.288 146.291 133.706  1.00  0.00     0.211 C 
ATOM      3  O   UNL     1     152.743 146.075 132.398  1.00  0.00    -0.484 OA
ATOM      4  C   UNL     1     152.165 144.869 131.977  1.00  0.00     0.138 A 
ATOM      5  C   UNL     1     151.502 144.834 130.749  1.00  0.00     0.093 A 
ATOM      6  C   UNL     1     150.882 143.662 130.314  1.00  0.00     0.123 A 
ATOM      7  C   UNL     1     150.951 142.506 131.101  1.00  0.00     0.093 A 
ATOM      8  C   UNL     1     151.653 142.505 132.315  1.00  0.00     0.133 A 
ATOM      9  C   UNL     1     152.243 143.710 132.780  1.00  0.00     0.102 A 
ATOM     10  C   UNL     1     152.917 143.850 134.091  1.00  0.00     0.174 C 
ATOM     11  O   UNL     1     152.677 143.066 135.047  1.00  0.00    -0.294 OA
ENDROOT
BRANCH   2  12
ATOM     12  C   UNL     1     152.258 146.923 134.626  1.00  0.00    -0.007 A 
ATOM     13  C   UNL     1     152.404 146.893 136.026  1.00  0.00     0.011 A 
ATOM     14  C   UNL     1     151.146 147.587 134.072  1.00  0.00     0.011 A 
ATOM     15  C   UNL     1     151.459 147.512 136.849  1.00  0.00     0.046 A 
ATOM     16  C   UNL     1     150.199 148.201 134.897  1.00  0.00     0.046 A 
ATOM     17  C   UNL     1     150.355 148.166 136.290  1.00  0.00     0.115 A 
BRANCH  17  18
ATOM     18  O   UNL     1     149.426 148.778 137.125  1.00  0.00    -0.508 OA
ATOM     19  H   UNL     1     149.144 148.350 138.003  1.00  0.00     0.293 HD
ENDBRANCH  17  18
ENDBRANCH   2  12
BRANCH   8  20
ATOM     20  O   UNL     1     151.762 141.288 132.994  1.00  0.00    -0.507 OA
ATOM     21  H   UNL     1     151.535 140.392 132.587  1.00  0.00     0.293 HD
ENDBRANCH   8  20
BRANCH   6  22
ATOM     22  O   UNL     1     150.202 143.654 129.097  1.00  0.00    -0.508 OA
ATOM     23  H   UNL     1     150.653 143.350 128.241  1.00  0.00     0.293 HD
ENDBRANCH   6  22
TORSDOF 4
ENDMDL
MODEL 3
REMARK VINA RESULT:    -5.854      1.510      6.182
REMARK INTER + INTRA:          -6.775
REMARK INTER:                  -6.498
REMARK INTRA:                  -0.277
REMARK UNBOUND:                -0.065
REMARK SMILES O=C1C[C@H](c2ccc(O)cc2)Oc2cc(O)cc(O)c21
REMARK SMILES IDX 3 1 4 2 12 3 13 4 14 5 15 6 17 7 18 8 20 9 2 10 1 11 5 12
REMARK SMILES IDX 6 13 11 14 7 15 10 16 8 17 9 18 19 20 16 22
REMARK H PARENT 9 19 19 21 16 23
REMARK Flexibility Score: inf
ROOT
ATOM      1  C   UNL     1     151.680 146.045 132.893  1.00  0.00     0.131 C 
ATOM      2  C   UNL     1     153.074 146.015 133.544  1.00  0.00     0.211 C 
ATOM      3  O   UNL     1     153.365 144.730 134.107  1.00  0.00    -0.484 OA
ATOM      4  C   UNL     1     152.870 143.520 133.599  1.00  0.00     0.138 A 
ATOM      5  C   UNL     1     153.369 142.322 134.115  1.00  0.00     0.093 A 
ATOM      6  C   UNL     1     152.929 141.098 133.608  1.00  0.00     0.123 A 
ATOM      7  C   UNL     1     151.961 141.073 132.597  1.00  0.00     0.093 A 
ATOM      8  C   UNL     1     151.412 142.262 132.098  1.00  0.00     0.133 A 
ATOM      9  C   UNL     1     151.894 143.507 132.580  1.00  0.00     0.102 A 
ATOM     10  C   UNL     1     151.462 144.823 132.054  1.00  0.00     0.174 C 
ATOM     11  O   UNL     1     150.964 144.945 130.904  1.00  0.00    -0.294 OA
ENDROOT
BRANCH   2  12
ATOM     12  C   UNL     1     154.160 146.439 132.571  1.00  0.00    -0.007 A 
ATOM     13  C   UNL     1     155.525 146.251 132.861  1.00  0.00     0.011 A 
ATOM     14  C   UNL     1     153.801 147.003 131.330  1.00  0.00     0.011 A 
ATOM     15  C   UNL     1     156.504 146.619 131.933  1.00  0.00     0.046 A 
ATOM     16  C   UNL     1     154.781 147.375 130.405  1.00  0.00     0.046 A 
ATOM     17  C   UNL     1     156.137 147.182 130.705  1.00  0.00     0.115 A 
BRANCH  17  18
ATOM     18  O   UNL     1     157.125 147.540 129.794  1.00  0.00    -0.508 OA
ATOM     19  H   UNL     1     157.636 146.837 129.266  1.00  0.00     0.293 HD
ENDBRANCH  17  18
ENDBRANCH   2  12
BRANCH   8  20
ATOM     20  O   UNL     1     150.379 142.152 131.163  1.00  0.00    -0.507 OA
ATOM     21  H   UNL     1     149.474 141.751 131.365  1.00  0.00     0.293 HD
ENDBRANCH   8  20
BRANCH   6  22
ATOM     22  O   UNL     1     153.457 139.913 134.117  1.00  0.00    -0.508 OA
ATOM     23  H   UNL     1     153.439 139.052 133.580  1.00  0.00     0.293 HD
ENDBRANCH   6  22
TORSDOF 4
ENDMDL
MODEL 4
REMARK VINA RESULT:    -5.630      1.523      6.126
REMARK INTER + INTRA:          -6.518
REMARK INTER:                  -6.223
REMARK INTRA:                  -0.295
REMARK UNBOUND:                -0.065
REMARK SMILES O=C1C[C@H](c2ccc(O)cc2)Oc2cc(O)cc(O)c21
REMARK SMILES IDX 3 1 4 2 12 3 13 4 14 5 15 6 17 7 18 8 20 9 2 10 1 11 5 12
REMARK SMILES IDX 6 13 11 14 7 15 10 16 8 17 9 18 19 20 16 22
REMARK H PARENT 9 19 19 21 16 23
REMARK Flexibility Score: inf
ROOT
ATOM      1  C   UNL     1     151.621 146.120 132.620  1.00  0.00     0.131 C 
ATOM      2  C   UNL     1     153.016 146.155 133.268  1.00  0.00     0.211 C 
ATOM      3  O   UNL     1     153.323 144.919 133.924  1.00  0.00    -0.484 OA
ATOM      4  C   UNL     1     152.843 143.669 133.507  1.00  0.00     0.138 A 
ATOM      5  C   UNL     1     153.357 142.518 134.108  1.00  0.00     0.093 A 
ATOM      6  C   UNL     1     152.931 141.255 133.692  1.00  0.00     0.123 A 
ATOM      7  C   UNL     1     151.962 141.144 132.688  1.00  0.00     0.093 A 
ATOM      8  C   UNL     1     151.398 142.286 132.105  1.00  0.00     0.133 A 
ATOM      9  C   UNL     1     151.865 143.570 132.494  1.00  0.00     0.102 A 
ATOM     10  C   UNL     1     151.416 144.837 131.874  1.00  0.00     0.174 C 
ATOM     11  O   UNL     1     150.915 144.869 130.718  1.00  0.00    -0.294 OA
ENDROOT
BRANCH   2  12
ATOM     12  C   UNL     1     154.095 146.520 132.264  1.00  0.00    -0.007 A 
ATOM     13  C   UNL     1     153.775 146.969 130.969  1.00  0.00     0.011 A 
ATOM     14  C   UNL     1     155.450 146.443 132.642  1.00  0.00     0.011 A 
ATOM     15  C   UNL     1     154.787 147.331 130.075  1.00  0.00     0.046 A 
ATOM     16  C   UNL     1     156.461 146.800 131.745  1.00  0.00     0.046 A 
ATOM     17  C   UNL     1     156.131 147.247 130.458  1.00  0.00     0.115 A 
BRANCH  17  18
ATOM     18  O   UNL     1     157.125 147.613 129.555  1.00  0.00    -0.508 OA
ATOM     19  H   UNL     1     158.064 147.230 129.622  1.00  0.00     0.293 HD
ENDBRANCH  17  18
ENDBRANCH   2  12
BRANCH   8  20
ATOM     20  O   UNL     1     150.365 142.096 131.182  1.00  0.00    -0.507 OA
ATOM     21  H   UNL     1     149.649 141.389 131.274  1.00  0.00     0.293 HD
ENDBRANCH   8  20
BRANCH   6  22
ATOM     22  O   UNL     1     153.474 140.116 134.286  1.00  0.00    -0.508 OA
ATOM     23  H   UNL     1     152.906 139.489 134.846  1.00  0.00     0.293 HD
ENDBRANCH   6  22
TORSDOF 4
ENDMDL
MODEL 5
REMARK VINA RESULT:    -5.231      1.588      2.677
REMARK INTER + INTRA:          -6.061
REMARK INTER:                  -6.100
REMARK INTRA:                   0.040
REMARK UNBOUND:                -0.065
REMARK SMILES O=C1C[C@H](c2ccc(O)cc2)Oc2cc(O)cc(O)c21
REMARK SMILES IDX 3 1 4 2 12 3 13 4 14 5 15 6 17 7 18 8 20 9 2 10 1 11 5 12
REMARK SMILES IDX 6 13 11 14 7 15 10 16 8 17 9 18 19 20 16 22
REMARK H PARENT 9 19 19 21 16 23
REMARK Flexibility Score: inf
ROOT
ATOM      1  C   UNL     1     154.364 146.150 135.241  1.00  0.00     0.131 C 
ATOM      2  C   UNL     1     152.941 145.584 135.084  1.00  0.00     0.211 C 
ATOM      3  O   UNL     1     152.264 146.167 133.964  1.00  0.00    -0.484 OA
ATOM      4  C   UNL     1     152.909 146.609 132.800  1.00  0.00     0.138 A 
ATOM      5  C   UNL     1     152.131 146.986 131.703  1.00  0.00     0.093 A 
ATOM      6  C   UNL     1     152.737 147.395 130.514  1.00  0.00     0.123 A 
ATOM      7  C   UNL     1     154.133 147.455 130.432  1.00  0.00     0.093 A 
ATOM      8  C   UNL     1     154.933 147.127 131.535  1.00  0.00     0.133 A 
ATOM      9  C   UNL     1     154.317 146.665 132.729  1.00  0.00     0.102 A 
ATOM     10  C   UNL     1     155.064 146.195 133.918  1.00  0.00     0.174 C 
ATOM     11  O   UNL     1     156.253 145.787 133.835  1.00  0.00    -0.294 OA
ENDROOT
BRANCH   2  12
ATOM     12  C   UNL     1     152.944 144.069 134.988  1.00  0.00    -0.007 A 
ATOM     13  C   UNL     1     152.503 143.261 136.053  1.00  0.00     0.011 A 
ATOM     14  C   UNL     1     153.365 143.449 133.794  1.00  0.00     0.011 A 
ATOM     15  C   UNL     1     152.484 141.869 135.926  1.00  0.00     0.046 A 
ATOM     16  C   UNL     1     153.350 142.057 133.670  1.00  0.00     0.046 A 
ATOM     17  C   UNL     1     152.908 141.263 134.738  1.00  0.00     0.115 A 
BRANCH  17  18
ATOM     18  O   UNL     1     152.880 139.876 134.629  1.00  0.00    -0.508 OA
ATOM     19  H   UNL     1     152.260 139.410 133.971  1.00  0.00     0.293 HD
ENDBRANCH  17  18
ENDBRANCH   2  12
BRANCH   8  20
ATOM     20  O   UNL     1     156.313 147.308 131.408  1.00  0.00    -0.507 OA
ATOM     21  H   UNL     1     156.935 147.474 132.186  1.00  0.00     0.293 HD
ENDBRANCH   8  20
BRANCH   6  22
ATOM     22  O   UNL     1     151.944 147.743 129.422  1.00  0.00    -0.508 OA
ATOM     23  H   UNL     1     150.941 147.594 129.428  1.00  0.00     0.293 HD
ENDBRANCH   6  22
TORSDOF 4
ENDMDL
