MODEL 1
REMARK VINA RESULT:    -6.892      0.000      0.000
REMARK INTER + INTRA:          -6.892
REMARK INTER:                  -6.892
REMARK INTRA:                   0.000
REMARK UNBOUND:                 0.000
REMARK SMILES C[NH+]1CCN(C2=[NH+]c3ccccc3Oc3ccc(Cl)cc32)CC1
REMARK SMILES IDX 7 1 6 2 21 3 5 4 8 5 9 6 13 7 10 8 12 9 14 10 11 11 15 12
REMARK SMILES IDX 16 13 17 14 18 15 20 16 19 17 4 18 22 19 3 20 23 21 2 22
REMARK SMILES IDX 1 23
REMARK H PARENT 7 24 2 25
REMARK Flexibility Score: inf
ROOT
ATOM      1  N   UNL     1     145.130 146.855 147.058  1.00  0.00    -0.237 N 
ATOM      2  C   UNL     1     145.589 147.719 147.926  1.00  0.00     0.286 C 
ATOM      3  C   UNL     1     145.574 149.189 147.708  1.00  0.00     0.108 A 
ATOM      4  N   UNL     1     146.189 147.230 149.142  1.00  0.00    -0.250 N 
ATOM      5  C   UNL     1     144.536 147.127 145.777  1.00  0.00     0.168 A 
ATOM      6  C   UNL     1     144.718 146.187 144.748  1.00  0.00     0.056 A 
ATOM      7  C   UNL     1     143.633 148.191 145.577  1.00  0.00     0.173 A 
ATOM      8  C   UNL     1     144.024 146.305 143.541  1.00  0.00     0.005 A 
ATOM      9  C   UNL     1     142.915 148.280 144.376  1.00  0.00     0.052 A 
ATOM     10  O   UNL     1     143.420 149.177 146.536  1.00  0.00    -0.452 OA
ATOM     11  C   UNL     1     143.117 147.348 143.359  1.00  0.00     0.004 A 
ATOM     12  C   UNL     1     144.471 149.859 147.143  1.00  0.00     0.143 A 
ATOM     13  C   UNL     1     144.413 151.258 147.167  1.00  0.00     0.049 A 
ATOM     14  C   UNL     1     145.467 152.002 147.699  1.00  0.00     0.024 A 
ATOM     15  C   UNL     1     146.585 151.351 148.221  1.00  0.00     0.042 A 
ATOM     16  C   UNL     1     146.635 149.955 148.232  1.00  0.00     0.041 A 
ATOM     17  Cl  UNL     1     147.911 152.283 148.891  1.00  0.00    -0.084 Cl
ATOM     18  C   UNL     1     147.177 146.149 149.109  1.00  0.00     0.298 C 
ATOM     19  C   UNL     1     145.623 147.609 150.439  1.00  0.00     0.298 C 
ATOM     20  C   UNL     1     148.257 146.404 150.168  1.00  0.00     0.308 C 
ATOM     21  C   UNL     1     146.748 147.817 151.456  1.00  0.00     0.308 C 
ATOM     22  N   UNL     1     147.650 146.645 151.495  1.00  0.00    -0.331 N 
ATOM     23  C   UNL     1     148.705 146.852 152.501  1.00  0.00     0.332 C 
ATOM     24  H   UNL     1     145.233 145.840 147.292  1.00  0.00     0.312 HD
ATOM     25  H   UNL     1     147.100 145.798 151.779  1.00  0.00     0.348 HD
ENDROOT
TORSDOF 0
ENDMDL
MODEL 2
REMARK VINA RESULT:    -6.801      3.447      5.229
REMARK INTER + INTRA:          -6.801
REMARK INTER:                  -6.801
REMARK INTRA:                   0.000
REMARK UNBOUND:                 0.000
REMARK SMILES C[NH+]1CCN(C2=[NH+]c3ccccc3Oc3ccc(Cl)cc32)CC1
REMARK SMILES IDX 7 1 6 2 21 3 5 4 8 5 9 6 13 7 10 8 12 9 14 10 11 11 15 12
REMARK SMILES IDX 16 13 17 14 18 15 20 16 19 17 4 18 22 19 3 20 23 21 2 22
REMARK SMILES IDX 1 23
REMARK H PARENT 7 24 2 25
REMARK Flexibility Score: inf
ROOT
ATOM      1  N   UNL     1     147.258 148.654 147.988  1.00  0.00    -0.237 N 
ATOM      2  C   UNL     1     147.301 147.398 148.351  1.00  0.00     0.286 C 
ATOM      3  C   UNL     1     146.290 146.762 149.235  1.00  0.00     0.108 A 
ATOM      4  N   UNL     1     148.412 146.588 147.915  1.00  0.00    -0.250 N 
ATOM      5  C   UNL     1     146.270 149.636 148.342  1.00  0.00     0.168 A 
ATOM      6  C   UNL     1     146.679 150.977 148.460  1.00  0.00     0.056 A 
ATOM      7  C   UNL     1     144.892 149.338 148.386  1.00  0.00     0.173 A 
ATOM      8  C   UNL     1     145.740 151.998 148.628  1.00  0.00     0.005 A 
ATOM      9  C   UNL     1     143.957 150.374 148.518  1.00  0.00     0.052 A 
ATOM     10  O   UNL     1     144.411 148.035 148.305  1.00  0.00    -0.452 OA
ATOM     11  C   UNL     1     144.380 151.697 148.647  1.00  0.00     0.004 A 
ATOM     12  C   UNL     1     144.909 147.010 149.105  1.00  0.00     0.143 A 
ATOM     13  C   UNL     1     143.987 146.222 149.804  1.00  0.00     0.049 A 
ATOM     14  C   UNL     1     144.425 145.223 150.675  1.00  0.00     0.024 A 
ATOM     15  C   UNL     1     145.791 144.999 150.847  1.00  0.00     0.042 A 
ATOM     16  C   UNL     1     146.716 145.758 150.127  1.00  0.00     0.041 A 
ATOM     17  Cl  UNL     1     146.345 143.745 151.941  1.00  0.00    -0.084 Cl
ATOM     18  C   UNL     1     149.788 147.075 148.034  1.00  0.00     0.298 C 
ATOM     19  C   UNL     1     148.169 145.394 147.101  1.00  0.00     0.298 C 
ATOM     20  C   UNL     1     150.717 145.914 148.406  1.00  0.00     0.308 C 
ATOM     21  C   UNL     1     149.148 144.286 147.499  1.00  0.00     0.308 C 
ATOM     22  N   UNL     1     150.543 144.777 147.474  1.00  0.00    -0.331 N 
ATOM     23  C   UNL     1     151.468 143.689 147.829  1.00  0.00     0.332 C 
ATOM     24  H   UNL     1     148.047 149.011 147.401  1.00  0.00     0.312 HD
ATOM     25  H   UNL     1     150.778 145.092 146.502  1.00  0.00     0.348 HD
ENDROOT
TORSDOF 0
ENDMDL
MODEL 3
REMARK VINA RESULT:    -6.625      2.509      2.855
REMARK INTER + INTRA:          -6.625
REMARK INTER:                  -6.625
REMARK INTRA:                   0.000
REMARK UNBOUND:                 0.000
REMARK SMILES C[NH+]1CCN(C2=[NH+]c3ccccc3Oc3ccc(Cl)cc32)CC1
REMARK SMILES IDX 7 1 6 2 21 3 5 4 8 5 9 6 13 7 10 8 12 9 14 10 11 11 15 12
REMARK SMILES IDX 16 13 17 14 18 15 20 16 19 17 4 18 22 19 3 20 23 21 2 22
REMARK SMILES IDX 1 23
REMARK H PARENT 7 24 2 25
REMARK Flexibility Score: inf
ROOT
ATOM      1  N   UNL     1     143.253 148.883 147.009  1.00  0.00    -0.237 N 
ATOM      2  C   UNL     1     144.037 149.066 148.039  1.00  0.00     0.286 C 
ATOM      3  C   UNL     1     145.267 149.898 147.999  1.00  0.00     0.108 A 
ATOM      4  N   UNL     1     143.727 148.390 149.275  1.00  0.00    -0.250 N 
ATOM      5  C   UNL     1     143.402 149.426 145.685  1.00  0.00     0.168 A 
ATOM      6  C   UNL     1     142.939 148.662 144.599  1.00  0.00     0.056 A 
ATOM      7  C   UNL     1     143.813 150.755 145.458  1.00  0.00     0.173 A 
ATOM      8  C   UNL     1     142.894 149.204 143.312  1.00  0.00     0.005 A 
ATOM      9  C   UNL     1     143.729 151.301 144.170  1.00  0.00     0.052 A 
ATOM     10  O   UNL     1     144.310 151.564 146.476  1.00  0.00    -0.452 OA
ATOM     11  C   UNL     1     143.281 150.527 143.100  1.00  0.00     0.004 A 
ATOM     12  C   UNL     1     145.320 151.139 147.334  1.00  0.00     0.143 A 
ATOM     13  C   UNL     1     146.422 151.984 147.514  1.00  0.00     0.049 A 
ATOM     14  C   UNL     1     147.499 151.586 148.307  1.00  0.00     0.024 A 
ATOM     15  C   UNL     1     147.478 150.341 148.935  1.00  0.00     0.042 A 
ATOM     16  C   UNL     1     146.368 149.506 148.788  1.00  0.00     0.041 A 
ATOM     17  Cl  UNL     1     148.830 149.837 149.932  1.00  0.00    -0.084 Cl
ATOM     18  C   UNL     1     143.395 146.963 149.287  1.00  0.00     0.298 C 
ATOM     19  C   UNL     1     143.471 149.169 150.489  1.00  0.00     0.298 C 
ATOM     20  C   UNL     1     143.985 146.306 150.540  1.00  0.00     0.308 C 
ATOM     21  C   UNL     1     144.056 148.444 151.705  1.00  0.00     0.308 C 
ATOM     22  N   UNL     1     143.588 147.042 151.761  1.00  0.00    -0.331 N 
ATOM     23  C   UNL     1     144.136 146.374 152.953  1.00  0.00     0.332 C 
ATOM     24  H   UNL     1     142.438 148.239 147.135  1.00  0.00     0.312 HD
ATOM     25  H   UNL     1     142.542 147.032 151.841  1.00  0.00     0.348 HD
ENDROOT
TORSDOF 0
ENDMDL
MODEL 4
REMARK VINA RESULT:    -6.340      5.514      7.837
REMARK INTER + INTRA:          -6.340
REMARK INTER:                  -6.340
REMARK INTRA:                   0.000
REMARK UNBOUND:                 0.000
REMARK SMILES C[NH+]1CCN(C2=[NH+]c3ccccc3Oc3ccc(Cl)cc32)CC1
REMARK SMILES IDX 7 1 6 2 21 3 5 4 8 5 9 6 13 7 10 8 12 9 14 10 11 11 15 12
REMARK SMILES IDX 16 13 17 14 18 15 20 16 19 17 4 18 22 19 3 20 23 21 2 22
REMARK SMILES IDX 1 23
REMARK H PARENT 7 24 2 25
REMARK Flexibility Score: inf
ROOT
ATOM      1  N   UNL     1     150.234 148.249 147.779  1.00  0.00    -0.237 N 
ATOM      2  C   UNL     1     151.276 148.896 148.233  1.00  0.00     0.286 C 
ATOM      3  C   UNL     1     152.436 148.232 148.884  1.00  0.00     0.108 A 
ATOM      4  N   UNL     1     151.292 150.335 148.147  1.00  0.00    -0.250 N 
ATOM      5  C   UNL     1     150.001 146.830 147.804  1.00  0.00     0.168 A 
ATOM      6  C   UNL     1     148.675 146.377 147.920  1.00  0.00     0.056 A 
ATOM      7  C   UNL     1     151.020 145.895 147.527  1.00  0.00     0.173 A 
ATOM      8  C   UNL     1     148.367 145.023 147.773  1.00  0.00     0.005 A 
ATOM      9  C   UNL     1     150.695 144.544 147.346  1.00  0.00     0.052 A 
ATOM     10  O   UNL     1     152.358 146.261 147.426  1.00  0.00    -0.452 OA
ATOM     11  C   UNL     1     149.377 144.108 147.477  1.00  0.00     0.004 A 
ATOM     12  C   UNL     1     152.991 147.031 148.398  1.00  0.00     0.143 A 
ATOM     13  C   UNL     1     154.211 146.569 148.904  1.00  0.00     0.049 A 
ATOM     14  C   UNL     1     154.862 147.259 149.927  1.00  0.00     0.024 A 
ATOM     15  C   UNL     1     154.300 148.424 150.448  1.00  0.00     0.042 A 
ATOM     16  C   UNL     1     153.099 148.911 149.925  1.00  0.00     0.041 A 
ATOM     17  Cl  UNL     1     155.114 149.294 151.735  1.00  0.00    -0.084 Cl
ATOM     18  C   UNL     1     150.132 151.124 148.567  1.00  0.00     0.298 C 
ATOM     19  C   UNL     1     152.349 151.009 147.389  1.00  0.00     0.298 C 
ATOM     20  C   UNL     1     150.603 152.417 149.242  1.00  0.00     0.308 C 
ATOM     21  C   UNL     1     152.751 152.305 148.099  1.00  0.00     0.308 C 
ATOM     22  N   UNL     1     151.565 153.143 148.384  1.00  0.00    -0.331 N 
ATOM     23  C   UNL     1     151.977 154.396 149.037  1.00  0.00     0.332 C 
ATOM     24  H   UNL     1     149.452 148.820 147.381  1.00  0.00     0.312 HD
ATOM     25  H   UNL     1     151.096 153.393 147.480  1.00  0.00     0.348 HD
ENDROOT
TORSDOF 0
ENDMDL
MODEL 5
REMARK VINA RESULT:    -6.295      4.852      7.495
REMARK INTER + INTRA:          -6.295
REMARK INTER:                  -6.295
REMARK INTRA:                   0.000
REMARK UNBOUND:                 0.000
REMARK SMILES C[NH+]1CCN(C2=[NH+]c3ccccc3Oc3ccc(Cl)cc32)CC1
REMARK SMILES IDX 7 1 6 2 21 3 5 4 8 5 9 6 13 7 10 8 12 9 14 10 11 11 15 12
REMARK SMILES IDX 16 13 17 14 18 15 20 16 19 17 4 18 22 19 3 20 23 21 2 22
REMARK SMILES IDX 1 23
REMARK H PARENT 7 24 2 25
REMARK Flexibility Score: inf
ROOT
ATOM      1  N   UNL     1     150.249 150.319 148.748  1.00  0.00    -0.237 N 
ATOM      2  C   UNL     1     149.763 149.108 148.832  1.00  0.00     0.286 C 
ATOM      3  C   UNL     1     150.471 147.901 148.332  1.00  0.00     0.108 A 
ATOM      4  N   UNL     1     148.448 148.926 149.396  1.00  0.00    -0.250 N 
ATOM      5  C   UNL     1     151.511 150.721 148.187  1.00  0.00     0.168 A 
ATOM      6  C   UNL     1     151.594 151.985 147.577  1.00  0.00     0.056 A 
ATOM      7  C   UNL     1     152.696 149.986 148.397  1.00  0.00     0.173 A 
ATOM      8  C   UNL     1     152.826 152.505 147.173  1.00  0.00     0.005 A 
ATOM      9  C   UNL     1     153.931 150.533 148.020  1.00  0.00     0.052 A 
ATOM     10  O   UNL     1     152.694 148.718 148.968  1.00  0.00    -0.452 OA
ATOM     11  C   UNL     1     153.995 151.782 147.403  1.00  0.00     0.004 A 
ATOM     12  C   UNL     1     151.854 147.704 148.516  1.00  0.00     0.143 A 
ATOM     13  C   UNL     1     152.428 146.459 148.231  1.00  0.00     0.049 A 
ATOM     14  C   UNL     1     151.652 145.423 147.711  1.00  0.00     0.024 A 
ATOM     15  C   UNL     1     150.291 145.620 147.481  1.00  0.00     0.042 A 
ATOM     16  C   UNL     1     149.703 146.847 147.795  1.00  0.00     0.041 A 
ATOM     17  Cl  UNL     1     149.312 144.320 146.827  1.00  0.00    -0.084 Cl
ATOM     18  C   UNL     1     147.327 149.766 148.972  1.00  0.00     0.298 C 
ATOM     19  C   UNL     1     148.276 148.093 150.589  1.00  0.00     0.298 C 
ATOM     20  C   UNL     1     146.044 148.929 148.920  1.00  0.00     0.308 C 
ATOM     21  C   UNL     1     146.964 147.310 150.490  1.00  0.00     0.308 C 
ATOM     22  N   UNL     1     145.829 148.212 150.197  1.00  0.00    -0.331 N 
ATOM     23  C   UNL     1     144.575 147.443 150.137  1.00  0.00     0.332 C 
ATOM     24  H   UNL     1     149.646 151.102 149.089  1.00  0.00     0.312 HD
ATOM     25  H   UNL     1     145.737 148.912 150.972  1.00  0.00     0.348 HD
ENDROOT
TORSDOF 0
ENDMDL
MODEL 6
REMARK VINA RESULT:    -6.158      2.660      3.413
REMARK INTER + INTRA:          -6.158
REMARK INTER:                  -6.158
REMARK INTRA:                   0.000
REMARK UNBOUND:                 0.000
REMARK SMILES C[NH+]1CCN(C2=[NH+]c3ccccc3Oc3ccc(Cl)cc32)CC1
REMARK SMILES IDX 7 1 6 2 21 3 5 4 8 5 9 6 13 7 10 8 12 9 14 10 11 11 15 12
REMARK SMILES IDX 16 13 17 14 18 15 20 16 19 17 4 18 22 19 3 20 23 21 2 22
REMARK SMILES IDX 1 23
REMARK H PARENT 7 24 2 25
REMARK Flexibility Score: inf
ROOT
ATOM      1  N   UNL     1     146.502 145.753 147.046  1.00  0.00    -0.237 N 
ATOM      2  C   UNL     1     147.494 146.050 147.844  1.00  0.00     0.286 C 
ATOM      3  C   UNL     1     147.849 147.441 148.233  1.00  0.00     0.108 A 
ATOM      4  N   UNL     1     148.328 144.984 148.343  1.00  0.00    -0.250 N 
ATOM      5  C   UNL     1     145.584 146.660 146.411  1.00  0.00     0.168 A 
ATOM      6  C   UNL     1     145.067 146.308 145.152  1.00  0.00     0.056 A 
ATOM      7  C   UNL     1     145.043 147.776 147.082  1.00  0.00     0.173 A 
ATOM      8  C   UNL     1     144.043 147.054 144.565  1.00  0.00     0.005 A 
ATOM      9  C   UNL     1     143.991 148.497 146.500  1.00  0.00     0.052 A 
ATOM     10  O   UNL     1     145.520 148.204 148.317  1.00  0.00    -0.452 OA
ATOM     11  C   UNL     1     143.499 148.144 145.244  1.00  0.00     0.004 A 
ATOM     12  C   UNL     1     146.876 148.406 148.558  1.00  0.00     0.143 A 
ATOM     13  C   UNL     1     147.262 149.623 149.132  1.00  0.00     0.049 A 
ATOM     14  C   UNL     1     148.612 149.914 149.337  1.00  0.00     0.024 A 
ATOM     15  C   UNL     1     149.587 148.985 148.976  1.00  0.00     0.042 A 
ATOM     16  C   UNL     1     149.208 147.754 148.435  1.00  0.00     0.041 A 
ATOM     17  Cl  UNL     1     151.284 149.347 149.231  1.00  0.00    -0.084 Cl
ATOM     18  C   UNL     1     148.849 143.955 147.440  1.00  0.00     0.298 C 
ATOM     19  C   UNL     1     148.437 144.758 149.786  1.00  0.00     0.298 C 
ATOM     20  C   UNL     1     150.269 143.566 147.866  1.00  0.00     0.308 C 
ATOM     21  C   UNL     1     149.868 144.342 150.140  1.00  0.00     0.308 C 
ATOM     22  N   UNL     1     150.312 143.208 149.301  1.00  0.00    -0.331 N 
ATOM     23  C   UNL     1     151.677 142.805 149.679  1.00  0.00     0.332 C 
ATOM     24  H   UNL     1     146.370 144.744 146.801  1.00  0.00     0.312 HD
ATOM     25  H   UNL     1     149.680 142.389 149.468  1.00  0.00     0.348 HD
ENDROOT
TORSDOF 0
ENDMDL
MODEL 7
REMARK VINA RESULT:    -6.148      3.509      6.230
REMARK INTER + INTRA:          -6.148
REMARK INTER:                  -6.148
REMARK INTRA:                   0.000
REMARK UNBOUND:                 0.000
REMARK SMILES C[NH+]1CCN(C2=[NH+]c3ccccc3Oc3ccc(Cl)cc32)CC1
REMARK SMILES IDX 7 1 6 2 21 3 5 4 8 5 9 6 13 7 10 8 12 9 14 10 11 11 15 12
REMARK SMILES IDX 16 13 17 14 18 15 20 16 19 17 4 18 22 19 3 20 23 21 2 22
REMARK SMILES IDX 1 23
REMARK H PARENT 7 24 2 25
REMARK Flexibility Score: inf
ROOT
ATOM      1  N   UNL     1     148.072 144.683 148.241  1.00  0.00    -0.237 N 
ATOM      2  C   UNL     1     147.896 145.978 148.206  1.00  0.00     0.286 C 
ATOM      3  C   UNL     1     148.995 146.962 148.391  1.00  0.00     0.108 A 
ATOM      4  N   UNL     1     146.562 146.494 148.027  1.00  0.00    -0.250 N 
ATOM      5  C   UNL     1     149.303 143.969 148.448  1.00  0.00     0.168 A 
ATOM      6  C   UNL     1     149.247 142.727 149.104  1.00  0.00     0.056 A 
ATOM      7  C   UNL     1     150.517 144.373 147.855  1.00  0.00     0.173 A 
ATOM      8  C   UNL     1     150.375 141.906 149.180  1.00  0.00     0.005 A 
ATOM      9  C   UNL     1     151.633 143.526 147.906  1.00  0.00     0.052 A 
ATOM     10  O   UNL     1     150.659 145.599 147.214  1.00  0.00    -0.452 OA
ATOM     11  C   UNL     1     151.565 142.303 148.572  1.00  0.00     0.004 A 
ATOM     12  C   UNL     1     150.266 146.796 147.807  1.00  0.00     0.143 A 
ATOM     13  C   UNL     1     151.187 147.850 147.822  1.00  0.00     0.049 A 
ATOM     14  C   UNL     1     150.880 149.051 148.461  1.00  0.00     0.024 A 
ATOM     15  C   UNL     1     149.641 149.212 149.083  1.00  0.00     0.042 A 
ATOM     16  C   UNL     1     148.704 148.178 149.043  1.00  0.00     0.041 A 
ATOM     17  Cl  UNL     1     149.251 150.721 149.887  1.00  0.00    -0.084 Cl
ATOM     18  C   UNL     1     145.444 145.971 148.816  1.00  0.00     0.298 C 
ATOM     19  C   UNL     1     146.256 147.342 146.873  1.00  0.00     0.298 C 
ATOM     20  C   UNL     1     144.480 147.111 149.166  1.00  0.00     0.308 C 
ATOM     21  C   UNL     1     145.267 148.438 147.281  1.00  0.00     0.308 C 
ATOM     22  N   UNL     1     144.083 147.859 147.953  1.00  0.00    -0.331 N 
ATOM     23  C   UNL     1     143.132 148.926 148.308  1.00  0.00     0.332 C 
ATOM     24  H   UNL     1     147.221 144.082 148.145  1.00  0.00     0.312 HD
ATOM     25  H   UNL     1     143.598 147.206 147.291  1.00  0.00     0.348 HD
ENDROOT
TORSDOF 0
ENDMDL
MODEL 8
REMARK VINA RESULT:    -6.066      6.239      7.793
REMARK INTER + INTRA:          -6.066
REMARK INTER:                  -6.066
REMARK INTRA:                   0.000
REMARK UNBOUND:                 0.000
REMARK SMILES C[NH+]1CCN(C2=[NH+]c3ccccc3Oc3ccc(Cl)cc32)CC1
REMARK SMILES IDX 7 1 6 2 21 3 5 4 8 5 9 6 13 7 10 8 12 9 14 10 11 11 15 12
REMARK SMILES IDX 16 13 17 14 18 15 20 16 19 17 4 18 22 19 3 20 23 21 2 22
REMARK SMILES IDX 1 23
REMARK H PARENT 7 24 2 25
REMARK Flexibility Score: inf
ROOT
ATOM      1  N   UNL     1     152.734 146.993 149.011  1.00  0.00    -0.237 N 
ATOM      2  C   UNL     1     153.242 148.190 149.147  1.00  0.00     0.286 C 
ATOM      3  C   UNL     1     152.649 149.409 148.537  1.00  0.00     0.108 A 
ATOM      4  N   UNL     1     154.471 148.343 149.886  1.00  0.00    -0.250 N 
ATOM      5  C   UNL     1     151.550 146.619 148.286  1.00  0.00     0.168 A 
ATOM      6  C   UNL     1     151.513 145.348 147.686  1.00  0.00     0.056 A 
ATOM      7  C   UNL     1     150.371 147.392 148.318  1.00  0.00     0.173 A 
ATOM      8  C   UNL     1     150.333 144.858 147.121  1.00  0.00     0.005 A 
ATOM      9  C   UNL     1     149.184 146.876 147.780  1.00  0.00     0.052 A 
ATOM     10  O   UNL     1     150.335 148.670 148.867  1.00  0.00    -0.452 OA
ATOM     11  C   UNL     1     149.167 145.619 147.176  1.00  0.00     0.004 A 
ATOM     12  C   UNL     1     151.261 149.650 148.524  1.00  0.00     0.143 A 
ATOM     13  C   UNL     1     150.772 150.906 148.145  1.00  0.00     0.049 A 
ATOM     14  C   UNL     1     151.645 151.910 147.725  1.00  0.00     0.024 A 
ATOM     15  C   UNL     1     153.019 151.669 147.690  1.00  0.00     0.042 A 
ATOM     16  C   UNL     1     153.517 150.430 148.099  1.00  0.00     0.041 A 
ATOM     17  Cl  UNL     1     154.119 152.928 147.162  1.00  0.00    -0.084 Cl
ATOM     18  C   UNL     1     155.613 147.462 149.633  1.00  0.00     0.298 C 
ATOM     19  C   UNL     1     154.502 149.191 151.081  1.00  0.00     0.298 C 
ATOM     20  C   UNL     1     156.917 148.260 149.751  1.00  0.00     0.308 C 
ATOM     21  C   UNL     1     155.840 149.933 151.156  1.00  0.00     0.308 C 
ATOM     22  N   UNL     1     156.975 148.993 151.035  1.00  0.00    -0.331 N 
ATOM     23  C   UNL     1     158.249 149.723 151.140  1.00  0.00     0.332 C 
ATOM     24  H   UNL     1     153.259 146.198 149.444  1.00  0.00     0.312 HD
ATOM     25  H   UNL     1     156.936 148.304 151.824  1.00  0.00     0.348 HD
ENDROOT
TORSDOF 0
ENDMDL
MODEL 9
REMARK VINA RESULT:    -6.032      7.566      9.862
REMARK INTER + INTRA:          -6.032
REMARK INTER:                  -6.032
REMARK INTRA:                   0.000
REMARK UNBOUND:                 0.000
REMARK SMILES C[NH+]1CCN(C2=[NH+]c3ccccc3Oc3ccc(Cl)cc32)CC1
REMARK SMILES IDX 7 1 6 2 21 3 5 4 8 5 9 6 13 7 10 8 12 9 14 10 11 11 15 12
REMARK SMILES IDX 16 13 17 14 18 15 20 16 19 17 4 18 22 19 3 20 23 21 2 22
REMARK SMILES IDX 1 23
REMARK H PARENT 7 24 2 25
REMARK Flexibility Score: inf
ROOT
ATOM      1  N   UNL     1     153.928 153.713 147.252  1.00  0.00    -0.237 N 
ATOM      2  C   UNL     1     153.061 153.059 147.979  1.00  0.00     0.286 C 
ATOM      3  C   UNL     1     152.133 153.713 148.940  1.00  0.00     0.108 A 
ATOM      4  N   UNL     1     153.024 151.620 147.890  1.00  0.00    -0.250 N 
ATOM      5  C   UNL     1     154.155 155.133 147.221  1.00  0.00     0.168 A 
ATOM      6  C   UNL     1     155.458 155.591 146.957  1.00  0.00     0.056 A 
ATOM      7  C   UNL     1     153.098 156.065 147.254  1.00  0.00     0.173 A 
ATOM      8  C   UNL     1     155.708 156.949 146.740  1.00  0.00     0.005 A 
ATOM      9  C   UNL     1     153.354 157.420 146.999  1.00  0.00     0.052 A 
ATOM     10  O   UNL     1     151.787 155.694 147.537  1.00  0.00    -0.452 OA
ATOM     11  C   UNL     1     154.654 157.861 146.753  1.00  0.00     0.004 A 
ATOM     12  C   UNL     1     151.460 154.914 148.643  1.00  0.00     0.143 A 
ATOM     13  C   UNL     1     150.434 155.367 149.480  1.00  0.00     0.049 A 
ATOM     14  C   UNL     1     150.104 154.666 150.641  1.00  0.00     0.024 A 
ATOM     15  C   UNL     1     150.794 153.500 150.969  1.00  0.00     0.042 A 
ATOM     16  C   UNL     1     151.797 153.023 150.122  1.00  0.00     0.041 A 
ATOM     17  Cl  UNL     1     150.384 152.617 152.428  1.00  0.00    -0.084 Cl
ATOM     18  C   UNL     1     154.258 150.833 147.954  1.00  0.00     0.298 C 
ATOM     19  C   UNL     1     151.797 150.947 147.460  1.00  0.00     0.298 C 
ATOM     20  C   UNL     1     154.002 149.533 148.725  1.00  0.00     0.308 C 
ATOM     21  C   UNL     1     151.617 149.643 148.243  1.00  0.00     0.308 C 
ATOM     22  N   UNL     1     152.837 148.810 148.171  1.00  0.00    -0.331 N 
ATOM     23  C   UNL     1     152.631 147.549 148.904  1.00  0.00     0.332 C 
ATOM     24  H   UNL     1     154.565 153.149 146.643  1.00  0.00     0.312 HD
ATOM     25  H   UNL     1     153.029 148.568 147.169  1.00  0.00     0.348 HD
ENDROOT
TORSDOF 0
ENDMDL
