MODEL 1
REMARK VINA RESULT:    -3.685      0.000      0.000
REMARK INTER + INTRA:          -5.200
REMARK INTER:                  -4.762
REMARK INTRA:                  -0.438
REMARK UNBOUND:                -0.438
REMARK SMILES CCCCCCC(=O)[O-]
REMARK SMILES IDX 5 1 6 2 7 3 8 4 9 5 4 6 3 7 2 8 1 9
REMARK H PARENT
REMARK Flexibility Score: inf
ROOT
ATOM      1  C   UNL     1      18.693  20.696  -5.783  1.00  0.00     0.006 C 
ENDROOT
BRANCH   1   2
ATOM      2  C   UNL     1      18.481  21.426  -7.118  1.00  0.00     0.053 C 
BRANCH   2   3
ATOM      3  C   UNL     1      19.770  21.917  -7.698  1.00  0.00     0.041 C 
ATOM      4  O   UNL     1      20.733  22.217  -6.943  1.00  0.00    -0.550 OA
ATOM      5  O   UNL     1      19.922  22.012  -9.076  1.00  0.00    -0.550 OA
ENDBRANCH   2   3
ENDBRANCH   1   2
BRANCH   1   6
ATOM      6  C   UNL     1      19.144  19.227  -5.921  1.00  0.00     0.000 C 
BRANCH   6   7
ATOM      7  C   UNL     1      20.481  18.889  -5.235  1.00  0.00    -0.000 C 
BRANCH   7   8
ATOM      8  C   UNL     1      21.639  18.729  -6.230  1.00  0.00    -0.003 C 
ATOM      9  C   UNL     1      21.122  18.374  -7.621  1.00  0.00     0.004 C 
ENDBRANCH   7   8
ENDBRANCH   6   7
ENDBRANCH   1   6
TORSDOF 5
ENDMDL
MODEL 2
REMARK VINA RESULT:    -3.629      2.195      2.840
REMARK INTER + INTRA:          -5.128
REMARK INTER:                  -4.700
REMARK INTRA:                  -0.428
REMARK UNBOUND:                -0.438
REMARK SMILES CCCCCCC(=O)[O-]
REMARK SMILES IDX 5 1 6 2 7 3 8 4 9 5 4 6 3 7 2 8 1 9
REMARK H PARENT
REMARK Flexibility Score: inf
ROOT
ATOM      1  C   UNL     1      20.353  18.789  -5.750  1.00  0.00     0.006 C 
ENDROOT
BRANCH   1   2
ATOM      2  C   UNL     1      20.072  20.268  -5.444  1.00  0.00     0.053 C 
BRANCH   2   3
ATOM      3  C   UNL     1      18.889  20.782  -6.204  1.00  0.00     0.041 C 
ATOM      4  O   UNL     1      17.837  21.111  -5.595  1.00  0.00    -0.550 OA
ATOM      5  O   UNL     1      18.960  20.931  -7.583  1.00  0.00    -0.550 OA
ENDBRANCH   2   3
ENDBRANCH   1   2
BRANCH   1   6
ATOM      6  C   UNL     1      19.310  17.807  -5.178  1.00  0.00     0.000 C 
BRANCH   6   7
ATOM      7  C   UNL     1      18.862  16.696  -6.146  1.00  0.00    -0.000 C 
BRANCH   7   8
ATOM      8  C   UNL     1      18.624  17.206  -7.573  1.00  0.00    -0.003 C 
ATOM      9  C   UNL     1      17.235  17.824  -7.710  1.00  0.00     0.004 C 
ENDBRANCH   7   8
ENDBRANCH   6   7
ENDBRANCH   1   6
TORSDOF 5
ENDMDL
MODEL 3
REMARK VINA RESULT:    -3.590      2.095      2.503
REMARK INTER + INTRA:          -5.078
REMARK INTER:                  -4.635
REMARK INTRA:                  -0.443
REMARK UNBOUND:                -0.438
REMARK SMILES CCCCCCC(=O)[O-]
REMARK SMILES IDX 5 1 6 2 7 3 8 4 9 5 4 6 3 7 2 8 1 9
REMARK H PARENT
REMARK Flexibility Score: inf
ROOT
ATOM      1  C   UNL     1      20.546  20.380  -5.382  1.00  0.00     0.006 C 
ENDROOT
BRANCH   1   2
ATOM      2  C   UNL     1      19.767  21.050  -6.525  1.00  0.00     0.053 C 
BRANCH   2   3
ATOM      3  C   UNL     1      18.304  20.741  -6.461  1.00  0.00     0.041 C 
ATOM      4  O   UNL     1      17.593  21.223  -5.540  1.00  0.00    -0.550 OA
ATOM      5  O   UNL     1      17.717  19.947  -7.438  1.00  0.00    -0.550 OA
ENDBRANCH   2   3
ENDBRANCH   1   2
BRANCH   1   6
ATOM      6  C   UNL     1      20.434  18.842  -5.346  1.00  0.00     0.000 C 
BRANCH   6   7
ATOM      7  C   UNL     1      20.970  18.121  -6.596  1.00  0.00    -0.000 C 
BRANCH   7   8
ATOM      8  C   UNL     1      19.996  17.068  -7.143  1.00  0.00    -0.003 C 
ATOM      9  C   UNL     1      18.861  16.806  -6.157  1.00  0.00     0.004 C 
ENDBRANCH   7   8
ENDBRANCH   6   7
ENDBRANCH   1   6
TORSDOF 5
ENDMDL
MODEL 4
REMARK VINA RESULT:    -3.572      8.791     10.545
REMARK INTER + INTRA:          -5.054
REMARK INTER:                  -4.791
REMARK INTRA:                  -0.262
REMARK UNBOUND:                -0.438
REMARK SMILES CCCCCCC(=O)[O-]
REMARK SMILES IDX 5 1 6 2 7 3 8 4 9 5 4 6 3 7 2 8 1 9
REMARK H PARENT
REMARK Flexibility Score: inf
ROOT
ATOM      1  C   UNL     1      28.123  15.704 -10.670  1.00  0.00     0.006 C 
ENDROOT
BRANCH   1   2
ATOM      2  C   UNL     1      29.052  14.734  -9.923  1.00  0.00     0.053 C 
BRANCH   2   3
ATOM      3  C   UNL     1      28.837  13.315 -10.347  1.00  0.00     0.041 C 
ATOM      4  O   UNL     1      29.194  12.934 -11.494  1.00  0.00    -0.550 OA
ATOM      5  O   UNL     1      28.273  12.403  -9.464  1.00  0.00    -0.550 OA
ENDBRANCH   2   3
ENDBRANCH   1   2
BRANCH   1   6
ATOM      6  C   UNL     1      26.625  15.347 -10.586  1.00  0.00     0.000 C 
BRANCH   6   7
ATOM      7  C   UNL     1      25.983  15.553  -9.201  1.00  0.00    -0.000 C 
BRANCH   7   8
ATOM      8  C   UNL     1      24.657  16.324  -9.266  1.00  0.00    -0.003 C 
ATOM      9  C   UNL     1      24.775  17.543 -10.176  1.00  0.00     0.004 C 
ENDBRANCH   7   8
ENDBRANCH   6   7
ENDBRANCH   1   6
TORSDOF 5
ENDMDL
MODEL 5
REMARK VINA RESULT:    -3.532      2.774      3.975
REMARK INTER + INTRA:          -5.002
REMARK INTER:                  -4.577
REMARK INTRA:                  -0.426
REMARK UNBOUND:                -0.438
REMARK SMILES CCCCCCC(=O)[O-]
REMARK SMILES IDX 5 1 6 2 7 3 8 4 9 5 4 6 3 7 2 8 1 9
REMARK H PARENT
REMARK Flexibility Score: inf
ROOT
ATOM      1  C   UNL     1      19.263  17.859  -5.080  1.00  0.00     0.006 C 
ENDROOT
BRANCH   1   2
ATOM      2  C   UNL     1      18.994  16.709  -6.062  1.00  0.00     0.053 C 
BRANCH   2   3
ATOM      3  C   UNL     1      18.609  17.209  -7.419  1.00  0.00     0.041 C 
ATOM      4  O   UNL     1      19.400  17.080  -8.391  1.00  0.00    -0.550 OA
ATOM      5  O   UNL     1      17.363  17.789  -7.619  1.00  0.00    -0.550 OA
ENDBRANCH   2   3
ENDBRANCH   1   2
BRANCH   1   6
ATOM      6  C   UNL     1      20.512  18.703  -5.409  1.00  0.00     0.000 C 
BRANCH   6   7
ATOM      7  C   UNL     1      20.280  20.225  -5.442  1.00  0.00    -0.000 C 
BRANCH   7   8
ATOM      8  C   UNL     1      18.824  20.601  -5.746  1.00  0.00    -0.003 C 
ATOM      9  C   UNL     1      18.665  21.053  -7.195  1.00  0.00     0.004 C 
ENDBRANCH   7   8
ENDBRANCH   6   7
ENDBRANCH   1   6
TORSDOF 5
ENDMDL
MODEL 6
REMARK VINA RESULT:    -3.521      2.055      3.551
REMARK INTER + INTRA:          -4.989
REMARK INTER:                  -4.559
REMARK INTRA:                  -0.430
REMARK UNBOUND:                -0.438
REMARK SMILES CCCCCCC(=O)[O-]
REMARK SMILES IDX 5 1 6 2 7 3 8 4 9 5 4 6 3 7 2 8 1 9
REMARK H PARENT
REMARK Flexibility Score: inf
ROOT
ATOM      1  C   UNL     1      19.210  19.193  -5.392  1.00  0.00     0.006 C 
ENDROOT
BRANCH   1   2
ATOM      2  C   UNL     1      20.712  18.985  -5.143  1.00  0.00     0.053 C 
BRANCH   2   3
ATOM      3  C   UNL     1      21.436  18.582  -6.390  1.00  0.00     0.041 C 
ATOM      4  O   UNL     1      22.690  18.675  -6.455  1.00  0.00    -0.550 OA
ATOM      5  O   UNL     1      20.728  18.072  -7.471  1.00  0.00    -0.550 OA
ENDBRANCH   2   3
ENDBRANCH   1   2
BRANCH   1   6
ATOM      6  C   UNL     1      18.817  20.637  -5.766  1.00  0.00     0.000 C 
BRANCH   6   7
ATOM      7  C   UNL     1      18.515  20.864  -7.259  1.00  0.00    -0.000 C 
BRANCH   7   8
ATOM      8  C   UNL     1      19.619  21.651  -7.979  1.00  0.00    -0.003 C 
ATOM      9  C   UNL     1      20.633  22.209  -6.985  1.00  0.00     0.004 C 
ENDBRANCH   7   8
ENDBRANCH   6   7
ENDBRANCH   1   6
TORSDOF 5
ENDMDL
MODEL 7
REMARK VINA RESULT:    -3.504      2.576      3.459
REMARK INTER + INTRA:          -4.966
REMARK INTER:                  -4.516
REMARK INTRA:                  -0.450
REMARK UNBOUND:                -0.438
REMARK SMILES CCCCCCC(=O)[O-]
REMARK SMILES IDX 5 1 6 2 7 3 8 4 9 5 4 6 3 7 2 8 1 9
REMARK H PARENT
REMARK Flexibility Score: inf
ROOT
ATOM      1  C   UNL     1      18.807  20.551  -5.911  1.00  0.00     0.006 C 
ENDROOT
BRANCH   1   2
ATOM      2  C   UNL     1      20.240  20.463  -5.365  1.00  0.00     0.053 C 
BRANCH   2   3
ATOM      3  C   UNL     1      20.678  19.045  -5.167  1.00  0.00     0.041 C 
ATOM      4  O   UNL     1      20.112  18.320  -4.307  1.00  0.00    -0.550 OA
ATOM      5  O   UNL     1      21.690  18.514  -5.957  1.00  0.00    -0.550 OA
ENDBRANCH   2   3
ENDBRANCH   1   2
BRANCH   1   6
ATOM      6  C   UNL     1      18.611  19.914  -7.302  1.00  0.00     0.000 C 
BRANCH   6   7
ATOM      7  C   UNL     1      17.495  18.856  -7.383  1.00  0.00    -0.000 C 
BRANCH   7   8
ATOM      8  C   UNL     1      18.009  17.426  -7.167  1.00  0.00    -0.003 C 
ATOM      9  C   UNL     1      19.190  17.123  -8.085  1.00  0.00     0.004 C 
ENDBRANCH   7   8
ENDBRANCH   6   7
ENDBRANCH   1   6
TORSDOF 5
ENDMDL
MODEL 8
REMARK VINA RESULT:    -3.484      2.878      4.122
REMARK INTER + INTRA:          -4.940
REMARK INTER:                  -4.638
REMARK INTRA:                  -0.302
REMARK UNBOUND:                -0.438
REMARK SMILES CCCCCCC(=O)[O-]
REMARK SMILES IDX 5 1 6 2 7 3 8 4 9 5 4 6 3 7 2 8 1 9
REMARK H PARENT
REMARK Flexibility Score: inf
ROOT
ATOM      1  C   UNL     1      20.450  18.929  -4.970  1.00  0.00     0.006 C 
ENDROOT
BRANCH   1   2
ATOM      2  C   UNL     1      19.298  17.925  -5.136  1.00  0.00     0.053 C 
BRANCH   2   3
ATOM      3  C   UNL     1      19.443  17.108  -6.382  1.00  0.00     0.041 C 
ATOM      4  O   UNL     1      18.470  16.437  -6.819  1.00  0.00    -0.550 OA
ATOM      5  O   UNL     1      20.644  17.113  -7.081  1.00  0.00    -0.550 OA
ENDBRANCH   2   3
ENDBRANCH   1   2
BRANCH   1   6
ATOM      6  C   UNL     1      20.134  20.353  -5.470  1.00  0.00     0.000 C 
BRANCH   6   7
ATOM      7  C   UNL     1      18.640  20.647  -5.699  1.00  0.00    -0.000 C 
BRANCH   7   8
ATOM      8  C   UNL     1      18.322  21.034  -7.151  1.00  0.00    -0.003 C 
ATOM      9  C   UNL     1      19.602  21.282  -7.945  1.00  0.00     0.004 C 
ENDBRANCH   7   8
ENDBRANCH   6   7
ENDBRANCH   1   6
TORSDOF 5
ENDMDL
MODEL 9
REMARK VINA RESULT:    -3.435      2.556      3.352
REMARK INTER + INTRA:          -4.878
REMARK INTER:                  -4.606
REMARK INTRA:                  -0.272
REMARK UNBOUND:                -0.438
REMARK SMILES CCCCCCC(=O)[O-]
REMARK SMILES IDX 5 1 6 2 7 3 8 4 9 5 4 6 3 7 2 8 1 9
REMARK H PARENT
REMARK Flexibility Score: inf
ROOT
ATOM      1  C   UNL     1      19.234  18.704  -5.237  1.00  0.00     0.006 C 
ENDROOT
BRANCH   1   2
ATOM      2  C   UNL     1      18.891  18.141  -6.625  1.00  0.00     0.053 C 
BRANCH   2   3
ATOM      3  C   UNL     1      17.798  18.919  -7.290  1.00  0.00     0.041 C 
ATOM      4  O   UNL     1      16.772  18.330  -7.723  1.00  0.00    -0.550 OA
ATOM      5  O   UNL     1      17.898  20.300  -7.404  1.00  0.00    -0.550 OA
ENDBRANCH   2   3
ENDBRANCH   1   2
BRANCH   1   6
ATOM      6  C   UNL     1      20.737  18.958  -5.003  1.00  0.00     0.000 C 
BRANCH   6   7
ATOM      7  C   UNL     1      21.464  19.677  -6.154  1.00  0.00    -0.000 C 
BRANCH   7   8
ATOM      8  C   UNL     1      21.209  21.191  -6.168  1.00  0.00    -0.003 C 
ATOM      9  C   UNL     1      22.307  21.939  -5.418  1.00  0.00     0.004 C 
ENDBRANCH   7   8
ENDBRANCH   6   7
ENDBRANCH   1   6
TORSDOF 5
ENDMDL
