MODEL 1
REMARK VINA RESULT:    -5.681      0.000      0.000
REMARK INTER + INTRA:          -8.818
REMARK INTER:                  -8.339
REMARK INTRA:                  -0.480
REMARK UNBOUND:                -0.480
REMARK SMILES C=C1C=C[C@H](C(C)C)CCC(C)=CCC1
REMARK SMILES IDX 3 1 4 2 5 3 9 4 10 5 11 6 12 7 13 8 6 10 7 11 8 12 2 13 1 14
REMARK SMILES IDX 15 15 14 16
REMARK H PARENT
REMARK Flexibility Score: 70.00
ROOT
ATOM      1  C   UNL     1      -4.034 -17.732   8.420  1.00  0.00    -0.001 C 
ATOM      2  C   UNL     1      -3.535 -16.963   7.437  1.00  0.00    -0.023 C 
ENDROOT
BRANCH   2   3
ATOM      3  C   UNL     1      -3.366 -15.455   7.538  1.00  0.00     0.014 C 
BRANCH   3   4
ATOM      4  C   UNL     1      -1.873 -15.027   7.438  1.00  0.00     0.012 C 
BRANCH   4   5
ATOM      5  C   UNL     1      -1.063 -15.112   8.756  1.00  0.00     0.031 C 
BRANCH   5   6
ATOM      6  C   UNL     1      -1.797 -14.629   9.998  1.00  0.00    -0.077 C 
ATOM      7  C   UNL     1      -1.946 -13.140  10.199  1.00  0.00     0.039 C 
ATOM      8  C   UNL     1      -2.235 -15.433  10.999  1.00  0.00    -0.028 CG0
ATOM      9  G   UNL     1      -2.364 -16.939  10.979  1.00  0.00     0.000 G0
ENDBRANCH   5   6
ENDBRANCH   4   5
ENDBRANCH   3   4
BRANCH   3  10
ATOM     10  C   UNL     1      -4.296 -14.729   6.517  1.00  0.00    -0.010 C 
ATOM     11  C   UNL     1      -5.034 -13.500   7.082  1.00  0.00     0.008 C 
ATOM     12  C   UNL     1      -5.308 -15.696   5.882  1.00  0.00     0.008 C 
ENDBRANCH   3  10
ENDBRANCH   2   3
BRANCH   1  13
ATOM     13  C   UNL     1      -4.542 -17.205   9.702  1.00  0.00    -0.055 C 
ATOM     14  C   UNL     1      -5.669 -16.490   9.710  1.00  0.00     0.012 C 
BRANCH  13  15
ATOM     15  C   UNL     1      -3.809 -17.488  10.995  1.00  0.00     0.039 C 
BRANCH  15  16
ATOM     16  C   UNL     1      -2.366 -16.937  10.968  1.00  0.00     0.032 CG0
ATOM     17  G   UNL     1      -2.243 -15.430  10.992  1.00  0.00     0.000 G0
ENDBRANCH  15  16
ENDBRANCH  13  15
ENDBRANCH   1  13
TORSDOF 1
ENDMDL
MODEL 2
REMARK VINA RESULT:    -5.395      1.710      4.300
REMARK INTER + INTRA:          -8.398
REMARK INTER:                  -8.108
REMARK INTRA:                  -0.290
REMARK UNBOUND:                -0.480
REMARK SMILES C=C1C=C[C@H](C(C)C)CCC(C)=CCC1
REMARK SMILES IDX 3 1 4 2 5 3 9 4 10 5 11 6 12 7 13 8 6 10 7 11 8 12 2 13 1 14
REMARK SMILES IDX 15 15 14 16
REMARK H PARENT
REMARK Flexibility Score: 70.00
ROOT
ATOM      1  C   UNL     1      -2.409 -15.004   7.253  1.00  0.00    -0.001 C 
ATOM      2  C   UNL     1      -1.764 -15.382   8.369  1.00  0.00    -0.023 C 
ENDROOT
BRANCH   2   3
ATOM      3  C   UNL     1      -2.437 -15.581   9.718  1.00  0.00     0.014 C 
BRANCH   3   4
ATOM      4  C   UNL     1      -2.371 -17.062  10.191  1.00  0.00     0.012 C 
BRANCH   4   5
ATOM      5  C   UNL     1      -3.703 -17.849  10.116  1.00  0.00     0.031 C 
BRANCH   5   6
ATOM      6  C   UNL     1      -4.953 -16.993   9.978  1.00  0.00    -0.077 C 
ATOM      7  C   UNL     1      -5.631 -16.520  11.242  1.00  0.00     0.039 C 
ATOM      8  C   UNL     1      -5.570 -16.709   8.804  1.00  0.00    -0.028 CG0
ATOM      9  G   UNL     1      -5.025 -16.909   7.408  1.00  0.00     0.000 G0
ENDBRANCH   5   6
ENDBRANCH   4   5
ENDBRANCH   3   4
BRANCH   3  10
ATOM     10  C   UNL     1      -1.883 -14.563  10.763  1.00  0.00    -0.010 C 
ATOM     11  C   UNL     1      -2.553 -14.637  12.149  1.00  0.00     0.008 C 
ATOM     12  C   UNL     1      -1.938 -13.120  10.236  1.00  0.00     0.008 C 
ENDBRANCH   3  10
ENDBRANCH   2   3
BRANCH   1  13
ATOM     13  C   UNL     1      -3.847 -14.670   7.206  1.00  0.00    -0.055 C 
ATOM     14  C   UNL     1      -4.263 -13.510   7.719  1.00  0.00     0.012 C 
BRANCH  13  15
ATOM     15  C   UNL     1      -4.837 -15.619   6.566  1.00  0.00     0.039 C 
BRANCH  15  16
ATOM     16  C   UNL     1      -5.025 -16.902   7.404  1.00  0.00     0.032 CG0
ATOM     17  G   UNL     1      -5.577 -16.697   8.796  1.00  0.00     0.000 G0
ENDBRANCH  15  16
ENDBRANCH  13  15
ENDBRANCH   1  13
TORSDOF 1
ENDMDL
MODEL 3
REMARK VINA RESULT:    -4.999      1.824      4.328
REMARK INTER + INTRA:          -7.817
REMARK INTER:                  -7.687
REMARK INTRA:                  -0.130
REMARK UNBOUND:                -0.480
REMARK SMILES C=C1C=C[C@H](C(C)C)CCC(C)=CCC1
REMARK SMILES IDX 3 1 4 2 5 3 9 4 10 5 11 6 12 7 13 8 6 10 7 11 8 12 2 13 1 14
REMARK SMILES IDX 15 15 14 16
REMARK H PARENT
REMARK Flexibility Score: 70.00
ROOT
ATOM      1  C   UNL     1      -5.012 -16.519  10.690  1.00  0.00    -0.001 C 
ATOM      2  C   UNL     1      -4.205 -15.809  11.495  1.00  0.00    -0.023 C 
ENDROOT
BRANCH   2   3
ATOM      3  C   UNL     1      -2.708 -15.653  11.279  1.00  0.00     0.014 C 
BRANCH   3   4
ATOM      4  C   UNL     1      -2.324 -14.201  10.868  1.00  0.00     0.012 C 
BRANCH   4   5
ATOM      5  C   UNL     1      -2.404 -13.892   9.353  1.00  0.00     0.031 C 
BRANCH   5   6
ATOM      6  C   UNL     1      -1.984 -15.031   8.437  1.00  0.00    -0.077 C 
ATOM      7  C   UNL     1      -0.516 -15.381   8.368  1.00  0.00     0.039 C 
ATOM      8  C   UNL     1      -2.815 -15.690   7.591  1.00  0.00    -0.028 CG0
ATOM      9  G   UNL     1      -4.326 -15.660   7.578  1.00  0.00     0.000 G0
ENDBRANCH   5   6
ENDBRANCH   4   5
ENDBRANCH   3   4
BRANCH   3  10
ATOM     10  C   UNL     1      -1.917 -16.186  12.514  1.00  0.00    -0.010 C 
ATOM     11  C   UNL     1      -1.868 -17.721  12.632  1.00  0.00     0.008 C 
ATOM     12  C   UNL     1      -2.437 -15.580  13.828  1.00  0.00     0.008 C 
ENDBRANCH   3  10
ENDBRANCH   2   3
BRANCH   1  13
ATOM     13  C   UNL     1      -4.541 -17.295   9.526  1.00  0.00    -0.055 C 
ATOM     14  C   UNL     1      -3.704 -18.317   9.721  1.00  0.00     0.012 C 
BRANCH  13  15
ATOM     15  C   UNL     1      -5.013 -16.953   8.130  1.00  0.00     0.039 C 
BRANCH  15  16
ATOM     16  C   UNL     1      -4.326 -15.679   7.589  1.00  0.00     0.032 CG0
ATOM     17  G   UNL     1      -2.815 -15.697   7.603  1.00  0.00     0.000 G0
ENDBRANCH  15  16
ENDBRANCH  13  15
ENDBRANCH   1  13
TORSDOF 1
ENDMDL
MODEL 4
REMARK VINA RESULT:    -4.642      1.868      4.884
REMARK INTER + INTRA:          -7.293
REMARK INTER:                  -7.796
REMARK INTRA:                   0.504
REMARK UNBOUND:                -0.480
REMARK SMILES C=C1C=C[C@H](C(C)C)CCC(C)=CCC1
REMARK SMILES IDX 3 1 4 2 5 3 9 4 10 5 11 6 12 7 13 8 6 10 7 11 8 12 2 13 1 14
REMARK SMILES IDX 15 15 14 16
REMARK H PARENT
REMARK Flexibility Score: 70.00
ROOT
ATOM      1  C   UNL     1      -1.571 -13.943   9.583  1.00  0.00    -0.001 C 
ATOM      2  C   UNL     1      -1.948 -14.136  10.857  1.00  0.00    -0.023 C 
ENDROOT
BRANCH   2   3
ATOM      3  C   UNL     1      -2.840 -15.277  11.319  1.00  0.00     0.014 C 
BRANCH   3   4
ATOM      4  C   UNL     1      -2.387 -16.647  10.736  1.00  0.00     0.012 C 
BRANCH   4   5
ATOM      5  C   UNL     1      -3.515 -17.529  10.146  1.00  0.00     0.031 C 
BRANCH   5   6
ATOM      6  C   UNL     1      -4.821 -16.804   9.861  1.00  0.00    -0.077 C 
ATOM      7  C   UNL     1      -5.914 -16.877  10.901  1.00  0.00     0.039 C 
ATOM      8  C   UNL     1      -5.123 -16.184   8.693  1.00  0.00    -0.028 CG0
ATOM      9  G   UNL     1      -4.174 -15.823   7.573  1.00  0.00     0.000 G0
ENDBRANCH   5   6
ENDBRANCH   4   5
ENDBRANCH   3   4
BRANCH   3  10
ATOM     10  C   UNL     1      -2.976 -15.272  12.875  1.00  0.00    -0.010 C 
ATOM     11  C   UNL     1      -2.716 -13.906  13.537  1.00  0.00     0.008 C 
ATOM     12  C   UNL     1      -2.089 -16.344  13.527  1.00  0.00     0.008 C 
ENDBRANCH   3  10
ENDBRANCH   2   3
BRANCH   1  13
ATOM     13  C   UNL     1      -2.027 -14.778   8.453  1.00  0.00    -0.055 C 
ATOM     14  C   UNL     1      -1.258 -15.788   8.039  1.00  0.00     0.012 C 
BRANCH  13  15
ATOM     15  C   UNL     1      -3.358 -14.509   7.785  1.00  0.00     0.039 C 
BRANCH  15  16
ATOM     16  C   UNL     1      -4.164 -15.809   7.570  1.00  0.00     0.032 CG0
ATOM     17  G   UNL     1      -5.113 -16.180   8.686  1.00  0.00     0.000 G0
ENDBRANCH  15  16
ENDBRANCH  13  15
ENDBRANCH   1  13
TORSDOF 1
ENDMDL
MODEL 5
REMARK VINA RESULT:    -4.520      1.560      3.758
REMARK INTER + INTRA:          -7.114
REMARK INTER:                  -6.945
REMARK INTRA:                  -0.170
REMARK UNBOUND:                -0.480
REMARK SMILES C=C1C=C[C@H](C(C)C)CCC(C)=CCC1
REMARK SMILES IDX 3 1 4 2 5 3 9 4 10 5 11 6 12 7 13 8 6 10 7 11 8 12 2 13 1 14
REMARK SMILES IDX 15 15 14 16
REMARK H PARENT
REMARK Flexibility Score: 70.00
ROOT
ATOM      1  C   UNL     1      -4.617 -13.801   7.209  1.00  0.00    -0.001 C 
ATOM      2  C   UNL     1      -3.633 -13.417   8.038  1.00  0.00    -0.023 C 
ENDROOT
BRANCH   2   3
ATOM      3  C   UNL     1      -2.817 -14.373   8.893  1.00  0.00     0.014 C 
BRANCH   3   4
ATOM      4  C   UNL     1      -1.991 -15.371   8.030  1.00  0.00     0.012 C 
BRANCH   4   5
ATOM      5  C   UNL     1      -2.004 -16.843   8.512  1.00  0.00     0.031 C 
BRANCH   5   6
ATOM      6  C   UNL     1      -2.895 -17.122   9.713  1.00  0.00    -0.077 C 
ATOM      7  C   UNL     1      -2.253 -17.159  11.079  1.00  0.00     0.039 C 
ATOM      8  C   UNL     1      -4.210 -17.449   9.640  1.00  0.00    -0.028 CG0
ATOM      9  G   UNL     1      -5.123 -17.323   8.443  1.00  0.00     0.000 G0
ENDBRANCH   5   6
ENDBRANCH   4   5
ENDBRANCH   3   4
BRANCH   3  10
ATOM     10  C   UNL     1      -1.959 -13.585   9.933  1.00  0.00    -0.010 C 
ATOM     11  C   UNL     1      -0.442 -13.834   9.835  1.00  0.00     0.008 C 
ATOM     12  C   UNL     1      -2.436 -13.838  11.372  1.00  0.00     0.008 C 
ENDBRANCH   3  10
ENDBRANCH   2   3
BRANCH   1  13
ATOM     13  C   UNL     1      -5.079 -15.196   7.068  1.00  0.00    -0.055 C 
ATOM     14  C   UNL     1      -4.893 -15.829   5.907  1.00  0.00     0.012 C 
BRANCH  13  15
ATOM     15  C   UNL     1      -5.735 -15.911   8.229  1.00  0.00     0.039 C 
BRANCH  15  16
ATOM     16  C   UNL     1      -5.133 -17.316   8.451  1.00  0.00     0.032 CG0
ATOM     17  G   UNL     1      -4.207 -17.449   9.637  1.00  0.00     0.000 G0
ENDBRANCH  15  16
ENDBRANCH  13  15
ENDBRANCH   1  13
TORSDOF 1
ENDMDL
MODEL 6
REMARK VINA RESULT:    -4.476      1.064      3.286
REMARK INTER + INTRA:          -7.049
REMARK INTER:                  -7.339
REMARK INTRA:                   0.291
REMARK UNBOUND:                -0.480
REMARK SMILES C=C1C=C[C@H](C(C)C)CCC(C)=CCC1
REMARK SMILES IDX 3 1 4 2 5 3 9 4 10 5 11 6 12 7 13 8 6 10 7 11 8 12 2 13 1 14
REMARK SMILES IDX 15 15 14 16
REMARK H PARENT
REMARK Flexibility Score: 70.00
ROOT
ATOM      1  C   UNL     1      -2.392 -13.414   9.492  1.00  0.00    -0.001 C 
ATOM      2  C   UNL     1      -3.404 -13.512   8.614  1.00  0.00    -0.023 C 
ENDROOT
BRANCH   2   3
ATOM      3  C   UNL     1      -3.889 -14.822   8.015  1.00  0.00     0.014 C 
BRANCH   3   4
ATOM      4  C   UNL     1      -5.032 -15.462   8.855  1.00  0.00     0.012 C 
BRANCH   4   5
ATOM      5  C   UNL     1      -5.015 -17.009   8.941  1.00  0.00     0.031 C 
BRANCH   5   6
ATOM      6  C   UNL     1      -3.650 -17.626   9.201  1.00  0.00    -0.077 C 
ATOM      7  C   UNL     1      -3.179 -18.721   8.274  1.00  0.00     0.039 C 
ATOM      8  C   UNL     1      -2.865 -17.345  10.272  1.00  0.00    -0.028 CG0
ATOM      9  G   UNL     1      -3.012 -16.195  11.241  1.00  0.00     0.000 G0
ENDBRANCH   5   6
ENDBRANCH   4   5
ENDBRANCH   3   4
BRANCH   3  10
ATOM     10  C   UNL     1      -4.247 -14.637   6.507  1.00  0.00    -0.010 C 
ATOM     11  C   UNL     1      -5.371 -13.619   6.235  1.00  0.00     0.008 C 
ATOM     12  C   UNL     1      -4.585 -15.976   5.833  1.00  0.00     0.008 C 
ENDBRANCH   3  10
ENDBRANCH   2   3
BRANCH   1  13
ATOM     13  C   UNL     1      -1.575 -14.559   9.939  1.00  0.00    -0.055 C 
ATOM     14  C   UNL     1      -0.605 -15.017   9.145  1.00  0.00     0.012 C 
BRANCH  13  15
ATOM     15  C   UNL     1      -1.817 -15.197  11.290  1.00  0.00     0.039 C 
BRANCH  15  16
ATOM     16  C   UNL     1      -3.004 -16.185  11.253  1.00  0.00     0.032 CG0
ATOM     17  G   UNL     1      -2.864 -17.335  10.282  1.00  0.00     0.000 G0
ENDBRANCH  15  16
ENDBRANCH  13  15
ENDBRANCH   1  13
TORSDOF 1
ENDMDL
MODEL 7
REMARK VINA RESULT:    -4.364      1.331      3.632
REMARK INTER + INTRA:          -6.884
REMARK INTER:                  -6.469
REMARK INTRA:                  -0.416
REMARK UNBOUND:                -0.480
REMARK SMILES C=C1C=C[C@H](C(C)C)CCC(C)=CCC1
REMARK SMILES IDX 3 1 4 2 5 3 9 4 10 5 11 6 12 7 13 8 6 10 7 11 8 12 2 13 1 14
REMARK SMILES IDX 15 15 14 16
REMARK H PARENT
REMARK Flexibility Score: 70.00
ROOT
ATOM      1  C   UNL     1      -3.402 -14.107   8.453  1.00  0.00    -0.001 C 
ATOM      2  C   UNL     1      -4.295 -15.109   8.503  1.00  0.00    -0.023 C 
ENDROOT
BRANCH   2   3
ATOM      3  C   UNL     1      -3.992 -16.494   9.051  1.00  0.00     0.014 C 
BRANCH   3   4
ATOM      4  C   UNL     1      -4.804 -16.802  10.343  1.00  0.00     0.012 C 
BRANCH   4   5
ATOM      5  C   UNL     1      -4.302 -16.102  11.631  1.00  0.00     0.031 C 
BRANCH   5   6
ATOM      6  C   UNL     1      -2.806 -16.215  11.887  1.00  0.00    -0.077 C 
ATOM      7  C   UNL     1      -2.257 -17.561  12.295  1.00  0.00     0.039 C 
ATOM      8  C   UNL     1      -1.940 -15.171  11.883  1.00  0.00    -0.028 CG0
ATOM      9  G   UNL     1      -2.184 -13.776  11.354  1.00  0.00     0.000 G0
ENDBRANCH   5   6
ENDBRANCH   4   5
ENDBRANCH   3   4
BRANCH   3  10
ATOM     10  C   UNL     1      -4.156 -17.574   7.935  1.00  0.00    -0.010 C 
ATOM     11  C   UNL     1      -3.137 -18.727   8.003  1.00  0.00     0.008 C 
ATOM     12  C   UNL     1      -4.141 -16.948   6.532  1.00  0.00     0.008 C 
ENDBRANCH   3  10
ENDBRANCH   2   3
BRANCH   1  13
ATOM     13  C   UNL     1      -1.990 -14.239   8.866  1.00  0.00    -0.055 C 
ATOM     14  C   UNL     1      -1.188 -15.062   8.185  1.00  0.00     0.012 C 
BRANCH  13  15
ATOM     15  C   UNL     1      -1.450 -13.439  10.031  1.00  0.00     0.039 C 
BRANCH  15  16
ATOM     16  C   UNL     1      -2.180 -13.781  11.349  1.00  0.00     0.032 CG0
ATOM     17  G   UNL     1      -1.935 -15.171  11.888  1.00  0.00     0.000 G0
ENDBRANCH  15  16
ENDBRANCH  13  15
ENDBRANCH   1  13
TORSDOF 1
ENDMDL
MODEL 8
REMARK VINA RESULT:    -4.298      1.436      4.123
REMARK INTER + INTRA:          -6.789
REMARK INTER:                  -6.825
REMARK INTRA:                   0.036
REMARK UNBOUND:                -0.480
REMARK SMILES C=C1C=C[C@H](C(C)C)CCC(C)=CCC1
REMARK SMILES IDX 3 1 4 2 5 3 9 4 10 5 11 6 12 7 13 8 6 10 7 11 8 12 2 13 1 14
REMARK SMILES IDX 15 15 14 16
REMARK H PARENT
REMARK Flexibility Score: 70.00
ROOT
ATOM      1  C   UNL     1      -1.623 -15.834  11.233  1.00  0.00    -0.001 C 
ATOM      2  C   UNL     1      -2.561 -16.786  11.092  1.00  0.00    -0.023 C 
ENDROOT
BRANCH   2   3
ATOM      3  C   UNL     1      -3.662 -16.749  10.044  1.00  0.00     0.014 C 
BRANCH   3   4
ATOM      4  C   UNL     1      -3.432 -17.798   8.917  1.00  0.00     0.012 C 
BRANCH   4   5
ATOM      5  C   UNL     1      -3.682 -17.294   7.474  1.00  0.00     0.031 C 
BRANCH   5   6
ATOM      6  C   UNL     1      -3.648 -15.783   7.301  1.00  0.00    -0.077 C 
ATOM      7  C   UNL     1      -4.906 -15.095   6.826  1.00  0.00     0.039 C 
ATOM      8  C   UNL     1      -2.538 -15.013   7.438  1.00  0.00    -0.028 CG0
ATOM      9  G   UNL     1      -1.217 -15.408   8.056  1.00  0.00     0.000 G0
ENDBRANCH   5   6
ENDBRANCH   4   5
ENDBRANCH   3   4
BRANCH   3  10
ATOM     10  C   UNL     1      -5.065 -16.852  10.720  1.00  0.00    -0.010 C 
ATOM     11  C   UNL     1      -6.240 -16.396   9.833  1.00  0.00     0.008 C 
ATOM     12  C   UNL     1      -5.107 -16.105  12.062  1.00  0.00     0.008 C 
ENDBRANCH   3  10
ENDBRANCH   2   3
BRANCH   1  13
ATOM     13  C   UNL     1      -1.580 -14.595  10.431  1.00  0.00    -0.055 C 
ATOM     14  C   UNL     1      -2.313 -13.547  10.812  1.00  0.00     0.012 C 
BRANCH  13  15
ATOM     15  C   UNL     1      -0.699 -14.503   9.203  1.00  0.00     0.039 C 
BRANCH  15  16
ATOM     16  C   UNL     1      -1.213 -15.407   8.061  1.00  0.00     0.032 CG0
ATOM     17  G   UNL     1      -2.530 -14.994   7.444  1.00  0.00     0.000 G0
ENDBRANCH  15  16
ENDBRANCH  13  15
ENDBRANCH   1  13
TORSDOF 1
ENDMDL
MODEL 9
REMARK VINA RESULT:    -4.229      1.662      4.155
REMARK INTER + INTRA:          -6.686
REMARK INTER:                  -6.111
REMARK INTRA:                  -0.575
REMARK UNBOUND:                -0.480
REMARK SMILES C=C1C=C[C@H](C(C)C)CCC(C)=CCC1
REMARK SMILES IDX 3 1 4 2 5 3 9 4 10 5 11 6 12 7 13 8 6 10 7 11 8 12 2 13 1 14
REMARK SMILES IDX 15 15 14 16
REMARK H PARENT
REMARK Flexibility Score: 70.00
ROOT
ATOM      1  C   UNL     1      -3.499 -15.704  11.337  1.00  0.00    -0.001 C 
ATOM      2  C   UNL     1      -2.952 -14.629  10.746  1.00  0.00    -0.023 C 
ENDROOT
BRANCH   2   3
ATOM      3  C   UNL     1      -2.324 -14.645   9.361  1.00  0.00     0.014 C 
BRANCH   3   4
ATOM      4  C   UNL     1      -3.332 -14.213   8.257  1.00  0.00     0.012 C 
BRANCH   4   5
ATOM      5  C   UNL     1      -3.268 -15.025   6.939  1.00  0.00     0.031 C 
BRANCH   5   6
ATOM      6  C   UNL     1      -4.512 -15.841   6.621  1.00  0.00    -0.077 C 
ATOM      7  C   UNL     1      -5.400 -15.369   5.495  1.00  0.00     0.039 C 
ATOM      8  C   UNL     1      -4.946 -16.903   7.345  1.00  0.00    -0.028 CG0
ATOM      9  G   UNL     1      -4.179 -17.674   8.395  1.00  0.00     0.000 G0
ENDBRANCH   5   6
ENDBRANCH   4   5
ENDBRANCH   3   4
BRANCH   3  10
ATOM     10  C   UNL     1      -0.995 -13.826   9.353  1.00  0.00    -0.010 C 
ATOM     11  C   UNL     1       0.285 -14.678   9.456  1.00  0.00     0.008 C 
ATOM     12  C   UNL     1      -0.987 -12.742  10.443  1.00  0.00     0.008 C 
ENDBRANCH   3  10
ENDBRANCH   2   3
BRANCH   1  13
ATOM     13  C   UNL     1      -3.502 -17.057  10.746  1.00  0.00    -0.055 C 
ATOM     14  C   UNL     1      -2.502 -17.895  11.033  1.00  0.00     0.012 C 
BRANCH  13  15
ATOM     15  C   UNL     1      -4.633 -17.501   9.845  1.00  0.00     0.039 C 
BRANCH  15  16
ATOM     16  C   UNL     1      -4.165 -17.680   8.384  1.00  0.00     0.032 CG0
ATOM     17  G   UNL     1      -4.952 -16.912   7.347  1.00  0.00     0.000 G0
ENDBRANCH  15  16
ENDBRANCH  13  15
ENDBRANCH   1  13
TORSDOF 1
ENDMDL
