MODEL 1
REMARK VINA RESULT:    -4.631      0.000      0.000
REMARK INTER + INTRA:          -4.631
REMARK INTER:                  -4.631
REMARK INTRA:                   0.000
REMARK UNBOUND:                 0.000
REMARK SMILES CC1=CC(=O)[C@@H]2C[C@H]1C2(C)C
REMARK SMILES IDX 1 1 2 2 3 3 4 4 5 5 6 6 7 7 8 8 9 9 10 10 11 11
REMARK H PARENT
REMARK Flexibility Score: inf
ROOT
ATOM      1  C   UNL     1      12.194  62.447  18.747  1.00  0.00     0.040 C 
ATOM      2  C   UNL     1      12.770  61.617  19.850  1.00  0.00    -0.066 C 
ATOM      3  C   UNL     1      12.391  60.321  20.033  1.00  0.00     0.047 C 
ATOM      4  C   UNL     1      13.064  59.586  21.153  1.00  0.00     0.159 C 
ATOM      5  O   UNL     1      12.828  58.375  21.399  1.00  0.00    -0.295 OA
ATOM      6  C   UNL     1      14.055  60.411  21.974  1.00  0.00     0.067 C 
ATOM      7  C   UNL     1      13.315  61.740  22.239  1.00  0.00     0.021 C 
ATOM      8  C   UNL     1      13.804  62.189  20.843  1.00  0.00     0.022 C 
ATOM      9  C   UNL     1      14.984  61.186  20.997  1.00  0.00    -0.019 C 
ATOM     10  C   UNL     1      15.496  60.451  19.725  1.00  0.00     0.012 C 
ATOM     11  C   UNL     1      16.204  61.816  21.717  1.00  0.00     0.012 C 
ENDROOT
TORSDOF 0
ENDMDL
MODEL 2
REMARK VINA RESULT:    -4.410     15.714     17.184
REMARK INTER + INTRA:          -4.410
REMARK INTER:                  -4.410
REMARK INTRA:                   0.000
REMARK UNBOUND:                 0.000
REMARK SMILES CC1=CC(=O)[C@@H]2C[C@H]1C2(C)C
REMARK SMILES IDX 1 1 2 2 3 3 4 4 5 5 6 6 7 7 8 8 9 9 10 10 11 11
REMARK H PARENT
REMARK Flexibility Score: inf
ROOT
ATOM      1  C   UNL     1      14.948  51.019  37.755  1.00  0.00     0.040 C 
ATOM      2  C   UNL     1      15.076  51.970  36.607  1.00  0.00    -0.066 C 
ATOM      3  C   UNL     1      14.622  53.252  36.694  1.00  0.00     0.047 C 
ATOM      4  C   UNL     1      14.838  54.114  35.487  1.00  0.00     0.159 C 
ATOM      5  O   UNL     1      14.498  55.325  35.458  1.00  0.00    -0.295 OA
ATOM      6  C   UNL     1      15.499  53.420  34.297  1.00  0.00     0.067 C 
ATOM      7  C   UNL     1      14.750  52.075  34.178  1.00  0.00     0.021 C 
ATOM      8  C   UNL     1      15.711  51.544  35.266  1.00  0.00     0.022 C 
ATOM      9  C   UNL     1      16.733  52.625  34.810  1.00  0.00    -0.019 C 
ATOM     10  C   UNL     1      17.639  53.282  35.890  1.00  0.00     0.012 C 
ATOM     11  C   UNL     1      17.639  52.130  33.654  1.00  0.00     0.012 C 
ENDROOT
TORSDOF 0
ENDMDL
MODEL 3
REMARK VINA RESULT:    -4.324      1.780      2.502
REMARK INTER + INTRA:          -4.324
REMARK INTER:                  -4.324
REMARK INTRA:                   0.000
REMARK UNBOUND:                 0.000
REMARK SMILES CC1=CC(=O)[C@@H]2C[C@H]1C2(C)C
REMARK SMILES IDX 1 1 2 2 3 3 4 4 5 5 6 6 7 7 8 8 9 9 10 10 11 11
REMARK H PARENT
REMARK Flexibility Score: inf
ROOT
ATOM      1  C   UNL     1      12.734  61.486  19.006  1.00  0.00     0.040 C 
ATOM      2  C   UNL     1      13.601  61.398  20.221  1.00  0.00    -0.066 C 
ATOM      3  C   UNL     1      13.176  61.860  21.431  1.00  0.00     0.047 C 
ATOM      4  C   UNL     1      14.125  61.685  22.578  1.00  0.00     0.159 C 
ATOM      5  O   UNL     1      13.833  62.036  23.750  1.00  0.00    -0.295 OA
ATOM      6  C   UNL     1      15.471  61.051  22.223  1.00  0.00     0.067 C 
ATOM      7  C   UNL     1      15.913  61.793  20.942  1.00  0.00     0.021 C 
ATOM      8  C   UNL     1      15.022  60.797  20.164  1.00  0.00     0.022 C 
ATOM      9  C   UNL     1      15.210  59.797  21.341  1.00  0.00    -0.019 C 
ATOM     10  C   UNL     1      14.020  58.867  21.712  1.00  0.00     0.012 C 
ATOM     11  C   UNL     1      16.477  58.920  21.174  1.00  0.00     0.012 C 
ENDROOT
TORSDOF 0
ENDMDL
MODEL 4
REMARK VINA RESULT:    -4.308     15.355     16.590
REMARK INTER + INTRA:          -4.308
REMARK INTER:                  -4.308
REMARK INTRA:                   0.000
REMARK UNBOUND:                 0.000
REMARK SMILES CC1=CC(=O)[C@@H]2C[C@H]1C2(C)C
REMARK SMILES IDX 1 1 2 2 3 3 4 4 5 5 6 6 7 7 8 8 9 9 10 10 11 11
REMARK H PARENT
REMARK Flexibility Score: inf
ROOT
ATOM      1  C   UNL     1      15.052  51.824  37.315  1.00  0.00     0.040 C 
ATOM      2  C   UNL     1      15.639  52.107  35.969  1.00  0.00    -0.066 C 
ATOM      3  C   UNL     1      15.016  51.705  34.826  1.00  0.00     0.047 C 
ATOM      4  C   UNL     1      15.689  52.077  33.539  1.00  0.00     0.159 C 
ATOM      5  O   UNL     1      15.193  51.798  32.416  1.00  0.00    -0.295 OA
ATOM      6  C   UNL     1      17.017  52.820  33.686  1.00  0.00     0.067 C 
ATOM      7  C   UNL     1      17.777  52.025  34.770  1.00  0.00     0.021 C 
ATOM      8  C   UNL     1      16.982  52.850  35.808  1.00  0.00     0.022 C 
ATOM      9  C   UNL     1      16.834  53.960  34.728  1.00  0.00    -0.019 C 
ATOM     10  C   UNL     1      15.516  54.785  34.697  1.00  0.00     0.012 C 
ATOM     11  C   UNL     1      18.026  54.951  34.733  1.00  0.00     0.012 C 
ENDROOT
TORSDOF 0
ENDMDL
MODEL 5
REMARK VINA RESULT:    -4.239      1.780      3.982
REMARK INTER + INTRA:          -4.239
REMARK INTER:                  -4.239
REMARK INTRA:                   0.000
REMARK UNBOUND:                 0.000
REMARK SMILES CC1=CC(=O)[C@@H]2C[C@H]1C2(C)C
REMARK SMILES IDX 1 1 2 2 3 3 4 4 5 5 6 6 7 7 8 8 9 9 10 10 11 11
REMARK H PARENT
REMARK Flexibility Score: inf
ROOT
ATOM      1  C   UNL     1      17.642  62.580  23.076  1.00  0.00     0.040 C 
ATOM      2  C   UNL     1      17.011  61.516  22.236  1.00  0.00    -0.066 C 
ATOM      3  C   UNL     1      17.246  60.195  22.471  1.00  0.00     0.047 C 
ATOM      4  C   UNL     1      16.529  59.225  21.580  1.00  0.00     0.159 C 
ATOM      5  O   UNL     1      16.634  57.979  21.722  1.00  0.00    -0.295 OA
ATOM      6  C   UNL     1      15.663  59.856  20.490  1.00  0.00     0.067 C 
ATOM      7  C   UNL     1      16.557  60.963  19.889  1.00  0.00     0.021 C 
ATOM      8  C   UNL     1      16.079  61.859  21.054  1.00  0.00     0.022 C 
ATOM      9  C   UNL     1      14.799  60.978  21.131  1.00  0.00    -0.019 C 
ATOM     10  C   UNL     1      14.168  60.717  22.529  1.00  0.00     0.012 C 
ATOM     11  C   UNL     1      13.681  61.477  20.181  1.00  0.00     0.012 C 
ENDROOT
TORSDOF 0
ENDMDL
MODEL 6
REMARK VINA RESULT:    -4.216     15.195     16.422
REMARK INTER + INTRA:          -4.216
REMARK INTER:                  -4.216
REMARK INTRA:                   0.000
REMARK UNBOUND:                 0.000
REMARK SMILES CC1=CC(=O)[C@@H]2C[C@H]1C2(C)C
REMARK SMILES IDX 1 1 2 2 3 3 4 4 5 5 6 6 7 7 8 8 9 9 10 10 11 11
REMARK H PARENT
REMARK Flexibility Score: inf
ROOT
ATOM      1  C   UNL     1      19.146  51.340  32.142  1.00  0.00     0.040 C 
ATOM      2  C   UNL     1      18.809  52.368  33.174  1.00  0.00    -0.066 C 
ATOM      3  C   UNL     1      19.059  53.691  32.965  1.00  0.00     0.047 C 
ATOM      4  C   UNL     1      18.646  54.625  34.063  1.00  0.00     0.159 C 
ATOM      5  O   UNL     1      18.788  55.872  33.972  1.00  0.00    -0.295 OA
ATOM      6  C   UNL     1      18.041  53.956  35.298  1.00  0.00     0.067 C 
ATOM      7  C   UNL     1      18.987  52.770  35.588  1.00  0.00     0.021 C 
ATOM      8  C   UNL     1      18.181  51.983  34.530  1.00  0.00     0.022 C 
ATOM      9  C   UNL     1      16.978  52.923  34.830  1.00  0.00    -0.019 C 
ATOM     10  C   UNL     1      16.037  53.311  33.654  1.00  0.00     0.012 C 
ATOM     11  C   UNL     1      16.102  52.407  36.001  1.00  0.00     0.012 C 
ENDROOT
TORSDOF 0
ENDMDL
MODEL 7
REMARK VINA RESULT:    -4.123     14.894     16.239
REMARK INTER + INTRA:          -4.123
REMARK INTER:                  -4.123
REMARK INTRA:                   0.000
REMARK UNBOUND:                 0.000
REMARK SMILES CC1=CC(=O)[C@@H]2C[C@H]1C2(C)C
REMARK SMILES IDX 1 1 2 2 3 3 4 4 5 5 6 6 7 7 8 8 9 9 10 10 11 11
REMARK H PARENT
REMARK Flexibility Score: inf
ROOT
ATOM      1  C   UNL     1      17.679  56.235  34.708  1.00  0.00     0.040 C 
ATOM      2  C   UNL     1      17.708  54.740  34.740  1.00  0.00    -0.066 C 
ATOM      3  C   UNL     1      16.621  54.018  35.130  1.00  0.00     0.047 C 
ATOM      4  C   UNL     1      16.767  52.526  35.088  1.00  0.00     0.159 C 
ATOM      5  O   UNL     1      15.822  51.751  35.388  1.00  0.00    -0.295 OA
ATOM      6  C   UNL     1      18.141  52.015  34.656  1.00  0.00     0.067 C 
ATOM      7  C   UNL     1      19.137  52.880  35.459  1.00  0.00     0.021 C 
ATOM      8  C   UNL     1      18.972  53.944  34.350  1.00  0.00     0.022 C 
ATOM      9  C   UNL     1      18.579  52.791  33.381  1.00  0.00    -0.019 C 
ATOM     10  C   UNL     1      17.511  53.080  32.288  1.00  0.00     0.012 C 
ATOM     11  C   UNL     1      19.813  52.150  32.696  1.00  0.00     0.012 C 
ENDROOT
TORSDOF 0
ENDMDL
MODEL 8
REMARK VINA RESULT:    -4.053      1.452      3.240
REMARK INTER + INTRA:          -4.053
REMARK INTER:                  -4.053
REMARK INTRA:                   0.000
REMARK UNBOUND:                 0.000
REMARK SMILES CC1=CC(=O)[C@@H]2C[C@H]1C2(C)C
REMARK SMILES IDX 1 1 2 2 3 3 4 4 5 5 6 6 7 7 8 8 9 9 10 10 11 11
REMARK H PARENT
REMARK Flexibility Score: inf
ROOT
ATOM      1  C   UNL     1      13.829  61.284  24.236  1.00  0.00     0.040 C 
ATOM      2  C   UNL     1      14.238  60.860  22.862  1.00  0.00    -0.066 C 
ATOM      3  C   UNL     1      14.872  59.673  22.645  1.00  0.00     0.047 C 
ATOM      4  C   UNL     1      15.202  59.349  21.219  1.00  0.00     0.159 C 
ATOM      5  O   UNL     1      15.752  58.267  20.887  1.00  0.00    -0.295 OA
ATOM      6  C   UNL     1      14.823  60.422  20.199  1.00  0.00     0.067 C 
ATOM      7  C   UNL     1      15.311  61.741  20.839  1.00  0.00     0.021 C 
ATOM      8  C   UNL     1      13.981  61.748  21.626  1.00  0.00     0.022 C 
ATOM      9  C   UNL     1      13.367  60.886  20.486  1.00  0.00    -0.019 C 
ATOM     10  C   UNL     1      12.310  59.810  20.866  1.00  0.00     0.012 C 
ATOM     11  C   UNL     1      12.787  61.751  19.338  1.00  0.00     0.012 C 
ENDROOT
TORSDOF 0
ENDMDL
MODEL 9
REMARK VINA RESULT:    -4.034     15.191     16.632
REMARK INTER + INTRA:          -4.034
REMARK INTER:                  -4.034
REMARK INTRA:                   0.000
REMARK UNBOUND:                 0.000
REMARK SMILES CC1=CC(=O)[C@@H]2C[C@H]1C2(C)C
REMARK SMILES IDX 1 1 2 2 3 3 4 4 5 5 6 6 7 7 8 8 9 9 10 10 11 11
REMARK H PARENT
REMARK Flexibility Score: inf
ROOT
ATOM      1  C   UNL     1      14.162  52.335  32.637  1.00  0.00     0.040 C 
ATOM      2  C   UNL     1      15.132  52.768  33.690  1.00  0.00    -0.066 C 
ATOM      3  C   UNL     1      15.843  53.924  33.565  1.00  0.00     0.047 C 
ATOM      4  C   UNL     1      16.759  54.264  34.703  1.00  0.00     0.159 C 
ATOM      5  O   UNL     1      17.439  55.322  34.724  1.00  0.00    -0.295 OA
ATOM      6  C   UNL     1      16.806  53.236  35.834  1.00  0.00     0.067 C 
ATOM      7  C   UNL     1      16.925  51.879  35.108  1.00  0.00     0.021 C 
ATOM      8  C   UNL     1      15.388  51.924  34.956  1.00  0.00     0.022 C 
ATOM      9  C   UNL     1      15.349  52.846  36.210  1.00  0.00    -0.019 C 
ATOM     10  C   UNL     1      14.274  53.968  36.264  1.00  0.00     0.012 C 
ATOM     11  C   UNL     1      15.276  52.040  37.532  1.00  0.00     0.012 C 
ENDROOT
TORSDOF 0
ENDMDL
