MODEL 1
REMARK VINA RESULT:    -3.148      0.000      0.000
REMARK INTER + INTRA:          -4.298
REMARK INTER:                  -3.885
REMARK INTRA:                  -0.414
REMARK UNBOUND:                -0.414
REMARK SMILES C=CC[C@H](C)C(=O)CC
REMARK SMILES IDX 4 1 5 2 6 3 7 4 8 5 9 6 3 7 2 8 1 9
REMARK H PARENT
REMARK Flexibility Score: inf
ROOT
ATOM      1  C   UNL     1     134.821  52.024  22.889  1.00  0.00     0.057 C 
ATOM      2  C   UNL     1     135.002  52.819  24.187  1.00  0.00     0.016 C 
ENDROOT
BRANCH   1   3
ATOM      3  C   UNL     1     134.345  52.928  21.768  1.00  0.00     0.135 C 
ATOM      4  O   UNL     1     134.146  54.111  22.003  1.00  0.00    -0.299 OA
BRANCH   3   5
ATOM      5  C   UNL     1     134.135  52.418  20.362  1.00  0.00     0.072 C 
ATOM      6  C   UNL     1     135.463  52.026  19.722  1.00  0.00     0.012 C 
ENDBRANCH   3   5
ENDBRANCH   1   3
BRANCH   1   7
ATOM      7  C   UNL     1     133.876  50.824  23.107  1.00  0.00     0.038 C 
BRANCH   7   8
ATOM      8  C   UNL     1     134.504  49.520  22.692  1.00  0.00    -0.034 C 
ATOM      9  C   UNL     1     134.229  48.948  21.516  1.00  0.00     0.004 C 
ENDBRANCH   7   8
ENDBRANCH   1   7
TORSDOF 4
ENDMDL
MODEL 2
REMARK VINA RESULT:    -3.125      2.078      4.030
REMARK INTER + INTRA:          -4.270
REMARK INTER:                  -3.830
REMARK INTRA:                  -0.439
REMARK UNBOUND:                -0.414
REMARK SMILES C=CC[C@H](C)C(=O)CC
REMARK SMILES IDX 4 1 5 2 6 3 7 4 8 5 9 6 3 7 2 8 1 9
REMARK H PARENT
REMARK Flexibility Score: inf
ROOT
ATOM      1  C   UNL     1     135.091  51.480  21.351  1.00  0.00     0.057 C 
ATOM      2  C   UNL     1     135.804  51.320  20.003  1.00  0.00     0.016 C 
ENDROOT
BRANCH   1   3
ATOM      3  C   UNL     1     134.704  50.126  21.918  1.00  0.00     0.135 C 
ATOM      4  O   UNL     1     134.744  49.145  21.190  1.00  0.00    -0.299 OA
BRANCH   3   5
ATOM      5  C   UNL     1     134.298  49.949  23.361  1.00  0.00     0.072 C 
ATOM      6  C   UNL     1     135.417  50.389  24.299  1.00  0.00     0.012 C 
ENDBRANCH   3   5
ENDBRANCH   1   3
BRANCH   1   7
ATOM      7  C   UNL     1     133.876  52.421  21.221  1.00  0.00     0.038 C 
BRANCH   7   8
ATOM      8  C   UNL     1     134.064  53.705  21.986  1.00  0.00    -0.034 C 
ATOM      9  C   UNL     1     134.017  53.742  23.321  1.00  0.00     0.004 C 
ENDBRANCH   7   8
ENDBRANCH   1   7
TORSDOF 4
ENDMDL
MODEL 3
REMARK VINA RESULT:    -2.969      1.622      2.832
REMARK INTER + INTRA:          -4.077
REMARK INTER:                  -3.764
REMARK INTRA:                  -0.313
REMARK UNBOUND:                -0.414
REMARK SMILES C=CC[C@H](C)C(=O)CC
REMARK SMILES IDX 4 1 5 2 6 3 7 4 8 5 9 6 3 7 2 8 1 9
REMARK H PARENT
REMARK Flexibility Score: inf
ROOT
ATOM      1  C   UNL     1     135.351  51.074  22.967  1.00  0.00     0.057 C 
ATOM      2  C   UNL     1     135.132  49.984  24.023  1.00  0.00     0.016 C 
ENDROOT
BRANCH   1   3
ATOM      3  C   UNL     1     134.890  52.423  23.485  1.00  0.00     0.135 C 
ATOM      4  O   UNL     1     135.363  52.851  24.528  1.00  0.00    -0.299 OA
BRANCH   3   5
ATOM      5  C   UNL     1     133.885  53.267  22.739  1.00  0.00     0.072 C 
ATOM      6  C   UNL     1     134.231  54.749  22.849  1.00  0.00     0.012 C 
ENDBRANCH   3   5
ENDBRANCH   1   3
BRANCH   1   7
ATOM      7  C   UNL     1     134.662  50.698  21.638  1.00  0.00     0.038 C 
BRANCH   7   8
ATOM      8  C   UNL     1     135.571  50.885  20.452  1.00  0.00    -0.034 C 
ATOM      9  C   UNL     1     135.470  51.949  19.648  1.00  0.00     0.004 C 
ENDBRANCH   7   8
ENDBRANCH   1   7
TORSDOF 4
ENDMDL
MODEL 4
REMARK VINA RESULT:    -2.942      0.921      2.668
REMARK INTER + INTRA:          -4.044
REMARK INTER:                  -3.822
REMARK INTRA:                  -0.222
REMARK UNBOUND:                -0.414
REMARK SMILES C=CC[C@H](C)C(=O)CC
REMARK SMILES IDX 4 1 5 2 6 3 7 4 8 5 9 6 3 7 2 8 1 9
REMARK H PARENT
REMARK Flexibility Score: inf
ROOT
ATOM      1  C   UNL     1     134.090  51.711  22.806  1.00  0.00     0.057 C 
ATOM      2  C   UNL     1     134.022  50.228  22.423  1.00  0.00     0.016 C 
ENDROOT
BRANCH   1   3
ATOM      3  C   UNL     1     134.036  52.588  21.568  1.00  0.00     0.135 C 
ATOM      4  O   UNL     1     134.053  53.803  21.701  1.00  0.00    -0.299 OA
BRANCH   3   5
ATOM      5  C   UNL     1     133.991  52.007  20.176  1.00  0.00     0.072 C 
ATOM      6  C   UNL     1     135.374  52.027  19.533  1.00  0.00     0.012 C 
ENDBRANCH   3   5
ENDBRANCH   1   3
BRANCH   1   7
ATOM      7  C   UNL     1     135.339  52.000  23.665  1.00  0.00     0.038 C 
BRANCH   7   8
ATOM      8  C   UNL     1     135.007  52.782  24.909  1.00  0.00    -0.034 C 
ATOM      9  C   UNL     1     134.962  52.205  26.113  1.00  0.00     0.004 C 
ENDBRANCH   7   8
ENDBRANCH   1   7
TORSDOF 4
ENDMDL
MODEL 5
REMARK VINA RESULT:    -2.885      1.828      3.760
REMARK INTER + INTRA:          -3.973
REMARK INTER:                  -3.637
REMARK INTRA:                  -0.336
REMARK UNBOUND:                -0.414
REMARK SMILES C=CC[C@H](C)C(=O)CC
REMARK SMILES IDX 4 1 5 2 6 3 7 4 8 5 9 6 3 7 2 8 1 9
REMARK H PARENT
REMARK Flexibility Score: inf
ROOT
ATOM      1  C   UNL     1     134.842  50.656  22.054  1.00  0.00     0.057 C 
ATOM      2  C   UNL     1     134.256  49.242  21.968  1.00  0.00     0.016 C 
ENDROOT
BRANCH   1   3
ATOM      3  C   UNL     1     135.207  51.000  23.486  1.00  0.00     0.135 C 
ATOM      4  O   UNL     1     135.429  50.094  24.275  1.00  0.00    -0.299 OA
BRANCH   3   5
ATOM      5  C   UNL     1     135.331  52.428  23.960  1.00  0.00     0.072 C 
ATOM      6  C   UNL     1     134.306  52.732  25.047  1.00  0.00     0.012 C 
ENDBRANCH   3   5
ENDBRANCH   1   3
BRANCH   1   7
ATOM      7  C   UNL     1     133.875  51.689  21.439  1.00  0.00     0.038 C 
BRANCH   7   8
ATOM      8  C   UNL     1     134.410  52.282  20.162  1.00  0.00    -0.034 C 
ATOM      9  C   UNL     1     135.566  51.876  19.627  1.00  0.00     0.004 C 
ENDBRANCH   7   8
ENDBRANCH   1   7
TORSDOF 4
ENDMDL
MODEL 6
REMARK VINA RESULT:    -2.868      1.659      3.295
REMARK INTER + INTRA:          -3.952
REMARK INTER:                  -3.646
REMARK INTRA:                  -0.306
REMARK UNBOUND:                -0.414
REMARK SMILES C=CC[C@H](C)C(=O)CC
REMARK SMILES IDX 4 1 5 2 6 3 7 4 8 5 9 6 3 7 2 8 1 9
REMARK H PARENT
REMARK Flexibility Score: inf
ROOT
ATOM      1  C   UNL     1     133.988  52.434  22.636  1.00  0.00     0.057 C 
ATOM      2  C   UNL     1     134.098  53.875  22.128  1.00  0.00     0.016 C 
ENDROOT
BRANCH   1   3
ATOM      3  C   UNL     1     135.078  52.136  23.649  1.00  0.00     0.135 C 
ATOM      4  O   UNL     1     135.467  53.034  24.382  1.00  0.00    -0.299 OA
BRANCH   3   5
ATOM      5  C   UNL     1     135.679  50.760  23.799  1.00  0.00     0.072 C 
ATOM      6  C   UNL     1     135.042  50.013  24.966  1.00  0.00     0.012 C 
ENDBRANCH   3   5
ENDBRANCH   1   3
BRANCH   1   7
ATOM      7  C   UNL     1     134.002  51.434  21.461  1.00  0.00     0.038 C 
BRANCH   7   8
ATOM      8  C   UNL     1     134.531  52.051  20.193  1.00  0.00    -0.034 C 
ATOM      9  C   UNL     1     135.684  51.656  19.644  1.00  0.00     0.004 C 
ENDBRANCH   7   8
ENDBRANCH   1   7
TORSDOF 4
ENDMDL
MODEL 7
REMARK VINA RESULT:    -2.638      1.621      3.061
REMARK INTER + INTRA:          -3.669
REMARK INTER:                  -3.236
REMARK INTRA:                  -0.433
REMARK UNBOUND:                -0.414
REMARK SMILES C=CC[C@H](C)C(=O)CC
REMARK SMILES IDX 4 1 5 2 6 3 7 4 8 5 9 6 3 7 2 8 1 9
REMARK H PARENT
REMARK Flexibility Score: inf
ROOT
ATOM      1  C   UNL     1     134.321  51.999  22.422  1.00  0.00     0.057 C 
ATOM      2  C   UNL     1     134.023  53.357  21.777  1.00  0.00     0.016 C 
ENDROOT
BRANCH   1   3
ATOM      3  C   UNL     1     134.688  52.168  23.885  1.00  0.00     0.135 C 
ATOM      4  O   UNL     1     135.366  53.128  24.219  1.00  0.00    -0.299 OA
BRANCH   3   5
ATOM      5  C   UNL     1     134.218  51.201  24.945  1.00  0.00     0.072 C 
ATOM      6  C   UNL     1     135.289  50.157  25.241  1.00  0.00     0.012 C 
ENDBRANCH   3   5
ENDBRANCH   1   3
BRANCH   1   7
ATOM      7  C   UNL     1     135.414  51.245  21.635  1.00  0.00     0.038 C 
BRANCH   7   8
ATOM      8  C   UNL     1     134.916  49.938  21.078  1.00  0.00    -0.034 C 
ATOM      9  C   UNL     1     134.157  49.108  21.799  1.00  0.00     0.004 C 
ENDBRANCH   7   8
ENDBRANCH   1   7
TORSDOF 4
ENDMDL
MODEL 8
REMARK VINA RESULT:    -2.607      1.799      2.172
REMARK INTER + INTRA:          -3.630
REMARK INTER:                  -3.457
REMARK INTRA:                  -0.172
REMARK UNBOUND:                -0.414
REMARK SMILES C=CC[C@H](C)C(=O)CC
REMARK SMILES IDX 4 1 5 2 6 3 7 4 8 5 9 6 3 7 2 8 1 9
REMARK H PARENT
REMARK Flexibility Score: inf
ROOT
ATOM      1  C   UNL     1     135.393  51.648  23.506  1.00  0.00     0.057 C 
ATOM      2  C   UNL     1     135.151  52.868  24.401  1.00  0.00     0.016 C 
ENDROOT
BRANCH   1   3
ATOM      3  C   UNL     1     134.886  51.906  22.099  1.00  0.00     0.135 C 
ATOM      4  O   UNL     1     134.063  52.792  21.919  1.00  0.00    -0.299 OA
BRANCH   3   5
ATOM      5  C   UNL     1     135.386  51.122  20.910  1.00  0.00     0.072 C 
ATOM      6  C   UNL     1     135.438  51.998  19.663  1.00  0.00     0.012 C 
ENDBRANCH   3   5
ENDBRANCH   1   3
BRANCH   1   7
ATOM      7  C   UNL     1     134.768  50.380  24.123  1.00  0.00     0.038 C 
BRANCH   7   8
ATOM      8  C   UNL     1     135.738  49.635  25.001  1.00  0.00    -0.034 C 
ATOM      9  C   UNL     1     135.683  49.711  26.334  1.00  0.00     0.004 C 
ENDBRANCH   7   8
ENDBRANCH   1   7
TORSDOF 4
ENDMDL
