MODEL 1
REMARK VINA RESULT:    -4.343      0.000      0.000
REMARK INTER + INTRA:          -5.356
REMARK INTER:                  -5.231
REMARK INTRA:                  -0.125
REMARK UNBOUND:                -0.125
REMARK SMILES [NH3+][C@H](Cc1cnc[nH]1)C(=O)[O-]
REMARK SMILES IDX 3 1 2 2 1 3 9 7 10 8 11 9 4 10 5 11 8 12 6 13 7 14
REMARK H PARENT 1 4 1 5 1 6 8 15
REMARK Flexibility Score: inf
ROOT
ATOM      1  C   UNL     1      23.422 -25.487  24.454  1.00  0.00     0.127 C 
ENDROOT
BRANCH   1   2
ATOM      2  C   UNL     1      24.736 -25.345  23.660  1.00  0.00     0.233 C 
BRANCH   2   3
ATOM      3  N   UNL     1      24.623 -26.015  22.359  1.00  0.00    -0.350 N 
ATOM      4  H   UNL     1      25.125 -26.932  22.388  1.00  0.00     0.345 HD
ATOM      5  H   UNL     1      25.063 -25.425  21.616  1.00  0.00     0.345 HD
ATOM      6  H   UNL     1      23.619 -26.183  22.115  1.00  0.00     0.345 HD
ENDBRANCH   2   3
BRANCH   2   7
ATOM      7  C   UNL     1      25.092 -23.893  23.464  1.00  0.00     0.099 C 
ATOM      8  O   UNL     1      24.206 -23.065  23.127  1.00  0.00    -0.544 OA
ATOM      9  O   UNL     1      26.401 -23.463  23.642  1.00  0.00    -0.544 OA
ENDBRANCH   2   7
ENDBRANCH   1   2
BRANCH   1  10
ATOM     10  C   UNL     1      23.683 -25.757  25.907  1.00  0.00     0.041 A 
ATOM     11  C   UNL     1      24.906 -25.734  26.539  1.00  0.00     0.134 A 
ATOM     12  N   UNL     1      22.749 -26.142  26.790  1.00  0.00    -0.348 N 
ATOM     13  N   UNL     1      24.742 -26.093  27.828  1.00  0.00    -0.245 NA
ATOM     14  C   UNL     1      23.418 -26.333  27.943  1.00  0.00     0.196 A 
ATOM     15  H   UNL     1      21.728 -26.277  26.621  1.00  0.00     0.167 HD
ENDBRANCH   1  10
TORSDOF 4
ENDMDL
MODEL 2
REMARK VINA RESULT:    -4.319      3.102      3.959
REMARK INTER + INTRA:          -5.327
REMARK INTER:                  -5.052
REMARK INTRA:                  -0.276
REMARK UNBOUND:                -0.125
REMARK SMILES [NH3+][C@H](Cc1cnc[nH]1)C(=O)[O-]
REMARK SMILES IDX 3 1 2 2 1 3 9 7 10 8 11 9 4 10 5 11 8 12 6 13 7 14
REMARK H PARENT 1 4 1 5 1 6 8 15
REMARK Flexibility Score: inf
ROOT
ATOM      1  C   UNL     1      26.043 -24.314  23.595  1.00  0.00     0.127 C 
ENDROOT
BRANCH   1   2
ATOM      2  C   UNL     1      24.657 -24.735  23.069  1.00  0.00     0.233 C 
BRANCH   2   3
ATOM      3  N   UNL     1      24.794 -25.744  22.013  1.00  0.00    -0.350 N 
ATOM      4  H   UNL     1      24.457 -26.671  22.361  1.00  0.00     0.345 HD
ATOM      5  H   UNL     1      25.800 -25.843  21.745  1.00  0.00     0.345 HD
ATOM      6  H   UNL     1      24.238 -25.474  21.167  1.00  0.00     0.345 HD
ENDBRANCH   2   3
BRANCH   2   7
ATOM      7  C   UNL     1      23.798 -25.270  24.186  1.00  0.00     0.099 C 
ATOM      8  O   UNL     1      23.854 -26.488  24.500  1.00  0.00    -0.544 OA
ATOM      9  O   UNL     1      22.930 -24.426  24.868  1.00  0.00    -0.544 OA
ENDBRANCH   2   7
ENDBRANCH   1   2
BRANCH   1  10
ATOM     10  C   UNL     1      25.989 -22.988  24.295  1.00  0.00     0.041 A 
ATOM     11  C   UNL     1      26.862 -22.532  25.257  1.00  0.00     0.134 A 
ATOM     12  N   UNL     1      25.017 -22.079  24.131  1.00  0.00    -0.348 N 
ATOM     13  N   UNL     1      26.447 -21.326  25.692  1.00  0.00    -0.245 NA
ATOM     14  C   UNL     1      25.323 -21.083  24.984  1.00  0.00     0.196 A 
ATOM     15  H   UNL     1      24.194 -22.133  23.491  1.00  0.00     0.167 HD
ENDBRANCH   1  10
TORSDOF 4
ENDMDL
MODEL 3
REMARK VINA RESULT:    -4.183     10.297     12.397
REMARK INTER + INTRA:          -5.164
REMARK INTER:                  -4.990
REMARK INTRA:                  -0.174
REMARK UNBOUND:                -0.125
REMARK SMILES [NH3+][C@H](Cc1cnc[nH]1)C(=O)[O-]
REMARK SMILES IDX 3 1 2 2 1 3 9 7 10 8 11 9 4 10 5 11 8 12 6 13 7 14
REMARK H PARENT 1 4 1 5 1 6 8 15
REMARK Flexibility Score: inf
ROOT
ATOM      1  C   UNL     1      28.300 -29.194  36.103  1.00  0.00     0.127 C 
ENDROOT
BRANCH   1   2
ATOM      2  C   UNL     1      27.046 -28.966  36.970  1.00  0.00     0.233 C 
BRANCH   2   3
ATOM      3  N   UNL     1      26.798 -30.129  37.828  1.00  0.00    -0.350 N 
ATOM      4  H   UNL     1      25.825 -30.482  37.676  1.00  0.00     0.345 HD
ATOM      5  H   UNL     1      26.892 -29.856  38.833  1.00  0.00     0.345 HD
ATOM      6  H   UNL     1      27.477 -30.898  37.616  1.00  0.00     0.345 HD
ENDBRANCH   2   3
BRANCH   2   7
ATOM      7  C   UNL     1      27.193 -27.724  37.811  1.00  0.00     0.099 C 
ATOM      8  O   UNL     1      27.482 -26.624  37.271  1.00  0.00    -0.544 OA
ATOM      9  O   UNL     1      27.022 -27.787  39.190  1.00  0.00    -0.544 OA
ENDBRANCH   2   7
ENDBRANCH   1   2
BRANCH   1  10
ATOM     10  C   UNL     1      28.005 -29.001  34.644  1.00  0.00     0.041 A 
ATOM     11  C   UNL     1      27.099 -28.118  34.100  1.00  0.00     0.134 A 
ATOM     12  N   UNL     1      28.539 -29.734  33.655  1.00  0.00    -0.348 N 
ATOM     13  N   UNL     1      27.071 -28.285  32.763  1.00  0.00    -0.245 NA
ATOM     14  C   UNL     1      27.960 -29.275  32.530  1.00  0.00     0.196 A 
ATOM     15  H   UNL     1      29.242 -30.501  33.738  1.00  0.00     0.167 HD
ENDBRANCH   1  10
TORSDOF 4
ENDMDL
MODEL 4
REMARK VINA RESULT:    -4.170      5.484      6.776
REMARK INTER + INTRA:          -5.149
REMARK INTER:                  -4.974
REMARK INTRA:                  -0.175
REMARK UNBOUND:                -0.125
REMARK SMILES [NH3+][C@H](Cc1cnc[nH]1)C(=O)[O-]
REMARK SMILES IDX 3 1 2 2 1 3 9 7 10 8 11 9 4 10 5 11 8 12 6 13 7 14
REMARK H PARENT 1 4 1 5 1 6 8 15
REMARK Flexibility Score: inf
ROOT
ATOM      1  C   UNL     1      27.707 -28.713  29.479  1.00  0.00     0.127 C 
ENDROOT
BRANCH   1   2
ATOM      2  C   UNL     1      27.463 -27.296  28.923  1.00  0.00     0.233 C 
BRANCH   2   3
ATOM      3  N   UNL     1      28.505 -26.939  27.954  1.00  0.00    -0.350 N 
ATOM      4  H   UNL     1      28.141 -26.217  27.290  1.00  0.00     0.345 HD
ATOM      5  H   UNL     1      28.778 -27.783  27.399  1.00  0.00     0.345 HD
ATOM      6  H   UNL     1      29.350 -26.559  28.441  1.00  0.00     0.345 HD
ENDBRANCH   2   3
BRANCH   2   7
ATOM      7  C   UNL     1      26.104 -27.197  28.280  1.00  0.00     0.099 C 
ATOM      8  O   UNL     1      25.188 -27.995  28.611  1.00  0.00    -0.544 OA
ATOM      9  O   UNL     1      25.856 -26.235  27.308  1.00  0.00    -0.544 OA
ENDBRANCH   2   7
ENDBRANCH   1   2
BRANCH   1  10
ATOM     10  C   UNL     1      27.737 -28.719  30.979  1.00  0.00     0.041 A 
ATOM     11  C   UNL     1      27.019 -27.894  31.817  1.00  0.00     0.134 A 
ATOM     12  N   UNL     1      28.541 -29.493  31.722  1.00  0.00    -0.348 N 
ATOM     13  N   UNL     1      27.363 -28.158  33.093  1.00  0.00    -0.245 NA
ATOM     14  C   UNL     1      28.289 -29.136  32.996  1.00  0.00     0.196 A 
ATOM     15  H   UNL     1      29.223 -30.210  31.389  1.00  0.00     0.167 HD
ENDBRANCH   1  10
TORSDOF 4
ENDMDL
MODEL 5
REMARK VINA RESULT:    -4.146      2.524      4.308
REMARK INTER + INTRA:          -5.119
REMARK INTER:                  -4.940
REMARK INTRA:                  -0.179
REMARK UNBOUND:                -0.125
REMARK SMILES [NH3+][C@H](Cc1cnc[nH]1)C(=O)[O-]
REMARK SMILES IDX 3 1 2 2 1 3 9 7 10 8 11 9 4 10 5 11 8 12 6 13 7 14
REMARK H PARENT 1 4 1 5 1 6 8 15
REMARK Flexibility Score: inf
ROOT
ATOM      1  C   UNL     1      23.765 -26.127  25.088  1.00  0.00     0.127 C 
ENDROOT
BRANCH   1   2
ATOM      2  C   UNL     1      23.779 -25.775  26.589  1.00  0.00     0.233 C 
BRANCH   2   3
ATOM      3  N   UNL     1      22.656 -26.421  27.277  1.00  0.00    -0.350 N 
ATOM      4  H   UNL     1      21.766 -25.917  27.055  1.00  0.00     0.345 HD
ATOM      5  H   UNL     1      22.803 -26.381  28.312  1.00  0.00     0.345 HD
ATOM      6  H   UNL     1      22.565 -27.421  26.981  1.00  0.00     0.345 HD
ENDBRANCH   2   3
BRANCH   2   7
ATOM      7  C   UNL     1      25.082 -26.187  27.226  1.00  0.00     0.099 C 
ATOM      8  O   UNL     1      25.223 -27.352  27.680  1.00  0.00    -0.544 OA
ATOM      9  O   UNL     1      26.130 -25.280  27.328  1.00  0.00    -0.544 OA
ENDBRANCH   2   7
ENDBRANCH   1   2
BRANCH   1  10
ATOM     10  C   UNL     1      24.268 -24.988  24.250  1.00  0.00     0.041 A 
ATOM     11  C   UNL     1      25.560 -24.799  23.814  1.00  0.00     0.134 A 
ATOM     12  N   UNL     1      23.527 -23.937  23.869  1.00  0.00    -0.348 N 
ATOM     13  N   UNL     1      25.632 -23.632  23.144  1.00  0.00    -0.245 NA
ATOM     14  C   UNL     1      24.376 -23.136  23.198  1.00  0.00     0.196 A 
ATOM     15  H   UNL     1      22.514 -23.768  24.059  1.00  0.00     0.167 HD
ENDBRANCH   1  10
TORSDOF 4
ENDMDL
MODEL 6
REMARK VINA RESULT:    -4.093      3.412      3.985
REMARK INTER + INTRA:          -5.055
REMARK INTER:                  -4.898
REMARK INTRA:                  -0.157
REMARK UNBOUND:                -0.125
REMARK SMILES [NH3+][C@H](Cc1cnc[nH]1)C(=O)[O-]
REMARK SMILES IDX 3 1 2 2 1 3 9 7 10 8 11 9 4 10 5 11 8 12 6 13 7 14
REMARK H PARENT 1 4 1 5 1 6 8 15
REMARK Flexibility Score: inf
ROOT
ATOM      1  C   UNL     1      22.010 -23.779  25.783  1.00  0.00     0.127 C 
ENDROOT
BRANCH   1   2
ATOM      2  C   UNL     1      23.028 -24.927  25.931  1.00  0.00     0.233 C 
BRANCH   2   3
ATOM      3  N   UNL     1      22.375 -26.125  26.471  1.00  0.00    -0.350 N 
ATOM      4  H   UNL     1      22.170 -26.797  25.696  1.00  0.00     0.345 HD
ATOM      5  H   UNL     1      21.469 -25.862  26.922  1.00  0.00     0.345 HD
ATOM      6  H   UNL     1      22.988 -26.595  27.178  1.00  0.00     0.345 HD
ENDBRANCH   2   3
BRANCH   2   7
ATOM      7  C   UNL     1      23.678 -25.243  24.609  1.00  0.00     0.099 C 
ATOM      8  O   UNL     1      23.876 -26.440  24.272  1.00  0.00    -0.544 OA
ATOM      9  O   UNL     1      24.074 -24.217  23.759  1.00  0.00    -0.544 OA
ENDBRANCH   2   7
ENDBRANCH   1   2
BRANCH   1  10
ATOM     10  C   UNL     1      22.565 -22.480  26.288  1.00  0.00     0.041 A 
ATOM     11  C   UNL     1      23.697 -22.315  27.054  1.00  0.00     0.134 A 
ATOM     12  N   UNL     1      21.978 -21.285  26.125  1.00  0.00    -0.348 N 
ATOM     13  N   UNL     1      23.833 -21.010  27.364  1.00  0.00    -0.245 NA
ATOM     14  C   UNL     1      22.769 -20.415  26.781  1.00  0.00     0.196 A 
ATOM     15  H   UNL     1      21.094 -21.073  25.612  1.00  0.00     0.167 HD
ENDBRANCH   1  10
TORSDOF 4
ENDMDL
MODEL 7
REMARK VINA RESULT:    -4.076      2.473      4.217
REMARK INTER + INTRA:          -5.036
REMARK INTER:                  -4.788
REMARK INTRA:                  -0.247
REMARK UNBOUND:                -0.125
REMARK SMILES [NH3+][C@H](Cc1cnc[nH]1)C(=O)[O-]
REMARK SMILES IDX 3 1 2 2 1 3 9 7 10 8 11 9 4 10 5 11 8 12 6 13 7 14
REMARK H PARENT 1 4 1 5 1 6 8 15
REMARK Flexibility Score: inf
ROOT
ATOM      1  C   UNL     1      24.348 -25.779  25.970  1.00  0.00     0.127 C 
ENDROOT
BRANCH   1   2
ATOM      2  C   UNL     1      22.871 -25.711  26.408  1.00  0.00     0.233 C 
BRANCH   2   3
ATOM      3  N   UNL     1      22.628 -26.622  27.532  1.00  0.00    -0.350 N 
ATOM      4  H   UNL     1      22.119 -26.116  28.294  1.00  0.00     0.345 HD
ATOM      5  H   UNL     1      23.539 -26.961  27.918  1.00  0.00     0.345 HD
ATOM      6  H   UNL     1      22.056 -27.444  27.227  1.00  0.00     0.345 HD
ENDBRANCH   2   3
BRANCH   2   7
ATOM      7  C   UNL     1      22.487 -24.305  26.789  1.00  0.00     0.099 C 
ATOM      8  O   UNL     1      22.773 -23.858  27.930  1.00  0.00    -0.544 OA
ATOM      9  O   UNL     1      21.804 -23.496  25.888  1.00  0.00    -0.544 OA
ENDBRANCH   2   7
ENDBRANCH   1   2
BRANCH   1  10
ATOM     10  C   UNL     1      24.656 -24.762  24.910  1.00  0.00     0.041 A 
ATOM     11  C   UNL     1      25.652 -23.812  24.949  1.00  0.00     0.134 A 
ATOM     12  N   UNL     1      23.938 -24.587  23.790  1.00  0.00    -0.348 N 
ATOM     13  N   UNL     1      25.571 -23.043  23.846  1.00  0.00    -0.245 NA
ATOM     14  C   UNL     1      24.518 -23.545  23.164  1.00  0.00     0.196 A 
ATOM     15  H   UNL     1      23.104 -25.130  23.475  1.00  0.00     0.167 HD
ENDBRANCH   1  10
TORSDOF 4
ENDMDL
MODEL 8
REMARK VINA RESULT:    -4.050      3.505      4.757
REMARK INTER + INTRA:          -5.004
REMARK INTER:                  -4.854
REMARK INTRA:                  -0.150
REMARK UNBOUND:                -0.125
REMARK SMILES [NH3+][C@H](Cc1cnc[nH]1)C(=O)[O-]
REMARK SMILES IDX 3 1 2 2 1 3 9 7 10 8 11 9 4 10 5 11 8 12 6 13 7 14
REMARK H PARENT 1 4 1 5 1 6 8 15
REMARK Flexibility Score: inf
ROOT
ATOM      1  C   UNL     1      22.453 -23.122  25.150  1.00  0.00     0.127 C 
ENDROOT
BRANCH   1   2
ATOM      2  C   UNL     1      22.889 -22.059  26.178  1.00  0.00     0.233 C 
BRANCH   2   3
ATOM      3  N   UNL     1      21.960 -20.923  26.166  1.00  0.00    -0.350 N 
ATOM      4  H   UNL     1      20.974 -21.270  26.221  1.00  0.00     0.345 HD
ATOM      5  H   UNL     1      22.067 -20.387  25.274  1.00  0.00     0.345 HD
ATOM      6  H   UNL     1      22.143 -20.285  26.975  1.00  0.00     0.345 HD
ENDBRANCH   2   3
BRANCH   2   7
ATOM      7  C   UNL     1      22.965 -22.649  27.563  1.00  0.00     0.099 C 
ATOM      8  O   UNL     1      22.725 -21.934  28.570  1.00  0.00    -0.544 OA
ATOM      9  O   UNL     1      23.313 -23.984  27.737  1.00  0.00    -0.544 OA
ENDBRANCH   2   7
ENDBRANCH   1   2
BRANCH   1  10
ATOM     10  C   UNL     1      23.610 -23.593  24.320  1.00  0.00     0.041 A 
ATOM     11  C   UNL     1      24.671 -22.831  23.884  1.00  0.00     0.134 A 
ATOM     12  N   UNL     1      23.732 -24.829  23.812  1.00  0.00    -0.348 N 
ATOM     13  N   UNL     1      25.471 -23.591  23.111  1.00  0.00    -0.245 NA
ATOM     14  C   UNL     1      24.868 -24.800  23.091  1.00  0.00     0.196 A 
ATOM     15  H   UNL     1      23.082 -25.637  23.937  1.00  0.00     0.167 HD
ENDBRANCH   1  10
TORSDOF 4
ENDMDL
MODEL 9
REMARK VINA RESULT:    -4.045      3.596      4.795
REMARK INTER + INTRA:          -4.998
REMARK INTER:                  -4.858
REMARK INTRA:                  -0.139
REMARK UNBOUND:                -0.125
REMARK SMILES [NH3+][C@H](Cc1cnc[nH]1)C(=O)[O-]
REMARK SMILES IDX 3 1 2 2 1 3 9 7 10 8 11 9 4 10 5 11 8 12 6 13 7 14
REMARK H PARENT 1 4 1 5 1 6 8 15
REMARK Flexibility Score: inf
ROOT
ATOM      1  C   UNL     1      23.466 -23.030  24.216  1.00  0.00     0.127 C 
ENDROOT
BRANCH   1   2
ATOM      2  C   UNL     1      22.809 -22.883  25.603  1.00  0.00     0.233 C 
BRANCH   2   3
ATOM      3  N   UNL     1      21.634 -22.008  25.524  1.00  0.00    -0.350 N 
ATOM      4  H   UNL     1      20.790 -22.514  25.882  1.00  0.00     0.345 HD
ATOM      5  H   UNL     1      21.456 -21.743  24.528  1.00  0.00     0.345 HD
ATOM      6  H   UNL     1      21.778 -21.140  26.091  1.00  0.00     0.345 HD
ENDBRANCH   2   3
BRANCH   2   7
ATOM      7  C   UNL     1      22.416 -24.228  26.158  1.00  0.00     0.099 C 
ATOM      8  O   UNL     1      22.457 -24.437  27.398  1.00  0.00    -0.544 OA
ATOM      9  O   UNL     1      22.020 -25.250  25.303  1.00  0.00    -0.544 OA
ENDBRANCH   2   7
ENDBRANCH   1   2
BRANCH   1  10
ATOM     10  C   UNL     1      24.917 -22.650  24.249  1.00  0.00     0.041 A 
ATOM     11  C   UNL     1      25.989 -23.489  24.041  1.00  0.00     0.134 A 
ATOM     12  N   UNL     1      25.380 -21.433  24.570  1.00  0.00    -0.348 N 
ATOM     13  N   UNL     1      27.131 -22.796  24.217  1.00  0.00    -0.245 NA
ATOM     14  C   UNL     1      26.720 -21.550  24.538  1.00  0.00     0.196 A 
ATOM     15  H   UNL     1      24.824 -20.581  24.806  1.00  0.00     0.167 HD
ENDBRANCH   1  10
TORSDOF 4
ENDMDL
