MODEL 1
REMARK VINA RESULT:    -2.385      0.000      0.000
REMARK INTER + INTRA:          -2.861
REMARK INTER:                  -3.361
REMARK INTRA:                   0.500
REMARK UNBOUND:                 0.500
REMARK SMILES CC1=CCC(=C(C)C)C(=O)CC(C)=CCC1
REMARK SMILES IDX 12 1 14 2 13 3 15 4 16 5 2 6 1 7 3 8 11 10 9 11 10 12 5 13
REMARK SMILES IDX 6 14 7 15 8 16 4 17
REMARK H PARENT
REMARK Flexibility Score: 60.00
ROOT
ATOM      1  C   UNL     1      28.212  27.727  27.676  1.00  0.00    -0.070 C 
ATOM      2  C   UNL     1      28.710  26.518  27.329  1.00  0.00    -0.027 C 
ATOM      3  C   UNL     1      29.125  28.695  28.384  1.00  0.00     0.039 C 
ENDROOT
BRANCH   2   4
ATOM      4  C   UNL     1      27.958  25.452  26.565  1.00  0.00     0.032 C 
BRANCH   4   5
ATOM      5  C   UNL     1      27.799  24.167  27.393  1.00  0.00     0.034 C 
BRANCH   5   6
ATOM      6  C   UNL     1      27.451  24.424  28.853  1.00  0.00    -0.077 C 
ATOM      7  C   UNL     1      28.459  24.064  29.915  1.00  0.00     0.039 C 
ATOM      8  C   UNL     1      26.284  24.980  29.253  1.00  0.00    -0.023 CG0
ATOM      9  G   UNL     1      25.130  25.342  28.348  1.00  0.00     0.000 G0
ENDBRANCH   5   6
ENDBRANCH   4   5
ENDBRANCH   2   4
BRANCH   1  10
ATOM     10  C   UNL     1      26.782  28.144  27.388  1.00  0.00     0.111 C 
BRANCH  10  11
ATOM     11  C   UNL     1      25.883  27.837  28.551  1.00  0.00     0.163 C 
ATOM     12  O   UNL     1      26.057  28.442  29.644  1.00  0.00    -0.294 OA
BRANCH  11  13
ATOM     13  C   UNL     1      24.778  26.852  28.434  1.00  0.00    -0.002 C 
ATOM     14  C   UNL     1      23.485  27.273  28.379  1.00  0.00    -0.069 C 
ATOM     15  C   UNL     1      22.344  26.283  28.312  1.00  0.00     0.039 C 
ATOM     16  C   UNL     1      23.143  28.746  28.342  1.00  0.00     0.039 C 
BRANCH  13  17
ATOM     17  C   UNL     1      25.112  25.365  28.374  1.00  0.00     0.066 CG0
ATOM     18  G   UNL     1      26.275  24.967  29.252  1.00  0.00     0.000 G0
ENDBRANCH  13  17
ENDBRANCH  11  13
ENDBRANCH  10  11
ENDBRANCH   1  10
TORSDOF 0
ENDMDL
MODEL 2
REMARK VINA RESULT:    -1.650      2.037      4.418
REMARK INTER + INTRA:          -1.825
REMARK INTER:                  -2.796
REMARK INTRA:                   0.971
REMARK UNBOUND:                 0.500
REMARK SMILES CC1=CCC(=C(C)C)C(=O)CC(C)=CCC1
REMARK SMILES IDX 12 1 14 2 13 3 15 4 16 5 2 6 1 7 3 8 11 10 9 11 10 12 5 13
REMARK SMILES IDX 6 14 7 15 8 16 4 17
REMARK H PARENT
REMARK Flexibility Score: 60.00
ROOT
ATOM      1  C   UNL     1      27.269  24.658  25.649  1.00  0.00    -0.070 C 
ATOM      2  C   UNL     1      26.671  24.159  26.755  1.00  0.00    -0.027 C 
ATOM      3  C   UNL     1      26.761  24.206  24.304  1.00  0.00     0.039 C 
ENDROOT
BRANCH   2   4
ATOM      4  C   UNL     1      27.009  24.545  28.178  1.00  0.00     0.032 C 
BRANCH   4   5
ATOM      5  C   UNL     1      25.758  24.973  28.962  1.00  0.00     0.034 C 
BRANCH   5   6
ATOM      6  C   UNL     1      25.215  26.332  28.545  1.00  0.00    -0.077 C 
ATOM      7  C   UNL     1      23.723  26.515  28.432  1.00  0.00     0.039 C 
ATOM      8  C   UNL     1      26.003  27.401  28.286  1.00  0.00    -0.023 CG0
ATOM      9  G   UNL     1      27.514  27.395  28.278  1.00  0.00     0.000 G0
ENDBRANCH   5   6
ENDBRANCH   4   5
ENDBRANCH   2   4
BRANCH   1  10
ATOM     10  C   UNL     1      28.422  25.641  25.706  1.00  0.00     0.111 C 
BRANCH  10  11
ATOM     11  C   UNL     1      27.925  27.059  25.711  1.00  0.00     0.163 C 
ATOM     12  O   UNL     1      27.363  27.520  24.681  1.00  0.00    -0.294 OA
BRANCH  11  13
ATOM     13  C   UNL     1      28.061  27.921  26.913  1.00  0.00    -0.002 C 
ATOM     14  C   UNL     1      28.661  29.138  26.820  1.00  0.00    -0.069 C 
ATOM     15  C   UNL     1      28.856  30.007  28.043  1.00  0.00     0.039 C 
ATOM     16  C   UNL     1      29.119  29.685  25.487  1.00  0.00     0.039 C 
BRANCH  13  17
ATOM     17  C   UNL     1      27.518  27.423  28.249  1.00  0.00     0.066 CG0
ATOM     18  G   UNL     1      26.009  27.405  28.324  1.00  0.00     0.000 G0
ENDBRANCH  13  17
ENDBRANCH  11  13
ENDBRANCH  10  11
ENDBRANCH   1  10
TORSDOF 0
ENDMDL
MODEL 3
REMARK VINA RESULT:    -1.565      2.478      4.712
REMARK INTER + INTRA:          -1.706
REMARK INTER:                  -3.934
REMARK INTRA:                   2.228
REMARK UNBOUND:                 0.500
REMARK SMILES CC1=CCC(=C(C)C)C(=O)CC(C)=CCC1
REMARK SMILES IDX 12 1 14 2 13 3 15 4 16 5 2 6 1 7 3 8 11 10 9 11 10 12 5 13
REMARK SMILES IDX 6 14 7 15 8 16 4 17
REMARK H PARENT
REMARK Flexibility Score: 60.00
ROOT
ATOM      1  C   UNL     1      27.870  24.834  28.104  1.00  0.00    -0.070 C 
ATOM      2  C   UNL     1      27.390  24.943  29.365  1.00  0.00    -0.027 C 
ATOM      3  C   UNL     1      29.032  23.906  27.865  1.00  0.00     0.039 C 
ENDROOT
BRANCH   2   4
ATOM      4  C   UNL     1      26.197  25.777  29.775  1.00  0.00     0.032 C 
BRANCH   4   5
ATOM      5  C   UNL     1      25.917  26.900  28.765  1.00  0.00     0.034 C 
BRANCH   5   6
ATOM      6  C   UNL     1      26.359  28.275  29.246  1.00  0.00    -0.077 C 
ATOM      7  C   UNL     1      25.346  29.171  29.913  1.00  0.00     0.039 C 
ATOM      8  C   UNL     1      27.625  28.735  29.125  1.00  0.00    -0.023 CG0
ATOM      9  G   UNL     1      28.756  28.015  28.427  1.00  0.00     0.000 G0
ENDBRANCH   5   6
ENDBRANCH   4   5
ENDBRANCH   2   4
BRANCH   1  10
ATOM     10  C   UNL     1      27.292  25.605  26.933  1.00  0.00     0.111 C 
BRANCH  10  11
ATOM     11  C   UNL     1      28.317  26.525  26.332  1.00  0.00     0.163 C 
ATOM     12  O   UNL     1      28.958  26.155  25.312  1.00  0.00    -0.294 OA
BRANCH  11  13
ATOM     13  C   UNL     1      28.573  27.873  26.902  1.00  0.00    -0.002 C 
ATOM     14  C   UNL     1      28.640  28.961  26.088  1.00  0.00    -0.069 C 
ATOM     15  C   UNL     1      28.952  30.333  26.644  1.00  0.00     0.039 C 
ATOM     16  C   UNL     1      28.366  28.847  24.605  1.00  0.00     0.039 C 
BRANCH  13  17
ATOM     17  C   UNL     1      28.758  28.019  28.409  1.00  0.00     0.066 CG0
ATOM     18  G   UNL     1      27.620  28.737  29.095  1.00  0.00     0.000 G0
ENDBRANCH  13  17
ENDBRANCH  11  13
ENDBRANCH  10  11
ENDBRANCH   1  10
TORSDOF 0
ENDMDL
MODEL 4
REMARK VINA RESULT:    -1.413      2.032      4.357
REMARK INTER + INTRA:          -1.492
REMARK INTER:                  -3.845
REMARK INTRA:                   2.353
REMARK UNBOUND:                 0.500
REMARK SMILES CC1=CCC(=C(C)C)C(=O)CC(C)=CCC1
REMARK SMILES IDX 12 1 14 2 13 3 15 4 16 5 2 6 1 7 3 8 11 10 9 11 10 12 5 13
REMARK SMILES IDX 6 14 7 15 8 16 4 17
REMARK H PARENT
REMARK Flexibility Score: 60.00
ROOT
ATOM      1  C   UNL     1      25.405  28.480  29.228  1.00  0.00    -0.070 C 
ATOM      2  C   UNL     1      26.624  29.067  29.265  1.00  0.00    -0.027 C 
ATOM      3  C   UNL     1      24.254  29.193  29.889  1.00  0.00     0.039 C 
ENDROOT
BRANCH   2   4
ATOM      4  C   UNL     1      27.872  28.527  28.606  1.00  0.00     0.032 C 
BRANCH   4   5
ATOM      5  C   UNL     1      28.252  29.341  27.359  1.00  0.00     0.034 C 
BRANCH   5   6
ATOM      6  C   UNL     1      28.118  28.560  26.059  1.00  0.00    -0.077 C 
ATOM      7  C   UNL     1      27.895  29.319  24.775  1.00  0.00     0.039 C 
ATOM      8  C   UNL     1      28.206  27.212  25.988  1.00  0.00    -0.023 CG0
ATOM      9  G   UNL     1      28.357  26.280  27.168  1.00  0.00     0.000 G0
ENDBRANCH   5   6
ENDBRANCH   4   5
ENDBRANCH   2   4
BRANCH   1  10
ATOM     10  C   UNL     1      25.153  27.145  28.555  1.00  0.00     0.111 C 
BRANCH  10  11
ATOM     11  C   UNL     1      26.310  26.208  28.759  1.00  0.00     0.163 C 
ATOM     12  O   UNL     1      26.659  25.903  29.932  1.00  0.00    -0.294 OA
BRANCH  11  13
ATOM     13  C   UNL     1      27.037  25.617  27.607  1.00  0.00    -0.002 C 
ATOM     14  C   UNL     1      26.536  24.525  26.967  1.00  0.00    -0.069 C 
ATOM     15  C   UNL     1      27.288  23.877  25.826  1.00  0.00     0.039 C 
ATOM     16  C   UNL     1      25.192  23.945  27.344  1.00  0.00     0.039 C 
BRANCH  13  17
ATOM     17  C   UNL     1      28.349  26.248  27.153  1.00  0.00     0.066 CG0
ATOM     18  G   UNL     1      28.195  27.195  25.985  1.00  0.00     0.000 G0
ENDBRANCH  13  17
ENDBRANCH  11  13
ENDBRANCH  10  11
ENDBRANCH   1  10
TORSDOF 0
ENDMDL
MODEL 5
REMARK VINA RESULT:    -1.282      2.237      3.844
REMARK INTER + INTRA:          -1.307
REMARK INTER:                  -2.714
REMARK INTRA:                   1.407
REMARK UNBOUND:                 0.500
REMARK SMILES CC1=CCC(=C(C)C)C(=O)CC(C)=CCC1
REMARK SMILES IDX 12 1 14 2 13 3 15 4 16 5 2 6 1 7 3 8 11 10 9 11 10 12 5 13
REMARK SMILES IDX 6 14 7 15 8 16 4 17
REMARK H PARENT
REMARK Flexibility Score: 60.00
ROOT
ATOM      1  C   UNL     1      27.893  24.869  29.857  1.00  0.00    -0.070 C 
ATOM      2  C   UNL     1      27.923  24.000  28.821  1.00  0.00    -0.027 C 
ATOM      3  C   UNL     1      29.056  24.869  30.817  1.00  0.00     0.039 C 
ENDROOT
BRANCH   2   4
ATOM      4  C   UNL     1      26.877  23.905  27.733  1.00  0.00     0.032 C 
BRANCH   4   5
ATOM      5  C   UNL     1      27.514  23.875  26.335  1.00  0.00     0.034 C 
BRANCH   5   6
ATOM      6  C   UNL     1      27.152  25.079  25.477  1.00  0.00    -0.077 C 
ATOM      7  C   UNL     1      26.400  24.855  24.190  1.00  0.00     0.039 C 
ATOM      8  C   UNL     1      27.455  26.354  25.817  1.00  0.00    -0.023 CG0
ATOM      9  G   UNL     1      28.260  26.770  27.025  1.00  0.00     0.000 G0
ENDBRANCH   5   6
ENDBRANCH   4   5
ENDBRANCH   2   4
BRANCH   1  10
ATOM     10  C   UNL     1      26.747  25.834  30.093  1.00  0.00     0.111 C 
BRANCH  10  11
ATOM     11  C   UNL     1      26.385  26.564  28.830  1.00  0.00     0.163 C 
ATOM     12  O   UNL     1      25.212  26.472  28.378  1.00  0.00    -0.294 OA
BRANCH  11  13
ATOM     13  C   UNL     1      27.376  27.410  28.117  1.00  0.00    -0.002 C 
ATOM     14  C   UNL     1      27.501  28.729  28.427  1.00  0.00    -0.069 C 
ATOM     15  C   UNL     1      28.466  29.619  27.677  1.00  0.00     0.039 C 
ATOM     16  C   UNL     1      26.710  29.345  29.560  1.00  0.00     0.039 C 
BRANCH  13  17
ATOM     17  C   UNL     1      28.249  26.782  27.036  1.00  0.00     0.066 CG0
ATOM     18  G   UNL     1      27.482  26.364  25.802  1.00  0.00     0.000 G0
ENDBRANCH  13  17
ENDBRANCH  11  13
ENDBRANCH  10  11
ENDBRANCH   1  10
TORSDOF 0
ENDMDL
MODEL 6
REMARK VINA RESULT:    -1.183      2.052      3.646
REMARK INTER + INTRA:          -1.167
REMARK INTER:                  -1.770
REMARK INTRA:                   0.603
REMARK UNBOUND:                 0.500
REMARK SMILES CC1=CCC(=C(C)C)C(=O)CC(C)=CCC1
REMARK SMILES IDX 12 1 14 2 13 3 15 4 16 5 2 6 1 7 3 8 11 10 9 11 10 12 5 13
REMARK SMILES IDX 6 14 7 15 8 16 4 17
REMARK H PARENT
REMARK Flexibility Score: 60.00
ROOT
ATOM      1  C   UNL     1      27.734  27.678  27.828  1.00  0.00    -0.070 C 
ATOM      2  C   UNL     1      28.374  27.509  26.648  1.00  0.00    -0.027 C 
ATOM      3  C   UNL     1      28.518  28.240  28.986  1.00  0.00     0.039 C 
ENDROOT
BRANCH   2   4
ATOM      4  C   UNL     1      27.731  27.017  25.371  1.00  0.00     0.032 C 
BRANCH   4   5
ATOM      5  C   UNL     1      28.221  25.610  24.996  1.00  0.00     0.034 C 
BRANCH   5   6
ATOM      6  C   UNL     1      27.212  24.513  25.305  1.00  0.00    -0.077 C 
ATOM      7  C   UNL     1      26.244  24.091  24.229  1.00  0.00     0.039 C 
ATOM      8  C   UNL     1      27.148  23.875  26.497  1.00  0.00    -0.023 CG0
ATOM      9  G   UNL     1      27.982  24.204  27.713  1.00  0.00     0.000 G0
ENDBRANCH   5   6
ENDBRANCH   4   5
ENDBRANCH   2   4
BRANCH   1  10
ATOM     10  C   UNL     1      26.273  27.326  28.033  1.00  0.00     0.111 C 
BRANCH  10  11
ATOM     11  C   UNL     1      26.108  25.870  28.364  1.00  0.00     0.163 C 
ATOM     12  O   UNL     1      24.968  25.340  28.270  1.00  0.00    -0.294 OA
BRANCH  11  13
ATOM     13  C   UNL     1      27.266  25.036  28.776  1.00  0.00    -0.002 C 
ATOM     14  C   UNL     1      27.672  25.019  30.075  1.00  0.00    -0.069 C 
ATOM     15  C   UNL     1      28.880  24.218  30.505  1.00  0.00     0.039 C 
ATOM     16  C   UNL     1      26.906  25.767  31.144  1.00  0.00     0.039 C 
BRANCH  13  17
ATOM     17  C   UNL     1      27.991  24.200  27.727  1.00  0.00     0.066 CG0
ATOM     18  G   UNL     1      27.153  23.894  26.508  1.00  0.00     0.000 G0
ENDBRANCH  13  17
ENDBRANCH  11  13
ENDBRANCH  10  11
ENDBRANCH   1  10
TORSDOF 0
ENDMDL
MODEL 7
REMARK VINA RESULT:    -1.101      2.044      3.865
REMARK INTER + INTRA:          -1.052
REMARK INTER:                  -2.427
REMARK INTRA:                   1.376
REMARK UNBOUND:                 0.500
REMARK SMILES CC1=CCC(=C(C)C)C(=O)CC(C)=CCC1
REMARK SMILES IDX 12 1 14 2 13 3 15 4 16 5 2 6 1 7 3 8 11 10 9 11 10 12 5 13
REMARK SMILES IDX 6 14 7 15 8 16 4 17
REMARK H PARENT
REMARK Flexibility Score: 60.00
ROOT
ATOM      1  C   UNL     1      26.018  24.713  27.703  1.00  0.00    -0.070 C 
ATOM      2  C   UNL     1      27.212  24.794  27.072  1.00  0.00    -0.027 C 
ATOM      3  C   UNL     1      24.928  23.895  27.058  1.00  0.00     0.039 C 
ENDROOT
BRANCH   2   4
ATOM      4  C   UNL     1      28.430  25.517  27.602  1.00  0.00     0.032 C 
BRANCH   4   5
ATOM      5  C   UNL     1      29.119  26.344  26.505  1.00  0.00     0.034 C 
BRANCH   5   6
ATOM      6  C   UNL     1      28.471  27.701  26.271  1.00  0.00    -0.077 C 
ATOM      7  C   UNL     1      28.578  28.331  24.905  1.00  0.00     0.039 C 
ATOM      8  C   UNL     1      27.783  28.372  27.223  1.00  0.00    -0.023 CG0
ATOM      9  G   UNL     1      27.627  27.938  28.662  1.00  0.00     0.000 G0
ENDBRANCH   5   6
ENDBRANCH   4   5
ENDBRANCH   2   4
BRANCH   1  10
ATOM     10  C   UNL     1      25.731  25.407  29.021  1.00  0.00     0.111 C 
BRANCH  10  11
ATOM     11  C   UNL     1      25.263  26.818  28.799  1.00  0.00     0.163 C 
ATOM     12  O   UNL     1      24.099  27.020  28.358  1.00  0.00    -0.294 OA
BRANCH  11  13
ATOM     13  C   UNL     1      26.135  27.979  29.111  1.00  0.00    -0.002 C 
ATOM     14  C   UNL     1      25.637  29.049  29.788  1.00  0.00    -0.069 C 
ATOM     15  C   UNL     1      26.495  30.262  30.069  1.00  0.00     0.039 C 
ATOM     16  C   UNL     1      24.222  29.048  30.322  1.00  0.00     0.039 C 
BRANCH  13  17
ATOM     17  C   UNL     1      27.592  27.955  28.662  1.00  0.00     0.066 CG0
ATOM     18  G   UNL     1      27.796  28.395  27.231  1.00  0.00     0.000 G0
ENDBRANCH  13  17
ENDBRANCH  11  13
ENDBRANCH  10  11
ENDBRANCH   1  10
TORSDOF 0
ENDMDL
MODEL 8
REMARK VINA RESULT:    -0.605      2.288      4.672
REMARK INTER + INTRA:          -0.352
REMARK INTER:                  -1.042
REMARK INTRA:                   0.689
REMARK UNBOUND:                 0.500
REMARK SMILES CC1=CCC(=C(C)C)C(=O)CC(C)=CCC1
REMARK SMILES IDX 12 1 14 2 13 3 15 4 16 5 2 6 1 7 3 8 11 10 9 11 10 12 5 13
REMARK SMILES IDX 6 14 7 15 8 16 4 17
REMARK H PARENT
REMARK Flexibility Score: 60.00
ROOT
ATOM      1  C   UNL     1      26.071  27.790  29.581  1.00  0.00    -0.070 C 
ATOM      2  C   UNL     1      26.755  28.942  29.772  1.00  0.00    -0.027 C 
ATOM      3  C   UNL     1      25.624  27.021  30.798  1.00  0.00     0.039 C 
ENDROOT
BRANCH   2   4
ATOM      4  C   UNL     1      27.227  29.867  28.673  1.00  0.00     0.032 C 
BRANCH   4   5
ATOM      5  C   UNL     1      28.685  29.585  28.282  1.00  0.00     0.034 C 
BRANCH   5   6
ATOM      6  C   UNL     1      28.825  28.738  27.025  1.00  0.00    -0.077 C 
ATOM      7  C   UNL     1      28.729  29.413  25.679  1.00  0.00     0.039 C 
ATOM      8  C   UNL     1      29.050  27.405  27.046  1.00  0.00    -0.023 CG0
ATOM      9  G   UNL     1      29.107  26.546  28.288  1.00  0.00     0.000 G0
ENDBRANCH   5   6
ENDBRANCH   4   5
ENDBRANCH   2   4
BRANCH   1  10
ATOM     10  C   UNL     1      25.741  27.244  28.205  1.00  0.00     0.111 C 
BRANCH  10  11
ATOM     11  C   UNL     1      26.591  26.049  27.879  1.00  0.00     0.163 C 
ATOM     12  O   UNL     1      26.254  25.291  26.929  1.00  0.00    -0.294 OA
BRANCH  11  13
ATOM     13  C   UNL     1      27.834  25.754  28.638  1.00  0.00    -0.002 C 
ATOM     14  C   UNL     1      27.834  24.804  29.612  1.00  0.00    -0.069 C 
ATOM     15  C   UNL     1      29.075  24.527  30.431  1.00  0.00     0.039 C 
ATOM     16  C   UNL     1      26.608  23.962  29.884  1.00  0.00     0.039 C 
BRANCH  13  17
ATOM     17  C   UNL     1      29.106  26.529  28.310  1.00  0.00     0.066 CG0
ATOM     18  G   UNL     1      28.993  27.388  27.072  1.00  0.00     0.000 G0
ENDBRANCH  13  17
ENDBRANCH  11  13
ENDBRANCH  10  11
ENDBRANCH   1  10
TORSDOF 0
ENDMDL
MODEL 9
REMARK VINA RESULT:    -0.489     15.044     16.860
REMARK INTER + INTRA:          -0.190
REMARK INTER:                  -0.882
REMARK INTRA:                   0.692
REMARK UNBOUND:                 0.500
REMARK SMILES CC1=CCC(=C(C)C)C(=O)CC(C)=CCC1
REMARK SMILES IDX 12 1 14 2 13 3 15 4 16 5 2 6 1 7 3 8 11 10 9 11 10 12 5 13
REMARK SMILES IDX 6 14 7 15 8 16 4 17
REMARK H PARENT
REMARK Flexibility Score: 60.00
ROOT
ATOM      1  C   UNL     1      28.144  40.328  18.215  1.00  0.00    -0.070 C 
ATOM      2  C   UNL     1      27.638  41.568  18.022  1.00  0.00    -0.027 C 
ATOM      3  C   UNL     1      27.798  39.257  17.213  1.00  0.00     0.039 C 
ENDROOT
BRANCH   2   4
ATOM      4  C   UNL     1      27.928  42.773  18.889  1.00  0.00     0.032 C 
BRANCH   4   5
ATOM      5  C   UNL     1      26.663  43.275  19.602  1.00  0.00     0.034 C 
BRANCH   5   6
ATOM      6  C   UNL     1      26.654  42.987  21.097  1.00  0.00    -0.077 C 
ATOM      7  C   UNL     1      27.145  44.051  22.045  1.00  0.00     0.039 C 
ATOM      8  C   UNL     1      26.207  41.826  21.629  1.00  0.00    -0.023 CG0
ATOM      9  G   UNL     1      25.744  40.622  20.841  1.00  0.00     0.000 G0
ENDBRANCH   5   6
ENDBRANCH   4   5
ENDBRANCH   2   4
BRANCH   1  10
ATOM     10  C   UNL     1      29.034  39.974  19.391  1.00  0.00     0.111 C 
BRANCH  10  11
ATOM     11  C   UNL     1      28.250  39.938  20.672  1.00  0.00     0.163 C 
ATOM     12  O   UNL     1      28.810  40.280  21.749  1.00  0.00    -0.294 OA
BRANCH  11  13
ATOM     13  C   UNL     1      26.822  39.530  20.693  1.00  0.00    -0.002 C 
ATOM     14  C   UNL     1      26.482  38.218  20.582  1.00  0.00    -0.069 C 
ATOM     15  C   UNL     1      25.032  37.788  20.548  1.00  0.00     0.039 C 
ATOM     16  C   UNL     1      27.538  37.137  20.531  1.00  0.00     0.039 C 
BRANCH  13  17
ATOM     17  C   UNL     1      25.746  40.601  20.840  1.00  0.00     0.066 CG0
ATOM     18  G   UNL     1      26.195  41.811  21.625  1.00  0.00     0.000 G0
ENDBRANCH  13  17
ENDBRANCH  11  13
ENDBRANCH  10  11
ENDBRANCH   1  10
TORSDOF 0
ENDMDL
