MODEL 1
REMARK VINA RESULT:    -7.245      0.000      0.000
REMARK INTER + INTRA:          -8.625
REMARK INTER:                  -8.727
REMARK INTRA:                   0.102
REMARK UNBOUND:                 0.102
REMARK SMILES O=c1c(O)c(-c2ccc(O)c(O)c2)oc2cc(O)cc(O)c12
REMARK SMILES IDX 5 1 3 2 2 3 1 4 22 5 20 6 19 7 17 8 16 9 15 10 14 11 6 12
REMARK SMILES IDX 7 13 8 14 9 15 13 16 11 17 10 18 12 20 4 22 21 24 18 26
REMARK H PARENT 10 19 12 21 4 23 21 25 18 27
REMARK Flexibility Score: inf
ROOT
ATOM      1  C   UNL     1       2.357   4.537 -22.143  1.00  0.00     0.180 A 
ATOM      2  C   UNL     1       2.745   5.080 -20.903  1.00  0.00     0.208 A 
ATOM      3  C   UNL     1       2.259   4.494 -19.723  1.00  0.00     0.238 A 
ATOM      4  O   UNL     1       2.609   4.965 -18.607  1.00  0.00    -0.285 OA
ATOM      5  C   UNL     1       1.383   3.392 -19.803  1.00  0.00     0.111 A 
ATOM      6  C   UNL     1       0.846   2.746 -18.662  1.00  0.00     0.134 A 
ATOM      7  C   UNL     1      -0.028   1.660 -18.826  1.00  0.00     0.093 A 
ATOM      8  C   UNL     1      -0.375   1.210 -20.101  1.00  0.00     0.123 A 
ATOM      9  C   UNL     1       0.153   1.844 -21.231  1.00  0.00     0.094 A 
ATOM     10  C   UNL     1       1.026   2.927 -21.090  1.00  0.00     0.146 A 
ATOM     11  O   UNL     1       1.517   3.507 -22.179  1.00  0.00    -0.452 OA
ENDROOT
BRANCH   1  12
ATOM     12  C   UNL     1       2.842   5.088 -23.429  1.00  0.00     0.025 A 
ATOM     13  C   UNL     1       2.824   6.476 -23.635  1.00  0.00     0.016 A 
ATOM     14  C   UNL     1       3.256   7.018 -24.848  1.00  0.00     0.051 A 
ATOM     15  C   UNL     1       3.696   6.181 -25.879  1.00  0.00     0.157 A 
ATOM     16  C   UNL     1       3.265   4.247 -24.474  1.00  0.00     0.062 A 
ATOM     17  C   UNL     1       3.697   4.788 -25.693  1.00  0.00     0.158 A 
BRANCH  15  18
ATOM     18  O   UNL     1       4.125   6.751 -27.077  1.00  0.00    -0.504 OA
ATOM     19  H   UNL     1       3.571   7.440 -27.573  1.00  0.00     0.293 HD
ENDBRANCH  15  18
BRANCH  17  20
ATOM     20  O   UNL     1       4.122   3.949 -26.721  1.00  0.00    -0.504 OA
ATOM     21  H   UNL     1       4.678   4.295 -27.495  1.00  0.00     0.293 HD
ENDBRANCH  17  20
ENDBRANCH   1  12
BRANCH   2  22
ATOM     22  O   UNL     1       3.575   6.203 -20.852  1.00  0.00    -0.502 OA
ATOM     23  H   UNL     1       4.262   6.403 -21.569  1.00  0.00     0.293 HD
ENDBRANCH   2  22
BRANCH   6  24
ATOM     24  O   UNL     1       1.173   3.173 -17.375  1.00  0.00    -0.507 OA
ATOM     25  H   UNL     1       1.423   4.136 -17.181  1.00  0.00     0.293 HD
ENDBRANCH   6  24
BRANCH   8  26
ATOM     26  O   UNL     1      -1.246   0.132 -20.235  1.00  0.00    -0.508 OA
ATOM     27  H   UNL     1      -1.023  -0.780 -19.855  1.00  0.00     0.293 HD
ENDBRANCH   8  26
TORSDOF 6
ENDMDL
MODEL 2
REMARK VINA RESULT:    -7.074      0.605      1.420
REMARK INTER + INTRA:          -8.420
REMARK INTER:                  -8.649
REMARK INTRA:                   0.230
REMARK UNBOUND:                 0.102
REMARK SMILES O=c1c(O)c(-c2ccc(O)c(O)c2)oc2cc(O)cc(O)c12
REMARK SMILES IDX 5 1 3 2 2 3 1 4 22 5 20 6 19 7 17 8 16 9 15 10 14 11 6 12
REMARK SMILES IDX 7 13 8 14 9 15 13 16 11 17 10 18 12 20 4 22 21 24 18 26
REMARK H PARENT 10 19 12 21 4 23 21 25 18 27
REMARK Flexibility Score: inf
ROOT
ATOM      1  C   UNL     1       2.264   4.241 -22.230  1.00  0.00     0.180 A 
ATOM      2  C   UNL     1       2.623   4.891 -21.033  1.00  0.00     0.208 A 
ATOM      3  C   UNL     1       2.160   4.371 -19.814  1.00  0.00     0.238 A 
ATOM      4  O   UNL     1       2.485   4.939 -18.736  1.00  0.00    -0.285 OA
ATOM      5  C   UNL     1       1.335   3.229 -19.812  1.00  0.00     0.111 A 
ATOM      6  C   UNL     1       0.824   2.645 -18.627  1.00  0.00     0.134 A 
ATOM      7  C   UNL     1       0.000   1.512 -18.709  1.00  0.00     0.093 A 
ATOM      8  C   UNL     1      -0.322   0.954 -19.948  1.00  0.00     0.123 A 
ATOM      9  C   UNL     1       0.180   1.526 -21.122  1.00  0.00     0.094 A 
ATOM     10  C   UNL     1       1.004   2.654 -21.061  1.00  0.00     0.146 A 
ATOM     11  O   UNL     1       1.471   3.174 -22.190  1.00  0.00    -0.452 OA
ENDROOT
BRANCH   1  12
ATOM     12  C   UNL     1       2.727   4.717 -23.553  1.00  0.00     0.025 A 
ATOM     13  C   UNL     1       3.040   3.783 -24.552  1.00  0.00     0.016 A 
ATOM     14  C   UNL     1       3.499   4.210 -25.802  1.00  0.00     0.051 A 
ATOM     15  C   UNL     1       3.668   5.572 -26.065  1.00  0.00     0.157 A 
ATOM     16  C   UNL     1       2.917   6.087 -23.813  1.00  0.00     0.062 A 
ATOM     17  C   UNL     1       3.380   6.517 -25.066  1.00  0.00     0.158 A 
BRANCH  15  18
ATOM     18  O   UNL     1       4.125   5.967 -27.322  1.00  0.00    -0.504 OA
ATOM     19  H   UNL     1       5.084   5.824 -27.615  1.00  0.00     0.293 HD
ENDBRANCH  15  18
BRANCH  17  20
ATOM     20  O   UNL     1       3.559   7.875 -25.318  1.00  0.00    -0.504 OA
ATOM     21  H   UNL     1       2.772   8.498 -25.459  1.00  0.00     0.293 HD
ENDBRANCH  17  20
ENDBRANCH   1  12
BRANCH   2  22
ATOM     22  O   UNL     1       3.401   6.051 -21.066  1.00  0.00    -0.502 OA
ATOM     23  H   UNL     1       4.009   6.275 -21.844  1.00  0.00     0.293 HD
ENDBRANCH   2  22
BRANCH   6  24
ATOM     24  O   UNL     1       1.128   3.180 -17.374  1.00  0.00    -0.507 OA
ATOM     25  H   UNL     1       1.926   2.859 -16.837  1.00  0.00     0.293 HD
ENDBRANCH   6  24
BRANCH   8  26
ATOM     26  O   UNL     1      -1.144  -0.170 -20.002  1.00  0.00    -0.508 OA
ATOM     27  H   UNL     1      -1.010  -0.955 -19.377  1.00  0.00     0.293 HD
ENDBRANCH   8  26
TORSDOF 6
ENDMDL
MODEL 3
REMARK VINA RESULT:    -6.948      1.450      3.269
REMARK INTER + INTRA:          -8.267
REMARK INTER:                  -8.093
REMARK INTRA:                  -0.174
REMARK UNBOUND:                 0.102
REMARK SMILES O=c1c(O)c(-c2ccc(O)c(O)c2)oc2cc(O)cc(O)c12
REMARK SMILES IDX 5 1 3 2 2 3 1 4 22 5 20 6 19 7 17 8 16 9 15 10 14 11 6 12
REMARK SMILES IDX 7 13 8 14 9 15 13 16 11 17 10 18 12 20 4 22 21 24 18 26
REMARK H PARENT 10 19 12 21 4 23 21 25 18 27
REMARK Flexibility Score: inf
ROOT
ATOM      1  C   UNL     1       1.899   3.835 -22.628  1.00  0.00     0.180 A 
ATOM      2  C   UNL     1       1.214   2.608 -22.535  1.00  0.00     0.208 A 
ATOM      3  C   UNL     1       0.836   2.135 -21.269  1.00  0.00     0.238 A 
ATOM      4  O   UNL     1       0.213   1.043 -21.175  1.00  0.00    -0.285 OA
ATOM      5  C   UNL     1       1.165   2.883 -20.119  1.00  0.00     0.111 A 
ATOM      6  C   UNL     1       0.825   2.474 -18.807  1.00  0.00     0.134 A 
ATOM      7  C   UNL     1       1.197   3.271 -17.713  1.00  0.00     0.093 A 
ATOM      8  C   UNL     1       1.900   4.461 -17.905  1.00  0.00     0.123 A 
ATOM      9  C   UNL     1       2.239   4.870 -19.199  1.00  0.00     0.094 A 
ATOM     10  C   UNL     1       1.876   4.091 -20.302  1.00  0.00     0.146 A 
ATOM     11  O   UNL     1       2.206   4.505 -21.521  1.00  0.00    -0.452 OA
ENDROOT
BRANCH   1  12
ATOM     12  C   UNL     1       2.314   4.408 -23.928  1.00  0.00     0.025 A 
ATOM     13  C   UNL     1       3.311   3.766 -24.678  1.00  0.00     0.016 A 
ATOM     14  C   UNL     1       3.734   4.300 -25.899  1.00  0.00     0.051 A 
ATOM     15  C   UNL     1       3.180   5.490 -26.379  1.00  0.00     0.157 A 
ATOM     16  C   UNL     1       1.773   5.616 -24.403  1.00  0.00     0.062 A 
ATOM     17  C   UNL     1       2.197   6.155 -25.626  1.00  0.00     0.158 A 
BRANCH  15  18
ATOM     18  O   UNL     1       3.620   5.997 -27.601  1.00  0.00    -0.504 OA
ATOM     19  H   UNL     1       3.292   6.884 -27.964  1.00  0.00     0.293 HD
ENDBRANCH  15  18
BRANCH  17  20
ATOM     20  O   UNL     1       1.651   7.349 -26.093  1.00  0.00    -0.504 OA
ATOM     21  H   UNL     1       1.245   7.422 -27.018  1.00  0.00     0.293 HD
ENDBRANCH  17  20
ENDBRANCH   1  12
BRANCH   2  22
ATOM     22  O   UNL     1       0.944   1.862 -23.686  1.00  0.00    -0.502 OA
ATOM     23  H   UNL     1       0.289   2.172 -24.393  1.00  0.00     0.293 HD
ENDBRANCH   2  22
BRANCH   6  24
ATOM     24  O   UNL     1       0.123   1.289 -18.583  1.00  0.00    -0.507 OA
ATOM     25  H   UNL     1       0.601   0.410 -18.420  1.00  0.00     0.293 HD
ENDBRANCH   6  24
BRANCH   8  26
ATOM     26  O   UNL     1       2.259   5.232 -16.801  1.00  0.00    -0.508 OA
ATOM     27  H   UNL     1       3.227   5.458 -16.604  1.00  0.00     0.293 HD
ENDBRANCH   8  26
TORSDOF 6
ENDMDL
MODEL 4
REMARK VINA RESULT:    -6.848      1.310      1.895
REMARK INTER + INTRA:          -8.148
REMARK INTER:                  -7.830
REMARK INTRA:                  -0.318
REMARK UNBOUND:                 0.102
REMARK SMILES O=c1c(O)c(-c2ccc(O)c(O)c2)oc2cc(O)cc(O)c12
REMARK SMILES IDX 5 1 3 2 2 3 1 4 22 5 20 6 19 7 17 8 16 9 15 10 14 11 6 12
REMARK SMILES IDX 7 13 8 14 9 15 13 16 11 17 10 18 12 20 4 22 21 24 18 26
REMARK H PARENT 10 19 12 21 4 23 21 25 18 27
REMARK Flexibility Score: inf
ROOT
ATOM      1  C   UNL     1       1.584   3.766 -22.589  1.00  0.00     0.180 A 
ATOM      2  C   UNL     1       2.022   4.061 -21.283  1.00  0.00     0.208 A 
ATOM      3  C   UNL     1       1.484   3.337 -20.207  1.00  0.00     0.238 A 
ATOM      4  O   UNL     1       1.878   3.586 -19.035  1.00  0.00    -0.285 OA
ATOM      5  C   UNL     1       0.509   2.349 -20.450  1.00  0.00     0.111 A 
ATOM      6  C   UNL     1      -0.085   1.578 -19.421  1.00  0.00     0.134 A 
ATOM      7  C   UNL     1      -1.057   0.618 -19.745  1.00  0.00     0.093 A 
ATOM      8  C   UNL     1      -1.446   0.417 -21.071  1.00  0.00     0.123 A 
ATOM      9  C   UNL     1      -0.862   1.175 -22.091  1.00  0.00     0.094 A 
ATOM     10  C   UNL     1       0.109   2.135 -21.790  1.00  0.00     0.146 A 
ATOM     11  O   UNL     1       0.651   2.838 -22.778  1.00  0.00    -0.452 OA
ENDROOT
BRANCH   1  12
ATOM     12  C   UNL     1       2.117   4.473 -23.775  1.00  0.00     0.025 A 
ATOM     13  C   UNL     1       3.214   3.936 -24.464  1.00  0.00     0.016 A 
ATOM     14  C   UNL     1       3.747   4.597 -25.574  1.00  0.00     0.051 A 
ATOM     15  C   UNL     1       3.203   5.812 -26.001  1.00  0.00     0.157 A 
ATOM     16  C   UNL     1       1.583   5.706 -24.194  1.00  0.00     0.062 A 
ATOM     17  C   UNL     1       2.118   6.373 -25.306  1.00  0.00     0.158 A 
BRANCH  15  18
ATOM     18  O   UNL     1       3.754   6.447 -27.114  1.00  0.00    -0.504 OA
ATOM     19  H   UNL     1       3.824   7.455 -27.177  1.00  0.00     0.293 HD
ENDBRANCH  15  18
BRANCH  17  20
ATOM     20  O   UNL     1       1.580   7.590 -25.719  1.00  0.00    -0.504 OA
ATOM     21  H   UNL     1       0.582   7.714 -25.847  1.00  0.00     0.293 HD
ENDBRANCH  17  20
ENDBRANCH   1  12
BRANCH   2  22
ATOM     22  O   UNL     1       2.953   5.080 -21.064  1.00  0.00    -0.502 OA
ATOM     23  H   UNL     1       2.730   6.058 -21.200  1.00  0.00     0.293 HD
ENDBRANCH   2  22
BRANCH   6  24
ATOM     24  O   UNL     1       0.282   1.756 -18.087  1.00  0.00    -0.507 OA
ATOM     25  H   UNL     1      -0.022   2.564 -17.555  1.00  0.00     0.293 HD
ENDBRANCH   6  24
BRANCH   8  26
ATOM     26  O   UNL     1      -2.414  -0.540 -21.364  1.00  0.00    -0.508 OA
ATOM     27  H   UNL     1      -2.996  -0.945 -20.641  1.00  0.00     0.293 HD
ENDBRANCH   8  26
TORSDOF 6
ENDMDL
MODEL 5
REMARK VINA RESULT:    -6.806      1.817      3.582
REMARK INTER + INTRA:          -8.097
REMARK INTER:                  -7.769
REMARK INTRA:                  -0.328
REMARK UNBOUND:                 0.102
REMARK SMILES O=c1c(O)c(-c2ccc(O)c(O)c2)oc2cc(O)cc(O)c12
REMARK SMILES IDX 5 1 3 2 2 3 1 4 22 5 20 6 19 7 17 8 16 9 15 10 14 11 6 12
REMARK SMILES IDX 7 13 8 14 9 15 13 16 11 17 10 18 12 20 4 22 21 24 18 26
REMARK H PARENT 10 19 12 21 4 23 21 25 18 27
REMARK Flexibility Score: inf
ROOT
ATOM      1  C   UNL     1       1.012   3.417 -23.366  1.00  0.00     0.180 A 
ATOM      2  C   UNL     1      -0.026   2.611 -23.873  1.00  0.00     0.208 A 
ATOM      3  C   UNL     1      -0.732   1.780 -22.990  1.00  0.00     0.238 A 
ATOM      4  O   UNL     1      -1.670   1.062 -23.432  1.00  0.00    -0.285 OA
ATOM      5  C   UNL     1      -0.380   1.754 -21.625  1.00  0.00     0.111 A 
ATOM      6  C   UNL     1      -1.040   0.941 -20.672  1.00  0.00     0.134 A 
ATOM      7  C   UNL     1      -0.623   0.964 -19.331  1.00  0.00     0.093 A 
ATOM      8  C   UNL     1       0.436   1.780 -18.929  1.00  0.00     0.123 A 
ATOM      9  C   UNL     1       1.091   2.584 -19.867  1.00  0.00     0.094 A 
ATOM     10  C   UNL     1       0.691   2.577 -21.206  1.00  0.00     0.146 A 
ATOM     11  O   UNL     1       1.327   3.354 -22.075  1.00  0.00    -0.452 OA
ENDROOT
BRANCH   1  12
ATOM     12  C   UNL     1       1.791   4.333 -24.230  1.00  0.00     0.025 A 
ATOM     13  C   UNL     1       3.044   3.926 -24.714  1.00  0.00     0.016 A 
ATOM     14  C   UNL     1       3.806   4.781 -25.515  1.00  0.00     0.051 A 
ATOM     15  C   UNL     1       3.337   6.060 -25.829  1.00  0.00     0.157 A 
ATOM     16  C   UNL     1       1.330   5.627 -24.530  1.00  0.00     0.062 A 
ATOM     17  C   UNL     1       2.094   6.489 -25.331  1.00  0.00     0.158 A 
BRANCH  15  18
ATOM     18  O   UNL     1       4.118   6.890 -26.632  1.00  0.00    -0.504 OA
ATOM     19  H   UNL     1       4.517   6.571 -27.507  1.00  0.00     0.293 HD
ENDBRANCH  15  18
BRANCH  17  20
ATOM     20  O   UNL     1       1.627   7.767 -25.629  1.00  0.00    -0.504 OA
ATOM     21  H   UNL     1       1.118   7.961 -26.484  1.00  0.00     0.293 HD
ENDBRANCH  17  20
ENDBRANCH   1  12
BRANCH   2  22
ATOM     22  O   UNL     1      -0.322   2.619 -25.239  1.00  0.00    -0.502 OA
ATOM     23  H   UNL     1       0.103   3.275 -25.883  1.00  0.00     0.293 HD
ENDBRANCH   2  22
BRANCH   6  24
ATOM     24  O   UNL     1      -2.102   0.115 -21.043  1.00  0.00    -0.507 OA
ATOM     25  H   UNL     1      -2.233  -0.801 -20.630  1.00  0.00     0.293 HD
ENDBRANCH   6  24
BRANCH   8  26
ATOM     26  O   UNL     1       0.832   1.783 -17.593  1.00  0.00    -0.508 OA
ATOM     27  H   UNL     1       0.505   1.078 -16.942  1.00  0.00     0.293 HD
ENDBRANCH   8  26
TORSDOF 6
ENDMDL
MODEL 6
REMARK VINA RESULT:    -6.768      2.349      3.870
REMARK INTER + INTRA:          -8.050
REMARK INTER:                  -7.719
REMARK INTRA:                  -0.331
REMARK UNBOUND:                 0.102
REMARK SMILES O=c1c(O)c(-c2ccc(O)c(O)c2)oc2cc(O)cc(O)c12
REMARK SMILES IDX 5 1 3 2 2 3 1 4 22 5 20 6 19 7 17 8 16 9 15 10 14 11 6 12
REMARK SMILES IDX 7 13 8 14 9 15 13 16 11 17 10 18 12 20 4 22 21 24 18 26
REMARK H PARENT 10 19 12 21 4 23 21 25 18 27
REMARK Flexibility Score: inf
ROOT
ATOM      1  C   UNL     1       1.101   2.740 -22.590  1.00  0.00     0.180 A 
ATOM      2  C   UNL     1       0.826   1.419 -22.186  1.00  0.00     0.208 A 
ATOM      3  C   UNL     1       0.843   1.110 -20.817  1.00  0.00     0.238 A 
ATOM      4  O   UNL     1       0.588  -0.067 -20.445  1.00  0.00    -0.285 OA
ATOM      5  C   UNL     1       1.151   2.117 -19.880  1.00  0.00     0.111 A 
ATOM      6  C   UNL     1       1.192   1.887 -18.483  1.00  0.00     0.134 A 
ATOM      7  C   UNL     1       1.517   2.940 -17.614  1.00  0.00     0.093 A 
ATOM      8  C   UNL     1       1.801   4.213 -18.113  1.00  0.00     0.123 A 
ATOM      9  C   UNL     1       1.761   4.446 -19.492  1.00  0.00     0.094 A 
ATOM     10  C   UNL     1       1.438   3.410 -20.374  1.00  0.00     0.146 A 
ATOM     11  O   UNL     1       1.403   3.660 -21.678  1.00  0.00    -0.452 OA
ENDROOT
BRANCH   1  12
ATOM     12  C   UNL     1       1.084   3.147 -24.013  1.00  0.00     0.025 A 
ATOM     13  C   UNL     1       2.284   3.159 -24.741  1.00  0.00     0.016 A 
ATOM     14  C   UNL     1       2.296   3.560 -26.080  1.00  0.00     0.051 A 
ATOM     15  C   UNL     1       1.115   3.971 -26.705  1.00  0.00     0.157 A 
ATOM     16  C   UNL     1      -0.100   3.580 -24.638  1.00  0.00     0.062 A 
ATOM     17  C   UNL     1      -0.089   3.985 -25.981  1.00  0.00     0.158 A 
BRANCH  15  18
ATOM     18  O   UNL     1       1.157   4.362 -28.043  1.00  0.00    -0.504 OA
ATOM     19  H   UNL     1       1.662   3.831 -28.743  1.00  0.00     0.293 HD
ENDBRANCH  15  18
BRANCH  17  20
ATOM     20  O   UNL     1      -1.267   4.406 -26.594  1.00  0.00    -0.504 OA
ATOM     21  H   UNL     1      -1.627   5.345 -26.466  1.00  0.00     0.293 HD
ENDBRANCH  17  20
ENDBRANCH   1  12
BRANCH   2  22
ATOM     22  O   UNL     1       0.573   0.428 -23.139  1.00  0.00    -0.502 OA
ATOM     23  H   UNL     1       1.286   0.090 -23.773  1.00  0.00     0.293 HD
ENDBRANCH   2  22
BRANCH   6  24
ATOM     24  O   UNL     1       0.915   0.626 -17.954  1.00  0.00    -0.507 OA
ATOM     25  H   UNL     1       1.576  -0.139 -18.025  1.00  0.00     0.293 HD
ENDBRANCH   6  24
BRANCH   8  26
ATOM     26  O   UNL     1       2.122   5.241 -17.230  1.00  0.00    -0.508 OA
ATOM     27  H   UNL     1       1.819   6.194 -17.392  1.00  0.00     0.293 HD
ENDBRANCH   8  26
TORSDOF 6
ENDMDL
MODEL 7
REMARK VINA RESULT:    -6.722      2.254      7.174
REMARK INTER + INTRA:          -7.995
REMARK INTER:                  -7.743
REMARK INTRA:                  -0.252
REMARK UNBOUND:                 0.102
REMARK SMILES O=c1c(O)c(-c2ccc(O)c(O)c2)oc2cc(O)cc(O)c12
REMARK SMILES IDX 5 1 3 2 2 3 1 4 22 5 20 6 19 7 17 8 16 9 15 10 14 11 6 12
REMARK SMILES IDX 7 13 8 14 9 15 13 16 11 17 10 18 12 20 4 22 21 24 18 26
REMARK H PARENT 10 19 12 21 4 23 21 25 18 27
REMARK Flexibility Score: inf
ROOT
ATOM      1  C   UNL     1       0.857   2.927 -22.265  1.00  0.00     0.180 A 
ATOM      2  C   UNL     1      -0.332   2.779 -23.007  1.00  0.00     0.208 A 
ATOM      3  C   UNL     1      -0.395   3.316 -24.302  1.00  0.00     0.238 A 
ATOM      4  O   UNL     1      -1.450   3.180 -24.978  1.00  0.00    -0.285 OA
ATOM      5  C   UNL     1       0.718   4.005 -24.826  1.00  0.00     0.111 A 
ATOM      6  C   UNL     1       0.734   4.579 -26.120  1.00  0.00     0.134 A 
ATOM      7  C   UNL     1       1.879   5.258 -26.565  1.00  0.00     0.093 A 
ATOM      8  C   UNL     1       3.002   5.375 -25.744  1.00  0.00     0.123 A 
ATOM      9  C   UNL     1       2.992   4.810 -24.465  1.00  0.00     0.094 A 
ATOM     10  C   UNL     1       1.862   4.128 -24.003  1.00  0.00     0.146 A 
ATOM     11  O   UNL     1       1.881   3.597 -22.786  1.00  0.00    -0.452 OA
ENDROOT
BRANCH   1  12
ATOM     12  C   UNL     1       1.006   2.373 -20.900  1.00  0.00     0.025 A 
ATOM     13  C   UNL     1       1.098   3.248 -19.807  1.00  0.00     0.016 A 
ATOM     14  C   UNL     1       1.261   2.748 -18.512  1.00  0.00     0.051 A 
ATOM     15  C   UNL     1       1.352   1.371 -18.292  1.00  0.00     0.157 A 
ATOM     16  C   UNL     1       1.118   0.988 -20.680  1.00  0.00     0.062 A 
ATOM     17  C   UNL     1       1.284   0.485 -19.381  1.00  0.00     0.158 A 
BRANCH  15  18
ATOM     18  O   UNL     1       1.511   0.902 -16.989  1.00  0.00    -0.504 OA
ATOM     19  H   UNL     1       2.267   1.217 -16.393  1.00  0.00     0.293 HD
ENDBRANCH  15  18
BRANCH  17  20
ATOM     20  O   UNL     1       1.387  -0.889 -19.170  1.00  0.00    -0.504 OA
ATOM     21  H   UNL     1       2.244  -1.312 -18.832  1.00  0.00     0.293 HD
ENDBRANCH  17  20
ENDBRANCH   1  12
BRANCH   2  22
ATOM     22  O   UNL     1      -1.438   2.135 -22.446  1.00  0.00    -0.502 OA
ATOM     23  H   UNL     1      -2.300   2.622 -22.235  1.00  0.00     0.293 HD
ENDBRANCH   2  22
BRANCH   6  24
ATOM     24  O   UNL     1      -0.373   4.480 -26.963  1.00  0.00    -0.507 OA
ATOM     25  H   UNL     1      -1.054   5.227 -27.038  1.00  0.00     0.293 HD
ENDBRANCH   6  24
BRANCH   8  26
ATOM     26  O   UNL     1       4.125   6.056 -26.210  1.00  0.00    -0.508 OA
ATOM     27  H   UNL     1       4.152   7.068 -26.251  1.00  0.00     0.293 HD
ENDBRANCH   8  26
TORSDOF 6
ENDMDL
MODEL 8
REMARK VINA RESULT:    -6.529      1.782      3.272
REMARK INTER + INTRA:          -7.763
REMARK INTER:                  -7.562
REMARK INTRA:                  -0.202
REMARK UNBOUND:                 0.102
REMARK SMILES O=c1c(O)c(-c2ccc(O)c(O)c2)oc2cc(O)cc(O)c12
REMARK SMILES IDX 5 1 3 2 2 3 1 4 22 5 20 6 19 7 17 8 16 9 15 10 14 11 6 12
REMARK SMILES IDX 7 13 8 14 9 15 13 16 11 17 10 18 12 20 4 22 21 24 18 26
REMARK H PARENT 10 19 12 21 4 23 21 25 18 27
REMARK Flexibility Score: inf
ROOT
ATOM      1  C   UNL     1       1.015   3.606 -23.351  1.00  0.00     0.180 A 
ATOM      2  C   UNL     1      -0.136   3.001 -23.893  1.00  0.00     0.208 A 
ATOM      3  C   UNL     1      -0.888   2.130 -23.088  1.00  0.00     0.238 A 
ATOM      4  O   UNL     1      -1.926   1.592 -23.560  1.00  0.00    -0.285 OA
ATOM      5  C   UNL     1      -0.470   1.865 -21.768  1.00  0.00     0.111 A 
ATOM      6  C   UNL     1      -1.169   0.998 -20.894  1.00  0.00     0.134 A 
ATOM      7  C   UNL     1      -0.681   0.778 -19.596  1.00  0.00     0.093 A 
ATOM      8  C   UNL     1       0.487   1.405 -19.158  1.00  0.00     0.123 A 
ATOM      9  C   UNL     1       1.181   2.263 -20.017  1.00  0.00     0.094 A 
ATOM     10  C   UNL     1       0.712   2.497 -21.313  1.00  0.00     0.146 A 
ATOM     11  O   UNL     1       1.387   3.320 -22.107  1.00  0.00    -0.452 OA
ENDROOT
BRANCH   1  12
ATOM     12  C   UNL     1       1.848   4.548 -24.130  1.00  0.00     0.025 A 
ATOM     13  C   UNL     1       1.839   5.912 -23.802  1.00  0.00     0.016 A 
ATOM     14  C   UNL     1       2.602   6.824 -24.537  1.00  0.00     0.051 A 
ATOM     15  C   UNL     1       3.371   6.389 -25.621  1.00  0.00     0.157 A 
ATOM     16  C   UNL     1       2.607   4.116 -25.234  1.00  0.00     0.062 A 
ATOM     17  C   UNL     1       3.371   5.029 -25.975  1.00  0.00     0.158 A 
BRANCH  15  18
ATOM     18  O   UNL     1       4.124   7.321 -26.334  1.00  0.00    -0.504 OA
ATOM     19  H   UNL     1       4.094   8.311 -26.123  1.00  0.00     0.293 HD
ENDBRANCH  15  18
BRANCH  17  20
ATOM     20  O   UNL     1       4.125   4.591 -27.062  1.00  0.00    -0.504 OA
ATOM     21  H   UNL     1       4.362   5.211 -27.828  1.00  0.00     0.293 HD
ENDBRANCH  17  20
ENDBRANCH   1  12
BRANCH   2  22
ATOM     22  O   UNL     1      -0.502   3.242 -25.220  1.00  0.00    -0.502 OA
ATOM     23  H   UNL     1      -0.025   3.922 -25.799  1.00  0.00     0.293 HD
ENDBRANCH   2  22
BRANCH   6  24
ATOM     24  O   UNL     1      -2.338   0.356 -21.303  1.00  0.00    -0.507 OA
ATOM     25  H   UNL     1      -2.687  -0.469 -20.828  1.00  0.00     0.293 HD
ENDBRANCH   6  24
BRANCH   8  26
ATOM     26  O   UNL     1       0.950   1.168 -17.866  1.00  0.00    -0.508 OA
ATOM     27  H   UNL     1       1.863   0.763 -17.696  1.00  0.00     0.293 HD
ENDBRANCH   8  26
TORSDOF 6
ENDMDL
MODEL 9
REMARK VINA RESULT:    -6.350      3.966      5.805
REMARK INTER + INTRA:          -7.548
REMARK INTER:                  -7.232
REMARK INTRA:                  -0.316
REMARK UNBOUND:                 0.102
REMARK SMILES O=c1c(O)c(-c2ccc(O)c(O)c2)oc2cc(O)cc(O)c12
REMARK SMILES IDX 5 1 3 2 2 3 1 4 22 5 20 6 19 7 17 8 16 9 15 10 14 11 6 12
REMARK SMILES IDX 7 13 8 14 9 15 13 16 11 17 10 18 12 20 4 22 21 24 18 26
REMARK H PARENT 10 19 12 21 4 23 21 25 18 27
REMARK Flexibility Score: inf
ROOT
ATOM      1  C   UNL     1      -1.327   2.412 -23.781  1.00  0.00     0.180 A 
ATOM      2  C   UNL     1      -1.812   1.583 -24.811  1.00  0.00     0.208 A 
ATOM      3  C   UNL     1      -2.962   0.812 -24.576  1.00  0.00     0.238 A 
ATOM      4  O   UNL     1      -3.412   0.075 -25.495  1.00  0.00    -0.285 OA
ATOM      5  C   UNL     1      -3.593   0.868 -23.317  1.00  0.00     0.111 A 
ATOM      6  C   UNL     1      -4.753   0.120 -22.999  1.00  0.00     0.134 A 
ATOM      7  C   UNL     1      -5.317   0.223 -21.717  1.00  0.00     0.093 A 
ATOM      8  C   UNL     1      -4.745   1.055 -20.752  1.00  0.00     0.123 A 
ATOM      9  C   UNL     1      -3.600   1.796 -21.061  1.00  0.00     0.094 A 
ATOM     10  C   UNL     1      -3.024   1.709 -22.332  1.00  0.00     0.146 A 
ATOM     11  O   UNL     1      -1.939   2.427 -22.600  1.00  0.00    -0.452 OA
ENDROOT
BRANCH   1  12
ATOM     12  C   UNL     1      -0.131   3.267 -23.958  1.00  0.00     0.025 A 
ATOM     13  C   UNL     1       1.143   2.726 -23.730  1.00  0.00     0.016 A 
ATOM     14  C   UNL     1       2.285   3.521 -23.870  1.00  0.00     0.051 A 
ATOM     15  C   UNL     1       2.169   4.869 -24.223  1.00  0.00     0.157 A 
ATOM     16  C   UNL     1      -0.247   4.629 -24.292  1.00  0.00     0.062 A 
ATOM     17  C   UNL     1       0.897   5.428 -24.431  1.00  0.00     0.158 A 
BRANCH  15  18
ATOM     18  O   UNL     1       3.326   5.635 -24.358  1.00  0.00    -0.504 OA
ATOM     19  H   UNL     1       3.987   5.751 -23.598  1.00  0.00     0.293 HD
ENDBRANCH  15  18
BRANCH  17  20
ATOM     20  O   UNL     1       0.774   6.774 -24.769  1.00  0.00    -0.504 OA
ATOM     21  H   UNL     1      -0.130   7.232 -24.810  1.00  0.00     0.293 HD
ENDBRANCH  17  20
ENDBRANCH   1  12
BRANCH   2  22
ATOM     22  O   UNL     1      -1.140   1.508 -26.033  1.00  0.00    -0.502 OA
ATOM     23  H   UNL     1      -0.364   0.876 -26.188  1.00  0.00     0.293 HD
ENDBRANCH   2  22
BRANCH   6  24
ATOM     24  O   UNL     1      -5.347  -0.720 -23.941  1.00  0.00    -0.507 OA
ATOM     25  H   UNL     1      -6.346  -0.890 -23.948  1.00  0.00     0.293 HD
ENDBRANCH   6  24
BRANCH   8  26
ATOM     26  O   UNL     1      -5.323   1.138 -19.488  1.00  0.00    -0.508 OA
ATOM     27  H   UNL     1      -5.292   0.361 -18.839  1.00  0.00     0.293 HD
ENDBRANCH   8  26
TORSDOF 6
ENDMDL
