MODEL 1
REMARK VINA RESULT:    -3.250      0.000      0.000
REMARK INTER + INTRA:          -5.099
REMARK INTER:                  -4.390
REMARK INTRA:                  -0.709
REMARK UNBOUND:                -0.709
REMARK SMILES CCCCCCC=CC(=O)[O-]
REMARK SMILES IDX 5 1 6 2 7 3 8 4 9 5 10 6 11 7 4 8 3 9 2 10 1 11
REMARK H PARENT
REMARK Flexibility Score: inf
ROOT
ATOM      1  C   UNL     1      32.422 171.876  15.511  1.00  0.00     0.004 C 
ENDROOT
BRANCH   1   2
ATOM      2  C   UNL     1      31.206 171.145  16.093  1.00  0.00     0.027 C 
BRANCH   2   3
ATOM      3  C   UNL     1      31.540 170.491  17.403  1.00  0.00    -0.025 C 
ATOM      4  C   UNL     1      31.825 171.212  18.492  1.00  0.00     0.020 C 
BRANCH   4   5
ATOM      5  C   UNL     1      32.140 170.585  19.783  1.00  0.00     0.064 C 
ATOM      6  O   UNL     1      31.400 170.804  20.778  1.00  0.00    -0.545 OA
ATOM      7  O   UNL     1      33.245 169.753  19.925  1.00  0.00    -0.545 OA
ENDBRANCH   4   5
ENDBRANCH   2   3
ENDBRANCH   1   2
BRANCH   1   8
ATOM      8  C   UNL     1      33.429 170.883  14.919  1.00  0.00     0.000 C 
BRANCH   8   9
ATOM      9  C   UNL     1      34.857 171.214  15.366  1.00  0.00    -0.000 C 
BRANCH   9  10
ATOM     10  C   UNL     1      35.089 170.795  16.822  1.00  0.00    -0.003 C 
ATOM     11  C   UNL     1      35.232 169.280  16.943  1.00  0.00     0.004 C 
ENDBRANCH   9  10
ENDBRANCH   8   9
ENDBRANCH   1   8
TORSDOF 6
ENDMDL
MODEL 2
REMARK VINA RESULT:    -3.217     21.175     22.469
REMARK INTER + INTRA:          -5.055
REMARK INTER:                  -4.571
REMARK INTRA:                  -0.484
REMARK UNBOUND:                -0.709
REMARK SMILES CCCCCCC=CC(=O)[O-]
REMARK SMILES IDX 5 1 6 2 7 3 8 4 9 5 10 6 11 7 4 8 3 9 2 10 1 11
REMARK H PARENT
REMARK Flexibility Score: inf
ROOT
ATOM      1  C   UNL     1      42.291 186.174  33.588  1.00  0.00     0.004 C 
ENDROOT
BRANCH   1   2
ATOM      2  C   UNL     1      41.964 185.872  32.120  1.00  0.00     0.027 C 
BRANCH   2   3
ATOM      3  C   UNL     1      40.565 186.298  31.776  1.00  0.00    -0.025 C 
ATOM      4  C   UNL     1      40.027 186.032  30.582  1.00  0.00     0.020 C 
BRANCH   4   5
ATOM      5  C   UNL     1      38.656 186.430  30.236  1.00  0.00     0.064 C 
ATOM      6  O   UNL     1      38.468 187.388  29.441  1.00  0.00    -0.545 OA
ATOM      7  O   UNL     1      37.560 185.766  30.775  1.00  0.00    -0.545 OA
ENDBRANCH   4   5
ENDBRANCH   2   3
ENDBRANCH   1   2
BRANCH   1   8
ATOM      8  C   UNL     1      43.010 184.989  34.245  1.00  0.00     0.000 C 
BRANCH   8   9
ATOM      9  C   UNL     1      43.319 183.895  33.217  1.00  0.00    -0.000 C 
BRANCH   9  10
ATOM     10  C   UNL     1      42.794 182.534  33.688  1.00  0.00    -0.003 C 
ATOM     11  C   UNL     1      41.364 182.299  33.208  1.00  0.00     0.004 C 
ENDBRANCH   9  10
ENDBRANCH   8   9
ENDBRANCH   1   8
TORSDOF 6
ENDMDL
MODEL 3
REMARK VINA RESULT:    -3.126     21.957     23.187
REMARK INTER + INTRA:          -4.931
REMARK INTER:                  -4.512
REMARK INTRA:                  -0.419
REMARK UNBOUND:                -0.709
REMARK SMILES CCCCCCC=CC(=O)[O-]
REMARK SMILES IDX 5 1 6 2 7 3 8 4 9 5 10 6 11 7 4 8 3 9 2 10 1 11
REMARK H PARENT
REMARK Flexibility Score: inf
ROOT
ATOM      1  C   UNL     1      41.154 187.100  32.644  1.00  0.00     0.004 C 
ENDROOT
BRANCH   1   2
ATOM      2  C   UNL     1      41.743 186.461  33.908  1.00  0.00     0.027 C 
BRANCH   2   3
ATOM      3  C   UNL     1      42.773 185.424  33.564  1.00  0.00    -0.025 C 
ATOM      4  C   UNL     1      42.995 184.370  34.356  1.00  0.00     0.020 C 
BRANCH   4   5
ATOM      5  C   UNL     1      43.991 183.340  34.025  1.00  0.00     0.064 C 
ATOM      6  O   UNL     1      45.166 183.683  33.732  1.00  0.00    -0.545 OA
ATOM      7  O   UNL     1      43.655 181.992  34.030  1.00  0.00    -0.545 OA
ENDBRANCH   4   5
ENDBRANCH   2   3
ENDBRANCH   1   2
BRANCH   1   8
ATOM      8  C   UNL     1      41.597 186.341  31.388  1.00  0.00     0.000 C 
BRANCH   8   9
ATOM      9  C   UNL     1      40.390 185.773  30.633  1.00  0.00    -0.000 C 
BRANCH   9  10
ATOM     10  C   UNL     1      39.163 186.679  30.798  1.00  0.00    -0.003 C 
ATOM     11  C   UNL     1      37.938 185.874  31.223  1.00  0.00     0.004 C 
ENDBRANCH   9  10
ENDBRANCH   8   9
ENDBRANCH   1   8
TORSDOF 6
ENDMDL
MODEL 4
REMARK VINA RESULT:    -3.102     21.414     22.323
REMARK INTER + INTRA:          -4.899
REMARK INTER:                  -4.330
REMARK INTRA:                  -0.569
REMARK UNBOUND:                -0.709
REMARK SMILES CCCCCCC=CC(=O)[O-]
REMARK SMILES IDX 5 1 6 2 7 3 8 4 9 5 10 6 11 7 4 8 3 9 2 10 1 11
REMARK H PARENT
REMARK Flexibility Score: inf
ROOT
ATOM      1  C   UNL     1      40.436 185.783  30.638  1.00  0.00     0.004 C 
ENDROOT
BRANCH   1   2
ATOM      2  C   UNL     1      41.068 186.538  31.814  1.00  0.00     0.027 C 
BRANCH   2   3
ATOM      3  C   UNL     1      42.031 185.666  32.566  1.00  0.00    -0.025 C 
ATOM      4  C   UNL     1      42.373 184.453  32.118  1.00  0.00     0.020 C 
BRANCH   4   5
ATOM      5  C   UNL     1      43.324 183.595  32.837  1.00  0.00     0.064 C 
ATOM      6  O   UNL     1      42.907 182.827  33.743  1.00  0.00    -0.545 OA
ATOM      7  O   UNL     1      44.681 183.617  32.533  1.00  0.00    -0.545 OA
ENDBRANCH   4   5
ENDBRANCH   2   3
ENDBRANCH   1   2
BRANCH   1   8
ATOM      8  C   UNL     1      39.040 186.331  30.320  1.00  0.00     0.000 C 
BRANCH   8   9
ATOM      9  C   UNL     1      38.239 186.575  31.605  1.00  0.00    -0.000 C 
BRANCH   9  10
ATOM     10  C   UNL     1      37.475 185.313  32.024  1.00  0.00    -0.003 C 
ATOM     11  C   UNL     1      38.069 184.705  33.292  1.00  0.00     0.004 C 
ENDBRANCH   9  10
ENDBRANCH   8   9
ENDBRANCH   1   8
TORSDOF 6
ENDMDL
MODEL 5
REMARK VINA RESULT:    -3.089     21.736     23.042
REMARK INTER + INTRA:          -4.882
REMARK INTER:                  -4.297
REMARK INTRA:                  -0.585
REMARK UNBOUND:                -0.709
REMARK SMILES CCCCCCC=CC(=O)[O-]
REMARK SMILES IDX 5 1 6 2 7 3 8 4 9 5 10 6 11 7 4 8 3 9 2 10 1 11
REMARK H PARENT
REMARK Flexibility Score: inf
ROOT
ATOM      1  C   UNL     1      40.390 187.414  33.749  1.00  0.00     0.004 C 
ENDROOT
BRANCH   1   2
ATOM      2  C   UNL     1      41.631 187.199  32.874  1.00  0.00     0.027 C 
BRANCH   2   3
ATOM      3  C   UNL     1      42.357 185.942  33.259  1.00  0.00    -0.025 C 
ATOM      4  C   UNL     1      42.476 184.916  32.411  1.00  0.00     0.020 C 
BRANCH   4   5
ATOM      5  C   UNL     1      43.195 183.685  32.769  1.00  0.00     0.064 C 
ATOM      6  O   UNL     1      42.580 182.752  33.348  1.00  0.00    -0.545 OA
ATOM      7  O   UNL     1      44.546 183.535  32.479  1.00  0.00    -0.545 OA
ENDBRANCH   4   5
ENDBRANCH   2   3
ENDBRANCH   1   2
BRANCH   1   8
ATOM      8  C   UNL     1      39.122 187.503  32.892  1.00  0.00     0.000 C 
BRANCH   8   9
ATOM      9  C   UNL     1      38.530 186.111  32.639  1.00  0.00    -0.000 C 
BRANCH   9  10
ATOM     10  C   UNL     1      38.172 185.927  31.159  1.00  0.00    -0.003 C 
ATOM     11  C   UNL     1      39.389 186.152  30.266  1.00  0.00     0.004 C 
ENDBRANCH   9  10
ENDBRANCH   8   9
ENDBRANCH   1   8
TORSDOF 6
ENDMDL
MODEL 6
REMARK VINA RESULT:    -3.044     21.812     23.103
REMARK INTER + INTRA:          -4.821
REMARK INTER:                  -4.067
REMARK INTRA:                  -0.754
REMARK UNBOUND:                -0.709
REMARK SMILES CCCCCCC=CC(=O)[O-]
REMARK SMILES IDX 5 1 6 2 7 3 8 4 9 5 10 6 11 7 4 8 3 9 2 10 1 11
REMARK H PARENT
REMARK Flexibility Score: inf
ROOT
ATOM      1  C   UNL     1      38.536 186.123  31.263  1.00  0.00     0.004 C 
ENDROOT
BRANCH   1   2
ATOM      2  C   UNL     1      39.744 186.098  30.319  1.00  0.00     0.027 C 
BRANCH   2   3
ATOM      3  C   UNL     1      41.032 185.999  31.085  1.00  0.00    -0.025 C 
ATOM      4  C   UNL     1      41.208 185.081  32.041  1.00  0.00     0.020 C 
BRANCH   4   5
ATOM      5  C   UNL     1      42.467 184.964  32.789  1.00  0.00     0.064 C 
ATOM      6  O   UNL     1      43.333 184.128  32.423  1.00  0.00    -0.545 OA
ATOM      7  O   UNL     1      42.718 185.764  33.898  1.00  0.00    -0.545 OA
ENDBRANCH   4   5
ENDBRANCH   2   3
ENDBRANCH   1   2
BRANCH   1   8
ATOM      8  C   UNL     1      38.171 187.561  31.648  1.00  0.00     0.000 C 
BRANCH   8   9
ATOM      9  C   UNL     1      37.727 187.643  33.114  1.00  0.00    -0.000 C 
BRANCH   9  10
ATOM     10  C   UNL     1      38.823 187.118  34.049  1.00  0.00    -0.003 C 
ATOM     11  C   UNL     1      39.994 188.095  34.128  1.00  0.00     0.004 C 
ENDBRANCH   9  10
ENDBRANCH   8   9
ENDBRANCH   1   8
TORSDOF 6
ENDMDL
MODEL 7
REMARK VINA RESULT:    -2.998      1.661      2.845
REMARK INTER + INTRA:          -4.759
REMARK INTER:                  -4.262
REMARK INTRA:                  -0.498
REMARK UNBOUND:                -0.709
REMARK SMILES CCCCCCC=CC(=O)[O-]
REMARK SMILES IDX 5 1 6 2 7 3 8 4 9 5 10 6 11 7 4 8 3 9 2 10 1 11
REMARK H PARENT
REMARK Flexibility Score: inf
ROOT
ATOM      1  C   UNL     1      34.018 169.578  17.209  1.00  0.00     0.004 C 
ENDROOT
BRANCH   1   2
ATOM      2  C   UNL     1      33.458 169.743  18.627  1.00  0.00     0.027 C 
BRANCH   2   3
ATOM      3  C   UNL     1      32.284 170.680  18.642  1.00  0.00    -0.025 C 
ATOM      4  C   UNL     1      31.606 170.932  19.767  1.00  0.00     0.020 C 
BRANCH   4   5
ATOM      5  C   UNL     1      30.464 171.857  19.799  1.00  0.00     0.064 C 
ATOM      6  O   UNL     1      30.402 172.736  20.698  1.00  0.00    -0.545 OA
ATOM      7  O   UNL     1      29.451 171.777  18.851  1.00  0.00    -0.545 OA
ENDBRANCH   4   5
ENDBRANCH   2   3
ENDBRANCH   1   2
BRANCH   1   8
ATOM      8  C   UNL     1      34.879 170.783  16.815  1.00  0.00     0.000 C 
BRANCH   8   9
ATOM      9  C   UNL     1      34.687 171.136  15.335  1.00  0.00    -0.000 C 
BRANCH   9  10
ATOM     10  C   UNL     1      33.259 170.820  14.875  1.00  0.00    -0.003 C 
ATOM     11  C   UNL     1      32.334 172.015  15.090  1.00  0.00     0.004 C 
ENDBRANCH   9  10
ENDBRANCH   8   9
ENDBRANCH   1   8
TORSDOF 6
ENDMDL
MODEL 8
REMARK VINA RESULT:    -2.963     20.807     22.034
REMARK INTER + INTRA:          -4.711
REMARK INTER:                  -4.248
REMARK INTRA:                  -0.463
REMARK UNBOUND:                -0.709
REMARK SMILES CCCCCCC=CC(=O)[O-]
REMARK SMILES IDX 5 1 6 2 7 3 8 4 9 5 10 6 11 7 4 8 3 9 2 10 1 11
REMARK H PARENT
REMARK Flexibility Score: inf
ROOT
ATOM      1  C   UNL     1      40.421 185.781  30.615  1.00  0.00     0.004 C 
ENDROOT
BRANCH   1   2
ATOM      2  C   UNL     1      39.349 186.820  30.970  1.00  0.00     0.027 C 
BRANCH   2   3
ATOM      3  C   UNL     1      37.977 186.210  30.966  1.00  0.00    -0.025 C 
ATOM      4  C   UNL     1      37.556 185.430  31.967  1.00  0.00     0.020 C 
BRANCH   4   5
ATOM      5  C   UNL     1      36.212 184.838  31.983  1.00  0.00     0.064 C 
ATOM      6  O   UNL     1      35.743 184.331  30.931  1.00  0.00    -0.545 OA
ATOM      7  O   UNL     1      35.448 184.827  33.145  1.00  0.00    -0.545 OA
ENDBRANCH   4   5
ENDBRANCH   2   3
ENDBRANCH   1   2
BRANCH   1   8
ATOM      8  C   UNL     1      41.630 185.898  31.551  1.00  0.00     0.000 C 
BRANCH   8   9
ATOM      9  C   UNL     1      41.430 187.027  32.569  1.00  0.00    -0.000 C 
BRANCH   9  10
ATOM     10  C   UNL     1      41.641 186.519  34.000  1.00  0.00    -0.003 C 
ATOM     11  C   UNL     1      42.694 185.415  34.044  1.00  0.00     0.004 C 
ENDBRANCH   9  10
ENDBRANCH   8   9
ENDBRANCH   1   8
TORSDOF 6
ENDMDL
MODEL 9
REMARK VINA RESULT:    -1.109      1.208      2.625
REMARK INTER + INTRA:          -2.207
REMARK INTER:                  -1.627
REMARK INTRA:                  -0.580
REMARK UNBOUND:                -0.709
REMARK SMILES CCCCCCC=CC(=O)[O-]
REMARK SMILES IDX 5 1 6 2 7 3 8 4 9 5 10 6 11 7 4 8 3 9 2 10 1 11
REMARK H PARENT
REMARK Flexibility Score: inf
ROOT
ATOM      1  C   UNL     1      35.318 169.677  17.053  1.00  0.00     0.004 C 
ENDROOT
BRANCH   1   2
ATOM      2  C   UNL     1      34.197 168.896  17.749  1.00  0.00     0.027 C 
BRANCH   2   3
ATOM      3  C   UNL     1      33.590 169.695  18.867  1.00  0.00    -0.025 C 
ATOM      4  C   UNL     1      32.287 169.993  18.886  1.00  0.00     0.020 C 
BRANCH   4   5
ATOM      5  C   UNL     1      31.678 170.762  19.979  1.00  0.00     0.064 C 
ATOM      6  O   UNL     1      31.218 171.912  19.751  1.00  0.00    -0.545 OA
ATOM      7  O   UNL     1      31.601 170.241  21.266  1.00  0.00    -0.545 OA
ENDBRANCH   4   5
ENDBRANCH   2   3
ENDBRANCH   1   2
BRANCH   1   8
ATOM      8  C   UNL     1      34.841 171.075  16.643  1.00  0.00     0.000 C 
BRANCH   8   9
ATOM      9  C   UNL     1      34.542 171.136  15.140  1.00  0.00    -0.000 C 
BRANCH   9  10
ATOM     10  C   UNL     1      33.054 171.406  14.887  1.00  0.00    -0.003 C 
ATOM     11  C   UNL     1      32.252 170.108  14.875  1.00  0.00     0.004 C 
ENDBRANCH   9  10
ENDBRANCH   8   9
ENDBRANCH   1   8
TORSDOF 6
ENDMDL
