MODEL 1
REMARK VINA RESULT:    -8.039      0.000      0.000
REMARK INTER + INTRA:         -13.426
REMARK INTER:                 -12.269
REMARK INTRA:                  -1.157
REMARK UNBOUND:                -1.157
REMARK SMILES COc1cc(C=CC(=O)CC(=O)C=Cc2ccc(O)c(OC)c2)ccc1O
REMARK SMILES IDX 10 1 8 2 9 3 7 4 6 5 5 6 3 7 26 8 4 9 25 10 24 11 2 12 1 13
REMARK SMILES IDX 27 14 11 16 12 17 13 18 14 19 15 20 23 21 16 22 20 23 17 24
REMARK SMILES IDX 18 25 21 26 22 27 19 28
REMARK H PARENT 27 15 19 29
REMARK Flexibility Score: inf
ROOT
ATOM      1  C   UNL     1      -2.631   3.440  15.754  1.00  0.00     0.160 C 
ENDROOT
BRANCH   1   2
ATOM      2  C   UNL     1      -1.594   3.065  16.786  1.00  0.00     0.163 C 
ATOM      3  O   UNL     1      -1.259   1.858  16.933  1.00  0.00    -0.294 OA
BRANCH   2   4
ATOM      4  C   UNL     1      -0.935   4.077  17.638  1.00  0.00     0.048 C 
ATOM      5  C   UNL     1      -0.738   5.348  17.257  1.00  0.00     0.012 C 
BRANCH   5   6
ATOM      6  C   UNL     1      -0.067   6.364  18.105  1.00  0.00    -0.022 A 
ATOM      7  C   UNL     1       0.555   7.297  20.282  1.00  0.00     0.161 A 
ATOM      8  C   UNL     1       1.208   8.354  19.634  1.00  0.00     0.157 A 
ATOM      9  C   UNL     1      -0.087   6.305  19.513  1.00  0.00     0.058 A 
ATOM     10  C   UNL     1       1.215   8.425  18.237  1.00  0.00     0.051 A 
ATOM     11  C   UNL     1       0.578   7.441  17.479  1.00  0.00     0.012 A 
BRANCH   7  12
ATOM     12  O   UNL     1       0.561   7.269  21.686  1.00  0.00    -0.493 OA
ATOM     13  C   UNL     1      -0.369   6.544  22.484  1.00  0.00     0.278 C 
ENDBRANCH   7  12
BRANCH   8  14
ATOM     14  O   UNL     1       1.847   9.335  20.390  1.00  0.00    -0.504 OA
ATOM     15  H   UNL     1       1.385   9.792  21.168  1.00  0.00     0.293 HD
ENDBRANCH   8  14
ENDBRANCH   5   6
ENDBRANCH   2   4
ENDBRANCH   1   2
BRANCH   1  16
ATOM     16  C   UNL     1      -3.988   3.665  16.357  1.00  0.00     0.163 C 
ATOM     17  O   UNL     1      -4.750   2.677  16.539  1.00  0.00    -0.294 OA
BRANCH  16  18
ATOM     18  C   UNL     1      -4.455   5.044  16.624  1.00  0.00     0.048 C 
ATOM     19  C   UNL     1      -5.193   5.792  15.789  1.00  0.00     0.012 C 
BRANCH  19  20
ATOM     20  C   UNL     1      -5.822   5.314  14.540  1.00  0.00    -0.022 A 
ATOM     21  C   UNL     1      -5.204   5.590  13.311  1.00  0.00     0.058 A 
ATOM     22  C   UNL     1      -7.073   4.677  14.555  1.00  0.00     0.012 A 
ATOM     23  C   UNL     1      -5.805   5.187  12.102  1.00  0.00     0.161 A 
ATOM     24  C   UNL     1      -7.672   4.275  13.361  1.00  0.00     0.051 A 
ATOM     25  C   UNL     1      -7.040   4.524  12.135  1.00  0.00     0.157 A 
BRANCH  23  26
ATOM     26  O   UNL     1      -5.209   5.428  10.854  1.00  0.00    -0.493 OA
ATOM     27  C   UNL     1      -4.431   6.580  10.541  1.00  0.00     0.278 C 
ENDBRANCH  23  26
BRANCH  25  28
ATOM     28  O   UNL     1      -7.637   4.121  10.942  1.00  0.00    -0.504 OA
ATOM     29  H   UNL     1      -7.492   4.632  10.078  1.00  0.00     0.293 HD
ENDBRANCH  25  28
ENDBRANCH  19  20
ENDBRANCH  16  18
ENDBRANCH   1  16
TORSDOF 10
ENDMDL
MODEL 2
REMARK VINA RESULT:    -7.915      0.750      1.962
REMARK INTER + INTRA:         -13.236
REMARK INTER:                 -12.076
REMARK INTRA:                  -1.160
REMARK UNBOUND:                -1.157
REMARK SMILES COc1cc(C=CC(=O)CC(=O)C=Cc2ccc(O)c(OC)c2)ccc1O
REMARK SMILES IDX 10 1 8 2 9 3 7 4 6 5 5 6 3 7 26 8 4 9 25 10 24 11 2 12 1 13
REMARK SMILES IDX 27 14 11 16 12 17 13 18 14 19 15 20 23 21 16 22 20 23 17 24
REMARK SMILES IDX 18 25 21 26 22 27 19 28
REMARK H PARENT 27 15 19 29
REMARK Flexibility Score: inf
ROOT
ATOM      1  C   UNL     1      -2.751   3.315  15.796  1.00  0.00     0.160 C 
ENDROOT
BRANCH   1   2
ATOM      2  C   UNL     1      -1.653   3.022  16.790  1.00  0.00     0.163 C 
ATOM      3  O   UNL     1      -1.241   1.840  16.944  1.00  0.00    -0.294 OA
BRANCH   2   4
ATOM      4  C   UNL     1      -1.022   4.088  17.597  1.00  0.00     0.048 C 
ATOM      5  C   UNL     1      -0.684   5.288  17.101  1.00  0.00     0.012 C 
BRANCH   5   6
ATOM      6  C   UNL     1      -0.040   6.355  17.905  1.00  0.00    -0.022 A 
ATOM      7  C   UNL     1       1.282   8.405  18.121  1.00  0.00     0.161 A 
ATOM      8  C   UNL     1       1.176   8.319  19.515  1.00  0.00     0.157 A 
ATOM      9  C   UNL     1       0.677   7.417  17.318  1.00  0.00     0.058 A 
ATOM     10  C   UNL     1       0.480   7.257  20.102  1.00  0.00     0.051 A 
ATOM     11  C   UNL     1      -0.118   6.280  19.304  1.00  0.00     0.012 A 
BRANCH   7  12
ATOM     12  O   UNL     1       1.998   9.481  17.571  1.00  0.00    -0.493 OA
ATOM     13  C   UNL     1       2.098   9.759  16.178  1.00  0.00     0.278 C 
ENDBRANCH   7  12
BRANCH   8  14
ATOM     14  O   UNL     1       1.769   9.296  20.313  1.00  0.00    -0.504 OA
ATOM     15  H   UNL     1       1.259  10.120  20.613  1.00  0.00     0.293 HD
ENDBRANCH   8  14
ENDBRANCH   5   6
ENDBRANCH   2   4
ENDBRANCH   1   2
BRANCH   1  16
ATOM     16  C   UNL     1      -4.058   3.642  16.460  1.00  0.00     0.163 C 
ATOM     17  O   UNL     1      -4.847   2.704  16.755  1.00  0.00    -0.294 OA
BRANCH  16  18
ATOM     18  C   UNL     1      -4.449   5.055  16.658  1.00  0.00     0.048 C 
ATOM     19  C   UNL     1      -5.134   5.805  15.781  1.00  0.00     0.012 C 
BRANCH  19  20
ATOM     20  C   UNL     1      -5.776   5.305  14.547  1.00  0.00    -0.022 A 
ATOM     21  C   UNL     1      -5.196   5.600  13.304  1.00  0.00     0.058 A 
ATOM     22  C   UNL     1      -7.005   4.627  14.591  1.00  0.00     0.012 A 
ATOM     23  C   UNL     1      -5.811   5.177  12.109  1.00  0.00     0.161 A 
ATOM     24  C   UNL     1      -7.618   4.205  13.411  1.00  0.00     0.051 A 
ATOM     25  C   UNL     1      -7.023   4.474  12.171  1.00  0.00     0.157 A 
BRANCH  23  26
ATOM     26  O   UNL     1      -5.252   5.436  10.847  1.00  0.00    -0.493 OA
ATOM     27  C   UNL     1      -4.426   6.557  10.546  1.00  0.00     0.278 C 
ENDBRANCH  23  26
BRANCH  25  28
ATOM     28  O   UNL     1      -7.634   4.050  10.991  1.00  0.00    -0.504 OA
ATOM     29  H   UNL     1      -7.252   4.286  10.082  1.00  0.00     0.293 HD
ENDBRANCH  25  28
ENDBRANCH  19  20
ENDBRANCH  16  18
ENDBRANCH   1  16
TORSDOF 10
ENDMDL
MODEL 3
REMARK VINA RESULT:    -7.423      2.337      3.526
REMARK INTER + INTRA:         -12.486
REMARK INTER:                 -11.691
REMARK INTRA:                  -0.795
REMARK UNBOUND:                -1.157
REMARK SMILES COc1cc(C=CC(=O)CC(=O)C=Cc2ccc(O)c(OC)c2)ccc1O
REMARK SMILES IDX 10 1 8 2 9 3 7 4 6 5 5 6 3 7 26 8 4 9 25 10 24 11 2 12 1 13
REMARK SMILES IDX 27 14 11 16 12 17 13 18 14 19 15 20 23 21 16 22 20 23 17 24
REMARK SMILES IDX 18 25 21 26 22 27 19 28
REMARK H PARENT 27 15 19 29
REMARK Flexibility Score: inf
ROOT
ATOM      1  C   UNL     1      -3.266   4.075  14.796  1.00  0.00     0.160 C 
ENDROOT
BRANCH   1   2
ATOM      2  C   UNL     1      -2.329   3.771  15.941  1.00  0.00     0.163 C 
ATOM      3  O   UNL     1      -1.962   2.583  16.157  1.00  0.00    -0.294 OA
BRANCH   2   4
ATOM      4  C   UNL     1      -1.805   4.831  16.828  1.00  0.00     0.048 C 
ATOM      5  C   UNL     1      -0.503   5.143  16.916  1.00  0.00     0.012 C 
BRANCH   5   6
ATOM      6  C   UNL     1       0.027   6.199  17.813  1.00  0.00    -0.022 A 
ATOM      7  C   UNL     1       0.456   7.140  20.033  1.00  0.00     0.161 A 
ATOM      8  C   UNL     1       1.032   8.268  19.436  1.00  0.00     0.157 A 
ATOM      9  C   UNL     1      -0.052   6.108  19.218  1.00  0.00     0.058 A 
ATOM     10  C   UNL     1       1.096   8.370  18.042  1.00  0.00     0.051 A 
ATOM     11  C   UNL     1       0.593   7.347  17.238  1.00  0.00     0.012 A 
BRANCH   7  12
ATOM     12  O   UNL     1       0.400   7.081  21.435  1.00  0.00    -0.493 OA
ATOM     13  C   UNL     1       1.501   6.745  22.275  1.00  0.00     0.278 C 
ENDBRANCH   7  12
BRANCH   8  14
ATOM     14  O   UNL     1       1.539   9.289  20.239  1.00  0.00    -0.504 OA
ATOM     15  H   UNL     1       2.110  10.034  19.855  1.00  0.00     0.293 HD
ENDBRANCH   8  14
ENDBRANCH   5   6
ENDBRANCH   2   4
ENDBRANCH   1   2
BRANCH   1  16
ATOM     16  C   UNL     1      -4.695   3.745  15.120  1.00  0.00     0.163 C 
ATOM     17  O   UNL     1      -4.967   3.216  16.231  1.00  0.00    -0.294 OA
BRANCH  16  18
ATOM     18  C   UNL     1      -5.745   3.941  14.094  1.00  0.00     0.048 C 
ATOM     19  C   UNL     1      -6.422   5.080  13.879  1.00  0.00     0.012 C 
BRANCH  19  20
ATOM     20  C   UNL     1      -6.118   6.386  14.500  1.00  0.00    -0.022 A 
ATOM     21  C   UNL     1      -6.376   6.574  15.866  1.00  0.00     0.058 A 
ATOM     22  C   UNL     1      -5.670   7.470  13.728  1.00  0.00     0.012 A 
ATOM     23  C   UNL     1      -6.140   7.822  16.474  1.00  0.00     0.161 A 
ATOM     24  C   UNL     1      -5.434   8.709  14.325  1.00  0.00     0.051 A 
ATOM     25  C   UNL     1      -5.663   8.887  15.696  1.00  0.00     0.157 A 
BRANCH  23  26
ATOM     26  O   UNL     1      -6.368   8.043  17.842  1.00  0.00    -0.493 OA
ATOM     27  C   UNL     1      -7.196   7.226  18.664  1.00  0.00     0.278 C 
ENDBRANCH  23  26
BRANCH  25  28
ATOM     28  O   UNL     1      -5.425  10.124  16.294  1.00  0.00    -0.504 OA
ATOM     29  H   UNL     1      -4.484  10.450  16.481  1.00  0.00     0.293 HD
ENDBRANCH  25  28
ENDBRANCH  19  20
ENDBRANCH  16  18
ENDBRANCH   1  16
TORSDOF 10
ENDMDL
MODEL 4
REMARK VINA RESULT:    -7.281      2.397      3.494
REMARK INTER + INTRA:         -12.268
REMARK INTER:                 -11.228
REMARK INTRA:                  -1.040
REMARK UNBOUND:                -1.157
REMARK SMILES COc1cc(C=CC(=O)CC(=O)C=Cc2ccc(O)c(OC)c2)ccc1O
REMARK SMILES IDX 10 1 8 2 9 3 7 4 6 5 5 6 3 7 26 8 4 9 25 10 24 11 2 12 1 13
REMARK SMILES IDX 27 14 11 16 12 17 13 18 14 19 15 20 23 21 16 22 20 23 17 24
REMARK SMILES IDX 18 25 21 26 22 27 19 28
REMARK H PARENT 27 15 19 29
REMARK Flexibility Score: inf
ROOT
ATOM      1  C   UNL     1      -3.351   4.032  14.850  1.00  0.00     0.160 C 
ENDROOT
BRANCH   1   2
ATOM      2  C   UNL     1      -2.306   3.890  15.931  1.00  0.00     0.163 C 
ATOM      3  O   UNL     1      -1.929   2.743  16.298  1.00  0.00    -0.294 OA
BRANCH   2   4
ATOM      4  C   UNL     1      -1.687   5.065  16.581  1.00  0.00     0.048 C 
ATOM      5  C   UNL     1      -0.657   4.978  17.436  1.00  0.00     0.012 C 
BRANCH   5   6
ATOM      6  C   UNL     1      -0.041   6.154  18.099  1.00  0.00    -0.022 A 
ATOM      7  C   UNL     1       1.216   8.255  18.051  1.00  0.00     0.161 A 
ATOM      8  C   UNL     1       1.125   8.333  19.447  1.00  0.00     0.157 A 
ATOM      9  C   UNL     1       0.636   7.159  17.380  1.00  0.00     0.058 A 
ATOM     10  C   UNL     1       0.469   7.328  20.165  1.00  0.00     0.051 A 
ATOM     11  C   UNL     1      -0.104   6.244  19.498  1.00  0.00     0.012 A 
BRANCH   7  12
ATOM     12  O   UNL     1       1.893   9.278  17.368  1.00  0.00    -0.493 OA
ATOM     13  C   UNL     1       1.602   9.691  16.035  1.00  0.00     0.278 C 
ENDBRANCH   7  12
BRANCH   8  14
ATOM     14  O   UNL     1       1.693   9.417  20.114  1.00  0.00    -0.504 OA
ATOM     15  H   UNL     1       1.496  10.373  19.841  1.00  0.00     0.293 HD
ENDBRANCH   8  14
ENDBRANCH   5   6
ENDBRANCH   2   4
ENDBRANCH   1   2
BRANCH   1  16
ATOM     16  C   UNL     1      -4.744   3.797  15.361  1.00  0.00     0.163 C 
ATOM     17  O   UNL     1      -4.905   3.427  16.555  1.00  0.00    -0.294 OA
BRANCH  16  18
ATOM     18  C   UNL     1      -5.893   3.896  14.434  1.00  0.00     0.048 C 
ATOM     19  C   UNL     1      -6.655   4.985  14.250  1.00  0.00     0.012 C 
BRANCH  19  20
ATOM     20  C   UNL     1      -6.375   6.328  14.799  1.00  0.00    -0.022 A 
ATOM     21  C   UNL     1      -5.730   7.278  13.994  1.00  0.00     0.058 A 
ATOM     22  C   UNL     1      -6.653   6.636  16.141  1.00  0.00     0.012 A 
ATOM     23  C   UNL     1      -5.408   8.551  14.507  1.00  0.00     0.161 A 
ATOM     24  C   UNL     1      -6.337   7.895  16.654  1.00  0.00     0.051 A 
ATOM     25  C   UNL     1      -5.720   8.854  15.840  1.00  0.00     0.157 A 
BRANCH  23  26
ATOM     26  O   UNL     1      -4.780   9.535  13.726  1.00  0.00    -0.493 OA
ATOM     27  C   UNL     1      -3.388   9.560  13.428  1.00  0.00     0.278 C 
ENDBRANCH  23  26
BRANCH  25  28
ATOM     28  O   UNL     1      -5.406  10.113  16.351  1.00  0.00    -0.504 OA
ATOM     29  H   UNL     1      -4.723  10.229  17.091  1.00  0.00     0.293 HD
ENDBRANCH  25  28
ENDBRANCH  19  20
ENDBRANCH  16  18
ENDBRANCH   1  16
TORSDOF 10
ENDMDL
MODEL 5
REMARK VINA RESULT:    -7.214      2.169      2.700
REMARK INTER + INTRA:         -12.167
REMARK INTER:                 -11.037
REMARK INTRA:                  -1.130
REMARK UNBOUND:                -1.157
REMARK SMILES COc1cc(C=CC(=O)CC(=O)C=Cc2ccc(O)c(OC)c2)ccc1O
REMARK SMILES IDX 10 1 8 2 9 3 7 4 6 5 5 6 3 7 26 8 4 9 25 10 24 11 2 12 1 13
REMARK SMILES IDX 27 14 11 16 12 17 13 18 14 19 15 20 23 21 16 22 20 23 17 24
REMARK SMILES IDX 18 25 21 26 22 27 19 28
REMARK H PARENT 27 15 19 29
REMARK Flexibility Score: inf
ROOT
ATOM      1  C   UNL     1      -3.319   3.123  16.541  1.00  0.00     0.160 C 
ENDROOT
BRANCH   1   2
ATOM      2  C   UNL     1      -2.391   4.190  16.011  1.00  0.00     0.163 C 
ATOM      3  O   UNL     1      -2.089   4.212  14.786  1.00  0.00    -0.294 OA
BRANCH   2   4
ATOM      4  C   UNL     1      -1.820   5.236  16.886  1.00  0.00     0.048 C 
ATOM      5  C   UNL     1      -0.524   5.283  17.231  1.00  0.00     0.012 C 
BRANCH   5   6
ATOM      6  C   UNL     1       0.051   6.325  18.117  1.00  0.00    -0.022 A 
ATOM      7  C   UNL     1       0.582   7.233  20.328  1.00  0.00     0.161 A 
ATOM      8  C   UNL     1       1.136   8.368  19.721  1.00  0.00     0.157 A 
ATOM      9  C   UNL     1       0.034   6.215  19.523  1.00  0.00     0.058 A 
ATOM     10  C   UNL     1       1.138   8.488  18.327  1.00  0.00     0.051 A 
ATOM     11  C   UNL     1       0.594   7.478  17.532  1.00  0.00     0.012 A 
BRANCH   7  12
ATOM     12  O   UNL     1       0.589   7.156  21.730  1.00  0.00    -0.493 OA
ATOM     13  C   UNL     1      -0.491   6.666  22.519  1.00  0.00     0.278 C 
ENDBRANCH   7  12
BRANCH   8  14
ATOM     14  O   UNL     1       1.682   9.376  20.514  1.00  0.00    -0.504 OA
ATOM     15  H   UNL     1       1.359  10.335  20.452  1.00  0.00     0.293 HD
ENDBRANCH   8  14
ENDBRANCH   5   6
ENDBRANCH   2   4
ENDBRANCH   1   2
BRANCH   1  16
ATOM     16  C   UNL     1      -4.767   3.499  16.402  1.00  0.00     0.163 C 
ATOM     17  O   UNL     1      -5.413   3.842  17.429  1.00  0.00    -0.294 OA
BRANCH  16  18
ATOM     18  C   UNL     1      -5.441   3.357  15.092  1.00  0.00     0.048 C 
ATOM     19  C   UNL     1      -6.038   4.348  14.411  1.00  0.00     0.012 C 
BRANCH  19  20
ATOM     20  C   UNL     1      -5.972   5.784  14.756  1.00  0.00    -0.022 A 
ATOM     21  C   UNL     1      -4.969   6.581  14.185  1.00  0.00     0.058 A 
ATOM     22  C   UNL     1      -6.831   6.340  15.717  1.00  0.00     0.012 A 
ATOM     23  C   UNL     1      -4.853   7.942  14.531  1.00  0.00     0.161 A 
ATOM     24  C   UNL     1      -6.721   7.687  16.063  1.00  0.00     0.051 A 
ATOM     25  C   UNL     1      -5.738   8.491  15.471  1.00  0.00     0.157 A 
BRANCH  23  26
ATOM     26  O   UNL     1      -3.875   8.777  13.968  1.00  0.00    -0.493 OA
ATOM     27  C   UNL     1      -2.740   8.314  13.241  1.00  0.00     0.278 C 
ENDBRANCH  23  26
BRANCH  25  28
ATOM     28  O   UNL     1      -5.630   9.837  15.814  1.00  0.00    -0.504 OA
ATOM     29  H   UNL     1      -5.876  10.572  15.161  1.00  0.00     0.293 HD
ENDBRANCH  25  28
ENDBRANCH  19  20
ENDBRANCH  16  18
ENDBRANCH   1  16
TORSDOF 10
ENDMDL
MODEL 6
REMARK VINA RESULT:    -7.147      1.465      2.129
REMARK INTER + INTRA:         -12.065
REMARK INTER:                 -10.701
REMARK INTRA:                  -1.364
REMARK UNBOUND:                -1.157
REMARK SMILES COc1cc(C=CC(=O)CC(=O)C=Cc2ccc(O)c(OC)c2)ccc1O
REMARK SMILES IDX 10 1 8 2 9 3 7 4 6 5 5 6 3 7 26 8 4 9 25 10 24 11 2 12 1 13
REMARK SMILES IDX 27 14 11 16 12 17 13 18 14 19 15 20 23 21 16 22 20 23 17 24
REMARK SMILES IDX 18 25 21 26 22 27 19 28
REMARK H PARENT 27 15 19 29
REMARK Flexibility Score: inf
ROOT
ATOM      1  C   UNL     1      -3.662   3.170  16.606  1.00  0.00     0.160 C 
ENDROOT
BRANCH   1   2
ATOM      2  C   UNL     1      -2.413   3.943  16.253  1.00  0.00     0.163 C 
ATOM      3  O   UNL     1      -1.848   3.754  15.141  1.00  0.00    -0.294 OA
BRANCH   2   4
ATOM      4  C   UNL     1      -1.823   4.940  17.171  1.00  0.00     0.048 C 
ATOM      5  C   UNL     1      -0.569   5.402  17.051  1.00  0.00     0.012 C 
BRANCH   5   6
ATOM      6  C   UNL     1       0.031   6.394  17.978  1.00  0.00    -0.022 A 
ATOM      7  C   UNL     1       0.590   7.198  20.222  1.00  0.00     0.161 A 
ATOM      8  C   UNL     1       1.165   8.345  19.660  1.00  0.00     0.157 A 
ATOM      9  C   UNL     1       0.018   6.226  19.377  1.00  0.00     0.058 A 
ATOM     10  C   UNL     1       1.164   8.524  18.272  1.00  0.00     0.051 A 
ATOM     11  C   UNL     1       0.596   7.559  17.439  1.00  0.00     0.012 A 
BRANCH   7  12
ATOM     12  O   UNL     1       0.602   7.062  21.619  1.00  0.00    -0.493 OA
ATOM     13  C   UNL     1      -0.513   6.642  22.400  1.00  0.00     0.278 C 
ENDBRANCH   7  12
BRANCH   8  14
ATOM     14  O   UNL     1       1.736   9.308  20.491  1.00  0.00    -0.504 OA
ATOM     15  H   UNL     1       2.616   9.754  20.261  1.00  0.00     0.293 HD
ENDBRANCH   8  14
ENDBRANCH   5   6
ENDBRANCH   2   4
ENDBRANCH   1   2
BRANCH   1  16
ATOM     16  C   UNL     1      -4.908   3.809  16.064  1.00  0.00     0.163 C 
ATOM     17  O   UNL     1      -5.403   3.374  14.989  1.00  0.00    -0.294 OA
BRANCH  16  18
ATOM     18  C   UNL     1      -5.472   5.004  16.732  1.00  0.00     0.048 C 
ATOM     19  C   UNL     1      -5.453   6.253  16.241  1.00  0.00     0.012 C 
BRANCH  19  20
ATOM     20  C   UNL     1      -5.032   6.629  14.876  1.00  0.00    -0.022 A 
ATOM     21  C   UNL     1      -5.970   6.591  13.833  1.00  0.00     0.058 A 
ATOM     22  C   UNL     1      -3.691   6.928  14.586  1.00  0.00     0.012 A 
ATOM     23  C   UNL     1      -5.586   6.900  12.513  1.00  0.00     0.161 A 
ATOM     24  C   UNL     1      -3.305   7.235  13.281  1.00  0.00     0.051 A 
ATOM     25  C   UNL     1      -4.248   7.226  12.244  1.00  0.00     0.157 A 
BRANCH  23  26
ATOM     26  O   UNL     1      -6.499   6.892  11.447  1.00  0.00    -0.493 OA
ATOM     27  C   UNL     1      -6.894   5.724  10.732  1.00  0.00     0.278 C 
ENDBRANCH  23  26
BRANCH  25  28
ATOM     28  O   UNL     1      -3.864   7.535  10.941  1.00  0.00    -0.504 OA
ATOM     29  H   UNL     1      -2.931   7.330  10.600  1.00  0.00     0.293 HD
ENDBRANCH  25  28
ENDBRANCH  19  20
ENDBRANCH  16  18
ENDBRANCH   1  16
TORSDOF 10
ENDMDL
MODEL 7
REMARK VINA RESULT:    -7.061      1.913      2.103
REMARK INTER + INTRA:         -11.933
REMARK INTER:                 -11.218
REMARK INTRA:                  -0.715
REMARK UNBOUND:                -1.157
REMARK SMILES COc1cc(C=CC(=O)CC(=O)C=Cc2ccc(O)c(OC)c2)ccc1O
REMARK SMILES IDX 10 1 8 2 9 3 7 4 6 5 5 6 3 7 26 8 4 9 25 10 24 11 2 12 1 13
REMARK SMILES IDX 27 14 11 16 12 17 13 18 14 19 15 20 23 21 16 22 20 23 17 24
REMARK SMILES IDX 18 25 21 26 22 27 19 28
REMARK H PARENT 27 15 19 29
REMARK Flexibility Score: inf
ROOT
ATOM      1  C   UNL     1      -3.814   4.050  15.239  1.00  0.00     0.160 C 
ENDROOT
BRANCH   1   2
ATOM      2  C   UNL     1      -2.599   3.821  16.106  1.00  0.00     0.163 C 
ATOM      3  O   UNL     1      -2.060   2.681  16.148  1.00  0.00    -0.294 OA
BRANCH   2   4
ATOM      4  C   UNL     1      -1.998   4.903  16.914  1.00  0.00     0.048 C 
ATOM      5  C   UNL     1      -0.674   5.082  17.040  1.00  0.00     0.012 C 
BRANCH   5   6
ATOM      6  C   UNL     1      -0.067   6.160  17.859  1.00  0.00    -0.022 A 
ATOM      7  C   UNL     1       0.470   7.205  20.007  1.00  0.00     0.161 A 
ATOM      8  C   UNL     1       1.084   8.266  19.330  1.00  0.00     0.157 A 
ATOM      9  C   UNL     1      -0.111   6.155  19.268  1.00  0.00     0.058 A 
ATOM     10  C   UNL     1       1.114   8.283  17.931  1.00  0.00     0.051 A 
ATOM     11  C   UNL     1       0.538   7.242  17.202  1.00  0.00     0.012 A 
BRANCH   7  12
ATOM     12  O   UNL     1       0.451   7.232  21.411  1.00  0.00    -0.493 OA
ATOM     13  C   UNL     1       1.525   6.802  22.243  1.00  0.00     0.278 C 
ENDBRANCH   7  12
BRANCH   8  14
ATOM     14  O   UNL     1       1.663   9.305  20.057  1.00  0.00    -0.504 OA
ATOM     15  H   UNL     1       1.472  10.277  19.840  1.00  0.00     0.293 HD
ENDBRANCH   8  14
ENDBRANCH   5   6
ENDBRANCH   2   4
ENDBRANCH   1   2
BRANCH   1  16
ATOM     16  C   UNL     1      -4.389   5.428  15.405  1.00  0.00     0.163 C 
ATOM     17  O   UNL     1      -3.847   6.396  14.807  1.00  0.00    -0.294 OA
BRANCH  16  18
ATOM     18  C   UNL     1      -5.507   5.649  16.350  1.00  0.00     0.048 C 
ATOM     19  C   UNL     1      -6.783   5.884  16.006  1.00  0.00     0.012 C 
BRANCH  19  20
ATOM     20  C   UNL     1      -7.332   5.786  14.637  1.00  0.00    -0.022 A 
ATOM     21  C   UNL     1      -7.659   6.959  13.942  1.00  0.00     0.058 A 
ATOM     22  C   UNL     1      -7.624   4.539  14.060  1.00  0.00     0.012 A 
ATOM     23  C   UNL     1      -8.228   6.894  12.655  1.00  0.00     0.161 A 
ATOM     24  C   UNL     1      -8.186   4.469  12.785  1.00  0.00     0.051 A 
ATOM     25  C   UNL     1      -8.485   5.642  12.079  1.00  0.00     0.157 A 
BRANCH  23  26
ATOM     26  O   UNL     1      -8.551   8.047  11.920  1.00  0.00    -0.493 OA
ATOM     27  C   UNL     1      -9.111   9.230  12.482  1.00  0.00     0.278 C 
ENDBRANCH  23  26
BRANCH  25  28
ATOM     28  O   UNL     1      -9.045   5.572  10.804  1.00  0.00    -0.504 OA
ATOM     29  H   UNL     1      -8.926   6.322  10.132  1.00  0.00     0.293 HD
ENDBRANCH  25  28
ENDBRANCH  19  20
ENDBRANCH  16  18
ENDBRANCH   1  16
TORSDOF 10
ENDMDL
MODEL 8
REMARK VINA RESULT:    -7.018      2.091      3.219
REMARK INTER + INTRA:         -11.867
REMARK INTER:                 -10.568
REMARK INTRA:                  -1.299
REMARK UNBOUND:                -1.157
REMARK SMILES COc1cc(C=CC(=O)CC(=O)C=Cc2ccc(O)c(OC)c2)ccc1O
REMARK SMILES IDX 10 1 8 2 9 3 7 4 6 5 5 6 3 7 26 8 4 9 25 10 24 11 2 12 1 13
REMARK SMILES IDX 27 14 11 16 12 17 13 18 14 19 15 20 23 21 16 22 20 23 17 24
REMARK SMILES IDX 18 25 21 26 22 27 19 28
REMARK H PARENT 27 15 19 29
REMARK Flexibility Score: inf
ROOT
ATOM      1  C   UNL     1      -4.084   3.540  16.557  1.00  0.00     0.160 C 
ENDROOT
BRANCH   1   2
ATOM      2  C   UNL     1      -2.734   4.047  16.110  1.00  0.00     0.163 C 
ATOM      3  O   UNL     1      -2.152   3.511  15.127  1.00  0.00    -0.294 OA
BRANCH   2   4
ATOM      4  C   UNL     1      -2.059   5.176  16.785  1.00  0.00     0.048 C 
ATOM      5  C   UNL     1      -0.800   5.114  17.245  1.00  0.00     0.012 C 
BRANCH   5   6
ATOM      6  C   UNL     1      -0.123   6.241  17.933  1.00  0.00    -0.022 A 
ATOM      7  C   UNL     1       1.256   8.265  17.931  1.00  0.00     0.161 A 
ATOM      8  C   UNL     1       1.154   8.328  19.327  1.00  0.00     0.157 A 
ATOM      9  C   UNL     1       0.621   7.216  17.237  1.00  0.00     0.058 A 
ATOM     10  C   UNL     1       0.432   7.352  20.023  1.00  0.00     0.051 A 
ATOM     11  C   UNL     1      -0.197   6.315  19.332  1.00  0.00     0.012 A 
BRANCH   7  12
ATOM     12  O   UNL     1       2.000   9.256  17.272  1.00  0.00    -0.493 OA
ATOM     13  C   UNL     1       1.579   9.932  16.090  1.00  0.00     0.278 C 
ENDBRANCH   7  12
BRANCH   8  14
ATOM     14  O   UNL     1       1.778   9.365  20.018  1.00  0.00    -0.504 OA
ATOM     15  H   UNL     1       2.671   9.235  20.479  1.00  0.00     0.293 HD
ENDBRANCH   8  14
ENDBRANCH   5   6
ENDBRANCH   2   4
ENDBRANCH   1   2
BRANCH   1  16
ATOM     16  C   UNL     1      -5.190   3.951  15.627  1.00  0.00     0.163 C 
ATOM     17  O   UNL     1      -5.286   3.392  14.501  1.00  0.00    -0.294 OA
BRANCH  16  18
ATOM     18  C   UNL     1      -6.079   5.076  15.996  1.00  0.00     0.048 C 
ATOM     19  C   UNL     1      -6.074   6.292  15.427  1.00  0.00     0.012 C 
BRANCH  19  20
ATOM     20  C   UNL     1      -5.312   6.668  14.219  1.00  0.00    -0.022 A 
ATOM     21  C   UNL     1      -4.041   7.246  14.361  1.00  0.00     0.058 A 
ATOM     22  C   UNL     1      -5.876   6.550  12.938  1.00  0.00     0.012 A 
ATOM     23  C   UNL     1      -3.311   7.657  13.228  1.00  0.00     0.161 A 
ATOM     24  C   UNL     1      -5.157   6.955  11.813  1.00  0.00     0.051 A 
ATOM     25  C   UNL     1      -3.876   7.504  11.953  1.00  0.00     0.157 A 
BRANCH  23  26
ATOM     26  O   UNL     1      -2.030   8.222  13.328  1.00  0.00    -0.493 OA
ATOM     27  C   UNL     1      -1.773   9.598  13.592  1.00  0.00     0.278 C 
ENDBRANCH  23  26
BRANCH  25  28
ATOM     28  O   UNL     1      -3.156   7.907  10.829  1.00  0.00    -0.504 OA
ATOM     29  H   UNL     1      -2.619   7.246  10.279  1.00  0.00     0.293 HD
ENDBRANCH  25  28
ENDBRANCH  19  20
ENDBRANCH  16  18
ENDBRANCH   1  16
TORSDOF 10
ENDMDL
MODEL 9
REMARK VINA RESULT:    -6.781      2.900      5.961
REMARK INTER + INTRA:         -11.505
REMARK INTER:                  -9.370
REMARK INTRA:                  -2.135
REMARK UNBOUND:                -1.157
REMARK SMILES COc1cc(C=CC(=O)CC(=O)C=Cc2ccc(O)c(OC)c2)ccc1O
REMARK SMILES IDX 10 1 8 2 9 3 7 4 6 5 5 6 3 7 26 8 4 9 25 10 24 11 2 12 1 13
REMARK SMILES IDX 27 14 11 16 12 17 13 18 14 19 15 20 23 21 16 22 20 23 17 24
REMARK SMILES IDX 18 25 21 26 22 27 19 28
REMARK H PARENT 27 15 19 29
REMARK Flexibility Score: inf
ROOT
ATOM      1  C   UNL     1      -9.112   5.550  14.430  1.00  0.00     0.160 C 
ENDROOT
BRANCH   1   2
ATOM      2  C   UNL     1      -8.005   6.082  15.309  1.00  0.00     0.163 C 
ATOM      3  O   UNL     1      -8.047   7.274  15.722  1.00  0.00    -0.294 OA
BRANCH   2   4
ATOM      4  C   UNL     1      -6.860   5.244  15.721  1.00  0.00     0.048 C 
ATOM      5  C   UNL     1      -5.586   5.533  15.415  1.00  0.00     0.012 C 
BRANCH   5   6
ATOM      6  C   UNL     1      -4.435   4.688  15.818  1.00  0.00    -0.022 A 
ATOM      7  C   UNL     1      -2.036   4.292  16.107  1.00  0.00     0.161 A 
ATOM      8  C   UNL     1      -2.312   3.001  16.575  1.00  0.00     0.157 A 
ATOM      9  C   UNL     1      -3.100   5.132  15.723  1.00  0.00     0.058 A 
ATOM     10  C   UNL     1      -3.634   2.550  16.653  1.00  0.00     0.051 A 
ATOM     11  C   UNL     1      -4.687   3.385  16.272  1.00  0.00     0.012 A 
BRANCH   7  12
ATOM     12  O   UNL     1      -0.695   4.701  16.032  1.00  0.00    -0.493 OA
ATOM     13  C   UNL     1      -0.047   5.529  16.994  1.00  0.00     0.278 C 
ENDBRANCH   7  12
BRANCH   8  14
ATOM     14  O   UNL     1      -1.263   2.168  16.959  1.00  0.00    -0.504 OA
ATOM     15  H   UNL     1      -1.388   1.167  17.060  1.00  0.00     0.293 HD
ENDBRANCH   8  14
ENDBRANCH   5   6
ENDBRANCH   2   4
ENDBRANCH   1   2
BRANCH   1  16
ATOM     16  C   UNL     1      -8.639   5.230  13.040  1.00  0.00     0.163 C 
ATOM     17  O   UNL     1      -7.981   4.173  12.843  1.00  0.00    -0.294 OA
BRANCH  16  18
ATOM     18  C   UNL     1      -8.855   6.205  11.948  1.00  0.00     0.048 C 
ATOM     19  C   UNL     1      -7.994   7.167  11.580  1.00  0.00     0.012 C 
BRANCH  19  20
ATOM     20  C   UNL     1      -6.609   7.310  12.075  1.00  0.00    -0.022 A 
ATOM     21  C   UNL     1      -6.304   8.340  12.977  1.00  0.00     0.058 A 
ATOM     22  C   UNL     1      -5.575   6.496  11.583  1.00  0.00     0.012 A 
ATOM     23  C   UNL     1      -4.983   8.528  13.429  1.00  0.00     0.161 A 
ATOM     24  C   UNL     1      -4.265   6.678  12.028  1.00  0.00     0.051 A 
ATOM     25  C   UNL     1      -3.966   7.688  12.952  1.00  0.00     0.157 A 
BRANCH  23  26
ATOM     26  O   UNL     1      -4.643   9.536  14.346  1.00  0.00    -0.493 OA
ATOM     27  C   UNL     1      -5.442   9.913  15.463  1.00  0.00     0.278 C 
ENDBRANCH  23  26
BRANCH  25  28
ATOM     28  O   UNL     1      -2.658   7.869  13.399  1.00  0.00    -0.504 OA
ATOM     29  H   UNL     1      -2.361   8.737  13.829  1.00  0.00     0.293 HD
ENDBRANCH  25  28
ENDBRANCH  19  20
ENDBRANCH  16  18
ENDBRANCH   1  16
TORSDOF 10
ENDMDL
