MODEL 1
REMARK VINA RESULT:    -2.953      0.000      0.000
REMARK INTER + INTRA:          -3.245
REMARK INTER:                  -3.211
REMARK INTRA:                  -0.034
REMARK UNBOUND:                -0.034
REMARK SMILES O=C([O-])c1ccc(O)cc1
REMARK SMILES IDX 7 1 6 2 9 3 5 4 10 5 4 6 8 7 2 9 1 10 3 11
REMARK H PARENT 8 8
REMARK Flexibility Score: inf
ROOT
ATOM      1  C   UNL     1     121.991 125.792 138.881  1.00  0.00     0.115 A 
ATOM      2  C   UNL     1     123.075 124.941 138.652  1.00  0.00     0.047 A 
ATOM      3  C   UNL     1     120.914 125.352 139.662  1.00  0.00     0.047 A 
ATOM      4  C   UNL     1     123.088 123.654 139.199  1.00  0.00     0.014 A 
ATOM      5  C   UNL     1     120.923 124.065 140.209  1.00  0.00     0.014 A 
ATOM      6  C   UNL     1     122.011 123.203 139.984  1.00  0.00    -0.003 A 
ENDROOT
BRANCH   1   7
ATOM      7  O   UNL     1     121.993 127.072 138.330  1.00  0.00    -0.508 OA
ATOM      8  H   UNL     1     121.691 127.239 137.377  1.00  0.00     0.293 HD
ENDBRANCH   1   7
BRANCH   6   9
ATOM      9  C   UNL     1     122.018 121.842 140.565  1.00  0.00     0.071 C 
ATOM     10  O   UNL     1     120.938 121.237 140.795  1.00  0.00    -0.545 OA
ATOM     11  O   UNL     1     123.220 121.211 140.865  1.00  0.00    -0.545 OA
ENDBRANCH   6   9
TORSDOF 2
ENDMDL
MODEL 2
REMARK VINA RESULT:    -2.865     15.885     17.162
REMARK INTER + INTRA:          -3.151
REMARK INTER:                  -3.115
REMARK INTRA:                  -0.036
REMARK UNBOUND:                -0.034
REMARK SMILES O=C([O-])c1ccc(O)cc1
REMARK SMILES IDX 7 1 6 2 9 3 5 4 10 5 4 6 8 7 2 9 1 10 3 11
REMARK H PARENT 8 8
REMARK Flexibility Score: inf
ROOT
ATOM      1  C   UNL     1     121.603 123.152 122.339  1.00  0.00     0.115 A 
ATOM      2  C   UNL     1     120.875 123.617 123.438  1.00  0.00     0.047 A 
ATOM      3  C   UNL     1     122.572 123.974 121.749  1.00  0.00     0.047 A 
ATOM      4  C   UNL     1     121.112 124.898 123.948  1.00  0.00     0.014 A 
ATOM      5  C   UNL     1     122.811 125.254 122.257  1.00  0.00     0.014 A 
ATOM      6  C   UNL     1     122.083 125.730 123.362  1.00  0.00    -0.003 A 
ENDROOT
BRANCH   1   7
ATOM      7  O   UNL     1     121.356 121.874 121.841  1.00  0.00    -0.508 OA
ATOM      8  H   UNL     1     122.051 121.374 121.299  1.00  0.00     0.293 HD
ENDBRANCH   1   7
BRANCH   6   9
ATOM      9  C   UNL     1     122.338 127.085 123.897  1.00  0.00     0.071 C 
ATOM     10  O   UNL     1     123.344 127.744 123.522  1.00  0.00    -0.545 OA
ATOM     11  O   UNL     1     121.471 127.651 124.824  1.00  0.00    -0.545 OA
ENDBRANCH   6   9
TORSDOF 2
ENDMDL
MODEL 3
REMARK VINA RESULT:    -2.841     16.198     17.177
REMARK INTER + INTRA:          -3.124
REMARK INTER:                  -3.094
REMARK INTRA:                  -0.029
REMARK UNBOUND:                -0.034
REMARK SMILES O=C([O-])c1ccc(O)cc1
REMARK SMILES IDX 7 1 6 2 9 3 5 4 10 5 4 6 8 7 2 9 1 10 3 11
REMARK H PARENT 8 8
REMARK Flexibility Score: inf
ROOT
ATOM      1  C   UNL     1     121.974 121.299 121.729  1.00  0.00     0.115 A 
ATOM      2  C   UNL     1     123.301 121.171 121.310  1.00  0.00     0.047 A 
ATOM      3  C   UNL     1     121.692 121.850 122.986  1.00  0.00     0.047 A 
ATOM      4  C   UNL     1     124.346 121.590 122.141  1.00  0.00     0.014 A 
ATOM      5  C   UNL     1     122.733 122.270 123.819  1.00  0.00     0.014 A 
ATOM      6  C   UNL     1     124.072 122.144 123.405  1.00  0.00    -0.003 A 
ENDROOT
BRANCH   1   7
ATOM      7  O   UNL     1     120.945 120.877 120.891  1.00  0.00    -0.508 OA
ATOM      8  H   UNL     1     121.134 120.474 119.980  1.00  0.00     0.293 HD
ENDBRANCH   1   7
BRANCH   6   9
ATOM      9  C   UNL     1     125.172 122.590 124.288  1.00  0.00     0.071 C 
ATOM     10  O   UNL     1     126.068 121.784 124.652  1.00  0.00    -0.545 OA
ATOM     11  O   UNL     1     125.232 123.907 124.729  1.00  0.00    -0.545 OA
ENDBRANCH   6   9
TORSDOF 2
ENDMDL
MODEL 4
REMARK VINA RESULT:    -2.812     16.379     17.269
REMARK INTER + INTRA:          -3.093
REMARK INTER:                  -3.059
REMARK INTRA:                  -0.034
REMARK UNBOUND:                -0.034
REMARK SMILES O=C([O-])c1ccc(O)cc1
REMARK SMILES IDX 7 1 6 2 9 3 5 4 10 5 4 6 8 7 2 9 1 10 3 11
REMARK H PARENT 8 8
REMARK Flexibility Score: inf
ROOT
ATOM      1  C   UNL     1     121.686 125.604 123.365  1.00  0.00     0.115 A 
ATOM      2  C   UNL     1     122.666 125.383 122.394  1.00  0.00     0.047 A 
ATOM      3  C   UNL     1     120.875 124.542 123.787  1.00  0.00     0.047 A 
ATOM      4  C   UNL     1     122.838 124.109 121.843  1.00  0.00     0.014 A 
ATOM      5  C   UNL     1     121.044 123.267 123.239  1.00  0.00     0.014 A 
ATOM      6  C   UNL     1     122.028 123.037 122.261  1.00  0.00    -0.003 A 
ENDROOT
BRANCH   1   7
ATOM      7  O   UNL     1     121.526 126.878 123.905  1.00  0.00    -0.508 OA
ATOM      8  H   UNL     1     121.664 127.712 123.345  1.00  0.00     0.293 HD
ENDBRANCH   1   7
BRANCH   6   9
ATOM      9  C   UNL     1     122.205 121.688 121.682  1.00  0.00     0.071 C 
ATOM     10  O   UNL     1     121.240 120.881 121.629  1.00  0.00    -0.545 OA
ATOM     11  O   UNL     1     123.442 121.290 121.188  1.00  0.00    -0.545 OA
ENDBRANCH   6   9
TORSDOF 2
ENDMDL
MODEL 5
REMARK VINA RESULT:    -2.749      7.227      8.172
REMARK INTER + INTRA:          -3.024
REMARK INTER:                  -2.988
REMARK INTRA:                  -0.036
REMARK UNBOUND:                -0.034
REMARK SMILES O=C([O-])c1ccc(O)cc1
REMARK SMILES IDX 7 1 6 2 9 3 5 4 10 5 4 6 8 7 2 9 1 10 3 11
REMARK H PARENT 8 8
REMARK Flexibility Score: inf
ROOT
ATOM      1  C   UNL     1     121.276 126.251 130.105  1.00  0.00     0.115 A 
ATOM      2  C   UNL     1     120.876 126.825 131.315  1.00  0.00     0.047 A 
ATOM      3  C   UNL     1     121.836 124.968 130.096  1.00  0.00     0.047 A 
ATOM      4  C   UNL     1     121.035 126.122 132.514  1.00  0.00     0.014 A 
ATOM      5  C   UNL     1     121.996 124.262 131.293  1.00  0.00     0.014 A 
ATOM      6  C   UNL     1     121.597 124.832 132.515  1.00  0.00    -0.003 A 
ENDROOT
BRANCH   1   7
ATOM      7  O   UNL     1     121.112 126.963 128.919  1.00  0.00    -0.508 OA
ATOM      8  H   UNL     1     121.034 127.974 128.914  1.00  0.00     0.293 HD
ENDBRANCH   1   7
BRANCH   6   9
ATOM      9  C   UNL     1     121.766 124.084 133.779  1.00  0.00     0.071 C 
ATOM     10  O   UNL     1     121.501 124.625 134.885  1.00  0.00    -0.545 OA
ATOM     11  O   UNL     1     122.222 122.770 133.765  1.00  0.00    -0.545 OA
ENDBRANCH   6   9
TORSDOF 2
ENDMDL
MODEL 6
REMARK VINA RESULT:    -2.729     16.274     17.057
REMARK INTER + INTRA:          -3.002
REMARK INTER:                  -2.970
REMARK INTRA:                  -0.032
REMARK UNBOUND:                -0.034
REMARK SMILES O=C([O-])c1ccc(O)cc1
REMARK SMILES IDX 7 1 6 2 9 3 5 4 10 5 4 6 8 7 2 9 1 10 3 11
REMARK H PARENT 8 8
REMARK Flexibility Score: inf
ROOT
ATOM      1  C   UNL     1     121.934 126.251 123.465  1.00  0.00     0.115 A 
ATOM      2  C   UNL     1     120.875 125.389 123.763  1.00  0.00     0.047 A 
ATOM      3  C   UNL     1     123.031 125.777 122.734  1.00  0.00     0.047 A 
ATOM      4  C   UNL     1     120.908 124.058 123.334  1.00  0.00     0.014 A 
ATOM      5  C   UNL     1     123.067 124.447 122.304  1.00  0.00     0.014 A 
ATOM      6  C   UNL     1     122.006 123.573 122.599  1.00  0.00    -0.003 A 
ENDROOT
BRANCH   1   7
ATOM      7  O   UNL     1     121.887 127.574 123.899  1.00  0.00    -0.508 OA
ATOM      8  H   UNL     1     121.626 127.811 124.849  1.00  0.00     0.293 HD
ENDBRANCH   1   7
BRANCH   6   9
ATOM      9  C   UNL     1     122.047 122.167 122.143  1.00  0.00     0.071 C 
ATOM     10  O   UNL     1     121.638 121.238 122.889  1.00  0.00    -0.545 OA
ATOM     11  O   UNL     1     122.538 121.849 120.882  1.00  0.00    -0.545 OA
ENDBRANCH   6   9
TORSDOF 2
ENDMDL
MODEL 7
REMARK VINA RESULT:    -2.724     16.043     16.743
REMARK INTER + INTRA:          -2.997
REMARK INTER:                  -2.962
REMARK INTRA:                  -0.035
REMARK UNBOUND:                -0.034
REMARK SMILES O=C([O-])c1ccc(O)cc1
REMARK SMILES IDX 7 1 6 2 9 3 5 4 10 5 4 6 8 7 2 9 1 10 3 11
REMARK H PARENT 8 8
REMARK Flexibility Score: inf
ROOT
ATOM      1  C   UNL     1     121.869 122.624 123.487  1.00  0.00     0.115 A 
ATOM      2  C   UNL     1     123.117 123.103 123.892  1.00  0.00     0.047 A 
ATOM      3  C   UNL     1     120.875 123.526 123.085  1.00  0.00     0.047 A 
ATOM      4  C   UNL     1     123.376 124.477 123.898  1.00  0.00     0.014 A 
ATOM      5  C   UNL     1     121.131 124.901 123.090  1.00  0.00     0.014 A 
ATOM      6  C   UNL     1     122.385 125.391 123.496  1.00  0.00    -0.003 A 
ENDROOT
BRANCH   1   7
ATOM      7  O   UNL     1     121.625 121.252 123.487  1.00  0.00    -0.508 OA
ATOM      8  H   UNL     1     120.735 120.872 123.183  1.00  0.00     0.293 HD
ENDBRANCH   1   7
BRANCH   6   9
ATOM      9  C   UNL     1     122.653 126.846 123.500  1.00  0.00     0.071 C 
ATOM     10  O   UNL     1     121.704 127.673 123.508  1.00  0.00    -0.545 OA
ATOM     11  O   UNL     1     123.959 127.321 123.493  1.00  0.00    -0.545 OA
ENDBRANCH   6   9
TORSDOF 2
ENDMDL
MODEL 8
REMARK VINA RESULT:    -1.057      0.944      4.191
REMARK INTER + INTRA:          -1.184
REMARK INTER:                  -1.153
REMARK INTRA:                  -0.031
REMARK UNBOUND:                -0.034
REMARK SMILES O=C([O-])c1ccc(O)cc1
REMARK SMILES IDX 7 1 6 2 9 3 5 4 10 5 4 6 8 7 2 9 1 10 3 11
REMARK H PARENT 8 8
REMARK Flexibility Score: inf
ROOT
ATOM      1  C   UNL     1     122.449 122.377 140.056  1.00  0.00     0.115 A 
ATOM      2  C   UNL     1     123.295 123.140 139.247  1.00  0.00     0.047 A 
ATOM      3  C   UNL     1     121.237 122.920 140.501  1.00  0.00     0.047 A 
ATOM      4  C   UNL     1     122.937 124.441 138.883  1.00  0.00     0.014 A 
ATOM      5  C   UNL     1     120.875 124.221 140.138  1.00  0.00     0.014 A 
ATOM      6  C   UNL     1     121.721 124.996 139.325  1.00  0.00    -0.003 A 
ENDROOT
BRANCH   1   7
ATOM      7  O   UNL     1     122.819 121.082 140.411  1.00  0.00    -0.508 OA
ATOM      8  H   UNL     1     122.234 120.508 141.008  1.00  0.00     0.293 HD
ENDBRANCH   1   7
BRANCH   6   9
ATOM      9  C   UNL     1     121.336 126.372 138.943  1.00  0.00     0.071 C 
ATOM     10  O   UNL     1     121.412 126.749 137.743  1.00  0.00    -0.545 OA
ATOM     11  O   UNL     1     120.884 127.270 139.903  1.00  0.00    -0.545 OA
ENDBRANCH   6   9
TORSDOF 2
ENDMDL
