MODEL 1
REMARK VINA RESULT:    -5.426      0.000      0.000
REMARK INTER + INTRA:          -5.992
REMARK INTER:                  -5.743
REMARK INTRA:                  -0.249
REMARK UNBOUND:                -0.249
REMARK SMILES CC(C)[C@@H]1CC[C@@H](C)[C@H]2C=C[C@@H](C)C[C@H]21
REMARK SMILES IDX 8 1 7 2 6 3 5 4 4 5 15 6 9 7 10 8 11 9 12 10 14 11 13 12
REMARK SMILES IDX 2 13 1 14 3 15
REMARK H PARENT
REMARK Flexibility Score: inf
ROOT
ATOM      1  C   UNL     1     137.758 133.701 134.228  1.00  0.00     0.008 C 
ATOM      2  C   UNL     1     136.867 134.193 133.076  1.00  0.00    -0.007 C 
ATOM      3  C   UNL     1     135.648 133.297 132.894  1.00  0.00     0.004 C 
ATOM      4  C   UNL     1     134.686 133.945 131.907  1.00  0.00     0.004 C 
ATOM      5  C   UNL     1     135.288 134.219 130.495  1.00  0.00    -0.005 C 
ATOM      6  C   UNL     1     136.726 134.884 130.582  1.00  0.00    -0.000 C 
ATOM      7  C   UNL     1     137.624 134.322 131.741  1.00  0.00     0.018 C 
ATOM      8  C   UNL     1     138.309 133.039 131.303  1.00  0.00    -0.027 C 
ATOM      9  C   UNL     1     138.963 133.030 130.140  1.00  0.00    -0.028 C 
ATOM     10  C   UNL     1     138.953 134.280 129.300  1.00  0.00     0.008 C 
ATOM     11  C   UNL     1     137.503 134.814 129.211  1.00  0.00     0.012 C 
ATOM     12  C   UNL     1     139.537 134.014 127.909  1.00  0.00     0.012 C 
ENDROOT
BRANCH   5  13
ATOM     13  C   UNL     1     134.246 135.088 129.674  1.00  0.00    -0.014 C 
ATOM     14  C   UNL     1     132.932 135.330 130.450  1.00  0.00     0.007 C 
ATOM     15  C   UNL     1     133.869 134.501 128.301  1.00  0.00     0.007 C 
ENDBRANCH   5  13
TORSDOF 1
ENDMDL
MODEL 2
REMARK VINA RESULT:    -5.412      3.644      6.106
REMARK INTER + INTRA:          -5.978
REMARK INTER:                  -5.722
REMARK INTRA:                  -0.256
REMARK UNBOUND:                -0.249
REMARK SMILES CC(C)[C@@H]1CC[C@@H](C)[C@H]2C=C[C@@H](C)C[C@H]21
REMARK SMILES IDX 8 1 7 2 6 3 5 4 4 5 15 6 9 7 10 8 11 9 12 10 14 11 13 12
REMARK SMILES IDX 2 13 1 14 3 15
REMARK H PARENT
REMARK Flexibility Score: inf
ROOT
ATOM      1  C   UNL     1     132.951 134.431 130.114  1.00  0.00     0.008 C 
ATOM      2  C   UNL     1     133.276 135.917 130.332  1.00  0.00    -0.007 C 
ATOM      3  C   UNL     1     134.609 136.295 129.697  1.00  0.00     0.004 C 
ATOM      4  C   UNL     1     134.780 137.806 129.737  1.00  0.00     0.004 C 
ATOM      5  C   UNL     1     134.743 138.429 131.166  1.00  0.00    -0.005 C 
ATOM      6  C   UNL     1     133.544 137.855 132.032  1.00  0.00    -0.000 C 
ATOM      7  C   UNL     1     133.273 136.324 131.818  1.00  0.00     0.018 C 
ATOM      8  C   UNL     1     134.212 135.496 132.677  1.00  0.00    -0.027 C 
ATOM      9  C   UNL     1     134.314 135.790 133.976  1.00  0.00    -0.028 C 
ATOM     10  C   UNL     1     133.525 136.954 134.513  1.00  0.00     0.008 C 
ATOM     11  C   UNL     1     133.712 138.167 133.570  1.00  0.00     0.012 C 
ATOM     12  C   UNL     1     133.948 137.291 135.947  1.00  0.00     0.012 C 
ENDROOT
BRANCH   5  13
ATOM     13  C   UNL     1     134.706 140.008 131.017  1.00  0.00    -0.014 C 
ATOM     14  C   UNL     1     134.466 140.461 129.559  1.00  0.00     0.007 C 
ATOM     15  C   UNL     1     135.973 140.724 131.519  1.00  0.00     0.007 C 
ENDBRANCH   5  13
TORSDOF 1
ENDMDL
MODEL 3
REMARK VINA RESULT:    -5.405      3.545      4.887
REMARK INTER + INTRA:          -5.970
REMARK INTER:                  -5.718
REMARK INTRA:                  -0.252
REMARK UNBOUND:                -0.249
REMARK SMILES CC(C)[C@@H]1CC[C@@H](C)[C@H]2C=C[C@@H](C)C[C@H]21
REMARK SMILES IDX 8 1 7 2 6 3 5 4 4 5 15 6 9 7 10 8 11 9 12 10 14 11 13 12
REMARK SMILES IDX 2 13 1 14 3 15
REMARK H PARENT
REMARK Flexibility Score: inf
ROOT
ATOM      1  C   UNL     1     140.088 137.816 134.170  1.00  0.00     0.008 C 
ATOM      2  C   UNL     1     139.583 136.934 133.016  1.00  0.00    -0.007 C 
ATOM      3  C   UNL     1     140.485 135.723 132.806  1.00  0.00     0.004 C 
ATOM      4  C   UNL     1     139.829 134.767 131.821  1.00  0.00     0.004 C 
ATOM      5  C   UNL     1     139.526 135.381 130.420  1.00  0.00    -0.005 C 
ATOM      6  C   UNL     1     138.852 136.814 130.533  1.00  0.00    -0.000 C 
ATOM      7  C   UNL     1     139.426 137.704 131.692  1.00  0.00     0.018 C 
ATOM      8  C   UNL     1     140.696 138.403 131.240  1.00  0.00    -0.027 C 
ATOM      9  C   UNL     1     140.680 139.070 130.084  1.00  0.00    -0.028 C 
ATOM     10  C   UNL     1     139.417 139.058 129.265  1.00  0.00     0.008 C 
ATOM     11  C   UNL     1     138.892 137.606 129.169  1.00  0.00     0.012 C 
ATOM     12  C   UNL     1     139.655 139.659 127.876  1.00  0.00     0.012 C 
ENDROOT
BRANCH   5  13
ATOM     13  C   UNL     1     138.651 134.342 129.602  1.00  0.00    -0.014 C 
ATOM     14  C   UNL     1     138.325 133.070 130.416  1.00  0.00     0.007 C 
ATOM     15  C   UNL     1     139.279 133.889 128.271  1.00  0.00     0.007 C 
ENDBRANCH   5  13
TORSDOF 1
ENDMDL
MODEL 4
REMARK VINA RESULT:    -5.382      5.358      7.479
REMARK INTER + INTRA:          -5.946
REMARK INTER:                  -5.690
REMARK INTRA:                  -0.256
REMARK UNBOUND:                -0.249
REMARK SMILES CC(C)[C@@H]1CC[C@@H](C)[C@H]2C=C[C@@H](C)C[C@H]21
REMARK SMILES IDX 8 1 7 2 6 3 5 4 4 5 15 6 9 7 10 8 11 9 12 10 14 11 13 12
REMARK SMILES IDX 2 13 1 14 3 15
REMARK H PARENT
REMARK Flexibility Score: inf
ROOT
ATOM      1  C   UNL     1     134.375 140.721 130.081  1.00  0.00     0.008 C 
ATOM      2  C   UNL     1     135.870 140.428 130.289  1.00  0.00    -0.007 C 
ATOM      3  C   UNL     1     136.268 139.096 129.666  1.00  0.00     0.004 C 
ATOM      4  C   UNL     1     137.784 138.957 129.693  1.00  0.00     0.004 C 
ATOM      5  C   UNL     1     138.419 139.023 131.116  1.00  0.00    -0.005 C 
ATOM      6  C   UNL     1     137.828 140.220 131.974  1.00  0.00    -0.000 C 
ATOM      7  C   UNL     1     136.290 140.457 131.771  1.00  0.00     0.018 C 
ATOM      8  C   UNL     1     135.490 139.511 132.649  1.00  0.00    -0.027 C 
ATOM      9  C   UNL     1     135.797 139.431 133.945  1.00  0.00    -0.028 C 
ATOM     10  C   UNL     1     136.950 140.249 134.462  1.00  0.00     0.008 C 
ATOM     11  C   UNL     1     138.157 140.076 133.510  1.00  0.00     0.012 C 
ATOM     12  C   UNL     1     137.309 139.850 135.898  1.00  0.00     0.012 C 
ENDROOT
BRANCH   5  13
ATOM     13  C   UNL     1     139.995 139.090 130.952  1.00  0.00    -0.014 C 
ATOM     14  C   UNL     1     140.429 139.343 129.490  1.00  0.00     0.007 C 
ATOM     15  C   UNL     1     140.740 137.836 131.443  1.00  0.00     0.007 C 
ENDBRANCH   5  13
TORSDOF 1
ENDMDL
MODEL 5
REMARK VINA RESULT:    -5.370      1.197      3.888
REMARK INTER + INTRA:          -5.933
REMARK INTER:                  -5.676
REMARK INTRA:                  -0.257
REMARK UNBOUND:                -0.249
REMARK SMILES CC(C)[C@@H]1CC[C@@H](C)[C@H]2C=C[C@@H](C)C[C@H]21
REMARK SMILES IDX 8 1 7 2 6 3 5 4 4 5 15 6 9 7 10 8 11 9 12 10 14 11 13 12
REMARK SMILES IDX 2 13 1 14 3 15
REMARK H PARENT
REMARK Flexibility Score: inf
ROOT
ATOM      1  C   UNL     1     139.331 133.184 130.105  1.00  0.00     0.008 C 
ATOM      2  C   UNL     1     137.834 133.456 130.325  1.00  0.00    -0.007 C 
ATOM      3  C   UNL     1     137.418 134.794 129.726  1.00  0.00     0.004 C 
ATOM      4  C   UNL     1     135.901 134.915 129.763  1.00  0.00     0.004 C 
ATOM      5  C   UNL     1     135.273 134.817 131.187  1.00  0.00    -0.005 C 
ATOM      6  C   UNL     1     135.882 133.612 132.022  1.00  0.00    -0.000 C 
ATOM      7  C   UNL     1     137.422 133.397 131.808  1.00  0.00     0.018 C 
ATOM      8  C   UNL     1     138.215 134.336 132.698  1.00  0.00    -0.027 C 
ATOM      9  C   UNL     1     137.914 134.391 133.997  1.00  0.00    -0.028 C 
ATOM     10  C   UNL     1     136.772 133.550 134.505  1.00  0.00     0.008 C 
ATOM     11  C   UNL     1     135.559 133.726 133.562  1.00  0.00     0.012 C 
ATOM     12  C   UNL     1     136.416 133.921 135.949  1.00  0.00     0.012 C 
ENDROOT
BRANCH   5  13
ATOM     13  C   UNL     1     133.697 134.735 131.030  1.00  0.00    -0.014 C 
ATOM     14  C   UNL     1     133.261 134.456 129.573  1.00  0.00     0.007 C 
ATOM     15  C   UNL     1     132.943 135.990 131.504  1.00  0.00     0.007 C 
ENDBRANCH   5  13
TORSDOF 1
ENDMDL
MODEL 6
REMARK VINA RESULT:    -5.333      3.341      5.793
REMARK INTER + INTRA:          -5.894
REMARK INTER:                  -5.637
REMARK INTRA:                  -0.257
REMARK UNBOUND:                -0.249
REMARK SMILES CC(C)[C@@H]1CC[C@@H](C)[C@H]2C=C[C@@H](C)C[C@H]21
REMARK SMILES IDX 8 1 7 2 6 3 5 4 4 5 15 6 9 7 10 8 11 9 12 10 14 11 13 12
REMARK SMILES IDX 2 13 1 14 3 15
REMARK H PARENT
REMARK Flexibility Score: inf
ROOT
ATOM      1  C   UNL     1     140.738 139.259 130.130  1.00  0.00     0.008 C 
ATOM      2  C   UNL     1     140.415 137.774 130.361  1.00  0.00    -0.007 C 
ATOM      3  C   UNL     1     139.068 137.396 129.758  1.00  0.00     0.004 C 
ATOM      4  C   UNL     1     138.896 135.885 129.807  1.00  0.00     0.004 C 
ATOM      5  C   UNL     1     138.965 135.267 131.236  1.00  0.00    -0.005 C 
ATOM      6  C   UNL     1     140.184 135.842 132.073  1.00  0.00    -0.000 C 
ATOM      7  C   UNL     1     140.452 137.372 131.847  1.00  0.00     0.018 C 
ATOM      8  C   UNL     1     139.534 138.204 132.725  1.00  0.00    -0.027 C 
ATOM      9  C   UNL     1     139.462 137.915 134.027  1.00  0.00    -0.028 C 
ATOM     10  C   UNL     1     140.262 136.752 134.549  1.00  0.00     0.008 C 
ATOM     11  C   UNL     1     140.051 135.536 133.615  1.00  0.00     0.012 C 
ATOM     12  C   UNL     1     139.871 136.420 135.994  1.00  0.00     0.012 C 
ENDROOT
BRANCH   5  13
ATOM     13  C   UNL     1     138.996 133.688 131.093  1.00  0.00    -0.014 C 
ATOM     14  C   UNL     1     139.348 133.229 129.659  1.00  0.00     0.007 C 
ATOM     15  C   UNL     1     137.684 132.986 131.491  1.00  0.00     0.007 C 
ENDBRANCH   5  13
TORSDOF 1
ENDMDL
MODEL 7
REMARK VINA RESULT:    -5.188      5.408      7.059
REMARK INTER + INTRA:          -5.740
REMARK INTER:                  -5.510
REMARK INTRA:                  -0.230
REMARK UNBOUND:                -0.249
REMARK SMILES CC(C)[C@@H]1CC[C@@H](C)[C@H]2C=C[C@@H](C)C[C@H]21
REMARK SMILES IDX 8 1 7 2 6 3 5 4 4 5 15 6 9 7 10 8 11 9 12 10 14 11 13 12
REMARK SMILES IDX 2 13 1 14 3 15
REMARK H PARENT
REMARK Flexibility Score: inf
ROOT
ATOM      1  C   UNL     1     140.723 138.027 130.474  1.00  0.00     0.008 C 
ATOM      2  C   UNL     1     140.009 138.757 131.624  1.00  0.00    -0.007 C 
ATOM      3  C   UNL     1     139.732 137.819 132.792  1.00  0.00     0.004 C 
ATOM      4  C   UNL     1     139.239 138.627 133.984  1.00  0.00     0.004 C 
ATOM      5  C   UNL     1     137.942 139.452 133.721  1.00  0.00    -0.005 C 
ATOM      6  C   UNL     1     138.010 140.240 132.345  1.00  0.00    -0.000 C 
ATOM      7  C   UNL     1     138.702 139.443 131.183  1.00  0.00     0.018 C 
ATOM      8  C   UNL     1     137.711 138.498 130.527  1.00  0.00    -0.027 C 
ATOM      9  C   UNL     1     136.528 138.983 130.140  1.00  0.00    -0.028 C 
ATOM     10  C   UNL     1     136.221 140.431 130.413  1.00  0.00     0.008 C 
ATOM     11  C   UNL     1     136.593 140.756 131.880  1.00  0.00     0.012 C 
ATOM     12  C   UNL     1     134.749 140.745 130.128  1.00  0.00     0.012 C 
ENDROOT
BRANCH   5  13
ATOM     13  C   UNL     1     137.696 140.398 134.970  1.00  0.00    -0.014 C 
ATOM     14  C   UNL     1     138.635 140.075 136.154  1.00  0.00     0.007 C 
ATOM     15  C   UNL     1     136.253 140.379 135.509  1.00  0.00     0.007 C 
ENDBRANCH   5  13
TORSDOF 1
ENDMDL
