MODEL 1
REMARK VINA RESULT:    -2.767      0.000      0.000
REMARK INTER + INTRA:          -3.009
REMARK INTER:                  -3.009
REMARK INTRA:                   0.000
REMARK UNBOUND:                 0.000
REMARK SMILES [NH3+]CC(=O)[O-]
REMARK SMILES IDX 2 1 1 2 3 6 4 7 5 8
REMARK H PARENT 1 3 1 4 1 5
REMARK Flexibility Score: inf
ROOT
ATOM      1  C   UNL     1      35.075  -3.660  24.033  1.00  0.00     0.312 C 
ENDROOT
BRANCH   1   2
ATOM      2  N   UNL     1      35.195  -5.057  24.447  1.00  0.00    -0.353 N 
ATOM      3  H   UNL     1      36.172  -5.395  24.291  1.00  0.00     0.344 HD
ATOM      4  H   UNL     1      34.540  -5.639  23.876  1.00  0.00     0.344 HD
ATOM      5  H   UNL     1      34.943  -5.155  25.457  1.00  0.00     0.344 HD
ENDBRANCH   1   2
BRANCH   1   6
ATOM      6  C   UNL     1      36.428  -3.049  23.836  1.00  0.00     0.096 C 
ATOM      7  O   UNL     1      37.433  -3.784  23.647  1.00  0.00    -0.544 OA
ATOM      8  O   UNL     1      36.588  -1.671  23.912  1.00  0.00    -0.544 OA
ENDBRANCH   1   6
TORSDOF 2
ENDMDL
MODEL 2
REMARK VINA RESULT:    -2.744      2.360      2.540
REMARK INTER + INTRA:          -2.985
REMARK INTER:                  -2.985
REMARK INTRA:                   0.000
REMARK UNBOUND:                 0.000
REMARK SMILES [NH3+]CC(=O)[O-]
REMARK SMILES IDX 2 1 1 2 3 6 4 7 5 8
REMARK H PARENT 1 3 1 4 1 5
REMARK Flexibility Score: inf
ROOT
ATOM      1  C   UNL     1      36.659  -3.337  23.609  1.00  0.00     0.312 C 
ENDROOT
BRANCH   1   2
ATOM      2  N   UNL     1      36.544  -1.928  23.239  1.00  0.00    -0.353 N 
ATOM      3  H   UNL     1      37.489  -1.483  23.221  1.00  0.00     0.344 HD
ATOM      4  H   UNL     1      35.951  -1.437  23.946  1.00  0.00     0.344 HD
ATOM      5  H   UNL     1      36.093  -1.840  22.298  1.00  0.00     0.344 HD
ENDBRANCH   1   2
BRANCH   1   6
ATOM      6  C   UNL     1      35.336  -3.877  24.055  1.00  0.00     0.096 C 
ATOM      7  O   UNL     1      35.139  -5.120  24.091  1.00  0.00    -0.544 OA
ATOM      8  O   UNL     1      34.304  -3.006  24.383  1.00  0.00    -0.544 OA
ENDBRANCH   1   6
TORSDOF 2
ENDMDL
MODEL 3
REMARK VINA RESULT:    -2.721      2.372      2.935
REMARK INTER + INTRA:          -2.959
REMARK INTER:                  -2.959
REMARK INTRA:                   0.000
REMARK UNBOUND:                 0.000
REMARK SMILES [NH3+]CC(=O)[O-]
REMARK SMILES IDX 2 1 1 2 3 6 4 7 5 8
REMARK H PARENT 1 3 1 4 1 5
REMARK Flexibility Score: inf
ROOT
ATOM      1  C   UNL     1      36.663  -3.249  23.671  1.00  0.00     0.312 C 
ENDROOT
BRANCH   1   2
ATOM      2  N   UNL     1      36.585  -1.846  23.267  1.00  0.00    -0.353 N 
ATOM      3  H   UNL     1      37.437  -1.332  23.589  1.00  0.00     0.344 HD
ATOM      4  H   UNL     1      35.742  -1.411  23.705  1.00  0.00     0.344 HD
ATOM      5  H   UNL     1      36.501  -1.776  22.227  1.00  0.00     0.344 HD
ENDBRANCH   1   2
BRANCH   1   6
ATOM      6  C   UNL     1      35.306  -3.772  24.026  1.00  0.00     0.096 C 
ATOM      7  O   UNL     1      34.377  -2.975  24.321  1.00  0.00    -0.544 OA
ATOM      8  O   UNL     1      35.081  -5.142  24.083  1.00  0.00    -0.544 OA
ENDBRANCH   1   6
TORSDOF 2
ENDMDL
MODEL 4
REMARK VINA RESULT:    -2.653      7.428      7.946
REMARK INTER + INTRA:          -2.885
REMARK INTER:                  -2.885
REMARK INTRA:                   0.000
REMARK UNBOUND:                 0.000
REMARK SMILES [NH3+]CC(=O)[O-]
REMARK SMILES IDX 2 1 1 2 3 6 4 7 5 8
REMARK H PARENT 1 3 1 4 1 5
REMARK Flexibility Score: inf
ROOT
ATOM      1  C   UNL     1      36.419   3.382  20.903  1.00  0.00     0.312 C 
ENDROOT
BRANCH   1   2
ATOM      2  N   UNL     1      36.337   2.586  19.680  1.00  0.00    -0.353 N 
ATOM      3  H   UNL     1      35.584   2.960  19.058  1.00  0.00     0.344 HD
ATOM      4  H   UNL     1      36.111   1.597  19.931  1.00  0.00     0.344 HD
ATOM      5  H   UNL     1      37.255   2.607  19.177  1.00  0.00     0.344 HD
ENDBRANCH   1   2
BRANCH   1   6
ATOM      6  C   UNL     1      37.827   3.824  21.154  1.00  0.00     0.096 C 
ATOM      7  O   UNL     1      38.240   4.918  20.686  1.00  0.00    -0.544 OA
ATOM      8  O   UNL     1      38.698   3.004  21.860  1.00  0.00    -0.544 OA
ENDBRANCH   1   6
TORSDOF 2
ENDMDL
MODEL 5
REMARK VINA RESULT:    -2.584      1.804      2.203
REMARK INTER + INTRA:          -2.811
REMARK INTER:                  -2.811
REMARK INTRA:                   0.000
REMARK UNBOUND:                 0.000
REMARK SMILES [NH3+]CC(=O)[O-]
REMARK SMILES IDX 2 1 1 2 3 6 4 7 5 8
REMARK H PARENT 1 3 1 4 1 5
REMARK Flexibility Score: inf
ROOT
ATOM      1  C   UNL     1      35.619  -3.761  23.982  1.00  0.00     0.312 C 
ENDROOT
BRANCH   1   2
ATOM      2  N   UNL     1      35.204  -5.098  24.404  1.00  0.00    -0.353 N 
ATOM      3  H   UNL     1      34.705  -5.582  23.623  1.00  0.00     0.344 HD
ATOM      4  H   UNL     1      34.555  -5.012  25.219  1.00  0.00     0.344 HD
ATOM      5  H   UNL     1      36.039  -5.659  24.692  1.00  0.00     0.344 HD
ENDBRANCH   1   2
BRANCH   1   6
ATOM      6  C   UNL     1      34.959  -2.713  24.822  1.00  0.00     0.096 C 
ATOM      7  O   UNL     1      35.642  -2.022  25.624  1.00  0.00    -0.544 OA
ATOM      8  O   UNL     1      33.583  -2.534  24.758  1.00  0.00    -0.544 OA
ENDBRANCH   1   6
TORSDOF 2
ENDMDL
MODEL 6
REMARK VINA RESULT:    -2.553      7.093      7.583
REMARK INTER + INTRA:          -2.777
REMARK INTER:                  -2.777
REMARK INTRA:                   0.000
REMARK UNBOUND:                 0.000
REMARK SMILES [NH3+]CC(=O)[O-]
REMARK SMILES IDX 2 1 1 2 3 6 4 7 5 8
REMARK H PARENT 1 3 1 4 1 5
REMARK Flexibility Score: inf
ROOT
ATOM      1  C   UNL     1      35.839   3.198  20.620  1.00  0.00     0.312 C 
ENDROOT
BRANCH   1   2
ATOM      2  N   UNL     1      34.495   3.646  20.256  1.00  0.00    -0.353 N 
ATOM      3  H   UNL     1      34.255   4.520  20.776  1.00  0.00     0.344 HD
ATOM      4  H   UNL     1      33.807   2.901  20.509  1.00  0.00     0.344 HD
ATOM      5  H   UNL     1      34.442   3.821  19.226  1.00  0.00     0.344 HD
ENDBRANCH   1   2
BRANCH   1   6
ATOM      6  C   UNL     1      36.093   3.420  22.079  1.00  0.00     0.096 C 
ATOM      7  O   UNL     1      36.435   4.558  22.496  1.00  0.00    -0.544 OA
ATOM      8  O   UNL     1      36.002   2.358  22.970  1.00  0.00    -0.544 OA
ENDBRANCH   1   6
TORSDOF 2
ENDMDL
MODEL 7
REMARK VINA RESULT:    -2.492      7.873      7.975
REMARK INTER + INTRA:          -2.711
REMARK INTER:                  -2.711
REMARK INTRA:                   0.000
REMARK UNBOUND:                 0.000
REMARK SMILES [NH3+]CC(=O)[O-]
REMARK SMILES IDX 2 1 1 2 3 6 4 7 5 8
REMARK H PARENT 1 3 1 4 1 5
REMARK Flexibility Score: inf
ROOT
ATOM      1  C   UNL     1      35.360 -11.567  23.538  1.00  0.00     0.312 C 
ENDROOT
BRANCH   1   2
ATOM      2  N   UNL     1      34.772 -10.265  23.228  1.00  0.00    -0.353 N 
ATOM      3  H   UNL     1      33.774 -10.239  23.538  1.00  0.00     0.344 HD
ATOM      4  H   UNL     1      34.810 -10.111  22.195  1.00  0.00     0.344 HD
ATOM      5  H   UNL     1      35.311  -9.505  23.704  1.00  0.00     0.344 HD
ENDBRANCH   1   2
BRANCH   1   6
ATOM      6  C   UNL     1      36.551 -11.410  24.431  1.00  0.00     0.096 C 
ATOM      7  O   UNL     1      37.695 -11.237  23.934  1.00  0.00    -0.544 OA
ATOM      8  O   UNL     1      36.406 -11.507  25.809  1.00  0.00    -0.544 OA
ENDBRANCH   1   6
TORSDOF 2
ENDMDL
MODEL 8
REMARK VINA RESULT:    -2.469      2.098      2.221
REMARK INTER + INTRA:          -2.685
REMARK INTER:                  -2.685
REMARK INTRA:                   0.000
REMARK UNBOUND:                 0.000
REMARK SMILES [NH3+]CC(=O)[O-]
REMARK SMILES IDX 2 1 1 2 3 6 4 7 5 8
REMARK H PARENT 1 3 1 4 1 5
REMARK Flexibility Score: inf
ROOT
ATOM      1  C   UNL     1      34.408  -2.700  24.643  1.00  0.00     0.312 C 
ENDROOT
BRANCH   1   2
ATOM      2  N   UNL     1      33.589  -2.041  23.626  1.00  0.00    -0.353 N 
ATOM      3  H   UNL     1      34.087  -2.044  22.707  1.00  0.00     0.344 HD
ATOM      4  H   UNL     1      33.416  -1.052  23.916  1.00  0.00     0.344 HD
ATOM      5  H   UNL     1      32.670  -2.532  23.533  1.00  0.00     0.344 HD
ENDBRANCH   1   2
BRANCH   1   6
ATOM      6  C   UNL     1      35.371  -3.655  24.008  1.00  0.00     0.096 C 
ATOM      7  O   UNL     1      35.189  -4.897  24.109  1.00  0.00    -0.544 OA
ATOM      8  O   UNL     1      36.496  -3.175  23.351  1.00  0.00    -0.544 OA
ENDBRANCH   1   6
TORSDOF 2
ENDMDL
MODEL 9
REMARK VINA RESULT:    -2.414      8.037      8.243
REMARK INTER + INTRA:          -2.626
REMARK INTER:                  -2.626
REMARK INTRA:                   0.000
REMARK UNBOUND:                 0.000
REMARK SMILES [NH3+]CC(=O)[O-]
REMARK SMILES IDX 2 1 1 2 3 6 4 7 5 8
REMARK H PARENT 1 3 1 4 1 5
REMARK Flexibility Score: inf
ROOT
ATOM      1  C   UNL     1      35.320 -12.189  25.219  1.00  0.00     0.312 C 
ENDROOT
BRANCH   1   2
ATOM      2  N   UNL     1      35.383 -11.345  26.412  1.00  0.00    -0.353 N 
ATOM      3  H   UNL     1      36.274 -10.800  26.419  1.00  0.00     0.344 HD
ATOM      4  H   UNL     1      35.350 -11.953  27.262  1.00  0.00     0.344 HD
ATOM      5  H   UNL     1      34.566 -10.691  26.431  1.00  0.00     0.344 HD
ENDBRANCH   1   2
BRANCH   1   6
ATOM      6  C   UNL     1      35.861 -11.461  24.028  1.00  0.00     0.096 C 
ATOM      7  O   UNL     1      35.089 -11.109  23.097  1.00  0.00    -0.544 OA
ATOM      8  O   UNL     1      37.225 -11.218  23.922  1.00  0.00    -0.544 OA
ENDBRANCH   1   6
TORSDOF 2
ENDMDL
