MODEL 1
REMARK VINA RESULT:    -4.568      0.000      0.000
REMARK INTER + INTRA:          -4.568
REMARK INTER:                  -4.568
REMARK INTRA:                   0.000
REMARK UNBOUND:                 0.000
REMARK SMILES CC(C)=C1CC[C@@H](C)CC1=O
REMARK SMILES IDX 8 1 7 2 6 3 5 4 4 5 2 6 1 7 3 8 10 9 11 10 9 11
REMARK H PARENT
REMARK Flexibility Score: inf
ROOT
ATOM      1  C   UNL     1      27.973   8.247  26.125  1.00  0.00     0.008 C 
ATOM      2  C   UNL     1      27.874   9.655  25.524  1.00  0.00    -0.006 C 
ATOM      3  C   UNL     1      27.873   9.588  23.989  1.00  0.00     0.008 C 
ATOM      4  C   UNL     1      27.671  10.979  23.372  1.00  0.00     0.039 C 
ATOM      5  C   UNL     1      28.658  12.006  23.912  1.00  0.00    -0.006 C 
ATOM      6  C   UNL     1      29.103  13.038  23.137  1.00  0.00    -0.070 C 
ATOM      7  C   UNL     1      30.125  14.030  23.642  1.00  0.00     0.039 C 
ATOM      8  C   UNL     1      28.623  13.214  21.715  1.00  0.00     0.039 C 
ATOM      9  C   UNL     1      29.007  11.881  25.358  1.00  0.00     0.159 C 
ATOM     10  O   UNL     1      29.275  12.895  26.058  1.00  0.00    -0.295 OA
ATOM     11  C   UNL     1      29.039  10.530  26.011  1.00  0.00     0.084 C 
ENDROOT
TORSDOF 0
ENDMDL
MODEL 2
REMARK VINA RESULT:    -4.564      1.626      4.673
REMARK INTER + INTRA:          -4.564
REMARK INTER:                  -4.564
REMARK INTRA:                   0.000
REMARK UNBOUND:                 0.000
REMARK SMILES CC(C)=C1CC[C@@H](C)CC1=O
REMARK SMILES IDX 8 1 7 2 6 3 5 4 4 5 2 6 1 7 3 8 10 9 11 10 9 11
REMARK H PARENT
REMARK Flexibility Score: inf
ROOT
ATOM      1  C   UNL     1      29.516  15.089  22.042  1.00  0.00     0.008 C 
ATOM      2  C   UNL     1      28.986  14.033  23.020  1.00  0.00    -0.006 C 
ATOM      3  C   UNL     1      30.125  13.483  23.892  1.00  0.00     0.008 C 
ATOM      4  C   UNL     1      29.596  12.501  24.946  1.00  0.00     0.039 C 
ATOM      5  C   UNL     1      28.740  11.398  24.338  1.00  0.00    -0.006 C 
ATOM      6  C   UNL     1      28.701  10.147  24.884  1.00  0.00    -0.070 C 
ATOM      7  C   UNL     1      27.900   9.029  24.257  1.00  0.00     0.039 C 
ATOM      8  C   UNL     1      29.495   9.809  26.124  1.00  0.00     0.039 C 
ATOM      9  C   UNL     1      27.866  11.801  23.196  1.00  0.00     0.159 C 
ATOM     10  O   UNL     1      26.749  11.250  22.999  1.00  0.00    -0.295 OA
ATOM     11  C   UNL     1      28.307  12.886  22.257  1.00  0.00     0.084 C 
ENDROOT
TORSDOF 0
ENDMDL
MODEL 3
REMARK VINA RESULT:    -4.213      1.501      2.401
REMARK INTER + INTRA:          -4.213
REMARK INTER:                  -4.213
REMARK INTRA:                   0.000
REMARK UNBOUND:                 0.000
REMARK SMILES CC(C)=C1CC[C@@H](C)CC1=O
REMARK SMILES IDX 8 1 7 2 6 3 5 4 4 5 2 6 1 7 3 8 10 9 11 10 9 11
REMARK H PARENT
REMARK Flexibility Score: inf
ROOT
ATOM      1  C   UNL     1      27.562   8.253  25.930  1.00  0.00     0.008 C 
ATOM      2  C   UNL     1      28.403   9.309  25.202  1.00  0.00    -0.006 C 
ATOM      3  C   UNL     1      28.684  10.505  26.124  1.00  0.00     0.008 C 
ATOM      4  C   UNL     1      29.610  11.525  25.448  1.00  0.00     0.039 C 
ATOM      5  C   UNL     1      29.106  11.950  24.075  1.00  0.00    -0.006 C 
ATOM      6  C   UNL     1      29.340  13.205  23.590  1.00  0.00    -0.070 C 
ATOM      7  C   UNL     1      28.797  13.657  22.254  1.00  0.00     0.039 C 
ATOM      8  C   UNL     1      30.123  14.221  24.390  1.00  0.00     0.039 C 
ATOM      9  C   UNL     1      28.454  10.884  23.256  1.00  0.00     0.159 C 
ATOM     10  O   UNL     1      28.538  10.880  21.999  1.00  0.00    -0.295 OA
ATOM     11  C   UNL     1      27.686   9.783  23.929  1.00  0.00     0.084 C 
ENDROOT
TORSDOF 0
ENDMDL
MODEL 4
REMARK VINA RESULT:    -3.453      1.196      4.242
REMARK INTER + INTRA:          -3.453
REMARK INTER:                  -3.453
REMARK INTRA:                   0.000
REMARK UNBOUND:                 0.000
REMARK SMILES CC(C)=C1CC[C@@H](C)CC1=O
REMARK SMILES IDX 8 1 7 2 6 3 5 4 4 5 2 6 1 7 3 8 10 9 11 10 9 11
REMARK H PARENT
REMARK Flexibility Score: inf
ROOT
ATOM      1  C   UNL     1      30.060  15.312  21.723  1.00  0.00     0.008 C 
ATOM      2  C   UNL     1      30.065  13.956  22.439  1.00  0.00    -0.006 C 
ATOM      3  C   UNL     1      29.062  12.994  21.784  1.00  0.00     0.008 C 
ATOM      4  C   UNL     1      29.128  11.600  22.422  1.00  0.00     0.039 C 
ATOM      5  C   UNL     1      28.991  11.645  23.938  1.00  0.00    -0.006 C 
ATOM      6  C   UNL     1      28.401  10.625  24.628  1.00  0.00    -0.070 C 
ATOM      7  C   UNL     1      28.207  10.683  26.125  1.00  0.00     0.039 C 
ATOM      8  C   UNL     1      27.875   9.399  23.916  1.00  0.00     0.039 C 
ATOM      9  C   UNL     1      29.639  12.804  24.621  1.00  0.00     0.159 C 
ATOM     10  O   UNL     1      30.125  12.694  25.779  1.00  0.00    -0.295 OA
ATOM     11  C   UNL     1      29.728  14.133  23.928  1.00  0.00     0.084 C 
ENDROOT
TORSDOF 0
ENDMDL
MODEL 5
REMARK VINA RESULT:    -3.306      1.772      2.364
REMARK INTER + INTRA:          -3.306
REMARK INTER:                  -3.306
REMARK INTRA:                   0.000
REMARK UNBOUND:                 0.000
REMARK SMILES CC(C)=C1CC[C@@H](C)CC1=O
REMARK SMILES IDX 8 1 7 2 6 3 5 4 4 5 2 6 1 7 3 8 10 9 11 10 9 11
REMARK H PARENT
REMARK Flexibility Score: inf
ROOT
ATOM      1  C   UNL     1      30.111   7.922  25.966  1.00  0.00     0.008 C 
ATOM      2  C   UNL     1      29.599   9.366  25.901  1.00  0.00    -0.006 C 
ATOM      3  C   UNL     1      28.074   9.408  26.084  1.00  0.00     0.008 C 
ATOM      4  C   UNL     1      27.557  10.852  26.125  1.00  0.00     0.039 C 
ATOM      5  C   UNL     1      28.026  11.673  24.931  1.00  0.00    -0.006 C 
ATOM      6  C   UNL     1      27.257  12.676  24.413  1.00  0.00    -0.070 C 
ATOM      7  C   UNL     1      27.686  13.460  23.194  1.00  0.00     0.039 C 
ATOM      8  C   UNL     1      25.914  13.022  25.013  1.00  0.00     0.039 C 
ATOM      9  C   UNL     1      29.412  11.396  24.448  1.00  0.00     0.159 C 
ATOM     10  O   UNL     1      30.124  12.305  23.943  1.00  0.00    -0.295 OA
ATOM     11  C   UNL     1      29.986  10.013  24.563  1.00  0.00     0.084 C 
ENDROOT
TORSDOF 0
ENDMDL
MODEL 6
REMARK VINA RESULT:    -3.163      1.805      2.670
REMARK INTER + INTRA:          -3.163
REMARK INTER:                  -3.163
REMARK INTRA:                   0.000
REMARK UNBOUND:                 0.000
REMARK SMILES CC(C)=C1CC[C@@H](C)CC1=O
REMARK SMILES IDX 8 1 7 2 6 3 5 4 4 5 2 6 1 7 3 8 10 9 11 10 9 11
REMARK H PARENT
REMARK Flexibility Score: inf
ROOT
ATOM      1  C   UNL     1      27.436   9.072  24.607  1.00  0.00     0.008 C 
ATOM      2  C   UNL     1      28.455  10.182  24.321  1.00  0.00    -0.006 C 
ATOM      3  C   UNL     1      28.264  11.355  25.295  1.00  0.00     0.008 C 
ATOM      4  C   UNL     1      29.341  12.430  25.091  1.00  0.00     0.039 C 
ATOM      5  C   UNL     1      29.443  12.885  23.641  1.00  0.00    -0.006 C 
ATOM      6  C   UNL     1      29.800  14.164  23.322  1.00  0.00    -0.070 C 
ATOM      7  C   UNL     1      29.850  14.643  21.890  1.00  0.00     0.039 C 
ATOM      8  C   UNL     1      30.125  15.177  24.395  1.00  0.00     0.039 C 
ATOM      9  C   UNL     1      29.248  11.826  22.606  1.00  0.00     0.159 C 
ATOM     10  O   UNL     1      29.853  11.869  21.502  1.00  0.00    -0.295 OA
ATOM     11  C   UNL     1      28.320  10.676  22.872  1.00  0.00     0.084 C 
ENDROOT
TORSDOF 0
ENDMDL
MODEL 7
REMARK VINA RESULT:    -2.151      1.858      4.013
REMARK INTER + INTRA:          -2.151
REMARK INTER:                  -2.151
REMARK INTRA:                   0.000
REMARK UNBOUND:                 0.000
REMARK SMILES CC(C)=C1CC[C@@H](C)CC1=O
REMARK SMILES IDX 8 1 7 2 6 3 5 4 4 5 2 6 1 7 3 8 10 9 11 10 9 11
REMARK H PARENT
REMARK Flexibility Score: inf
ROOT
ATOM      1  C   UNL     1      30.066  11.744  20.181  1.00  0.00     0.008 C 
ATOM      2  C   UNL     1      29.744  11.935  21.668  1.00  0.00    -0.006 C 
ATOM      3  C   UNL     1      29.211  10.629  22.278  1.00  0.00     0.008 C 
ATOM      4  C   UNL     1      28.981  10.773  23.788  1.00  0.00     0.039 C 
ATOM      5  C   UNL     1      28.114  11.976  24.134  1.00  0.00    -0.006 C 
ATOM      6  C   UNL     1      27.280  11.963  25.216  1.00  0.00    -0.070 C 
ATOM      7  C   UNL     1      26.374  13.129  25.537  1.00  0.00     0.039 C 
ATOM      8  C   UNL     1      27.196  10.759  26.125  1.00  0.00     0.039 C 
ATOM      9  C   UNL     1      28.321  13.196  23.297  1.00  0.00     0.159 C 
ATOM     10  O   UNL     1      28.176  14.352  23.777  1.00  0.00    -0.295 OA
ATOM     11  C   UNL     1      28.715  13.060  21.855  1.00  0.00     0.084 C 
ENDROOT
TORSDOF 0
ENDMDL
