MODEL 1
REMARK VINA RESULT:    -6.631      0.000      0.000
REMARK INTER + INTRA:          -7.260
REMARK INTER:                  -7.019
REMARK INTRA:                  -0.241
REMARK UNBOUND:                -0.241
REMARK SMILES O=c1cc(-c2ccccc2)oc2ccccc12
REMARK SMILES IDX 4 1 3 2 2 3 1 4 17 5 16 6 15 7 14 8 13 9 12 10 11 11 5 12
REMARK SMILES IDX 8 13 7 14 9 15 6 16 10 17
REMARK H PARENT
REMARK Flexibility Score: inf
ROOT
ATOM      1  C   UNL     1      -2.649 -26.524  19.041  1.00  0.00     0.138 A 
ATOM      2  C   UNL     1      -3.799 -26.499  19.856  1.00  0.00     0.100 A 
ATOM      3  C   UNL     1      -4.119 -27.616  20.630  1.00  0.00     0.193 A 
ATOM      4  O   UNL     1      -5.148 -27.593  21.359  1.00  0.00    -0.289 OA
ATOM      5  C   UNL     1      -3.292 -28.746  20.586  1.00  0.00     0.065 A 
ATOM      6  C   UNL     1      -3.557 -29.904  21.340  1.00  0.00     0.016 A 
ATOM      7  C   UNL     1      -2.699 -31.005  21.258  1.00  0.00     0.001 A 
ATOM      8  C   UNL     1      -1.575 -30.959  20.428  1.00  0.00     0.004 A 
ATOM      9  C   UNL     1      -1.304 -29.813  19.676  1.00  0.00     0.048 A 
ATOM     10  C   UNL     1      -2.157 -28.706  19.749  1.00  0.00     0.138 A 
ATOM     11  O   UNL     1      -1.890 -27.621  19.029  1.00  0.00    -0.456 OA
ENDROOT
BRANCH   1  12
ATOM     12  C   UNL     1      -2.235 -25.372  18.182  1.00  0.00     0.017 A 
ATOM     13  C   UNL     1      -1.363 -23.202  16.600  1.00  0.00     0.000 A 
ATOM     14  C   UNL     1      -2.677 -23.657  16.498  1.00  0.00     0.001 A 
ATOM     15  C   UNL     1      -0.480 -23.820  17.485  1.00  0.00     0.001 A 
ATOM     16  C   UNL     1      -3.114 -24.732  17.279  1.00  0.00     0.012 A 
ATOM     17  C   UNL     1      -0.910 -24.894  18.270  1.00  0.00     0.012 A 
ENDBRANCH   1  12
TORSDOF 1
ENDMDL
MODEL 2
REMARK VINA RESULT:    -6.516      3.398      5.300
REMARK INTER + INTRA:          -7.138
REMARK INTER:                  -6.872
REMARK INTRA:                  -0.266
REMARK UNBOUND:                -0.241
REMARK SMILES O=c1cc(-c2ccccc2)oc2ccccc12
REMARK SMILES IDX 4 1 3 2 2 3 1 4 17 5 16 6 15 7 14 8 13 9 12 10 11 11 5 12
REMARK SMILES IDX 8 13 7 14 9 15 6 16 10 17
REMARK H PARENT
REMARK Flexibility Score: inf
ROOT
ATOM      1  C   UNL     1      -2.339 -29.400  17.458  1.00  0.00     0.138 A 
ATOM      2  C   UNL     1      -1.535 -29.970  18.467  1.00  0.00     0.100 A 
ATOM      3  C   UNL     1      -1.354 -29.287  19.671  1.00  0.00     0.193 A 
ATOM      4  O   UNL     1      -0.635 -29.797  20.572  1.00  0.00    -0.289 OA
ATOM      5  C   UNL     1      -1.974 -28.045  19.860  1.00  0.00     0.065 A 
ATOM      6  C   UNL     1      -1.834 -27.306  21.049  1.00  0.00     0.016 A 
ATOM      7  C   UNL     1      -2.475 -26.071  21.185  1.00  0.00     0.001 A 
ATOM      8  C   UNL     1      -3.258 -25.567  20.143  1.00  0.00     0.004 A 
ATOM      9  C   UNL     1      -3.404 -26.295  18.959  1.00  0.00     0.048 A 
ATOM     10  C   UNL     1      -2.766 -27.532  18.811  1.00  0.00     0.138 A 
ATOM     11  O   UNL     1      -2.911 -28.216  17.681  1.00  0.00    -0.456 OA
ENDROOT
BRANCH   1  12
ATOM     12  C   UNL     1      -2.584 -30.064  16.141  1.00  0.00     0.017 A 
ATOM     13  C   UNL     1      -3.103 -31.240  13.626  1.00  0.00     0.000 A 
ATOM     14  C   UNL     1      -2.307 -31.905  14.558  1.00  0.00     0.001 A 
ATOM     15  C   UNL     1      -3.643 -29.993  13.939  1.00  0.00     0.001 A 
ATOM     16  C   UNL     1      -2.046 -31.328  15.804  1.00  0.00     0.012 A 
ATOM     17  C   UNL     1      -3.388 -29.409  15.183  1.00  0.00     0.012 A 
ENDBRANCH   1  12
TORSDOF 1
ENDMDL
MODEL 3
REMARK VINA RESULT:    -6.203      2.806      5.040
REMARK INTER + INTRA:          -6.807
REMARK INTER:                  -6.583
REMARK INTRA:                  -0.223
REMARK UNBOUND:                -0.241
REMARK SMILES O=c1cc(-c2ccccc2)oc2ccccc12
REMARK SMILES IDX 4 1 3 2 2 3 1 4 17 5 16 6 15 7 14 8 13 9 12 10 11 11 5 12
REMARK SMILES IDX 8 13 7 14 9 15 6 16 10 17
REMARK H PARENT
REMARK Flexibility Score: inf
ROOT
ATOM      1  C   UNL     1      -3.343 -28.078  18.080  1.00  0.00     0.138 A 
ATOM      2  C   UNL     1      -4.282 -28.181  19.126  1.00  0.00     0.100 A 
ATOM      3  C   UNL     1      -4.342 -27.181  20.099  1.00  0.00     0.193 A 
ATOM      4  O   UNL     1      -5.183 -27.274  21.035  1.00  0.00    -0.289 OA
ATOM      5  C   UNL     1      -3.469 -26.089  20.021  1.00  0.00     0.065 A 
ATOM      6  C   UNL     1      -3.477 -25.047  20.967  1.00  0.00     0.016 A 
ATOM      7  C   UNL     1      -2.582 -23.980  20.842  1.00  0.00     0.001 A 
ATOM      8  C   UNL     1      -1.677 -23.943  19.777  1.00  0.00     0.004 A 
ATOM      9  C   UNL     1      -1.662 -24.973  18.832  1.00  0.00     0.048 A 
ATOM     10  C   UNL     1      -2.552 -26.046  18.948  1.00  0.00     0.138 A 
ATOM     11  O   UNL     1      -2.530 -27.021  18.045  1.00  0.00    -0.456 OA
ENDROOT
BRANCH   1  12
ATOM     12  C   UNL     1      -3.212 -29.104  17.000  1.00  0.00     0.017 A 
ATOM     13  C   UNL     1      -3.049 -31.007  14.921  1.00  0.00     0.000 A 
ATOM     14  C   UNL     1      -2.057 -30.956  15.899  1.00  0.00     0.001 A 
ATOM     15  C   UNL     1      -4.122 -30.118  14.971  1.00  0.00     0.001 A 
ATOM     16  C   UNL     1      -2.132 -30.014  16.931  1.00  0.00     0.012 A 
ATOM     17  C   UNL     1      -4.205 -29.175  15.999  1.00  0.00     0.012 A 
ENDBRANCH   1  12
TORSDOF 1
ENDMDL
MODEL 4
REMARK VINA RESULT:    -6.086      5.291      6.375
REMARK INTER + INTRA:          -6.682
REMARK INTER:                  -6.419
REMARK INTRA:                  -0.263
REMARK UNBOUND:                -0.241
REMARK SMILES O=c1cc(-c2ccccc2)oc2ccccc12
REMARK SMILES IDX 4 1 3 2 2 3 1 4 17 5 16 6 15 7 14 8 13 9 12 10 11 11 5 12
REMARK SMILES IDX 8 13 7 14 9 15 6 16 10 17
REMARK H PARENT
REMARK Flexibility Score: inf
ROOT
ATOM      1  C   UNL     1      -5.452 -28.928  14.942  1.00  0.00     0.138 A 
ATOM      2  C   UNL     1      -4.674 -29.944  14.348  1.00  0.00     0.100 A 
ATOM      3  C   UNL     1      -3.492 -30.356  14.965  1.00  0.00     0.193 A 
ATOM      4  O   UNL     1      -2.797 -31.264  14.434  1.00  0.00    -0.289 OA
ATOM      5  C   UNL     1      -3.095 -29.756  16.168  1.00  0.00     0.065 A 
ATOM      6  C   UNL     1      -1.917 -30.124  16.842  1.00  0.00     0.016 A 
ATOM      7  C   UNL     1      -1.567 -29.492  18.039  1.00  0.00     0.001 A 
ATOM      8  C   UNL     1      -2.387 -28.492  18.571  1.00  0.00     0.004 A 
ATOM      9  C   UNL     1      -3.561 -28.120  17.909  1.00  0.00     0.048 A 
ATOM     10  C   UNL     1      -3.919 -28.746  16.709  1.00  0.00     0.138 A 
ATOM     11  O   UNL     1      -5.036 -28.384  16.087  1.00  0.00    -0.456 OA
ENDROOT
BRANCH   1  12
ATOM     12  C   UNL     1      -6.730 -28.428  14.347  1.00  0.00     0.017 A 
ATOM     13  C   UNL     1      -9.136 -27.405  13.282  1.00  0.00     0.000 A 
ATOM     14  C   UNL     1      -8.632 -28.622  12.826  1.00  0.00     0.001 A 
ATOM     15  C   UNL     1      -8.450 -26.694  14.267  1.00  0.00     0.001 A 
ATOM     16  C   UNL     1      -7.441 -29.134  13.349  1.00  0.00     0.012 A 
ATOM     17  C   UNL     1      -7.258 -27.199  14.796  1.00  0.00     0.012 A 
ENDBRANCH   1  12
TORSDOF 1
ENDMDL
MODEL 5
REMARK VINA RESULT:    -5.798      3.086      5.080
REMARK INTER + INTRA:          -6.378
REMARK INTER:                  -6.142
REMARK INTRA:                  -0.236
REMARK UNBOUND:                -0.241
REMARK SMILES O=c1cc(-c2ccccc2)oc2ccccc12
REMARK SMILES IDX 4 1 3 2 2 3 1 4 17 5 16 6 15 7 14 8 13 9 12 10 11 11 5 12
REMARK SMILES IDX 8 13 7 14 9 15 6 16 10 17
REMARK H PARENT
REMARK Flexibility Score: inf
ROOT
ATOM      1  C   UNL     1      -3.152 -28.189  17.510  1.00  0.00     0.138 A 
ATOM      2  C   UNL     1      -3.224 -26.847  17.083  1.00  0.00     0.100 A 
ATOM      3  C   UNL     1      -3.359 -25.830  18.029  1.00  0.00     0.193 A 
ATOM      4  O   UNL     1      -3.424 -24.630  17.647  1.00  0.00    -0.289 OA
ATOM      5  C   UNL     1      -3.420 -26.157  19.390  1.00  0.00     0.065 A 
ATOM      6  C   UNL     1      -3.554 -25.181  20.395  1.00  0.00     0.016 A 
ATOM      7  C   UNL     1      -3.611 -25.562  21.739  1.00  0.00     0.001 A 
ATOM      8  C   UNL     1      -3.532 -26.913  22.090  1.00  0.00     0.004 A 
ATOM      9  C   UNL     1      -3.398 -27.890  21.099  1.00  0.00     0.048 A 
ATOM     10  C   UNL     1      -3.342 -27.519  19.750  1.00  0.00     0.138 A 
ATOM     11  O   UNL     1      -3.214 -28.455  18.816  1.00  0.00    -0.456 OA
ENDROOT
BRANCH   1  12
ATOM     12  C   UNL     1      -3.008 -29.338  16.563  1.00  0.00     0.017 A 
ATOM     13  C   UNL     1      -2.818 -31.475  14.728  1.00  0.00     0.000 A 
ATOM     14  C   UNL     1      -1.879 -31.348  15.751  1.00  0.00     0.001 A 
ATOM     15  C   UNL     1      -3.851 -30.546  14.612  1.00  0.00     0.001 A 
ATOM     16  C   UNL     1      -1.968 -30.291  16.663  1.00  0.00     0.012 A 
ATOM     17  C   UNL     1      -3.948 -29.487  15.520  1.00  0.00     0.012 A 
ENDBRANCH   1  12
TORSDOF 1
ENDMDL
MODEL 6
REMARK VINA RESULT:    -5.653      5.691      6.554
REMARK INTER + INTRA:          -6.224
REMARK INTER:                  -5.958
REMARK INTRA:                  -0.266
REMARK UNBOUND:                -0.241
REMARK SMILES O=c1cc(-c2ccccc2)oc2ccccc12
REMARK SMILES IDX 4 1 3 2 2 3 1 4 17 5 16 6 15 7 14 8 13 9 12 10 11 11 5 12
REMARK SMILES IDX 8 13 7 14 9 15 6 16 10 17
REMARK H PARENT
REMARK Flexibility Score: inf
ROOT
ATOM      1  C   UNL     1      -5.854 -28.707  14.859  1.00  0.00     0.138 A 
ATOM      2  C   UNL     1      -5.373 -27.998  15.979  1.00  0.00     0.100 A 
ATOM      3  C   UNL     1      -4.195 -28.413  16.603  1.00  0.00     0.193 A 
ATOM      4  O   UNL     1      -3.765 -27.778  17.604  1.00  0.00    -0.289 OA
ATOM      5  C   UNL     1      -3.508 -29.530  16.108  1.00  0.00     0.065 A 
ATOM      6  C   UNL     1      -2.316 -30.000  16.689  1.00  0.00     0.016 A 
ATOM      7  C   UNL     1      -1.671 -31.120  16.155  1.00  0.00     0.001 A 
ATOM      8  C   UNL     1      -2.206 -31.775  15.042  1.00  0.00     0.004 A 
ATOM      9  C   UNL     1      -3.389 -31.314  14.458  1.00  0.00     0.048 A 
ATOM     10  C   UNL     1      -4.044 -30.195  14.985  1.00  0.00     0.138 A 
ATOM     11  O   UNL     1      -5.168 -29.765  14.422  1.00  0.00    -0.456 OA
ENDROOT
BRANCH   1  12
ATOM     12  C   UNL     1      -7.106 -28.330  14.133  1.00  0.00     0.017 A 
ATOM     13  C   UNL     1      -9.476 -27.538  12.820  1.00  0.00     0.000 A 
ATOM     14  C   UNL     1      -8.822 -28.707  12.434  1.00  0.00     0.001 A 
ATOM     15  C   UNL     1      -8.959 -26.761  13.856  1.00  0.00     0.001 A 
ATOM     16  C   UNL     1      -7.647 -29.104  13.081  1.00  0.00     0.012 A 
ATOM     17  C   UNL     1      -7.785 -27.151  14.508  1.00  0.00     0.012 A 
ENDBRANCH   1  12
TORSDOF 1
ENDMDL
MODEL 7
REMARK VINA RESULT:    -5.335      3.948      4.993
REMARK INTER + INTRA:          -5.887
REMARK INTER:                  -5.623
REMARK INTRA:                  -0.265
REMARK UNBOUND:                -0.241
REMARK SMILES O=c1cc(-c2ccccc2)oc2ccccc12
REMARK SMILES IDX 4 1 3 2 2 3 1 4 17 5 16 6 15 7 14 8 13 9 12 10 11 11 5 12
REMARK SMILES IDX 8 13 7 14 9 15 6 16 10 17
REMARK H PARENT
REMARK Flexibility Score: inf
ROOT
ATOM      1  C   UNL     1      -2.766 -29.393  16.563  1.00  0.00     0.138 A 
ATOM      2  C   UNL     1      -3.427 -28.178  16.838  1.00  0.00     0.100 A 
ATOM      3  C   UNL     1      -3.284 -27.585  18.094  1.00  0.00     0.193 A 
ATOM      4  O   UNL     1      -3.875 -26.499  18.340  1.00  0.00    -0.289 OA
ATOM      5  C   UNL     1      -2.484 -28.206  19.063  1.00  0.00     0.065 A 
ATOM      6  C   UNL     1      -2.297 -27.662  20.347  1.00  0.00     0.016 A 
ATOM      7  C   UNL     1      -1.488 -28.323  21.277  1.00  0.00     0.001 A 
ATOM      8  C   UNL     1      -0.863 -29.525  20.935  1.00  0.00     0.004 A 
ATOM      9  C   UNL     1      -1.042 -30.073  19.661  1.00  0.00     0.048 A 
ATOM     10  C   UNL     1      -1.851 -29.420  18.723  1.00  0.00     0.138 A 
ATOM     11  O   UNL     1      -2.015 -29.949  17.516  1.00  0.00    -0.456 OA
ENDROOT
BRANCH   1  12
ATOM     12  C   UNL     1      -2.867 -30.094  15.246  1.00  0.00     0.017 A 
ATOM     13  C   UNL     1      -3.015 -31.497  12.800  1.00  0.00     0.000 A 
ATOM     14  C   UNL     1      -3.494 -30.191  12.886  1.00  0.00     0.001 A 
ATOM     15  C   UNL     1      -2.461 -32.110  13.925  1.00  0.00     0.001 A 
ATOM     16  C   UNL     1      -3.424 -29.491  14.095  1.00  0.00     0.012 A 
ATOM     17  C   UNL     1      -2.387 -31.417  15.137  1.00  0.00     0.012 A 
ENDBRANCH   1  12
TORSDOF 1
ENDMDL
MODEL 8
REMARK VINA RESULT:    -5.334      3.559      4.685
REMARK INTER + INTRA:          -5.887
REMARK INTER:                  -5.660
REMARK INTRA:                  -0.227
REMARK UNBOUND:                -0.241
REMARK SMILES O=c1cc(-c2ccccc2)oc2ccccc12
REMARK SMILES IDX 4 1 3 2 2 3 1 4 17 5 16 6 15 7 14 8 13 9 12 10 11 11 5 12
REMARK SMILES IDX 8 13 7 14 9 15 6 16 10 17
REMARK H PARENT
REMARK Flexibility Score: inf
ROOT
ATOM      1  C   UNL     1      -3.595 -28.129  17.737  1.00  0.00     0.138 A 
ATOM      2  C   UNL     1      -4.611 -28.004  16.767  1.00  0.00     0.100 A 
ATOM      3  C   UNL     1      -4.639 -28.882  15.682  1.00  0.00     0.193 A 
ATOM      4  O   UNL     1      -5.548 -28.770  14.815  1.00  0.00    -0.289 OA
ATOM      5  C   UNL     1      -3.658 -29.876  15.573  1.00  0.00     0.065 A 
ATOM      6  C   UNL     1      -3.628 -30.793  14.506  1.00  0.00     0.016 A 
ATOM      7  C   UNL     1      -2.625 -31.765  14.446  1.00  0.00     0.001 A 
ATOM      8  C   UNL     1      -1.649 -31.830  15.444  1.00  0.00     0.004 A 
ATOM      9  C   UNL     1      -1.671 -30.925  16.508  1.00  0.00     0.048 A 
ATOM     10  C   UNL     1      -2.669 -29.946  16.578  1.00  0.00     0.138 A 
ATOM     11  O   UNL     1      -2.681 -29.089  17.593  1.00  0.00    -0.456 OA
ENDROOT
BRANCH   1  12
ATOM     12  C   UNL     1      -3.492 -27.230  18.928  1.00  0.00     0.017 A 
ATOM     13  C   UNL     1      -3.327 -25.609  21.234  1.00  0.00     0.000 A 
ATOM     14  C   UNL     1      -3.022 -25.076  19.982  1.00  0.00     0.001 A 
ATOM     15  C   UNL     1      -3.715 -26.944  21.345  1.00  0.00     0.001 A 
ATOM     16  C   UNL     1      -3.102 -25.874  18.837  1.00  0.00     0.012 A 
ATOM     17  C   UNL     1      -3.798 -27.749  20.205  1.00  0.00     0.012 A 
ENDBRANCH   1  12
TORSDOF 1
ENDMDL
