MODEL 1
REMARK VINA RESULT:    -2.022      0.000      0.000
REMARK INTER + INTRA:          -2.022
REMARK INTER:                  -2.022
REMARK INTRA:                   0.000
REMARK UNBOUND:                 0.000
REMARK SMILES CC(=O)[O-]
REMARK SMILES IDX 1 1 2 2 3 3 4 4
REMARK H PARENT
REMARK Flexibility Score: inf
ROOT
ATOM      1  C   UNL     1     -23.924   6.654  22.514  1.00  0.00     0.063 C 
ATOM      2  C   UNL     1     -22.655   7.295  22.068  1.00  0.00     0.038 C 
ATOM      3  O   UNL     1     -21.670   7.358  22.848  1.00  0.00    -0.550 OA
ATOM      4  O   UNL     1     -22.573   7.875  20.807  1.00  0.00    -0.550 OA
ENDROOT
TORSDOF 0
ENDMDL
MODEL 2
REMARK VINA RESULT:    -2.015      0.125      1.621
REMARK INTER + INTRA:          -2.015
REMARK INTER:                  -2.015
REMARK INTRA:                   0.000
REMARK UNBOUND:                 0.000
REMARK SMILES CC(=O)[O-]
REMARK SMILES IDX 1 1 2 2 3 3 4 4
REMARK H PARENT
REMARK Flexibility Score: inf
ROOT
ATOM      1  C   UNL     1     -23.958   6.638  22.550  1.00  0.00     0.063 C 
ATOM      2  C   UNL     1     -22.693   7.283  22.096  1.00  0.00     0.038 C 
ATOM      3  O   UNL     1     -22.632   7.825  20.961  1.00  0.00    -0.550 OA
ATOM      4  O   UNL     1     -21.562   7.242  22.901  1.00  0.00    -0.550 OA
ENDROOT
TORSDOF 0
ENDMDL
MODEL 3
REMARK VINA RESULT:    -1.996      1.306      2.227
REMARK INTER + INTRA:          -1.996
REMARK INTER:                  -1.996
REMARK INTRA:                   0.000
REMARK UNBOUND:                 0.000
REMARK SMILES CC(=O)[O-]
REMARK SMILES IDX 1 1 2 2 3 3 4 4
REMARK H PARENT
REMARK Flexibility Score: inf
ROOT
ATOM      1  C   UNL     1     -22.040   8.101  20.485  1.00  0.00     0.063 C 
ATOM      2  C   UNL     1     -22.407   7.487  21.793  1.00  0.00     0.038 C 
ATOM      3  O   UNL     1     -23.551   6.991  21.960  1.00  0.00    -0.550 OA
ATOM      4  O   UNL     1     -21.504   7.508  22.850  1.00  0.00    -0.550 OA
ENDROOT
TORSDOF 0
ENDMDL
MODEL 4
REMARK VINA RESULT:    -1.990      1.434      1.732
REMARK INTER + INTRA:          -1.990
REMARK INTER:                  -1.990
REMARK INTRA:                   0.000
REMARK UNBOUND:                 0.000
REMARK SMILES CC(=O)[O-]
REMARK SMILES IDX 1 1 2 2 3 3 4 4
REMARK H PARENT
REMARK Flexibility Score: inf
ROOT
ATOM      1  C   UNL     1     -21.446   7.481  22.715  1.00  0.00     0.063 C 
ATOM      2  C   UNL     1     -22.577   7.480  21.743  1.00  0.00     0.038 C 
ATOM      3  O   UNL     1     -23.676   6.951  22.053  1.00  0.00    -0.550 OA
ATOM      4  O   UNL     1     -22.405   8.017  20.473  1.00  0.00    -0.550 OA
ENDROOT
TORSDOF 0
ENDMDL
MODEL 5
REMARK VINA RESULT:    -1.968      2.432      2.858
REMARK INTER + INTRA:          -1.968
REMARK INTER:                  -1.968
REMARK INTRA:                   0.000
REMARK UNBOUND:                 0.000
REMARK SMILES CC(=O)[O-]
REMARK SMILES IDX 1 1 2 2 3 3 4 4
REMARK H PARENT
REMARK Flexibility Score: inf
ROOT
ATOM      1  C   UNL     1     -23.246   7.211  22.121  1.00  0.00     0.063 C 
ATOM      2  C   UNL     1     -23.920   6.133  22.899  1.00  0.00     0.038 C 
ATOM      3  O   UNL     1     -25.125   6.259  23.240  1.00  0.00    -0.550 OA
ATOM      4  O   UNL     1     -23.205   5.010  23.297  1.00  0.00    -0.550 OA
ENDROOT
TORSDOF 0
ENDMDL
MODEL 6
REMARK VINA RESULT:    -1.962     25.984     26.502
REMARK INTER + INTRA:          -1.962
REMARK INTER:                  -1.962
REMARK INTRA:                   0.000
REMARK UNBOUND:                 0.000
REMARK SMILES CC(=O)[O-]
REMARK SMILES IDX 1 1 2 2 3 3 4 4
REMARK H PARENT
REMARK Flexibility Score: inf
ROOT
ATOM      1  C   UNL     1      -5.625  -7.411  36.375  1.00  0.00     0.063 C 
ATOM      2  C   UNL     1      -5.769  -8.285  35.176  1.00  0.00     0.038 C 
ATOM      3  O   UNL     1      -4.875  -9.124  34.895  1.00  0.00    -0.550 OA
ATOM      4  O   UNL     1      -6.866  -8.138  34.335  1.00  0.00    -0.550 OA
ENDROOT
TORSDOF 0
ENDMDL
MODEL 7
REMARK VINA RESULT:    -1.908      1.827      1.859
REMARK INTER + INTRA:          -1.908
REMARK INTER:                  -1.908
REMARK INTRA:                   0.000
REMARK UNBOUND:                 0.000
REMARK SMILES CC(=O)[O-]
REMARK SMILES IDX 1 1 2 2 3 3 4 4
REMARK H PARENT
REMARK Flexibility Score: inf
ROOT
ATOM      1  C   UNL     1     -22.506   5.293  22.046  1.00  0.00     0.063 C 
ATOM      2  C   UNL     1     -23.307   6.549  22.101  1.00  0.00     0.038 C 
ATOM      3  O   UNL     1     -24.421   6.563  22.686  1.00  0.00    -0.550 OA
ATOM      4  O   UNL     1     -22.851   7.694  21.459  1.00  0.00    -0.550 OA
ENDROOT
TORSDOF 0
ENDMDL
MODEL 8
REMARK VINA RESULT:    -1.826      2.325      3.024
REMARK INTER + INTRA:          -1.826
REMARK INTER:                  -1.826
REMARK INTRA:                   0.000
REMARK UNBOUND:                 0.000
REMARK SMILES CC(=O)[O-]
REMARK SMILES IDX 1 1 2 2 3 3 4 4
REMARK H PARENT
REMARK Flexibility Score: inf
ROOT
ATOM      1  C   UNL     1     -21.378   6.236  19.055  1.00  0.00     0.063 C 
ATOM      2  C   UNL     1     -21.358   7.127  20.249  1.00  0.00     0.038 C 
ATOM      3  O   UNL     1     -22.124   8.125  20.306  1.00  0.00    -0.550 OA
ATOM      4  O   UNL     1     -20.456   6.892  21.279  1.00  0.00    -0.550 OA
ENDROOT
TORSDOF 0
ENDMDL
MODEL 9
REMARK VINA RESULT:    -1.802      2.907      3.428
REMARK INTER + INTRA:          -1.802
REMARK INTER:                  -1.802
REMARK INTRA:                   0.000
REMARK UNBOUND:                 0.000
REMARK SMILES CC(=O)[O-]
REMARK SMILES IDX 1 1 2 2 3 3 4 4
REMARK H PARENT
REMARK Flexibility Score: inf
ROOT
ATOM      1  C   UNL     1     -20.119   6.270  20.659  1.00  0.00     0.063 C 
ATOM      2  C   UNL     1     -21.173   6.694  19.694  1.00  0.00     0.038 C 
ATOM      3  O   UNL     1     -21.375   6.029  18.646  1.00  0.00    -0.550 OA
ATOM      4  O   UNL     1     -21.899   7.857  19.922  1.00  0.00    -0.550 OA
ENDROOT
TORSDOF 0
ENDMDL
