MODEL 1
REMARK VINA RESULT:    -5.588      0.000      0.000
REMARK INTER + INTRA:          -6.287
REMARK INTER:                  -6.077
REMARK INTRA:                  -0.209
REMARK UNBOUND:                -0.209
REMARK SMILES CC1=C2C[C@@H](C(C)(C)O)CC[C@]2(C)CCC1
REMARK SMILES IDX 6 1 7 2 8 3 5 4 1 5 2 6 3 7 16 8 4 9 12 10 15 11 11 12 14 13
REMARK SMILES IDX 13 14 10 15 9 16
REMARK H PARENT 9 17
REMARK Flexibility Score: inf
ROOT
ATOM      1  C   UNL     1     148.952 143.363 140.908  1.00  0.00     0.062 C 
ATOM      2  C   UNL     1     150.087 144.034 141.720  1.00  0.00     0.042 C 
ATOM      3  C   UNL     1     148.956 144.011 139.506  1.00  0.00     0.042 C 
ENDROOT
BRANCH   1   4
ATOM      4  C   UNL     1     149.159 141.801 140.789  1.00  0.00     0.024 C 
ATOM      5  C   UNL     1     148.704 139.843 137.032  1.00  0.00     0.039 C 
ATOM      6  C   UNL     1     148.639 139.059 138.324  1.00  0.00    -0.074 C 
ATOM      7  C   UNL     1     148.500 139.675 139.541  1.00  0.00    -0.065 C 
ATOM      8  C   UNL     1     148.877 137.565 138.201  1.00  0.00     0.031 C 
ATOM      9  C   UNL     1     148.299 141.186 139.656  1.00  0.00     0.038 C 
ATOM     10  C   UNL     1     148.332 138.869 140.838  1.00  0.00    -0.011 C 
ATOM     11  C   UNL     1     148.373 136.767 139.397  1.00  0.00     0.005 C 
ATOM     12  C   UNL     1     149.151 139.542 141.971  1.00  0.00     0.011 C 
ATOM     13  C   UNL     1     148.857 137.414 140.688  1.00  0.00     0.011 C 
ATOM     14  C   UNL     1     146.831 138.828 141.225  1.00  0.00     0.016 C 
ATOM     15  C   UNL     1     148.892 141.048 142.115  1.00  0.00     0.008 C 
ENDBRANCH   1   4
BRANCH   1  16
ATOM     16  O   UNL     1     147.710 143.660 141.504  1.00  0.00    -0.390 OA
ATOM     17  H   UNL     1     147.317 144.440 141.035  1.00  0.00     0.211 HD
ENDBRANCH   1  16
TORSDOF 2
ENDMDL
MODEL 2
REMARK VINA RESULT:    -5.353      3.623      5.361
REMARK INTER + INTRA:          -6.032
REMARK INTER:                  -5.797
REMARK INTRA:                  -0.235
REMARK UNBOUND:                -0.209
REMARK SMILES CC1=C2C[C@@H](C(C)(C)O)CC[C@]2(C)CCC1
REMARK SMILES IDX 6 1 7 2 8 3 5 4 1 5 2 6 3 7 16 8 4 9 12 10 15 11 11 12 14 13
REMARK SMILES IDX 13 14 10 15 9 16
REMARK H PARENT 9 17
REMARK Flexibility Score: inf
ROOT
ATOM      1  C   UNL     1     143.847 139.902 136.221  1.00  0.00     0.062 C 
ATOM      2  C   UNL     1     143.077 139.952 137.564  1.00  0.00     0.042 C 
ATOM      3  C   UNL     1     143.437 141.156 135.418  1.00  0.00     0.042 C 
ENDROOT
BRANCH   1   4
ATOM      4  C   UNL     1     145.412 139.882 136.441  1.00  0.00     0.024 C 
ATOM      5  C   UNL     1     147.391 136.277 137.554  1.00  0.00     0.039 C 
ATOM      6  C   UNL     1     148.054 137.619 137.771  1.00  0.00    -0.074 C 
ATOM      7  C   UNL     1     147.353 138.796 137.691  1.00  0.00    -0.065 C 
ATOM      8  C   UNL     1     149.562 137.591 137.943  1.00  0.00     0.031 C 
ATOM      9  C   UNL     1     145.839 138.814 137.479  1.00  0.00     0.038 C 
ATOM     10  C   UNL     1     148.009 140.147 138.014  1.00  0.00    -0.011 C 
ATOM     11  C   UNL     1     150.125 138.850 138.591  1.00  0.00     0.005 C 
ATOM     12  C   UNL     1     147.514 141.213 136.999  1.00  0.00     0.011 C 
ATOM     13  C   UNL     1     149.557 140.082 137.899  1.00  0.00     0.011 C 
ATOM     14  C   UNL     1     147.625 140.572 139.454  1.00  0.00     0.016 C 
ATOM     15  C   UNL     1     145.988 141.262 136.843  1.00  0.00     0.008 C 
ENDBRANCH   1   4
BRANCH   1  16
ATOM     16  O   UNL     1     143.432 138.776 135.483  1.00  0.00    -0.390 OA
ATOM     17  H   UNL     1     144.011 138.010 135.728  1.00  0.00     0.211 HD
ENDBRANCH   1  16
TORSDOF 2
ENDMDL
MODEL 3
REMARK VINA RESULT:    -5.343     12.651     14.007
REMARK INTER + INTRA:          -6.021
REMARK INTER:                  -5.831
REMARK INTRA:                  -0.190
REMARK UNBOUND:                -0.209
REMARK SMILES CC1=C2C[C@@H](C(C)(C)O)CC[C@]2(C)CCC1
REMARK SMILES IDX 6 1 7 2 8 3 5 4 1 5 2 6 3 7 16 8 4 9 12 10 15 11 11 12 14 13
REMARK SMILES IDX 13 14 10 15 9 16
REMARK H PARENT 9 17
REMARK Flexibility Score: inf
ROOT
ATOM      1  C   UNL     1     147.089 147.121 129.602  1.00  0.00     0.062 C 
ATOM      2  C   UNL     1     147.866 146.910 128.279  1.00  0.00     0.042 C 
ATOM      3  C   UNL     1     147.781 148.281 130.352  1.00  0.00     0.042 C 
ENDROOT
BRANCH   1   4
ATOM      4  C   UNL     1     145.570 147.468 129.342  1.00  0.00     0.024 C 
ATOM      5  C   UNL     1     143.080 148.793 132.535  1.00  0.00     0.039 C 
ATOM      6  C   UNL     1     142.475 148.241 131.263  1.00  0.00    -0.074 C 
ATOM      7  C   UNL     1     143.224 147.554 130.342  1.00  0.00    -0.065 C 
ATOM      8  C   UNL     1     141.026 148.613 131.006  1.00  0.00     0.031 C 
ATOM      9  C   UNL     1     144.693 147.218 130.595  1.00  0.00     0.038 C 
ATOM     10  C   UNL     1     142.584 146.908 129.104  1.00  0.00    -0.011 C 
ATOM     11  C   UNL     1     140.334 147.706 129.996  1.00  0.00     0.005 C 
ATOM     12  C   UNL     1     143.512 147.118 127.878  1.00  0.00     0.011 C 
ATOM     13  C   UNL     1     141.210 147.549 128.761  1.00  0.00     0.011 C 
ATOM     14  C   UNL     1     142.385 145.392 129.362  1.00  0.00     0.016 C 
ATOM     15  C   UNL     1     144.972 146.717 128.127  1.00  0.00     0.008 C 
ENDBRANCH   1   4
BRANCH   1  16
ATOM     16  O   UNL     1     147.209 145.970 130.405  1.00  0.00    -0.390 OA
ATOM     17  H   UNL     1     147.297 145.181 129.811  1.00  0.00     0.211 HD
ENDBRANCH   1  16
TORSDOF 2
ENDMDL
MODEL 4
REMARK VINA RESULT:    -5.324      1.646      3.203
REMARK INTER + INTRA:          -6.000
REMARK INTER:                  -5.743
REMARK INTRA:                  -0.257
REMARK UNBOUND:                -0.209
REMARK SMILES CC1=C2C[C@@H](C(C)(C)O)CC[C@]2(C)CCC1
REMARK SMILES IDX 6 1 7 2 8 3 5 4 1 5 2 6 3 7 16 8 4 9 12 10 15 11 11 12 14 13
REMARK SMILES IDX 13 14 10 15 9 16
REMARK H PARENT 9 17
REMARK Flexibility Score: inf
ROOT
ATOM      1  C   UNL     1     148.217 142.612 140.961  1.00  0.00     0.062 C 
ATOM      2  C   UNL     1     148.767 141.831 142.181  1.00  0.00     0.042 C 
ATOM      3  C   UNL     1     149.414 143.352 140.323  1.00  0.00     0.042 C 
ENDROOT
BRANCH   1   4
ATOM      4  C   UNL     1     147.542 141.652 139.904  1.00  0.00     0.024 C 
ATOM      5  C   UNL     1     145.768 137.981 141.140  1.00  0.00     0.039 C 
ATOM      6  C   UNL     1     146.150 138.204 139.694  1.00  0.00    -0.074 C 
ATOM      7  C   UNL     1     146.966 139.238 139.310  1.00  0.00    -0.065 C 
ATOM      8  C   UNL     1     145.466 137.302 138.684  1.00  0.00     0.031 C 
ATOM      9  C   UNL     1     147.619 140.166 140.334  1.00  0.00     0.038 C 
ATOM     10  C   UNL     1     147.433 139.398 137.855  1.00  0.00    -0.011 C 
ATOM     11  C   UNL     1     146.181 137.239 137.340  1.00  0.00     0.005 C 
ATOM     12  C   UNL     1     147.407 140.902 137.470  1.00  0.00     0.011 C 
ATOM     13  C   UNL     1     146.502 138.649 136.862  1.00  0.00     0.011 C 
ATOM     14  C   UNL     1     148.874 138.842 137.716  1.00  0.00     0.016 C 
ATOM     15  C   UNL     1     148.121 141.814 138.476  1.00  0.00     0.008 C 
ENDBRANCH   1   4
BRANCH   1  16
ATOM     16  O   UNL     1     147.305 143.591 141.403  1.00  0.00    -0.390 OA
ATOM     17  H   UNL     1     146.409 143.173 141.475  1.00  0.00     0.211 HD
ENDBRANCH   1  16
TORSDOF 2
ENDMDL
MODEL 5
REMARK VINA RESULT:    -5.276      3.481      5.138
REMARK INTER + INTRA:          -5.948
REMARK INTER:                  -5.726
REMARK INTRA:                  -0.222
REMARK UNBOUND:                -0.209
REMARK SMILES CC1=C2C[C@@H](C(C)(C)O)CC[C@]2(C)CCC1
REMARK SMILES IDX 6 1 7 2 8 3 5 4 1 5 2 6 3 7 16 8 4 9 12 10 15 11 11 12 14 13
REMARK SMILES IDX 13 14 10 15 9 16
REMARK H PARENT 9 17
REMARK Flexibility Score: inf
ROOT
ATOM      1  C   UNL     1     149.251 140.179 138.807  1.00  0.00     0.062 C 
ATOM      2  C   UNL     1     149.751 141.179 139.879  1.00  0.00     0.042 C 
ATOM      3  C   UNL     1     149.458 138.760 139.382  1.00  0.00     0.042 C 
ENDROOT
BRANCH   1   4
ATOM      4  C   UNL     1     147.728 140.409 138.454  1.00  0.00     0.024 C 
ATOM      5  C   UNL     1     144.764 137.650 139.779  1.00  0.00     0.039 C 
ATOM      6  C   UNL     1     144.477 138.602 138.639  1.00  0.00    -0.074 C 
ATOM      7  C   UNL     1     145.475 139.297 138.005  1.00  0.00    -0.065 C 
ATOM      8  C   UNL     1     143.010 138.844 138.334  1.00  0.00     0.031 C 
ATOM      9  C   UNL     1     146.948 139.074 138.347  1.00  0.00     0.038 C 
ATOM     10  C   UNL     1     145.189 140.183 136.783  1.00  0.00    -0.011 C 
ATOM     11  C   UNL     1     142.763 139.422 136.946  1.00  0.00     0.005 C 
ATOM     12  C   UNL     1     146.031 141.483 136.883  1.00  0.00     0.011 C 
ATOM     13  C   UNL     1     143.695 140.602 136.708  1.00  0.00     0.011 C 
ATOM     14  C   UNL     1     145.564 139.410 135.492  1.00  0.00     0.016 C 
ATOM     15  C   UNL     1     147.520 141.241 137.164  1.00  0.00     0.008 C 
ENDBRANCH   1   4
BRANCH   1  16
ATOM     16  O   UNL     1     150.053 140.286 137.654  1.00  0.00    -0.390 OA
ATOM     17  H   UNL     1     150.939 139.886 137.851  1.00  0.00     0.211 HD
ENDBRANCH   1  16
TORSDOF 2
ENDMDL
MODEL 6
REMARK VINA RESULT:    -5.261      2.629      5.523
REMARK INTER + INTRA:          -5.931
REMARK INTER:                  -5.705
REMARK INTRA:                  -0.226
REMARK UNBOUND:                -0.209
REMARK SMILES CC1=C2C[C@@H](C(C)(C)O)CC[C@]2(C)CCC1
REMARK SMILES IDX 6 1 7 2 8 3 5 4 1 5 2 6 3 7 16 8 4 9 12 10 15 11 11 12 14 13
REMARK SMILES IDX 13 14 10 15 9 16
REMARK H PARENT 9 17
REMARK Flexibility Score: inf
ROOT
ATOM      1  C   UNL     1     149.055 136.516 138.251  1.00  0.00     0.062 C 
ATOM      2  C   UNL     1     149.030 135.273 139.175  1.00  0.00     0.042 C 
ATOM      3  C   UNL     1     147.724 136.524 137.467  1.00  0.00     0.042 C 
ENDROOT
BRANCH   1   4
ATOM      4  C   UNL     1     149.212 137.857 139.073  1.00  0.00     0.024 C 
ATOM      5  C   UNL     1     146.482 138.804 142.203  1.00  0.00     0.039 C 
ATOM      6  C   UNL     1     147.333 139.882 141.569  1.00  0.00    -0.074 C 
ATOM      7  C   UNL     1     148.005 139.677 140.391  1.00  0.00    -0.065 C 
ATOM      8  C   UNL     1     147.508 141.150 142.385  1.00  0.00     0.031 C 
ATOM      9  C   UNL     1     147.852 138.381 139.596  1.00  0.00     0.038 C 
ATOM     10  C   UNL     1     148.783 140.808 139.701  1.00  0.00    -0.011 C 
ATOM     11  C   UNL     1     147.967 142.346 141.562  1.00  0.00     0.005 C 
ATOM     12  C   UNL     1     150.111 140.242 139.130  1.00  0.00     0.011 C 
ATOM     13  C   UNL     1     149.152 141.947 140.692  1.00  0.00     0.011 C 
ATOM     14  C   UNL     1     147.922 141.395 138.552  1.00  0.00     0.016 C 
ATOM     15  C   UNL     1     149.934 138.976 138.282  1.00  0.00     0.008 C 
ENDBRANCH   1   4
BRANCH   1  16
ATOM     16  O   UNL     1     150.095 136.382 137.310  1.00  0.00    -0.390 OA
ATOM     17  H   UNL     1     150.848 136.963 137.590  1.00  0.00     0.211 HD
ENDBRANCH   1  16
TORSDOF 2
ENDMDL
MODEL 7
REMARK VINA RESULT:    -5.258      3.356      5.271
REMARK INTER + INTRA:          -5.928
REMARK INTER:                  -5.687
REMARK INTRA:                  -0.241
REMARK UNBOUND:                -0.209
REMARK SMILES CC1=C2C[C@@H](C(C)(C)O)CC[C@]2(C)CCC1
REMARK SMILES IDX 6 1 7 2 8 3 5 4 1 5 2 6 3 7 16 8 4 9 12 10 15 11 11 12 14 13
REMARK SMILES IDX 13 14 10 15 9 16
REMARK H PARENT 9 17
REMARK Flexibility Score: inf
ROOT
ATOM      1  C   UNL     1     147.971 138.597 140.844  1.00  0.00     0.062 C 
ATOM      2  C   UNL     1     148.177 137.178 140.259  1.00  0.00     0.042 C 
ATOM      3  C   UNL     1     149.373 139.223 141.017  1.00  0.00     0.042 C 
ENDROOT
BRANCH   1   4
ATOM      4  C   UNL     1     147.083 139.500 139.898  1.00  0.00     0.024 C 
ATOM      5  C   UNL     1     143.170 138.251 138.769  1.00  0.00     0.039 C 
ATOM      6  C   UNL     1     143.902 139.307 137.972  1.00  0.00    -0.074 C 
ATOM      7  C   UNL     1     145.246 139.532 138.127  1.00  0.00    -0.065 C 
ATOM      8  C   UNL     1     143.035 140.193 137.096  1.00  0.00     0.031 C 
ATOM      9  C   UNL     1     146.104 138.658 139.042  1.00  0.00     0.038 C 
ATOM     10  C   UNL     1     146.003 140.534 137.243  1.00  0.00    -0.011 C 
ATOM     11  C   UNL     1     143.810 140.915 136.001  1.00  0.00     0.005 C 
ATOM     12  C   UNL     1     147.022 141.319 138.112  1.00  0.00     0.011 C 
ATOM     13  C   UNL     1     145.047 141.576 136.597  1.00  0.00     0.011 C 
ATOM     14  C   UNL     1     146.748 139.767 136.120  1.00  0.00     0.016 C 
ATOM     15  C   UNL     1     147.919 140.425 138.978  1.00  0.00     0.008 C 
ENDBRANCH   1   4
BRANCH   1  16
ATOM     16  O   UNL     1     147.395 138.498 142.125  1.00  0.00    -0.390 OA
ATOM     17  H   UNL     1     147.919 139.063 142.749  1.00  0.00     0.211 HD
ENDBRANCH   1  16
TORSDOF 2
ENDMDL
MODEL 8
REMARK VINA RESULT:    -5.198      2.951      4.887
REMARK INTER + INTRA:          -5.862
REMARK INTER:                  -5.645
REMARK INTRA:                  -0.217
REMARK UNBOUND:                -0.209
REMARK SMILES CC1=C2C[C@@H](C(C)(C)O)CC[C@]2(C)CCC1
REMARK SMILES IDX 6 1 7 2 8 3 5 4 1 5 2 6 3 7 16 8 4 9 12 10 15 11 11 12 14 13
REMARK SMILES IDX 13 14 10 15 9 16
REMARK H PARENT 9 17
REMARK Flexibility Score: inf
ROOT
ATOM      1  C   UNL     1     144.469 140.480 136.897  1.00  0.00     0.062 C 
ATOM      2  C   UNL     1     144.763 139.956 135.469  1.00  0.00     0.042 C 
ATOM      3  C   UNL     1     143.014 140.085 137.232  1.00  0.00     0.042 C 
ENDROOT
BRANCH   1   4
ATOM      4  C   UNL     1     145.461 139.866 137.963  1.00  0.00     0.024 C 
ATOM      5  C   UNL     1     147.659 142.407 140.583  1.00  0.00     0.039 C 
ATOM      6  C   UNL     1     148.098 140.979 140.345  1.00  0.00    -0.074 C 
ATOM      7  C   UNL     1     147.595 140.228 139.314  1.00  0.00    -0.065 C 
ATOM      8  C   UNL     1     149.019 140.388 141.396  1.00  0.00     0.031 C 
ATOM      9  C   UNL     1     146.637 140.822 138.282  1.00  0.00     0.038 C 
ATOM     10  C   UNL     1     148.120 138.815 139.016  1.00  0.00    -0.011 C 
ATOM     11  C   UNL     1     149.782 139.159 140.917  1.00  0.00     0.005 C 
ATOM     12  C   UNL     1     146.929 137.894 138.637  1.00  0.00     0.011 C 
ATOM     13  C   UNL     1     148.820 138.184 140.252  1.00  0.00     0.011 C 
ATOM     14  C   UNL     1     149.130 138.881 137.841  1.00  0.00     0.016 C 
ATOM     15  C   UNL     1     146.011 138.477 137.555  1.00  0.00     0.008 C 
ENDBRANCH   1   4
BRANCH   1  16
ATOM     16  O   UNL     1     144.535 141.887 136.904  1.00  0.00    -0.390 OA
ATOM     17  H   UNL     1     144.171 142.221 136.044  1.00  0.00     0.211 HD
ENDBRANCH   1  16
TORSDOF 2
ENDMDL
MODEL 9
REMARK VINA RESULT:    -5.166      1.825      2.429
REMARK INTER + INTRA:          -5.827
REMARK INTER:                  -5.612
REMARK INTRA:                  -0.215
REMARK UNBOUND:                -0.209
REMARK SMILES CC1=C2C[C@@H](C(C)(C)O)CC[C@]2(C)CCC1
REMARK SMILES IDX 6 1 7 2 8 3 5 4 1 5 2 6 3 7 16 8 4 9 12 10 15 11 11 12 14 13
REMARK SMILES IDX 13 14 10 15 9 16
REMARK H PARENT 9 17
REMARK Flexibility Score: inf
ROOT
ATOM      1  C   UNL     1     148.711 142.657 140.956  1.00  0.00     0.062 C 
ATOM      2  C   UNL     1     149.074 142.070 142.343  1.00  0.00     0.042 C 
ATOM      3  C   UNL     1     149.827 143.657 140.583  1.00  0.00     0.042 C 
ENDROOT
BRANCH   1   4
ATOM      4  C   UNL     1     148.595 141.531 139.853  1.00  0.00     0.024 C 
ATOM      5  C   UNL     1     145.206 141.370 137.276  1.00  0.00     0.039 C 
ATOM      6  C   UNL     1     146.093 140.159 137.461  1.00  0.00    -0.074 C 
ATOM      7  C   UNL     1     147.011 140.079 138.477  1.00  0.00    -0.065 C 
ATOM      8  C   UNL     1     146.001 139.102 136.375  1.00  0.00     0.031 C 
ATOM      9  C   UNL     1     147.121 141.168 139.544  1.00  0.00     0.038 C 
ATOM     10  C   UNL     1     147.835 138.806 138.721  1.00  0.00    -0.011 C 
ATOM     11  C   UNL     1     146.538 137.742 136.802  1.00  0.00     0.005 C 
ATOM     12  C   UNL     1     149.290 139.199 139.091  1.00  0.00     0.011 C 
ATOM     13  C   UNL     1     147.905 137.909 137.453  1.00  0.00     0.011 C 
ATOM     14  C   UNL     1     147.196 137.996 139.879  1.00  0.00     0.016 C 
ATOM     15  C   UNL     1     149.386 140.247 140.207  1.00  0.00     0.008 C 
ENDBRANCH   1   4
BRANCH   1  16
ATOM     16  O   UNL     1     147.509 143.385 141.055  1.00  0.00    -0.390 OA
ATOM     17  H   UNL     1     146.838 142.821 141.518  1.00  0.00     0.211 HD
ENDBRANCH   1  16
TORSDOF 2
ENDMDL
