MODEL 1
REMARK VINA RESULT:    -4.551      0.000      0.000
REMARK INTER + INTRA:          -6.654
REMARK INTER:                  -6.147
REMARK INTRA:                  -0.506
REMARK UNBOUND:                -0.506
REMARK SMILES CC(=O)CCC=C(C)CCC=C(C)C
REMARK SMILES IDX 7 1 6 2 8 3 9 4 10 5 11 6 13 7 12 8 14 9 5 10 4 11 2 12 3 13
REMARK SMILES IDX 1 14
REMARK H PARENT
REMARK Flexibility Score: inf
ROOT
ATOM      1  C   UNL     1      54.874  69.453  33.822  1.00  0.00    -0.077 C 
ATOM      2  C   UNL     1      54.006  70.150  33.053  1.00  0.00    -0.028 C 
ATOM      3  C   UNL     1      56.368  69.539  33.617  1.00  0.00     0.039 C 
ENDROOT
BRANCH   1   4
ATOM      4  C   UNL     1      54.332  68.575  34.929  1.00  0.00     0.034 C 
BRANCH   4   5
ATOM      5  C   UNL     1      53.285  67.597  34.385  1.00  0.00     0.032 C 
BRANCH   5   6
ATOM      6  C   UNL     1      53.801  66.181  34.431  1.00  0.00    -0.028 C 
ATOM      7  C   UNL     1      52.520  65.611  36.506  1.00  0.00     0.039 C 
ATOM      8  C   UNL     1      53.447  65.269  35.362  1.00  0.00    -0.080 C 
ATOM      9  C   UNL     1      54.014  63.876  35.258  1.00  0.00     0.039 C 
ENDBRANCH   5   6
ENDBRANCH   4   5
ENDBRANCH   1   4
BRANCH   2  10
ATOM     10  C   UNL     1      54.409  71.021  31.889  1.00  0.00     0.035 C 
BRANCH  10  11
ATOM     11  C   UNL     1      53.627  70.637  30.629  1.00  0.00     0.079 C 
BRANCH  11  12
ATOM     12  C   UNL     1      54.373  71.058  29.391  1.00  0.00     0.130 C 
ATOM     13  O   UNL     1      54.652  72.236  29.229  1.00  0.00    -0.300 OA
ATOM     14  C   UNL     1      54.795  70.058  28.354  1.00  0.00     0.087 C 
ENDBRANCH  11  12
ENDBRANCH  10  11
ENDBRANCH   2  10
TORSDOF 6
ENDMDL
MODEL 2
REMARK VINA RESULT:    -4.505     13.413     15.764
REMARK INTER + INTRA:          -6.592
REMARK INTER:                  -5.765
REMARK INTRA:                  -0.827
REMARK UNBOUND:                -0.506
REMARK SMILES CC(=O)CCC=C(C)CCC=C(C)C
REMARK SMILES IDX 7 1 6 2 8 3 9 4 10 5 11 6 13 7 12 8 14 9 5 10 4 11 2 12 3 13
REMARK SMILES IDX 1 14
REMARK H PARENT
REMARK Flexibility Score: inf
ROOT
ATOM      1  C   UNL     1      67.325  66.994  27.886  1.00  0.00    -0.077 C 
ATOM      2  C   UNL     1      67.667  66.912  29.192  1.00  0.00    -0.028 C 
ATOM      3  C   UNL     1      65.920  66.709  27.409  1.00  0.00     0.039 C 
ENDROOT
BRANCH   1   4
ATOM      4  C   UNL     1      68.376  67.399  26.875  1.00  0.00     0.034 C 
BRANCH   4   5
ATOM      5  C   UNL     1      69.582  68.038  27.572  1.00  0.00     0.032 C 
BRANCH   5   6
ATOM      6  C   UNL     1      69.610  69.527  27.334  1.00  0.00    -0.028 C 
ATOM      7  C   UNL     1      69.569  70.079  29.777  1.00  0.00     0.039 C 
ATOM      8  C   UNL     1      69.630  70.457  28.315  1.00  0.00    -0.080 C 
ATOM      9  C   UNL     1      69.698  71.911  27.926  1.00  0.00     0.039 C 
ENDBRANCH   5   6
ENDBRANCH   4   5
ENDBRANCH   1   4
BRANCH   2  10
ATOM     10  C   UNL     1      66.732  66.474  30.292  1.00  0.00     0.035 C 
BRANCH  10  11
ATOM     11  C   UNL     1      67.519  65.941  31.493  1.00  0.00     0.079 C 
BRANCH  11  12
ATOM     12  C   UNL     1      67.441  66.902  32.650  1.00  0.00     0.130 C 
ATOM     13  O   UNL     1      67.056  66.502  33.738  1.00  0.00    -0.300 OA
ATOM     14  C   UNL     1      67.839  68.341  32.499  1.00  0.00     0.087 C 
ENDBRANCH  11  12
ENDBRANCH  10  11
ENDBRANCH   2  10
TORSDOF 6
ENDMDL
MODEL 3
REMARK VINA RESULT:    -4.473     13.655     15.029
REMARK INTER + INTRA:          -6.548
REMARK INTER:                  -5.756
REMARK INTRA:                  -0.792
REMARK UNBOUND:                -0.506
REMARK SMILES CC(=O)CCC=C(C)CCC=C(C)C
REMARK SMILES IDX 7 1 6 2 8 3 9 4 10 5 11 6 13 7 12 8 14 9 5 10 4 11 2 12 3 13
REMARK SMILES IDX 1 14
REMARK H PARENT
REMARK Flexibility Score: inf
ROOT
ATOM      1  C   UNL     1      67.896  67.243  28.113  1.00  0.00    -0.077 C 
ATOM      2  C   UNL     1      68.934  68.112  28.140  1.00  0.00    -0.028 C 
ATOM      3  C   UNL     1      66.834  67.304  27.039  1.00  0.00     0.039 C 
ENDROOT
BRANCH   1   4
ATOM      4  C   UNL     1      67.806  66.171  29.177  1.00  0.00     0.034 C 
BRANCH   4   5
ATOM      5  C   UNL     1      66.750  66.534  30.226  1.00  0.00     0.032 C 
BRANCH   5   6
ATOM      6  C   UNL     1      67.310  66.392  31.620  1.00  0.00    -0.028 C 
ATOM      7  C   UNL     1      68.005  68.794  31.758  1.00  0.00     0.039 C 
ATOM      8  C   UNL     1      67.854  67.403  32.331  1.00  0.00    -0.080 C 
ATOM      9  C   UNL     1      68.337  67.121  33.730  1.00  0.00     0.039 C 
ENDBRANCH   5   6
ENDBRANCH   4   5
ENDBRANCH   1   4
BRANCH   2  10
ATOM     10  C   UNL     1      69.117  69.254  27.172  1.00  0.00     0.035 C 
BRANCH  10  11
ATOM     11  C   UNL     1      70.307  70.125  27.581  1.00  0.00     0.079 C 
BRANCH  11  12
ATOM     12  C   UNL     1      69.851  71.514  27.944  1.00  0.00     0.130 C 
ATOM     13  O   UNL     1      69.835  72.384  27.087  1.00  0.00    -0.300 OA
ATOM     14  C   UNL     1      69.401  71.851  29.335  1.00  0.00     0.087 C 
ENDBRANCH  11  12
ENDBRANCH  10  11
ENDBRANCH   2  10
TORSDOF 6
ENDMDL
MODEL 4
REMARK VINA RESULT:    -4.469     13.617     15.341
REMARK INTER + INTRA:          -6.544
REMARK INTER:                  -5.315
REMARK INTRA:                  -1.229
REMARK UNBOUND:                -0.506
REMARK SMILES CC(=O)CCC=C(C)CCC=C(C)C
REMARK SMILES IDX 7 1 6 2 8 3 9 4 10 5 11 6 13 7 12 8 14 9 5 10 4 11 2 12 3 13
REMARK SMILES IDX 1 14
REMARK H PARENT
REMARK Flexibility Score: inf
ROOT
ATOM      1  C   UNL     1      69.808  68.138  28.829  1.00  0.00    -0.077 C 
ATOM      2  C   UNL     1      69.484  69.302  28.220  1.00  0.00    -0.028 C 
ATOM      3  C   UNL     1      71.054  68.000  29.673  1.00  0.00     0.039 C 
ENDROOT
BRANCH   1   4
ATOM      4  C   UNL     1      68.888  66.947  28.676  1.00  0.00     0.034 C 
BRANCH   4   5
ATOM      5  C   UNL     1      67.504  67.250  29.260  1.00  0.00     0.032 C 
BRANCH   5   6
ATOM      6  C   UNL     1      67.358  66.643  30.633  1.00  0.00    -0.028 C 
ATOM      7  C   UNL     1      67.955  68.769  31.813  1.00  0.00     0.039 C 
ATOM      8  C   UNL     1      67.532  67.319  31.789  1.00  0.00    -0.080 C 
ATOM      9  C   UNL     1      67.312  66.589  33.089  1.00  0.00     0.039 C 
ENDBRANCH   5   6
ENDBRANCH   4   5
ENDBRANCH   1   4
BRANCH   2  10
ATOM     10  C   UNL     1      70.335  70.547  28.251  1.00  0.00     0.035 C 
BRANCH  10  11
ATOM     11  C   UNL     1      69.501  71.763  28.663  1.00  0.00     0.079 C 
BRANCH  11  12
ATOM     12  C   UNL     1      69.346  71.819  30.160  1.00  0.00     0.130 C 
ATOM     13  O   UNL     1      68.262  72.112  30.641  1.00  0.00    -0.300 OA
ATOM     14  C   UNL     1      70.493  71.510  31.077  1.00  0.00     0.087 C 
ENDBRANCH  11  12
ENDBRANCH  10  11
ENDBRANCH   2  10
TORSDOF 6
ENDMDL
MODEL 5
REMARK VINA RESULT:    -4.466     13.619     14.971
REMARK INTER + INTRA:          -6.538
REMARK INTER:                  -5.343
REMARK INTRA:                  -1.195
REMARK UNBOUND:                -0.506
REMARK SMILES CC(=O)CCC=C(C)CCC=C(C)C
REMARK SMILES IDX 7 1 6 2 8 3 9 4 10 5 11 6 13 7 12 8 14 9 5 10 4 11 2 12 3 13
REMARK SMILES IDX 1 14
REMARK H PARENT
REMARK Flexibility Score: inf
ROOT
ATOM      1  C   UNL     1      68.406  68.246  32.270  1.00  0.00    -0.077 C 
ATOM      2  C   UNL     1      68.276  69.321  31.458  1.00  0.00    -0.028 C 
ATOM      3  C   UNL     1      69.633  68.038  33.127  1.00  0.00     0.039 C 
ENDROOT
BRANCH   1   4
ATOM      4  C   UNL     1      67.284  67.233  32.334  1.00  0.00     0.034 C 
BRANCH   4   5
ATOM      5  C   UNL     1      67.501  66.117  31.305  1.00  0.00     0.032 C 
BRANCH   5   6
ATOM      6  C   UNL     1      66.884  66.485  29.979  1.00  0.00    -0.028 C 
ATOM      7  C   UNL     1      69.097  66.694  28.826  1.00  0.00     0.039 C 
ATOM      8  C   UNL     1      67.586  66.722  28.850  1.00  0.00    -0.080 C 
ATOM      9  C   UNL     1      66.831  67.041  27.586  1.00  0.00     0.039 C 
ENDBRANCH   5   6
ENDBRANCH   4   5
ENDBRANCH   1   4
BRANCH   2  10
ATOM     10  C   UNL     1      69.335  70.377  31.265  1.00  0.00     0.035 C 
BRANCH  10  11
ATOM     11  C   UNL     1      70.197  70.062  30.039  1.00  0.00     0.079 C 
BRANCH  11  12
ATOM     12  C   UNL     1      69.709  70.823  28.835  1.00  0.00     0.130 C 
ATOM     13  O   UNL     1      69.454  72.013  28.940  1.00  0.00    -0.300 OA
ATOM     14  C   UNL     1      69.541  70.154  27.502  1.00  0.00     0.087 C 
ENDBRANCH  11  12
ENDBRANCH  10  11
ENDBRANCH   2  10
TORSDOF 6
ENDMDL
MODEL 6
REMARK VINA RESULT:    -4.448     13.801     15.297
REMARK INTER + INTRA:          -6.515
REMARK INTER:                  -5.133
REMARK INTRA:                  -1.382
REMARK UNBOUND:                -0.506
REMARK SMILES CC(=O)CCC=C(C)CCC=C(C)C
REMARK SMILES IDX 7 1 6 2 8 3 9 4 10 5 11 6 13 7 12 8 14 9 5 10 4 11 2 12 3 13
REMARK SMILES IDX 1 14
REMARK H PARENT
REMARK Flexibility Score: inf
ROOT
ATOM      1  C   UNL     1      67.809  66.432  30.160  1.00  0.00    -0.077 C 
ATOM      2  C   UNL     1      67.108  66.873  29.090  1.00  0.00    -0.028 C 
ATOM      3  C   UNL     1      69.094  65.652  30.005  1.00  0.00     0.039 C 
ENDROOT
BRANCH   1   4
ATOM      4  C   UNL     1      67.300  66.743  31.551  1.00  0.00     0.034 C 
BRANCH   4   5
ATOM      5  C   UNL     1      68.275  67.664  32.292  1.00  0.00     0.032 C 
BRANCH   5   6
ATOM      6  C   UNL     1      68.146  69.085  31.802  1.00  0.00    -0.028 C 
ATOM      7  C   UNL     1      70.406  69.087  30.724  1.00  0.00     0.039 C 
ATOM      8  C   UNL     1      69.084  69.730  31.074  1.00  0.00    -0.080 C 
ATOM      9  C   UNL     1      68.799  71.138  30.619  1.00  0.00     0.039 C 
ENDBRANCH   5   6
ENDBRANCH   4   5
ENDBRANCH   1   4
BRANCH   2  10
ATOM     10  C   UNL     1      67.476  66.592  27.654  1.00  0.00     0.035 C 
BRANCH  10  11
ATOM     11  C   UNL     1      67.655  67.898  26.875  1.00  0.00     0.079 C 
BRANCH  11  12
ATOM     12  C   UNL     1      69.046  68.443  27.061  1.00  0.00     0.130 C 
ATOM     13  O   UNL     1      69.197  69.623  27.337  1.00  0.00    -0.300 OA
ATOM     14  C   UNL     1      70.255  67.563  26.928  1.00  0.00     0.087 C 
ENDBRANCH  11  12
ENDBRANCH  10  11
ENDBRANCH   2  10
TORSDOF 6
ENDMDL
MODEL 7
REMARK VINA RESULT:    -4.433      3.162      6.436
REMARK INTER + INTRA:          -6.494
REMARK INTER:                  -5.791
REMARK INTRA:                  -0.704
REMARK UNBOUND:                -0.506
REMARK SMILES CC(=O)CCC=C(C)CCC=C(C)C
REMARK SMILES IDX 7 1 6 2 8 3 9 4 10 5 11 6 13 7 12 8 14 9 5 10 4 11 2 12 3 13
REMARK SMILES IDX 1 14
REMARK H PARENT
REMARK Flexibility Score: inf
ROOT
ATOM      1  C   UNL     1      54.589  69.181  34.673  1.00  0.00    -0.077 C 
ATOM      2  C   UNL     1      53.835  68.067  34.528  1.00  0.00    -0.028 C 
ATOM      3  C   UNL     1      54.893  69.766  36.033  1.00  0.00     0.039 C 
ENDROOT
BRANCH   1   4
ATOM      4  C   UNL     1      55.157  69.850  33.441  1.00  0.00     0.034 C 
BRANCH   4   5
ATOM      5  C   UNL     1      54.153  70.848  32.852  1.00  0.00     0.032 C 
BRANCH   5   6
ATOM      6  C   UNL     1      54.145  70.773  31.346  1.00  0.00    -0.028 C 
ATOM      7  C   UNL     1      52.226  69.165  31.276  1.00  0.00     0.039 C 
ATOM      8  C   UNL     1      53.269  70.042  30.622  1.00  0.00    -0.080 C 
ATOM      9  C   UNL     1      53.357  70.095  29.119  1.00  0.00     0.039 C 
ENDBRANCH   5   6
ENDBRANCH   4   5
ENDBRANCH   1   4
BRANCH   2  10
ATOM     10  C   UNL     1      53.171  67.332  35.665  1.00  0.00     0.035 C 
BRANCH  10  11
ATOM     11  C   UNL     1      52.657  65.966  35.201  1.00  0.00     0.079 C 
BRANCH  11  12
ATOM     12  C   UNL     1      53.509  64.858  35.761  1.00  0.00     0.130 C 
ATOM     13  O   UNL     1      53.050  64.125  36.624  1.00  0.00    -0.300 OA
ATOM     14  C   UNL     1      54.909  64.625  35.273  1.00  0.00     0.087 C 
ENDBRANCH  11  12
ENDBRANCH  10  11
ENDBRANCH   2  10
TORSDOF 6
ENDMDL
MODEL 8
REMARK VINA RESULT:    -4.426      2.558      6.957
REMARK INTER + INTRA:          -6.484
REMARK INTER:                  -6.060
REMARK INTRA:                  -0.424
REMARK UNBOUND:                -0.506
REMARK SMILES CC(=O)CCC=C(C)CCC=C(C)C
REMARK SMILES IDX 7 1 6 2 8 3 9 4 10 5 11 6 13 7 12 8 14 9 5 10 4 11 2 12 3 13
REMARK SMILES IDX 1 14
REMARK H PARENT
REMARK Flexibility Score: inf
ROOT
ATOM      1  C   UNL     1      54.653  69.659  33.366  1.00  0.00    -0.077 C 
ATOM      2  C   UNL     1      53.788  68.747  33.868  1.00  0.00    -0.028 C 
ATOM      3  C   UNL     1      56.134  69.598  33.662  1.00  0.00     0.039 C 
ENDROOT
BRANCH   1   4
ATOM      4  C   UNL     1      54.126  70.758  32.471  1.00  0.00     0.034 C 
BRANCH   4   5
ATOM      5  C   UNL     1      55.237  71.304  31.568  1.00  0.00     0.032 C 
BRANCH   5   6
ATOM      6  C   UNL     1      54.667  72.210  30.505  1.00  0.00    -0.028 C 
ATOM      7  C   UNL     1      54.647  70.415  28.759  1.00  0.00     0.039 C 
ATOM      8  C   UNL     1      54.372  71.819  29.246  1.00  0.00    -0.080 C 
ATOM      9  C   UNL     1      53.769  72.827  28.302  1.00  0.00     0.039 C 
ENDBRANCH   5   6
ENDBRANCH   4   5
ENDBRANCH   1   4
BRANCH   2  10
ATOM     10  C   UNL     1      54.173  67.633  34.809  1.00  0.00     0.035 C 
BRANCH  10  11
ATOM     11  C   UNL     1      53.054  66.591  34.902  1.00  0.00     0.079 C 
BRANCH  11  12
ATOM     12  C   UNL     1      53.618  65.197  34.837  1.00  0.00     0.130 C 
ATOM     13  O   UNL     1      54.600  64.977  34.144  1.00  0.00    -0.300 OA
ATOM     14  C   UNL     1      53.008  64.069  35.618  1.00  0.00     0.087 C 
ENDBRANCH  11  12
ENDBRANCH  10  11
ENDBRANCH   2  10
TORSDOF 6
ENDMDL
MODEL 9
REMARK VINA RESULT:    -4.400     13.663     16.215
REMARK INTER + INTRA:          -6.450
REMARK INTER:                  -5.246
REMARK INTRA:                  -1.204
REMARK UNBOUND:                -0.506
REMARK SMILES CC(=O)CCC=C(C)CCC=C(C)C
REMARK SMILES IDX 7 1 6 2 8 3 9 4 10 5 11 6 13 7 12 8 14 9 5 10 4 11 2 12 3 13
REMARK SMILES IDX 1 14
REMARK H PARENT
REMARK Flexibility Score: inf
ROOT
ATOM      1  C   UNL     1      69.289  68.078  30.188  1.00  0.00    -0.077 C 
ATOM      2  C   UNL     1      69.013  68.503  31.443  1.00  0.00    -0.028 C 
ATOM      3  C   UNL     1      68.212  67.542  29.273  1.00  0.00     0.039 C 
ENDROOT
BRANCH   1   4
ATOM      4  C   UNL     1      70.712  68.158  29.681  1.00  0.00     0.034 C 
BRANCH   4   5
ATOM      5  C   UNL     1      71.202  69.610  29.663  1.00  0.00     0.032 C 
BRANCH   5   6
ATOM      6  C   UNL     1      70.694  70.330  28.439  1.00  0.00    -0.028 C 
ATOM      7  C   UNL     1      69.195  71.845  29.755  1.00  0.00     0.039 C 
ATOM      8  C   UNL     1      69.812  71.353  28.466  1.00  0.00    -0.080 C 
ATOM      9  C   UNL     1      69.425  72.004  27.163  1.00  0.00     0.039 C 
ENDBRANCH   5   6
ENDBRANCH   4   5
ENDBRANCH   1   4
BRANCH   2  10
ATOM     10  C   UNL     1      67.651  68.433  32.087  1.00  0.00     0.035 C 
BRANCH  10  11
ATOM     11  C   UNL     1      67.588  67.287  33.100  1.00  0.00     0.079 C 
BRANCH  11  12
ATOM     12  C   UNL     1      67.249  65.989  32.416  1.00  0.00     0.130 C 
ATOM     13  O   UNL     1      66.128  65.828  31.957  1.00  0.00    -0.300 OA
ATOM     14  C   UNL     1      68.262  64.892  32.274  1.00  0.00     0.087 C 
ENDBRANCH  11  12
ENDBRANCH  10  11
ENDBRANCH   2  10
TORSDOF 6
ENDMDL
