MODEL 1
REMARK VINA RESULT:    -4.750      0.000      0.000
REMARK INTER + INTRA:          -4.750
REMARK INTER:                  -4.750
REMARK INTRA:                   0.000
REMARK UNBOUND:                 0.000
REMARK SMILES CC1=CC[C@H]2[C@H](C1)C2(C)C
REMARK SMILES IDX 1 1 2 2 3 3 4 4 5 5 6 6 7 7 8 8 9 9 10 10
REMARK H PARENT
REMARK Flexibility Score: inf
ROOT
ATOM      1  C   UNL     1      16.432  14.750  36.110  1.00  0.00     0.039 C 
ATOM      2  C   UNL     1      15.020  14.869  36.611  1.00  0.00    -0.077 C 
ATOM      3  C   UNL     1      14.500  16.106  36.865  1.00  0.00    -0.028 C 
ATOM      4  C   UNL     1      13.065  16.294  37.351  1.00  0.00     0.031 C 
ATOM      5  C   UNL     1      12.260  15.058  36.933  1.00  0.00     0.003 C 
ATOM      6  C   UNL     1      13.013  13.923  37.724  1.00  0.00     0.003 C 
ATOM      7  C   UNL     1      14.167  13.605  36.765  1.00  0.00     0.034 C 
ATOM      8  C   UNL     1      11.502  13.957  37.640  1.00  0.00    -0.029 C 
ATOM      9  C   UNL     1      10.748  14.379  38.904  1.00  0.00     0.012 C 
ATOM     10  C   UNL     1      10.864  12.878  36.762  1.00  0.00     0.012 C 
ENDROOT
TORSDOF 0
ENDMDL
MODEL 2
REMARK VINA RESULT:    -4.252      1.194      4.168
REMARK INTER + INTRA:          -4.252
REMARK INTER:                  -4.252
REMARK INTRA:                   0.000
REMARK UNBOUND:                 0.000
REMARK SMILES CC1=CC[C@H]2[C@H](C1)C2(C)C
REMARK SMILES IDX 1 1 2 2 3 3 4 4 5 5 6 6 7 7 8 8 9 9 10 10
REMARK H PARENT
REMARK Flexibility Score: inf
ROOT
ATOM      1  C   UNL     1      11.282  13.228  37.154  1.00  0.00     0.039 C 
ATOM      2  C   UNL     1      12.556  14.023  37.086  1.00  0.00    -0.077 C 
ATOM      3  C   UNL     1      13.728  13.388  36.787  1.00  0.00    -0.028 C 
ATOM      4  C   UNL     1      15.051  14.143  36.677  1.00  0.00     0.031 C 
ATOM      5  C   UNL     1      14.731  15.611  36.373  1.00  0.00     0.003 C 
ATOM      6  C   UNL     1      13.918  16.017  37.660  1.00  0.00     0.003 C 
ATOM      7  C   UNL     1      12.509  15.541  37.287  1.00  0.00     0.034 C 
ATOM      8  C   UNL     1      14.953  16.941  37.057  1.00  0.00    -0.029 C 
ATOM      9  C   UNL     1      16.278  17.084  37.812  1.00  0.00     0.012 C 
ATOM     10  C   UNL     1      14.402  18.184  36.355  1.00  0.00     0.012 C 
ENDROOT
TORSDOF 0
ENDMDL
MODEL 3
REMARK VINA RESULT:    -4.122      1.265      3.964
REMARK INTER + INTRA:          -4.122
REMARK INTER:                  -4.122
REMARK INTRA:                   0.000
REMARK UNBOUND:                 0.000
REMARK SMILES CC1=CC[C@H]2[C@H](C1)C2(C)C
REMARK SMILES IDX 1 1 2 2 3 3 4 4 5 5 6 6 7 7 8 8 9 9 10 10
REMARK H PARENT
REMARK Flexibility Score: inf
ROOT
ATOM      1  C   UNL     1      10.876  14.366  39.800  1.00  0.00     0.039 C 
ATOM      2  C   UNL     1      11.853  15.070  38.902  1.00  0.00    -0.077 C 
ATOM      3  C   UNL     1      12.058  16.411  39.054  1.00  0.00    -0.028 C 
ATOM      4  C   UNL     1      13.056  17.179  38.190  1.00  0.00     0.031 C 
ATOM      5  C   UNL     1      14.085  16.176  37.656  1.00  0.00     0.003 C 
ATOM      6  C   UNL     1      13.166  15.224  36.801  1.00  0.00     0.003 C 
ATOM      7  C   UNL     1      12.653  14.259  37.876  1.00  0.00     0.034 C 
ATOM      8  C   UNL     1      14.519  15.676  36.296  1.00  0.00    -0.029 C 
ATOM      9  C   UNL     1      14.527  16.722  35.178  1.00  0.00     0.012 C 
ATOM     10  C   UNL     1      15.607  14.600  36.266  1.00  0.00     0.012 C 
ENDROOT
TORSDOF 0
ENDMDL
MODEL 4
REMARK VINA RESULT:    -4.084     16.941     17.661
REMARK INTER + INTRA:          -4.084
REMARK INTER:                  -4.084
REMARK INTRA:                   0.000
REMARK UNBOUND:                 0.000
REMARK SMILES CC1=CC[C@H]2[C@H](C1)C2(C)C
REMARK SMILES IDX 1 1 2 2 3 3 4 4 5 5 6 6 7 7 8 8 9 9 10 10
REMARK H PARENT
REMARK Flexibility Score: inf
ROOT
ATOM      1  C   UNL     1       7.837  18.267  22.477  1.00  0.00     0.039 C 
ATOM      2  C   UNL     1       6.518  18.964  22.656  1.00  0.00    -0.077 C 
ATOM      3  C   UNL     1       6.459  20.111  23.394  1.00  0.00    -0.028 C 
ATOM      4  C   UNL     1       5.153  20.879  23.592  1.00  0.00     0.031 C 
ATOM      5  C   UNL     1       4.214  20.514  22.437  1.00  0.00     0.003 C 
ATOM      6  C   UNL     1       4.035  18.966  22.666  1.00  0.00     0.003 C 
ATOM      7  C   UNL     1       5.273  18.412  21.951  1.00  0.00     0.034 C 
ATOM      8  C   UNL     1       2.863  19.848  22.295  1.00  0.00    -0.029 C 
ATOM      9  C   UNL     1       1.853  20.160  23.402  1.00  0.00     0.012 C 
ATOM     10  C   UNL     1       2.323  19.666  20.875  1.00  0.00     0.012 C 
ENDROOT
TORSDOF 0
ENDMDL
MODEL 5
REMARK VINA RESULT:    -4.040     14.667     15.610
REMARK INTER + INTRA:          -4.040
REMARK INTER:                  -4.040
REMARK INTRA:                   0.000
REMARK UNBOUND:                 0.000
REMARK SMILES CC1=CC[C@H]2[C@H](C1)C2(C)C
REMARK SMILES IDX 1 1 2 2 3 3 4 4 5 5 6 6 7 7 8 8 9 9 10 10
REMARK H PARENT
REMARK Flexibility Score: inf
ROOT
ATOM      1  C   UNL     1       5.901  18.199  22.450  1.00  0.00     0.039 C 
ATOM      2  C   UNL     1       7.134  18.825  23.038  1.00  0.00    -0.077 C 
ATOM      3  C   UNL     1       7.052  19.471  24.238  1.00  0.00    -0.028 C 
ATOM      4  C   UNL     1       8.273  20.105  24.900  1.00  0.00     0.031 C 
ATOM      5  C   UNL     1       9.522  19.410  24.347  1.00  0.00     0.003 C 
ATOM      6  C   UNL     1       9.419  19.770  22.817  1.00  0.00     0.003 C 
ATOM      7  C   UNL     1       8.476  18.671  22.313  1.00  0.00     0.034 C 
ATOM      8  C   UNL     1      10.741  19.823  23.551  1.00  0.00    -0.029 C 
ATOM      9  C   UNL     1      11.300  21.211  23.872  1.00  0.00     0.012 C 
ATOM     10  C   UNL     1      11.741  18.722  23.191  1.00  0.00     0.012 C 
ENDROOT
TORSDOF 0
ENDMDL
MODEL 6
REMARK VINA RESULT:    -4.002     13.044     13.880
REMARK INTER + INTRA:          -4.002
REMARK INTER:                  -4.002
REMARK INTRA:                   0.000
REMARK UNBOUND:                 0.000
REMARK SMILES CC1=CC[C@H]2[C@H](C1)C2(C)C
REMARK SMILES IDX 1 1 2 2 3 3 4 4 5 5 6 6 7 7 8 8 9 9 10 10
REMARK H PARENT
REMARK Flexibility Score: inf
ROOT
ATOM      1  C   UNL     1       8.004  18.836  22.121  1.00  0.00     0.039 C 
ATOM      2  C   UNL     1       8.252  19.208  23.556  1.00  0.00    -0.077 C 
ATOM      3  C   UNL     1       7.191  19.470  24.375  1.00  0.00    -0.028 C 
ATOM      4  C   UNL     1       7.377  19.829  25.848  1.00  0.00     0.031 C 
ATOM      5  C   UNL     1       8.735  19.279  26.298  1.00  0.00     0.003 C 
ATOM      6  C   UNL     1       9.714  20.082  25.362  1.00  0.00     0.003 C 
ATOM      7  C   UNL     1       9.688  19.222  24.092  1.00  0.00     0.034 C 
ATOM      8  C   UNL     1      10.028  19.859  26.825  1.00  0.00    -0.029 C 
ATOM      9  C   UNL     1       9.881  21.065  27.756  1.00  0.00     0.012 C 
ATOM     10  C   UNL     1      11.164  18.875  27.115  1.00  0.00     0.012 C 
ENDROOT
TORSDOF 0
ENDMDL
MODEL 7
REMARK VINA RESULT:    -3.961     13.942     14.532
REMARK INTER + INTRA:          -3.961
REMARK INTER:                  -3.961
REMARK INTRA:                   0.000
REMARK UNBOUND:                 0.000
REMARK SMILES CC1=CC[C@H]2[C@H](C1)C2(C)C
REMARK SMILES IDX 1 1 2 2 3 3 4 4 5 5 6 6 7 7 8 8 9 9 10 10
REMARK H PARENT
REMARK Flexibility Score: inf
ROOT
ATOM      1  C   UNL     1      11.792  18.852  23.175  1.00  0.00     0.039 C 
ATOM      2  C   UNL     1      10.371  19.181  23.537  1.00  0.00    -0.077 C 
ATOM      3  C   UNL     1       9.399  19.103  22.581  1.00  0.00    -0.028 C 
ATOM      4  C   UNL     1       7.934  19.401  22.891  1.00  0.00     0.031 C 
ATOM      5  C   UNL     1       7.721  19.195  24.395  1.00  0.00     0.003 C 
ATOM      6  C   UNL     1       8.689  20.285  24.992  1.00  0.00     0.003 C 
ATOM      7  C   UNL     1      10.025  19.533  24.989  1.00  0.00     0.034 C 
ATOM      8  C   UNL     1       7.309  20.056  25.568  1.00  0.00    -0.029 C 
ATOM      9  C   UNL     1       6.248  21.119  25.268  1.00  0.00     0.012 C 
ATOM     10  C   UNL     1       7.270  19.385  26.943  1.00  0.00     0.012 C 
ENDROOT
TORSDOF 0
ENDMDL
MODEL 8
REMARK VINA RESULT:    -3.941     14.370     15.333
REMARK INTER + INTRA:          -3.941
REMARK INTER:                  -3.941
REMARK INTRA:                   0.000
REMARK UNBOUND:                 0.000
REMARK SMILES CC1=CC[C@H]2[C@H](C1)C2(C)C
REMARK SMILES IDX 1 1 2 2 3 3 4 4 5 5 6 6 7 7 8 8 9 9 10 10
REMARK H PARENT
REMARK Flexibility Score: inf
ROOT
ATOM      1  C   UNL     1       5.342  18.810  22.507  1.00  0.00     0.039 C 
ATOM      2  C   UNL     1       6.751  18.986  22.999  1.00  0.00    -0.077 C 
ATOM      3  C   UNL     1       7.793  18.638  22.188  1.00  0.00    -0.028 C 
ATOM      4  C   UNL     1       9.248  18.816  22.621  1.00  0.00     0.031 C 
ATOM      5  C   UNL     1       9.286  19.897  23.707  1.00  0.00     0.003 C 
ATOM      6  C   UNL     1       8.408  19.230  24.831  1.00  0.00     0.003 C 
ATOM      7  C   UNL     1       6.995  19.614  24.376  1.00  0.00     0.034 C 
ATOM      8  C   UNL     1       9.686  19.968  25.164  1.00  0.00    -0.029 C 
ATOM      9  C   UNL     1      10.895  19.116  25.560  1.00  0.00     0.012 C 
ATOM     10  C   UNL     1       9.508  21.315  25.869  1.00  0.00     0.012 C 
ENDROOT
TORSDOF 0
ENDMDL
