MODEL 1
REMARK VINA RESULT:    -3.842      0.000      0.000
REMARK INTER + INTRA:          -4.920
REMARK INTER:                  -5.415
REMARK INTRA:                   0.495
REMARK UNBOUND:                 0.495
REMARK SMILES CC1=CCC(=C(C)C)C(=O)CC(C)=CCC1
REMARK SMILES IDX 12 1 14 2 13 3 15 4 16 5 2 6 1 7 3 8 11 10 9 11 10 12 5 13
REMARK SMILES IDX 6 14 7 15 8 16 4 17
REMARK H PARENT
REMARK Flexibility Score: 60.00
ROOT
ATOM      1  C   UNL     1      45.311  58.092  27.685  1.00  0.00    -0.070 C 
ATOM      2  C   UNL     1      44.616  57.498  28.684  1.00  0.00    -0.027 C 
ATOM      3  C   UNL     1      46.732  58.507  27.978  1.00  0.00     0.039 C 
ENDROOT
BRANCH   2   4
ATOM      4  C   UNL     1      43.160  57.100  28.647  1.00  0.00     0.032 C 
BRANCH   4   5
ATOM      5  C   UNL     1      42.945  55.693  28.059  1.00  0.00     0.034 C 
BRANCH   5   6
ATOM      6  C   UNL     1      42.063  55.716  26.826  1.00  0.00    -0.077 C 
ATOM      7  C   UNL     1      40.583  55.941  27.010  1.00  0.00     0.039 C 
ATOM      8  C   UNL     1      42.529  55.572  25.565  1.00  0.00    -0.023 CG0
ATOM      9  G   UNL     1      43.975  55.375  25.177  1.00  0.00     0.000 G0
ENDBRANCH   5   6
ENDBRANCH   4   5
ENDBRANCH   2   4
BRANCH   1  10
ATOM     10  C   UNL     1      44.721  58.417  26.323  1.00  0.00     0.111 C 
BRANCH  10  11
ATOM     11  C   UNL     1      45.321  57.558  25.238  1.00  0.00     0.163 C 
ATOM     12  O   UNL     1      46.563  57.636  25.038  1.00  0.00    -0.294 OA
BRANCH  11  13
ATOM     13  C   UNL     1      44.496  56.594  24.445  1.00  0.00    -0.002 C 
ATOM     14  C   UNL     1      44.163  56.836  23.141  1.00  0.00    -0.069 C 
ATOM     15  C   UNL     1      44.548  58.125  22.451  1.00  0.00     0.039 C 
ATOM     16  C   UNL     1      43.361  55.837  22.334  1.00  0.00     0.039 C 
BRANCH  13  17
ATOM     17  C   UNL     1      43.979  55.366  25.173  1.00  0.00     0.066 CG0
ATOM     18  G   UNL     1      42.534  55.572  25.561  1.00  0.00     0.000 G0
ENDBRANCH  13  17
ENDBRANCH  11  13
ENDBRANCH  10  11
ENDBRANCH   1  10
TORSDOF 0
ENDMDL
MODEL 2
REMARK VINA RESULT:    -3.645      1.906      3.869
REMARK INTER + INTRA:          -4.642
REMARK INTER:                  -4.976
REMARK INTRA:                   0.333
REMARK UNBOUND:                 0.495
REMARK SMILES CC1=CCC(=C(C)C)C(=O)CC(C)=CCC1
REMARK SMILES IDX 12 1 14 2 13 3 15 4 16 5 2 6 1 7 3 8 11 10 9 11 10 12 5 13
REMARK SMILES IDX 6 14 7 15 8 16 4 17
REMARK H PARENT
REMARK Flexibility Score: 60.00
ROOT
ATOM      1  C   UNL     1      43.105  55.794  27.691  1.00  0.00    -0.070 C 
ATOM      2  C   UNL     1      43.475  56.764  28.561  1.00  0.00    -0.027 C 
ATOM      3  C   UNL     1      41.736  55.185  27.872  1.00  0.00     0.039 C 
ENDROOT
BRANCH   2   4
ATOM      4  C   UNL     1      44.827  57.432  28.631  1.00  0.00     0.032 C 
BRANCH   4   5
ATOM      5  C   UNL     1      44.964  58.600  27.635  1.00  0.00     0.034 C 
BRANCH   5   6
ATOM      6  C   UNL     1      46.224  58.495  26.799  1.00  0.00    -0.077 C 
ATOM      7  C   UNL     1      47.555  58.662  27.488  1.00  0.00     0.039 C 
ATOM      8  C   UNL     1      46.226  58.234  25.473  1.00  0.00    -0.023 CG0
ATOM      9  G   UNL     1      45.003  58.001  24.618  1.00  0.00     0.000 G0
ENDBRANCH   5   6
ENDBRANCH   4   5
ENDBRANCH   2   4
BRANCH   1  10
ATOM     10  C   UNL     1      44.009  55.248  26.599  1.00  0.00     0.111 C 
BRANCH  10  11
ATOM     11  C   UNL     1      43.702  55.873  25.260  1.00  0.00     0.163 C 
ATOM     12  O   UNL     1      42.501  55.896  24.878  1.00  0.00    -0.294 OA
BRANCH  11  13
ATOM     13  C   UNL     1      44.767  56.502  24.418  1.00  0.00    -0.002 C 
ATOM     14  C   UNL     1      45.543  55.761  23.570  1.00  0.00    -0.069 C 
ATOM     15  C   UNL     1      45.419  54.256  23.492  1.00  0.00     0.039 C 
ATOM     16  C   UNL     1      46.592  56.410  22.693  1.00  0.00     0.039 C 
BRANCH  13  17
ATOM     17  C   UNL     1      45.000  57.991  24.599  1.00  0.00     0.066 CG0
ATOM     18  G   UNL     1      46.225  58.217  25.452  1.00  0.00     0.000 G0
ENDBRANCH  13  17
ENDBRANCH  11  13
ENDBRANCH  10  11
ENDBRANCH   1  10
TORSDOF 0
ENDMDL
MODEL 3
REMARK VINA RESULT:    -3.484      1.982      3.791
REMARK INTER + INTRA:          -4.415
REMARK INTER:                  -4.794
REMARK INTRA:                   0.379
REMARK UNBOUND:                 0.495
REMARK SMILES CC1=CCC(=C(C)C)C(=O)CC(C)=CCC1
REMARK SMILES IDX 12 1 14 2 13 3 15 4 16 5 2 6 1 7 3 8 11 10 9 11 10 12 5 13
REMARK SMILES IDX 6 14 7 15 8 16 4 17
REMARK H PARENT
REMARK Flexibility Score: 60.00
ROOT
ATOM      1  C   UNL     1      43.616  56.894  27.643  1.00  0.00    -0.070 C 
ATOM      2  C   UNL     1      44.620  57.308  28.452  1.00  0.00    -0.027 C 
ATOM      3  C   UNL     1      42.552  56.015  28.252  1.00  0.00     0.039 C 
ENDROOT
BRANCH   2   4
ATOM      4  C   UNL     1      45.836  58.100  28.034  1.00  0.00     0.032 C 
BRANCH   4   5
ATOM      5  C   UNL     1      46.952  57.211  27.453  1.00  0.00     0.034 C 
BRANCH   5   6
ATOM      6  C   UNL     1      47.471  57.735  26.129  1.00  0.00    -0.077 C 
ATOM      7  C   UNL     1      48.301  58.994  26.135  1.00  0.00     0.039 C 
ATOM      8  C   UNL     1      47.254  57.126  24.942  1.00  0.00    -0.023 CG0
ATOM      9  G   UNL     1      46.482  55.844  24.738  1.00  0.00     0.000 G0
ENDBRANCH   5   6
ENDBRANCH   4   5
ENDBRANCH   2   4
BRANCH   1  10
ATOM     10  C   UNL     1      43.542  57.211  26.160  1.00  0.00     0.111 C 
BRANCH  10  11
ATOM     11  C   UNL     1      43.975  56.037  25.318  1.00  0.00     0.163 C 
ATOM     12  O   UNL     1      43.370  54.942  25.471  1.00  0.00    -0.294 OA
BRANCH  11  13
ATOM     13  C   UNL     1      45.052  56.157  24.286  1.00  0.00    -0.002 C 
ATOM     14  C   UNL     1      44.770  56.472  22.985  1.00  0.00    -0.069 C 
ATOM     15  C   UNL     1      43.347  56.643  22.502  1.00  0.00     0.039 C 
ATOM     16  C   UNL     1      45.869  56.630  21.956  1.00  0.00     0.039 C 
BRANCH  13  17
ATOM     17  C   UNL     1      46.469  55.841  24.728  1.00  0.00     0.066 CG0
ATOM     18  G   UNL     1      47.244  57.124  24.919  1.00  0.00     0.000 G0
ENDBRANCH  13  17
ENDBRANCH  11  13
ENDBRANCH  10  11
ENDBRANCH   1  10
TORSDOF 0
ENDMDL
MODEL 4
REMARK VINA RESULT:    -3.415      1.573      2.203
REMARK INTER + INTRA:          -4.317
REMARK INTER:                  -5.355
REMARK INTRA:                   1.038
REMARK UNBOUND:                 0.495
REMARK SMILES CC1=CCC(=C(C)C)C(=O)CC(C)=CCC1
REMARK SMILES IDX 12 1 14 2 13 3 15 4 16 5 2 6 1 7 3 8 11 10 9 11 10 12 5 13
REMARK SMILES IDX 6 14 7 15 8 16 4 17
REMARK H PARENT
REMARK Flexibility Score: 60.00
ROOT
ATOM      1  C   UNL     1      45.164  57.997  27.631  1.00  0.00    -0.070 C 
ATOM      2  C   UNL     1      44.481  57.484  28.681  1.00  0.00    -0.027 C 
ATOM      3  C   UNL     1      46.592  58.421  27.871  1.00  0.00     0.039 C 
ENDROOT
BRANCH   2   4
ATOM      4  C   UNL     1      43.022  57.096  28.695  1.00  0.00     0.032 C 
BRANCH   4   5
ATOM      5  C   UNL     1      42.801  55.608  28.364  1.00  0.00     0.034 C 
BRANCH   5   6
ATOM      6  C   UNL     1      42.428  55.393  26.910  1.00  0.00    -0.077 C 
ATOM      7  C   UNL     1      41.008  55.676  26.488  1.00  0.00     0.039 C 
ATOM      8  C   UNL     1      43.302  54.988  25.962  1.00  0.00    -0.023 CG0
ATOM      9  G   UNL     1      44.766  54.692  26.182  1.00  0.00     0.000 G0
ENDBRANCH   5   6
ENDBRANCH   4   5
ENDBRANCH   2   4
BRANCH   1  10
ATOM     10  C   UNL     1      44.556  58.224  26.257  1.00  0.00     0.111 C 
BRANCH  10  11
ATOM     11  C   UNL     1      44.894  57.103  25.307  1.00  0.00     0.163 C 
ATOM     12  O   UNL     1      44.585  57.241  24.092  1.00  0.00    -0.294 OA
BRANCH  11  13
ATOM     13  C   UNL     1      45.623  55.876  25.757  1.00  0.00    -0.002 C 
ATOM     14  C   UNL     1      46.988  55.798  25.723  1.00  0.00    -0.069 C 
ATOM     15  C   UNL     1      47.832  56.918  25.158  1.00  0.00     0.039 C 
ATOM     16  C   UNL     1      47.719  54.568  26.216  1.00  0.00     0.039 C 
BRANCH  13  17
ATOM     17  C   UNL     1      44.778  54.690  26.186  1.00  0.00     0.066 CG0
ATOM     18  G   UNL     1      43.317  54.992  25.954  1.00  0.00     0.000 G0
ENDBRANCH  13  17
ENDBRANCH  11  13
ENDBRANCH  10  11
ENDBRANCH   1  10
TORSDOF 0
ENDMDL
MODEL 5
REMARK VINA RESULT:    -3.405      1.573      3.691
REMARK INTER + INTRA:          -4.304
REMARK INTER:                  -5.038
REMARK INTRA:                   0.734
REMARK UNBOUND:                 0.495
REMARK SMILES CC1=CCC(=C(C)C)C(=O)CC(C)=CCC1
REMARK SMILES IDX 12 1 14 2 13 3 15 4 16 5 2 6 1 7 3 8 11 10 9 11 10 12 5 13
REMARK SMILES IDX 6 14 7 15 8 16 4 17
REMARK H PARENT
REMARK Flexibility Score: 60.00
ROOT
ATOM      1  C   UNL     1      42.300  55.872  27.720  1.00  0.00    -0.070 C 
ATOM      2  C   UNL     1      42.807  56.972  28.327  1.00  0.00    -0.027 C 
ATOM      3  C   UNL     1      40.819  55.857  27.435  1.00  0.00     0.039 C 
ENDROOT
BRANCH   2   4
ATOM      4  C   UNL     1      44.230  57.158  28.798  1.00  0.00     0.032 C 
BRANCH   4   5
ATOM      5  C   UNL     1      44.964  58.279  28.038  1.00  0.00     0.034 C 
BRANCH   5   6
ATOM      6  C   UNL     1      45.969  57.733  27.043  1.00  0.00    -0.077 C 
ATOM      7  C   UNL     1      47.414  57.639  27.465  1.00  0.00     0.039 C 
ATOM      8  C   UNL     1      45.642  57.300  25.805  1.00  0.00    -0.023 CG0
ATOM      9  G   UNL     1      44.251  57.281  25.217  1.00  0.00     0.000 G0
ENDBRANCH   5   6
ENDBRANCH   4   5
ENDBRANCH   2   4
BRANCH   1  10
ATOM     10  C   UNL     1      43.124  54.643  27.375  1.00  0.00     0.111 C 
BRANCH  10  11
ATOM     11  C   UNL     1      44.083  54.917  26.244  1.00  0.00     0.163 C 
ATOM     12  O   UNL     1      45.187  54.307  26.241  1.00  0.00    -0.294 OA
BRANCH  11  13
ATOM     13  C   UNL     1      43.737  55.839  25.118  1.00  0.00    -0.002 C 
ATOM     14  C   UNL     1      43.045  55.406  24.020  1.00  0.00    -0.069 C 
ATOM     15  C   UNL     1      42.657  53.954  23.851  1.00  0.00     0.039 C 
ATOM     16  C   UNL     1      42.666  56.354  22.903  1.00  0.00     0.039 C 
BRANCH  13  17
ATOM     17  C   UNL     1      44.251  57.264  25.210  1.00  0.00     0.066 CG0
ATOM     18  G   UNL     1      45.642  57.269  25.798  1.00  0.00     0.000 G0
ENDBRANCH  13  17
ENDBRANCH  11  13
ENDBRANCH  10  11
ENDBRANCH   1  10
TORSDOF 0
ENDMDL
MODEL 6
REMARK VINA RESULT:    -3.367      2.083      4.121
REMARK INTER + INTRA:          -4.249
REMARK INTER:                  -5.024
REMARK INTRA:                   0.774
REMARK UNBOUND:                 0.495
REMARK SMILES CC1=CCC(=C(C)C)C(=O)CC(C)=CCC1
REMARK SMILES IDX 12 1 14 2 13 3 15 4 16 5 2 6 1 7 3 8 11 10 9 11 10 12 5 13
REMARK SMILES IDX 6 14 7 15 8 16 4 17
REMARK H PARENT
REMARK Flexibility Score: 60.00
ROOT
ATOM      1  C   UNL     1      43.643  56.930  27.629  1.00  0.00    -0.070 C 
ATOM      2  C   UNL     1      44.566  57.641  28.320  1.00  0.00    -0.027 C 
ATOM      3  C   UNL     1      42.924  55.825  28.363  1.00  0.00     0.039 C 
ENDROOT
BRANCH   2   4
ATOM      4  C   UNL     1      45.471  58.712  27.762  1.00  0.00     0.032 C 
BRANCH   4   5
ATOM      5  C   UNL     1      46.946  58.269  27.702  1.00  0.00     0.034 C 
BRANCH   5   6
ATOM      6  C   UNL     1      47.367  57.866  26.302  1.00  0.00    -0.077 C 
ATOM      7  C   UNL     1      48.118  58.871  25.465  1.00  0.00     0.039 C 
ATOM      8  C   UNL     1      47.131  56.648  25.768  1.00  0.00    -0.023 CG0
ATOM      9  G   UNL     1      46.430  55.503  26.460  1.00  0.00     0.000 G0
ENDBRANCH   5   6
ENDBRANCH   4   5
ENDBRANCH   2   4
BRANCH   1  10
ATOM     10  C   UNL     1      43.344  57.142  26.155  1.00  0.00     0.111 C 
BRANCH  10  11
ATOM     11  C   UNL     1      44.328  56.408  25.277  1.00  0.00     0.163 C 
ATOM     12  O   UNL     1      44.526  56.847  24.113  1.00  0.00    -0.294 OA
BRANCH  11  13
ATOM     13  C   UNL     1      45.097  55.223  25.771  1.00  0.00    -0.002 C 
ATOM     14  C   UNL     1      44.600  53.953  25.675  1.00  0.00    -0.069 C 
ATOM     15  C   UNL     1      43.213  53.683  25.135  1.00  0.00     0.039 C 
ATOM     16  C   UNL     1      45.401  52.756  26.142  1.00  0.00     0.039 C 
BRANCH  13  17
ATOM     17  C   UNL     1      46.427  55.498  26.450  1.00  0.00     0.066 CG0
ATOM     18  G   UNL     1      47.120  56.655  25.770  1.00  0.00     0.000 G0
ENDBRANCH  13  17
ENDBRANCH  11  13
ENDBRANCH  10  11
ENDBRANCH   1  10
TORSDOF 0
ENDMDL
MODEL 7
REMARK VINA RESULT:    -3.273      1.866      3.051
REMARK INTER + INTRA:          -4.117
REMARK INTER:                  -4.779
REMARK INTRA:                   0.663
REMARK UNBOUND:                 0.495
REMARK SMILES CC1=CCC(=C(C)C)C(=O)CC(C)=CCC1
REMARK SMILES IDX 12 1 14 2 13 3 15 4 16 5 2 6 1 7 3 8 11 10 9 11 10 12 5 13
REMARK SMILES IDX 6 14 7 15 8 16 4 17
REMARK H PARENT
REMARK Flexibility Score: 60.00
ROOT
ATOM      1  C   UNL     1      43.598  57.021  27.815  1.00  0.00    -0.070 C 
ATOM      2  C   UNL     1      42.537  56.202  27.617  1.00  0.00    -0.027 C 
ATOM      3  C   UNL     1      44.146  57.120  29.217  1.00  0.00     0.039 C 
ENDROOT
BRANCH   2   4
ATOM      4  C   UNL     1      41.768  56.032  26.329  1.00  0.00     0.032 C 
BRANCH   4   5
ATOM      5  C   UNL     1      41.902  54.614  25.742  1.00  0.00     0.034 C 
BRANCH   5   6
ATOM      6  C   UNL     1      42.871  53.756  26.532  1.00  0.00    -0.077 C 
ATOM      7  C   UNL     1      42.317  52.864  27.614  1.00  0.00     0.039 C 
ATOM      8  C   UNL     1      44.204  53.724  26.306  1.00  0.00    -0.023 CG0
ATOM      9  G   UNL     1      44.937  54.514  25.249  1.00  0.00     0.000 G0
ENDBRANCH   5   6
ENDBRANCH   4   5
ENDBRANCH   2   4
BRANCH   1  10
ATOM     10  C   UNL     1      44.215  57.883  26.727  1.00  0.00     0.111 C 
BRANCH  10  11
ATOM     11  C   UNL     1      44.747  57.045  25.590  1.00  0.00     0.163 C 
ATOM     12  O   UNL     1      44.568  57.460  24.413  1.00  0.00    -0.294 OA
BRANCH  11  13
ATOM     13  C   UNL     1      45.516  55.784  25.828  1.00  0.00    -0.002 C 
ATOM     14  C   UNL     1      46.712  55.786  26.493  1.00  0.00    -0.069 C 
ATOM     15  C   UNL     1      47.358  57.072  26.957  1.00  0.00     0.039 C 
ATOM     16  C   UNL     1      47.465  54.501  26.763  1.00  0.00     0.039 C 
BRANCH  13  17
ATOM     17  C   UNL     1      44.949  54.507  25.236  1.00  0.00     0.066 CG0
ATOM     18  G   UNL     1      44.214  53.731  26.303  1.00  0.00     0.000 G0
ENDBRANCH  13  17
ENDBRANCH  11  13
ENDBRANCH  10  11
ENDBRANCH   1  10
TORSDOF 0
ENDMDL
MODEL 8
REMARK VINA RESULT:    -3.213      1.585      2.048
REMARK INTER + INTRA:          -4.032
REMARK INTER:                  -4.831
REMARK INTRA:                   0.798
REMARK UNBOUND:                 0.495
REMARK SMILES CC1=CCC(=C(C)C)C(=O)CC(C)=CCC1
REMARK SMILES IDX 12 1 14 2 13 3 15 4 16 5 2 6 1 7 3 8 11 10 9 11 10 12 5 13
REMARK SMILES IDX 6 14 7 15 8 16 4 17
REMARK H PARENT
REMARK Flexibility Score: 60.00
ROOT
ATOM      1  C   UNL     1      46.582  57.809  27.459  1.00  0.00    -0.070 C 
ATOM      2  C   UNL     1      45.498  58.097  28.219  1.00  0.00    -0.027 C 
ATOM      3  C   UNL     1      47.344  58.969  26.869  1.00  0.00     0.039 C 
ENDROOT
BRANCH   2   4
ATOM      4  C   UNL     1      44.535  57.100  28.816  1.00  0.00     0.032 C 
BRANCH   4   5
ATOM      5  C   UNL     1      43.145  57.147  28.154  1.00  0.00     0.034 C 
BRANCH   5   6
ATOM      6  C   UNL     1      42.905  55.961  27.241  1.00  0.00    -0.077 C 
ATOM      7  C   UNL     1      42.137  54.783  27.787  1.00  0.00     0.039 C 
ATOM      8  C   UNL     1      43.317  55.906  25.955  1.00  0.00    -0.023 CG0
ATOM      9  G   UNL     1      44.064  56.994  25.222  1.00  0.00     0.000 G0
ENDBRANCH   5   6
ENDBRANCH   4   5
ENDBRANCH   2   4
BRANCH   1  10
ATOM     10  C   UNL     1      47.025  56.396  27.121  1.00  0.00     0.111 C 
BRANCH  10  11
ATOM     11  C   UNL     1      46.159  55.783  26.049  1.00  0.00     0.163 C 
ATOM     12  O   UNL     1      45.952  54.540  26.092  1.00  0.00    -0.294 OA
BRANCH  11  13
ATOM     13  C   UNL     1      45.509  56.612  24.986  1.00  0.00    -0.002 C 
ATOM     14  C   UNL     1      46.206  57.061  23.899  1.00  0.00    -0.069 C 
ATOM     15  C   UNL     1      47.689  56.808  23.748  1.00  0.00     0.039 C 
ATOM     16  C   UNL     1      45.532  57.867  22.809  1.00  0.00     0.039 C 
BRANCH  13  17
ATOM     17  C   UNL     1      44.057  56.997  25.203  1.00  0.00     0.066 CG0
ATOM     18  G   UNL     1      43.344  55.900  25.958  1.00  0.00     0.000 G0
ENDBRANCH  13  17
ENDBRANCH  11  13
ENDBRANCH  10  11
ENDBRANCH   1  10
TORSDOF 0
ENDMDL
MODEL 9
REMARK VINA RESULT:    -3.206      1.737      3.042
REMARK INTER + INTRA:          -4.023
REMARK INTER:                  -4.608
REMARK INTRA:                   0.585
REMARK UNBOUND:                 0.495
REMARK SMILES CC1=CCC(=C(C)C)C(=O)CC(C)=CCC1
REMARK SMILES IDX 12 1 14 2 13 3 15 4 16 5 2 6 1 7 3 8 11 10 9 11 10 12 5 13
REMARK SMILES IDX 6 14 7 15 8 16 4 17
REMARK H PARENT
REMARK Flexibility Score: 60.00
ROOT
ATOM      1  C   UNL     1      43.848  57.162  27.880  1.00  0.00    -0.070 C 
ATOM      2  C   UNL     1      42.996  56.278  27.307  1.00  0.00    -0.027 C 
ATOM      3  C   UNL     1      43.963  57.141  29.384  1.00  0.00     0.039 C 
ENDROOT
BRANCH   2   4
ATOM      4  C   UNL     1      42.648  56.194  25.840  1.00  0.00     0.032 C 
BRANCH   4   5
ATOM      5  C   UNL     1      42.949  54.809  25.238  1.00  0.00     0.034 C 
BRANCH   5   6
ATOM      6  C   UNL     1      44.391  54.392  25.453  1.00  0.00    -0.077 C 
ATOM      7  C   UNL     1      44.659  53.062  26.113  1.00  0.00     0.039 C 
ATOM      8  C   UNL     1      45.453  55.132  25.065  1.00  0.00    -0.023 CG0
ATOM      9  G   UNL     1      45.388  56.466  24.361  1.00  0.00     0.000 G0
ENDBRANCH   5   6
ENDBRANCH   4   5
ENDBRANCH   2   4
BRANCH   1  10
ATOM     10  C   UNL     1      44.634  58.202  27.101  1.00  0.00     0.111 C 
BRANCH  10  11
ATOM     11  C   UNL     1      45.937  57.643  26.585  1.00  0.00     0.163 C 
ATOM     12  O   UNL     1      46.788  57.248  27.427  1.00  0.00    -0.294 OA
BRANCH  11  13
ATOM     13  C   UNL     1      46.214  57.501  25.122  1.00  0.00    -0.002 C 
ATOM     14  C   UNL     1      47.114  58.306  24.479  1.00  0.00    -0.069 C 
ATOM     15  C   UNL     1      47.824  59.432  25.196  1.00  0.00     0.039 C 
ATOM     16  C   UNL     1      47.416  58.131  23.006  1.00  0.00     0.039 C 
BRANCH  13  17
ATOM     17  C   UNL     1      45.397  56.472  24.362  1.00  0.00     0.066 CG0
ATOM     18  G   UNL     1      45.457  55.143  25.076  1.00  0.00     0.000 G0
ENDBRANCH  13  17
ENDBRANCH  11  13
ENDBRANCH  10  11
ENDBRANCH   1  10
TORSDOF 0
ENDMDL
