MODEL 1
REMARK VINA RESULT:    -4.355      0.000      0.000
REMARK INTER + INTRA:         -11.517
REMARK INTER:                  -9.193
REMARK INTRA:                  -2.324
REMARK UNBOUND:                -2.324
REMARK SMILES CCC(=O)CCCCC[C@H]1NC(=O)[C@@H]2CCCCN2C(=O)[C@H]([C@H](C)CC)NC(=O)[C@H](Cc2cn(OC)c3ccccc23)NC1=O
REMARK SMILES IDX 9 1 10 2 44 3 43 4 45 6 30 7 28 8 27 9 29 11 22 12 23 14
REMARK SMILES IDX 24 15 25 16 26 17 31 18 32 19 33 20 42 21 34 22 37 23 41 24
REMARK SMILES IDX 38 25 40 26 39 27 35 28 36 29 11 30 12 31 13 33 14 34 19 35
REMARK SMILES IDX 15 36 18 37 16 38 17 39 20 40 21 41 8 43 7 44 6 45 5 46 3 47
REMARK SMILES IDX 4 48 2 49 1 50
REMARK H PARENT 43 5 27 10 11 32
REMARK Flexibility Score: 80.00
ROOT
ATOM      1  C   UNL     1      61.614  26.339  50.473  1.00  0.00     0.035 C 
ENDROOT
BRANCH   1   2
ATOM      2  C   UNL     1      62.453  27.465  49.825  1.00  0.00     0.171 C 
BRANCH   2   3
ATOM      3  C   UNL     1      63.732  26.993  49.192  1.00  0.00     0.243 C 
ATOM      4  N   UNL     1      64.314  27.777  48.154  1.00  0.00    -0.342 N 
ATOM      5  H   UNL     1      63.657  28.301  47.536  1.00  0.00     0.164 HD
ATOM      6  O   UNL     1      64.356  26.000  49.647  1.00  0.00    -0.273 OA
BRANCH   4   7
ATOM      7  C   UNL     1      65.648  28.341  48.343  1.00  0.00     0.175 C 
BRANCH   7   8
ATOM      8  C   UNL     1      65.563  29.532  49.280  1.00  0.00     0.243 C 
ATOM      9  N   UNL     1      64.862  30.715  48.862  1.00  0.00    -0.342 N 
ATOM     10  H   UNL     1      64.396  30.673  47.924  1.00  0.00     0.164 HD
ATOM     11  O   UNL     1      66.118  29.482  50.403  1.00  0.00    -0.273 OA
BRANCH   9  12
ATOM     12  C   UNL     1      64.765  31.983  49.604  1.00  0.00     0.174 CG0
ATOM     13  G   UNL     1      63.317  32.473  49.805  1.00  0.00     0.000 G0
BRANCH  12  14
ATOM     14  C   UNL     1      65.982  32.952  49.366  1.00  0.00     0.018 C 
ATOM     15  C   UNL     1      66.753  32.695  48.059  1.00  0.00     0.010 C 
BRANCH  14  16
ATOM     16  C   UNL     1      66.924  33.319  50.538  1.00  0.00     0.002 C 
ATOM     17  C   UNL     1      68.177  34.106  50.188  1.00  0.00     0.004 C 
ENDBRANCH  14  16
ENDBRANCH  12  14
ENDBRANCH   9  12
ENDBRANCH   7   8
BRANCH   7  18
ATOM     18  C   UNL     1      66.317  28.648  46.977  1.00  0.00     0.073 C 
BRANCH  18  19
ATOM     19  C   UNL     1      67.536  27.828  46.650  1.00  0.00    -0.016 A 
ATOM     20  C   UNL     1      67.561  26.443  46.503  1.00  0.00     0.134 A 
ATOM     21  C   UNL     1      68.848  28.249  46.473  1.00  0.00     0.006 A 
ATOM     22  N   UNL     1      68.830  26.027  46.280  1.00  0.00    -0.191 N 
ATOM     23  C   UNL     1      69.604  27.122  46.261  1.00  0.00     0.087 A 
ATOM     24  C   UNL     1      69.424  29.520  46.455  1.00  0.00     0.011 A 
ATOM     25  C   UNL     1      70.979  27.182  46.050  1.00  0.00     0.030 A 
ATOM     26  C   UNL     1      70.809  29.612  46.234  1.00  0.00     0.001 A 
ATOM     27  C   UNL     1      71.583  28.452  46.038  1.00  0.00     0.002 A 
BRANCH  22  28
ATOM     28  O   UNL     1      69.278  24.731  46.115  1.00  0.00    -0.417 OA
ATOM     29  C   UNL     1      68.679  23.630  46.791  1.00  0.00     0.313 C 
ENDBRANCH  22  28
ENDBRANCH  18  19
ENDBRANCH   7  18
ENDBRANCH   4   7
ENDBRANCH   2   3
BRANCH   2  30
ATOM     30  N   UNL     1      62.740  28.532  50.797  1.00  0.00    -0.343 N 
ATOM     31  C   UNL     1      62.055  29.799  50.832  1.00  0.00     0.243 C 
ATOM     32  H   UNL     1      63.491  28.347  51.505  1.00  0.00     0.164 HD
ATOM     33  O   UNL     1      61.010  29.981  50.145  1.00  0.00    -0.273 OA
BRANCH  31  34
ATOM     34  C   UNL     1      62.581  30.949  51.658  1.00  0.00     0.174 C 
ATOM     35  N   UNL     1      62.441  32.260  50.955  1.00  0.00    -0.329 N 
ATOM     36  C   UNL     1      61.950  30.927  53.073  1.00  0.00     0.035 C 
ATOM     37  C   UNL     1      62.247  33.450  51.803  1.00  0.00     0.120 C 
ATOM     38  C   UNL     1      62.332  32.143  53.944  1.00  0.00     0.004 C 
ATOM     39  C   UNL     1      62.956  33.289  53.150  1.00  0.00     0.022 C 
BRANCH  35  40
ATOM     40  C   UNL     1      63.285  32.452  49.792  1.00  0.00     0.246 CG0
ATOM     41  O   UNL     1      62.799  33.111  48.829  1.00  0.00    -0.272 OA
ATOM     42  G   UNL     1      64.742  31.974  49.638  1.00  0.00     0.000 G0
ENDBRANCH  35  40
ENDBRANCH  31  34
ENDBRANCH   2  30
ENDBRANCH   1   2
BRANCH   1  43
ATOM     43  C   UNL     1      60.179  26.198  49.917  1.00  0.00     0.003 C 
BRANCH  43  44
ATOM     44  C   UNL     1      59.298  25.139  50.617  1.00  0.00     0.001 C 
BRANCH  44  45
ATOM     45  C   UNL     1      58.292  25.696  51.644  1.00  0.00     0.008 C 
BRANCH  45  46
ATOM     46  C   UNL     1      56.843  25.254  51.389  1.00  0.00     0.075 C 
BRANCH  46  47
ATOM     47  C   UNL     1      56.091  26.233  50.526  1.00  0.00     0.132 C 
ATOM     48  O   UNL     1      55.352  25.813  49.643  1.00  0.00    -0.300 OA
BRANCH  47  49
ATOM     49  C   UNL     1      56.214  27.717  50.749  1.00  0.00     0.072 C 
ATOM     50  C   UNL     1      55.934  28.070  52.208  1.00  0.00     0.012 C 
ENDBRANCH  47  49
ENDBRANCH  46  47
ENDBRANCH  45  46
ENDBRANCH  44  45
ENDBRANCH  43  44
ENDBRANCH   1  43
TORSDOF 12
ENDMDL
MODEL 2
REMARK VINA RESULT:    -4.315     10.975     15.099
REMARK INTER + INTRA:         -11.433
REMARK INTER:                  -8.886
REMARK INTRA:                  -2.547
REMARK UNBOUND:                -2.324
REMARK SMILES CCC(=O)CCCCC[C@H]1NC(=O)[C@@H]2CCCCN2C(=O)[C@H]([C@H](C)CC)NC(=O)[C@H](Cc2cn(OC)c3ccccc23)NC1=O
REMARK SMILES IDX 9 1 10 2 44 3 43 4 45 6 30 7 28 8 27 9 29 11 22 12 23 14
REMARK SMILES IDX 24 15 25 16 26 17 31 18 32 19 33 20 42 21 34 22 37 23 41 24
REMARK SMILES IDX 38 25 40 26 39 27 35 28 36 29 11 30 12 31 13 33 14 34 19 35
REMARK SMILES IDX 15 36 18 37 16 38 17 39 20 40 21 41 8 43 7 44 6 45 5 46 3 47
REMARK SMILES IDX 4 48 2 49 1 50
REMARK H PARENT 43 5 27 10 11 32
REMARK Flexibility Score: 80.00
ROOT
ATOM      1  C   UNL     1      64.662  25.731  58.950  1.00  0.00     0.035 C 
ENDROOT
BRANCH   1   2
ATOM      2  C   UNL     1      64.529  26.030  60.461  1.00  0.00     0.171 C 
BRANCH   2   3
ATOM      3  C   UNL     1      63.869  24.934  61.250  1.00  0.00     0.243 C 
ATOM      4  N   UNL     1      62.822  25.273  62.153  1.00  0.00    -0.342 N 
ATOM      5  H   UNL     1      62.886  26.204  62.619  1.00  0.00     0.164 HD
ATOM      6  O   UNL     1      64.135  23.724  61.030  1.00  0.00    -0.273 OA
BRANCH   4   7
ATOM      7  C   UNL     1      61.486  24.722  61.944  1.00  0.00     0.175 C 
BRANCH   7   8
ATOM      8  C   UNL     1      60.773  25.523  60.870  1.00  0.00     0.243 C 
ATOM      9  N   UNL     1      60.224  26.811  61.191  1.00  0.00    -0.342 N 
ATOM     10  H   UNL     1      60.391  27.157  62.167  1.00  0.00     0.164 HD
ATOM     11  O   UNL     1      60.654  25.048  59.715  1.00  0.00    -0.273 OA
BRANCH   9  12
ATOM     12  C   UNL     1      59.428  27.671  60.300  1.00  0.00     0.174 CG0
ATOM     13  G   UNL     1      60.101  29.019  59.977  1.00  0.00     0.000 G0
BRANCH  12  14
ATOM     14  C   UNL     1      57.873  27.500  60.476  1.00  0.00     0.018 C 
ATOM     15  C   UNL     1      57.439  27.047  61.882  1.00  0.00     0.010 C 
BRANCH  14  16
ATOM     16  C   UNL     1      57.034  26.831  59.362  1.00  0.00     0.002 C 
ATOM     17  C   UNL     1      57.537  26.993  57.936  1.00  0.00     0.004 C 
ENDBRANCH  14  16
ENDBRANCH  12  14
ENDBRANCH   9  12
ENDBRANCH   7   8
BRANCH   7  18
ATOM     18  C   UNL     1      60.712  24.621  63.285  1.00  0.00     0.073 C 
BRANCH  18  19
ATOM     19  C   UNL     1      60.742  23.273  63.955  1.00  0.00    -0.016 A 
ATOM     20  C   UNL     1      59.656  22.410  64.079  1.00  0.00     0.134 A 
ATOM     21  C   UNL     1      61.800  22.644  64.599  1.00  0.00     0.006 A 
ATOM     22  N   UNL     1      60.017  21.318  64.795  1.00  0.00    -0.191 N 
ATOM     23  C   UNL     1      61.313  21.464  65.106  1.00  0.00     0.087 A 
ATOM     24  C   UNL     1      63.140  23.000  64.756  1.00  0.00     0.011 A 
ATOM     25  C   UNL     1      62.116  20.579  65.823  1.00  0.00     0.030 A 
ATOM     26  C   UNL     1      63.976  22.123  65.467  1.00  0.00     0.001 A 
ATOM     27  C   UNL     1      63.468  20.923  66.002  1.00  0.00     0.002 A 
BRANCH  22  28
ATOM     28  O   UNL     1      59.223  20.250  65.164  1.00  0.00    -0.417 OA
ATOM     29  C   UNL     1      58.123  19.814  64.373  1.00  0.00     0.313 C 
ENDBRANCH  22  28
ENDBRANCH  18  19
ENDBRANCH   7  18
ENDBRANCH   4   7
ENDBRANCH   2   3
BRANCH   2  30
ATOM     30  N   UNL     1      63.822  27.301  60.684  1.00  0.00    -0.343 N 
ATOM     31  C   UNL     1      63.069  27.996  59.670  1.00  0.00     0.243 C 
ATOM     32  H   UNL     1      63.874  27.718  61.644  1.00  0.00     0.164 HD
ATOM     33  O   UNL     1      62.802  27.432  58.572  1.00  0.00    -0.273 OA
BRANCH  31  34
ATOM     34  C   UNL     1      62.610  29.420  59.876  1.00  0.00     0.174 C 
ATOM     35  N   UNL     1      61.335  29.495  60.653  1.00  0.00    -0.329 N 
ATOM     36  C   UNL     1      63.757  30.273  60.473  1.00  0.00     0.035 C 
ATOM     37  C   UNL     1      61.140  30.692  61.493  1.00  0.00     0.120 C 
ATOM     38  C   UNL     1      63.337  31.713  60.840  1.00  0.00     0.004 C 
ATOM     39  C   UNL     1      61.824  31.914  60.877  1.00  0.00     0.022 C 
BRANCH  35  40
ATOM     40  C   UNL     1      60.150  29.003  59.980  1.00  0.00     0.246 CG0
ATOM     41  O   UNL     1      59.703  29.693  59.020  1.00  0.00    -0.272 OA
ATOM     42  G   UNL     1      59.410  27.686  60.288  1.00  0.00     0.000 G0
ENDBRANCH  35  40
ENDBRANCH  31  34
ENDBRANCH   2  30
ENDBRANCH   1   2
BRANCH   1  43
ATOM     43  C   UNL     1      66.099  25.833  58.392  1.00  0.00     0.003 C 
BRANCH  43  44
ATOM     44  C   UNL     1      67.162  25.000  59.141  1.00  0.00     0.001 C 
BRANCH  44  45
ATOM     45  C   UNL     1      67.908  25.746  60.266  1.00  0.00     0.008 C 
BRANCH  45  46
ATOM     46  C   UNL     1      68.500  27.093  59.824  1.00  0.00     0.075 C 
BRANCH  46  47
ATOM     47  C   UNL     1      68.130  28.213  60.762  1.00  0.00     0.132 C 
ATOM     48  O   UNL     1      66.961  28.573  60.837  1.00  0.00    -0.300 OA
BRANCH  47  49
ATOM     49  C   UNL     1      69.169  28.878  61.625  1.00  0.00     0.072 C 
ATOM     50  C   UNL     1      70.495  28.999  60.878  1.00  0.00     0.012 C 
ENDBRANCH  47  49
ENDBRANCH  46  47
ENDBRANCH  45  46
ENDBRANCH  44  45
ENDBRANCH  43  44
ENDBRANCH   1  43
TORSDOF 12
ENDMDL
MODEL 3
REMARK VINA RESULT:    -4.288     11.376     16.035
REMARK INTER + INTRA:         -11.374
REMARK INTER:                  -8.658
REMARK INTRA:                  -2.716
REMARK UNBOUND:                -2.324
REMARK SMILES CCC(=O)CCCCC[C@H]1NC(=O)[C@@H]2CCCCN2C(=O)[C@H]([C@H](C)CC)NC(=O)[C@H](Cc2cn(OC)c3ccccc23)NC1=O
REMARK SMILES IDX 9 1 10 2 44 3 43 4 45 6 30 7 28 8 27 9 29 11 22 12 23 14
REMARK SMILES IDX 24 15 25 16 26 17 31 18 32 19 33 20 42 21 34 22 37 23 41 24
REMARK SMILES IDX 38 25 40 26 39 27 35 28 36 29 11 30 12 31 13 33 14 34 19 35
REMARK SMILES IDX 15 36 18 37 16 38 17 39 20 40 21 41 8 43 7 44 6 45 5 46 3 47
REMARK SMILES IDX 4 48 2 49 1 50
REMARK H PARENT 43 5 27 10 11 32
REMARK Flexibility Score: 80.00
ROOT
ATOM      1  C   UNL     1      63.414  27.875  60.974  1.00  0.00     0.035 C 
ENDROOT
BRANCH   1   2
ATOM      2  C   UNL     1      62.177  27.152  61.554  1.00  0.00     0.171 C 
BRANCH   2   3
ATOM      3  C   UNL     1      62.473  25.800  62.139  1.00  0.00     0.243 C 
ATOM      4  N   UNL     1      61.612  25.287  63.152  1.00  0.00    -0.342 N 
ATOM      5  H   UNL     1      61.174  25.983  63.794  1.00  0.00     0.164 HD
ATOM      6  O   UNL     1      63.379  25.068  61.663  1.00  0.00    -0.273 OA
BRANCH   4   7
ATOM      7  C   UNL     1      60.880  24.047  62.912  1.00  0.00     0.175 C 
BRANCH   7   8
ATOM      8  C   UNL     1      59.742  24.313  61.944  1.00  0.00     0.243 C 
ATOM      9  N   UNL     1      58.671  25.189  62.332  1.00  0.00    -0.342 N 
ATOM     10  H   UNL     1      58.760  25.646  63.271  1.00  0.00     0.164 HD
ATOM     11  O   UNL     1      59.735  23.754  60.822  1.00  0.00    -0.273 OA
BRANCH   9  12
ATOM     12  C   UNL     1      57.453  25.480  61.556  1.00  0.00     0.174 CG0
ATOM     13  G   UNL     1      57.156  26.986  61.413  1.00  0.00     0.000 G0
BRANCH  12  14
ATOM     14  C   UNL     1      56.331  24.387  61.703  1.00  0.00     0.018 C 
ATOM     15  C   UNL     1      55.343  24.329  60.525  1.00  0.00     0.010 C 
BRANCH  14  16
ATOM     16  C   UNL     1      55.630  24.171  63.066  1.00  0.00     0.002 C 
ATOM     17  C   UNL     1      55.700  22.773  63.659  1.00  0.00     0.004 C 
ENDBRANCH  14  16
ENDBRANCH  12  14
ENDBRANCH   9  12
ENDBRANCH   7   8
BRANCH   7  18
ATOM     18  C   UNL     1      60.441  23.395  64.250  1.00  0.00     0.073 C 
BRANCH  18  19
ATOM     19  C   UNL     1      60.731  21.924  64.383  1.00  0.00    -0.016 A 
ATOM     20  C   UNL     1      61.960  21.318  64.134  1.00  0.00     0.134 A 
ATOM     21  C   UNL     1      59.867  20.892  64.729  1.00  0.00     0.006 A 
ATOM     22  N   UNL     1      61.851  19.976  64.284  1.00  0.00    -0.191 N 
ATOM     23  C   UNL     1      60.585  19.725  64.645  1.00  0.00     0.087 A 
ATOM     24  C   UNL     1      58.530  20.893  65.130  1.00  0.00     0.011 A 
ATOM     25  C   UNL     1      60.015  18.484  64.923  1.00  0.00     0.030 A 
ATOM     26  C   UNL     1      57.931  19.657  65.427  1.00  0.00     0.001 A 
ATOM     27  C   UNL     1      58.665  18.460  65.320  1.00  0.00     0.002 A 
BRANCH  22  28
ATOM     28  O   UNL     1      62.831  19.022  64.095  1.00  0.00    -0.417 OA
ATOM     29  C   UNL     1      64.064  19.050  64.805  1.00  0.00     0.313 C 
ENDBRANCH  22  28
ENDBRANCH  18  19
ENDBRANCH   7  18
ENDBRANCH   4   7
ENDBRANCH   2   3
BRANCH   2  30
ATOM     30  N   UNL     1      61.113  27.037  60.543  1.00  0.00    -0.343 N 
ATOM     31  C   UNL     1      59.977  27.921  60.462  1.00  0.00     0.243 C 
ATOM     32  H   UNL     1      61.198  26.262  59.843  1.00  0.00     0.164 HD
ATOM     33  O   UNL     1      59.944  28.985  61.141  1.00  0.00    -0.273 OA
BRANCH  31  34
ATOM     34  C   UNL     1      58.788  27.584  59.594  1.00  0.00     0.174 C 
ATOM     35  N   UNL     1      57.491  27.874  60.277  1.00  0.00    -0.329 N 
ATOM     36  C   UNL     1      58.928  28.259  58.206  1.00  0.00     0.035 C 
ATOM     37  C   UNL     1      56.358  28.258  59.415  1.00  0.00     0.120 C 
ATOM     38  C   UNL     1      57.693  28.076  57.298  1.00  0.00     0.004 C 
ATOM     39  C   UNL     1      56.455  27.583  58.044  1.00  0.00     0.022 C 
BRANCH  35  40
ATOM     40  C   UNL     1      57.159  27.022  61.402  1.00  0.00     0.246 CG0
ATOM     41  O   UNL     1      56.522  27.549  62.358  1.00  0.00    -0.272 OA
ATOM     42  G   UNL     1      57.464  25.515  61.521  1.00  0.00     0.000 G0
ENDBRANCH  35  40
ENDBRANCH  31  34
ENDBRANCH   2  30
ENDBRANCH   1   2
BRANCH   1  43
ATOM     43  C   UNL     1      63.216  28.465  59.559  1.00  0.00     0.003 C 
BRANCH  43  44
ATOM     44  C   UNL     1      63.360  29.999  59.454  1.00  0.00     0.001 C 
BRANCH  44  45
ATOM     45  C   UNL     1      62.978  30.783  60.726  1.00  0.00     0.008 C 
BRANCH  45  46
ATOM     46  C   UNL     1      61.834  31.786  60.511  1.00  0.00     0.075 C 
BRANCH  46  47
ATOM     47  C   UNL     1      62.313  33.214  60.554  1.00  0.00     0.132 C 
ATOM     48  O   UNL     1      61.494  34.125  60.497  1.00  0.00    -0.300 OA
BRANCH  47  49
ATOM     49  C   UNL     1      63.776  33.539  60.692  1.00  0.00     0.072 C 
ATOM     50  C   UNL     1      64.300  34.223  59.432  1.00  0.00     0.012 C 
ENDBRANCH  47  49
ENDBRANCH  46  47
ENDBRANCH  45  46
ENDBRANCH  44  45
ENDBRANCH  43  44
ENDBRANCH   1  43
TORSDOF 12
ENDMDL
MODEL 4
REMARK VINA RESULT:    -4.260      9.505     14.095
REMARK INTER + INTRA:         -11.315
REMARK INTER:                  -9.532
REMARK INTRA:                  -1.783
REMARK UNBOUND:                -2.324
REMARK SMILES CCC(=O)CCCCC[C@H]1NC(=O)[C@@H]2CCCCN2C(=O)[C@H]([C@H](C)CC)NC(=O)[C@H](Cc2cn(OC)c3ccccc23)NC1=O
REMARK SMILES IDX 9 1 10 2 44 3 43 4 45 6 30 7 28 8 27 9 29 11 22 12 23 14
REMARK SMILES IDX 24 15 25 16 26 17 31 18 32 19 33 20 42 21 34 22 37 23 41 24
REMARK SMILES IDX 38 25 40 26 39 27 35 28 36 29 11 30 12 31 13 33 14 34 19 35
REMARK SMILES IDX 15 36 18 37 16 38 17 39 20 40 21 41 8 43 7 44 6 45 5 46 3 47
REMARK SMILES IDX 4 48 2 49 1 50
REMARK H PARENT 43 5 27 10 11 32
REMARK Flexibility Score: 80.00
ROOT
ATOM      1  C   UNL     1      65.948  29.119  60.015  1.00  0.00     0.035 C 
ENDROOT
BRANCH   1   2
ATOM      2  C   UNL     1      64.884  29.322  61.118  1.00  0.00     0.171 C 
BRANCH   2   3
ATOM      3  C   UNL     1      63.795  28.285  61.121  1.00  0.00     0.243 C 
ATOM      4  N   UNL     1      62.446  28.707  61.291  1.00  0.00    -0.342 N 
ATOM      5  H   UNL     1      62.287  29.547  61.889  1.00  0.00     0.164 HD
ATOM      6  O   UNL     1      64.042  27.081  60.850  1.00  0.00    -0.273 OA
BRANCH   4   7
ATOM      7  C   UNL     1      61.475  28.450  60.231  1.00  0.00     0.175 C 
BRANCH   7   8
ATOM      8  C   UNL     1      61.696  29.432  59.095  1.00  0.00     0.243 C 
ATOM      9  N   UNL     1      61.124  30.747  59.172  1.00  0.00    -0.342 N 
ATOM     10  H   UNL     1      60.608  30.980  60.055  1.00  0.00     0.164 HD
ATOM     11  O   UNL     1      62.362  29.083  58.092  1.00  0.00    -0.273 OA
BRANCH   9  12
ATOM     12  C   UNL     1      61.164  31.783  58.126  1.00  0.00     0.174 CG0
ATOM     13  G   UNL     1      62.061  32.986  58.478  1.00  0.00     0.000 G0
BRANCH  12  14
ATOM     14  C   UNL     1      59.824  31.912  57.310  1.00  0.00     0.018 C 
ATOM     15  C   UNL     1      58.609  31.237  57.973  1.00  0.00     0.010 C 
BRANCH  14  16
ATOM     16  C   UNL     1      59.829  31.727  55.774  1.00  0.00     0.002 C 
ATOM     17  C   UNL     1      60.203  30.348  55.251  1.00  0.00     0.004 C 
ENDBRANCH  14  16
ENDBRANCH  12  14
ENDBRANCH   9  12
ENDBRANCH   7   8
BRANCH   7  18
ATOM     18  C   UNL     1      60.029  28.441  60.795  1.00  0.00     0.073 C 
BRANCH  18  19
ATOM     19  C   UNL     1      59.494  27.093  61.194  1.00  0.00    -0.016 A 
ATOM     20  C   UNL     1      60.228  25.909  61.222  1.00  0.00     0.134 A 
ATOM     21  C   UNL     1      58.202  26.742  61.566  1.00  0.00     0.006 A 
ATOM     22  N   UNL     1      59.422  24.875  61.560  1.00  0.00    -0.191 N 
ATOM     23  C   UNL     1      58.199  25.384  61.768  1.00  0.00     0.087 A 
ATOM     24  C   UNL     1      57.051  27.505  61.765  1.00  0.00     0.011 A 
ATOM     25  C   UNL     1      57.050  24.695  62.150  1.00  0.00     0.030 A 
ATOM     26  C   UNL     1      55.879  26.839  62.160  1.00  0.00     0.001 A 
ATOM     27  C   UNL     1      55.875  25.443  62.346  1.00  0.00     0.002 A 
BRANCH  22  28
ATOM     28  O   UNL     1      59.759  23.540  61.665  1.00  0.00    -0.417 OA
ATOM     29  C   UNL     1      60.141  22.764  60.534  1.00  0.00     0.313 C 
ENDBRANCH  22  28
ENDBRANCH  18  19
ENDBRANCH   7  18
ENDBRANCH   4   7
ENDBRANCH   2   3
BRANCH   2  30
ATOM     30  N   UNL     1      64.292  30.667  61.037  1.00  0.00    -0.343 N 
ATOM     31  C   UNL     1      64.459  31.556  59.914  1.00  0.00     0.243 C 
ATOM     32  H   UNL     1      63.715  30.988  61.850  1.00  0.00     0.164 HD
ATOM     33  O   UNL     1      64.961  31.136  58.834  1.00  0.00    -0.273 OA
BRANCH  31  34
ATOM     34  C   UNL     1      64.072  33.012  60.008  1.00  0.00     0.174 C 
ATOM     35  N   UNL     1      62.603  33.219  59.832  1.00  0.00    -0.329 N 
ATOM     36  C   UNL     1      64.640  33.637  61.308  1.00  0.00     0.035 C 
ATOM     37  C   UNL     1      62.004  34.364  60.542  1.00  0.00     0.120 C 
ATOM     38  C   UNL     1      64.183  35.091  61.551  1.00  0.00     0.004 C 
ATOM     39  C   UNL     1      63.005  35.514  60.677  1.00  0.00     0.022 C 
BRANCH  35  40
ATOM     40  C   UNL     1      62.078  32.962  58.505  1.00  0.00     0.246 CG0
ATOM     41  O   UNL     1      62.448  33.738  57.578  1.00  0.00    -0.272 OA
ATOM     42  G   UNL     1      61.152  31.797  58.103  1.00  0.00     0.000 G0
ENDBRANCH  35  40
ENDBRANCH  31  34
ENDBRANCH   2  30
ENDBRANCH   1   2
BRANCH   1  43
ATOM     43  C   UNL     1      67.029  28.064  60.342  1.00  0.00     0.003 C 
BRANCH  43  44
ATOM     44  C   UNL     1      68.358  28.625  60.893  1.00  0.00     0.001 C 
BRANCH  44  45
ATOM     45  C   UNL     1      69.628  28.134  60.169  1.00  0.00     0.008 C 
BRANCH  45  46
ATOM     46  C   UNL     1      70.434  29.261  59.506  1.00  0.00     0.075 C 
BRANCH  46  47
ATOM     47  C   UNL     1      71.596  29.707  60.355  1.00  0.00     0.132 C 
ATOM     48  O   UNL     1      72.496  28.914  60.607  1.00  0.00    -0.300 OA
BRANCH  47  49
ATOM     49  C   UNL     1      71.682  31.117  60.876  1.00  0.00     0.072 C 
ATOM     50  C   UNL     1      72.362  32.029  59.857  1.00  0.00     0.012 C 
ENDBRANCH  47  49
ENDBRANCH  46  47
ENDBRANCH  45  46
ENDBRANCH  44  45
ENDBRANCH  43  44
ENDBRANCH   1  43
TORSDOF 12
ENDMDL
MODEL 5
REMARK VINA RESULT:    -4.239      9.482     12.577
REMARK INTER + INTRA:         -11.272
REMARK INTER:                  -8.938
REMARK INTRA:                  -2.334
REMARK UNBOUND:                -2.324
REMARK SMILES CCC(=O)CCCCC[C@H]1NC(=O)[C@@H]2CCCCN2C(=O)[C@H]([C@H](C)CC)NC(=O)[C@H](Cc2cn(OC)c3ccccc23)NC1=O
REMARK SMILES IDX 9 1 10 2 44 3 43 4 45 6 30 7 28 8 27 9 29 11 22 12 23 14
REMARK SMILES IDX 24 15 25 16 26 17 31 18 32 19 33 20 42 21 34 22 37 23 41 24
REMARK SMILES IDX 38 25 40 26 39 27 35 28 36 29 11 30 12 31 13 33 14 34 19 35
REMARK SMILES IDX 15 36 18 37 16 38 17 39 20 40 21 41 8 43 7 44 6 45 5 46 3 47
REMARK SMILES IDX 4 48 2 49 1 50
REMARK H PARENT 43 5 27 10 11 32
REMARK Flexibility Score: 80.00
ROOT
ATOM      1  C   UNL     1      62.424  29.707  59.410  1.00  0.00     0.035 C 
ENDROOT
BRANCH   1   2
ATOM      2  C   UNL     1      63.294  29.406  60.652  1.00  0.00     0.171 C 
BRANCH   2   3
ATOM      3  C   UNL     1      64.733  29.815  60.510  1.00  0.00     0.243 C 
ATOM      4  N   UNL     1      65.748  28.832  60.696  1.00  0.00    -0.342 N 
ATOM      5  H   UNL     1      65.547  28.075  61.385  1.00  0.00     0.164 HD
ATOM      6  O   UNL     1      65.046  30.964  60.105  1.00  0.00    -0.273 OA
BRANCH   4   7
ATOM      7  C   UNL     1      66.647  28.510  59.592  1.00  0.00     0.175 C 
BRANCH   7   8
ATOM      8  C   UNL     1      66.094  27.325  58.822  1.00  0.00     0.243 C 
ATOM      9  N   UNL     1      65.952  26.055  59.479  1.00  0.00    -0.342 N 
ATOM     10  H   UNL     1      66.202  26.027  60.496  1.00  0.00     0.164 HD
ATOM     11  O   UNL     1      65.782  27.458  57.615  1.00  0.00    -0.273 OA
BRANCH   9  12
ATOM     12  C   UNL     1      65.523  24.790  58.858  1.00  0.00     0.174 CG0
ATOM     13  G   UNL     1      64.185  24.254  59.404  1.00  0.00     0.000 G0
BRANCH  12  14
ATOM     14  C   UNL     1      66.717  23.860  58.425  1.00  0.00     0.018 C 
ATOM     15  C   UNL     1      67.900  23.845  59.409  1.00  0.00     0.010 C 
BRANCH  14  16
ATOM     16  C   UNL     1      67.183  23.830  56.950  1.00  0.00     0.002 C 
ATOM     17  C   UNL     1      66.267  24.487  55.929  1.00  0.00     0.004 C 
ENDBRANCH  14  16
ENDBRANCH  12  14
ENDBRANCH   9  12
ENDBRANCH   7   8
BRANCH   7  18
ATOM     18  C   UNL     1      68.101  28.320  60.099  1.00  0.00     0.073 C 
BRANCH  18  19
ATOM     19  C   UNL     1      69.104  29.320  59.590  1.00  0.00    -0.016 A 
ATOM     20  C   UNL     1      68.956  30.100  58.445  1.00  0.00     0.134 A 
ATOM     21  C   UNL     1      70.356  29.638  60.102  1.00  0.00     0.006 A 
ATOM     22  N   UNL     1      70.074  30.837  58.243  1.00  0.00    -0.191 N 
ATOM     23  C   UNL     1      70.915  30.555  59.247  1.00  0.00     0.087 A 
ATOM     24  C   UNL     1      71.025  29.217  61.252  1.00  0.00     0.011 A 
ATOM     25  C   UNL     1      72.184  31.089  59.463  1.00  0.00     0.030 A 
ATOM     26  C   UNL     1      72.303  29.746  61.500  1.00  0.00     0.001 A 
ATOM     27  C   UNL     1      72.882  30.671  60.610  1.00  0.00     0.002 A 
BRANCH  22  28
ATOM     28  O   UNL     1      70.334  31.709  57.204  1.00  0.00    -0.417 OA
ATOM     29  C   UNL     1      69.517  31.767  56.040  1.00  0.00     0.313 C 
ENDBRANCH  22  28
ENDBRANCH  18  19
ENDBRANCH   7  18
ENDBRANCH   4   7
ENDBRANCH   2   3
BRANCH   2  30
ATOM     30  N   UNL     1      63.212  27.983  61.018  1.00  0.00    -0.343 N 
ATOM     31  C   UNL     1      62.741  26.947  60.132  1.00  0.00     0.243 C 
ATOM     32  H   UNL     1      63.520  27.717  61.984  1.00  0.00     0.164 HD
ATOM     33  O   UNL     1      62.566  27.185  58.905  1.00  0.00    -0.273 OA
BRANCH  31  34
ATOM     34  C   UNL     1      62.415  25.567  60.650  1.00  0.00     0.174 C 
ATOM     35  N   UNL     1      63.620  24.685  60.706  1.00  0.00    -0.329 N 
ATOM     36  C   UNL     1      61.648  25.664  61.994  1.00  0.00     0.035 C 
ATOM     37  C   UNL     1      63.637  23.650  61.757  1.00  0.00     0.120 C 
ATOM     38  C   UNL     1      61.388  24.297  62.662  1.00  0.00     0.004 C 
ATOM     39  C   UNL     1      62.221  23.162  62.072  1.00  0.00     0.022 C 
BRANCH  35  40
ATOM     40  C   UNL     1      64.178  24.288  59.428  1.00  0.00     0.246 CG0
ATOM     41  O   UNL     1      63.487  23.506  58.715  1.00  0.00    -0.272 OA
ATOM     42  G   UNL     1      65.514  24.771  58.830  1.00  0.00     0.000 G0
ENDBRANCH  35  40
ENDBRANCH  31  34
ENDBRANCH   2  30
ENDBRANCH   1   2
BRANCH   1  43
ATOM     43  C   UNL     1      61.267  30.702  59.654  1.00  0.00     0.003 C 
BRANCH  43  44
ATOM     44  C   UNL     1      61.600  31.893  60.579  1.00  0.00     0.001 C 
BRANCH  44  45
ATOM     45  C   UNL     1      61.483  33.285  59.925  1.00  0.00     0.008 C 
BRANCH  45  46
ATOM     46  C   UNL     1      62.826  34.021  59.797  1.00  0.00     0.075 C 
BRANCH  46  47
ATOM     47  C   UNL     1      62.875  35.270  60.637  1.00  0.00     0.132 C 
ATOM     48  O   UNL     1      61.913  36.030  60.642  1.00  0.00    -0.300 OA
BRANCH  47  49
ATOM     49  C   UNL     1      64.074  35.585  61.491  1.00  0.00     0.072 C 
ATOM     50  C   UNL     1      64.945  34.345  61.679  1.00  0.00     0.012 C 
ENDBRANCH  47  49
ENDBRANCH  46  47
ENDBRANCH  45  46
ENDBRANCH  44  45
ENDBRANCH  43  44
ENDBRANCH   1  43
TORSDOF 12
ENDMDL
MODEL 6
REMARK VINA RESULT:    -4.218     10.335     12.920
REMARK INTER + INTRA:         -11.227
REMARK INTER:                  -8.786
REMARK INTRA:                  -2.440
REMARK UNBOUND:                -2.324
REMARK SMILES CCC(=O)CCCCC[C@H]1NC(=O)[C@@H]2CCCCN2C(=O)[C@H]([C@H](C)CC)NC(=O)[C@H](Cc2cn(OC)c3ccccc23)NC1=O
REMARK SMILES IDX 9 1 10 2 44 3 43 4 45 6 30 7 28 8 27 9 29 11 22 12 23 14
REMARK SMILES IDX 24 15 25 16 26 17 31 18 32 19 33 20 42 21 34 22 37 23 41 24
REMARK SMILES IDX 38 25 40 26 39 27 35 28 36 29 11 30 12 31 13 33 14 34 19 35
REMARK SMILES IDX 15 36 18 37 16 38 17 39 20 40 21 41 8 43 7 44 6 45 5 46 3 47
REMARK SMILES IDX 4 48 2 49 1 50
REMARK H PARENT 43 5 27 10 11 32
REMARK Flexibility Score: 80.00
ROOT
ATOM      1  C   UNL     1      62.066  30.024  60.264  1.00  0.00     0.035 C 
ENDROOT
BRANCH   1   2
ATOM      2  C   UNL     1      62.973  29.562  61.429  1.00  0.00     0.171 C 
BRANCH   2   3
ATOM      3  C   UNL     1      64.421  29.931  61.264  1.00  0.00     0.243 C 
ATOM      4  N   UNL     1      65.417  28.984  61.638  1.00  0.00    -0.342 N 
ATOM      5  H   UNL     1      65.188  28.351  62.435  1.00  0.00     0.164 HD
ATOM      6  O   UNL     1      64.760  30.997  60.687  1.00  0.00    -0.273 OA
BRANCH   4   7
ATOM      7  C   UNL     1      66.343  28.479  60.628  1.00  0.00     0.175 C 
BRANCH   7   8
ATOM      8  C   UNL     1      65.616  27.501  59.723  1.00  0.00     0.243 C 
ATOM      9  N   UNL     1      65.509  26.122  60.108  1.00  0.00    -0.342 N 
ATOM     10  H   UNL     1      65.911  25.867  61.042  1.00  0.00     0.164 HD
ATOM     11  O   UNL     1      65.129  27.901  58.639  1.00  0.00    -0.273 OA
BRANCH   9  12
ATOM     12  C   UNL     1      64.924  25.032  59.310  1.00  0.00     0.174 CG0
ATOM     13  G   UNL     1      63.543  24.568  59.813  1.00  0.00     0.000 G0
BRANCH  12  14
ATOM     14  C   UNL     1      65.991  24.056  58.690  1.00  0.00     0.018 C 
ATOM     15  C   UNL     1      66.312  22.828  59.562  1.00  0.00     0.010 C 
BRANCH  14  16
ATOM     16  C   UNL     1      67.252  24.624  57.993  1.00  0.00     0.002 C 
ATOM     17  C   UNL     1      68.554  24.556  58.775  1.00  0.00     0.004 C 
ENDBRANCH  14  16
ENDBRANCH  12  14
ENDBRANCH   9  12
ENDBRANCH   7   8
BRANCH   7  18
ATOM     18  C   UNL     1      67.624  27.906  61.289  1.00  0.00     0.073 C 
BRANCH  18  19
ATOM     19  C   UNL     1      68.924  28.491  60.805  1.00  0.00    -0.016 A 
ATOM     20  C   UNL     1      69.908  29.050  61.617  1.00  0.00     0.134 A 
ATOM     21  C   UNL     1      69.385  28.632  59.502  1.00  0.00     0.006 A 
ATOM     22  N   UNL     1      70.911  29.542  60.850  1.00  0.00    -0.191 N 
ATOM     23  C   UNL     1      70.591  29.286  59.574  1.00  0.00     0.087 A 
ATOM     24  C   UNL     1      68.858  28.218  58.278  1.00  0.00     0.011 A 
ATOM     25  C   UNL     1      71.333  29.597  58.437  1.00  0.00     0.030 A 
ATOM     26  C   UNL     1      69.590  28.510  57.114  1.00  0.00     0.001 A 
ATOM     27  C   UNL     1      70.816  29.199  57.191  1.00  0.00     0.002 A 
BRANCH  22  28
ATOM     28  O   UNL     1      72.050  30.200  61.270  1.00  0.00    -0.417 OA
ATOM     29  C   UNL     1      73.114  29.527  61.936  1.00  0.00     0.313 C 
ENDBRANCH  22  28
ENDBRANCH  18  19
ENDBRANCH   7  18
ENDBRANCH   4   7
ENDBRANCH   2   3
BRANCH   2  30
ATOM     30  N   UNL     1      62.848  28.113  61.649  1.00  0.00    -0.343 N 
ATOM     31  C   UNL     1      62.145  27.219  60.763  1.00  0.00     0.243 C 
ATOM     32  H   UNL     1      63.305  27.716  62.505  1.00  0.00     0.164 HD
ATOM     33  O   UNL     1      61.768  27.612  59.624  1.00  0.00    -0.273 OA
BRANCH  31  34
ATOM     34  C   UNL     1      61.811  25.807  61.183  1.00  0.00     0.174 C 
ATOM     35  N   UNL     1      63.006  24.911  61.150  1.00  0.00    -0.329 N 
ATOM     36  C   UNL     1      61.071  25.812  62.545  1.00  0.00     0.035 C 
ATOM     37  C   UNL     1      63.030  23.800  62.120  1.00  0.00     0.120 C 
ATOM     38  C   UNL     1      60.806  24.402  63.115  1.00  0.00     0.004 C 
ATOM     39  C   UNL     1      61.615  23.305  62.426  1.00  0.00     0.022 C 
BRANCH  35  40
ATOM     40  C   UNL     1      63.535  24.604  59.836  1.00  0.00     0.246 CG0
ATOM     41  O   UNL     1      62.773  23.989  59.036  1.00  0.00    -0.272 OA
ATOM     42  G   UNL     1      64.924  25.004  59.298  1.00  0.00     0.000 G0
ENDBRANCH  35  40
ENDBRANCH  31  34
ENDBRANCH   2  30
ENDBRANCH   1   2
BRANCH   1  43
ATOM     43  C   UNL     1      61.282  31.329  60.531  1.00  0.00     0.003 C 
BRANCH  43  44
ATOM     44  C   UNL     1      61.803  32.579  59.789  1.00  0.00     0.001 C 
BRANCH  44  45
ATOM     45  C   UNL     1      62.153  33.779  60.691  1.00  0.00     0.008 C 
BRANCH  45  46
ATOM     46  C   UNL     1      63.038  34.830  60.003  1.00  0.00     0.075 C 
BRANCH  46  47
ATOM     47  C   UNL     1      64.492  34.435  59.995  1.00  0.00     0.132 C 
ATOM     48  O   UNL     1      65.108  34.386  61.054  1.00  0.00    -0.300 OA
BRANCH  47  49
ATOM     49  C   UNL     1      65.192  34.074  58.712  1.00  0.00     0.072 C 
ATOM     50  C   UNL     1      66.349  35.032  58.439  1.00  0.00     0.012 C 
ENDBRANCH  47  49
ENDBRANCH  46  47
ENDBRANCH  45  46
ENDBRANCH  44  45
ENDBRANCH  43  44
ENDBRANCH   1  43
TORSDOF 12
ENDMDL
MODEL 7
REMARK VINA RESULT:    -4.174      4.437      6.090
REMARK INTER + INTRA:         -11.135
REMARK INTER:                  -8.257
REMARK INTRA:                  -2.878
REMARK UNBOUND:                -2.324
REMARK SMILES CCC(=O)CCCCC[C@H]1NC(=O)[C@@H]2CCCCN2C(=O)[C@H]([C@H](C)CC)NC(=O)[C@H](Cc2cn(OC)c3ccccc23)NC1=O
REMARK SMILES IDX 9 1 10 2 44 3 43 4 45 6 30 7 28 8 27 9 29 11 22 12 23 14
REMARK SMILES IDX 24 15 25 16 26 17 31 18 32 19 33 20 42 21 34 22 37 23 41 24
REMARK SMILES IDX 38 25 40 26 39 27 35 28 36 29 11 30 12 31 13 33 14 34 19 35
REMARK SMILES IDX 15 36 18 37 16 38 17 39 20 40 21 41 8 43 7 44 6 45 5 46 3 47
REMARK SMILES IDX 4 48 2 49 1 50
REMARK H PARENT 43 5 27 10 11 32
REMARK Flexibility Score: 80.00
ROOT
ATOM      1  C   UNL     1      61.026  27.358  52.065  1.00  0.00     0.035 C 
ENDROOT
BRANCH   1   2
ATOM      2  C   UNL     1      60.537  28.468  51.107  1.00  0.00     0.171 C 
BRANCH   2   3
ATOM      3  C   UNL     1      61.638  29.165  50.359  1.00  0.00     0.243 C 
ATOM      4  N   UNL     1      61.562  30.576  50.180  1.00  0.00    -0.342 N 
ATOM      5  H   UNL     1      60.608  30.987  50.087  1.00  0.00     0.164 HD
ATOM      6  O   UNL     1      62.677  28.548  50.007  1.00  0.00    -0.273 OA
BRANCH   4   7
ATOM      7  C   UNL     1      62.604  31.429  50.744  1.00  0.00     0.175 C 
BRANCH   7   8
ATOM      8  C   UNL     1      62.436  31.500  52.251  1.00  0.00     0.243 C 
ATOM      9  N   UNL     1      61.442  32.371  52.814  1.00  0.00    -0.342 N 
ATOM     10  H   UNL     1      60.839  32.891  52.132  1.00  0.00     0.164 HD
ATOM     11  O   UNL     1      63.177  30.812  52.993  1.00  0.00    -0.273 OA
BRANCH   9  12
ATOM     12  C   UNL     1      61.212  32.628  54.246  1.00  0.00     0.174 CG0
ATOM     13  G   UNL     1      59.844  32.132  54.752  1.00  0.00     0.000 G0
BRANCH  12  14
ATOM     14  C   UNL     1      61.908  33.937  54.775  1.00  0.00     0.018 C 
ATOM     15  C   UNL     1      61.840  35.130  53.805  1.00  0.00     0.010 C 
BRANCH  14  16
ATOM     16  C   UNL     1      63.272  33.851  55.501  1.00  0.00     0.002 C 
ATOM     17  C   UNL     1      63.577  32.555  56.235  1.00  0.00     0.004 C 
ENDBRANCH  14  16
ENDBRANCH  12  14
ENDBRANCH   9  12
ENDBRANCH   7   8
BRANCH   7  18
ATOM     18  C   UNL     1      62.631  32.811  50.039  1.00  0.00     0.073 C 
BRANCH  18  19
ATOM     19  C   UNL     1      64.000  33.363  49.742  1.00  0.00    -0.016 A 
ATOM     20  C   UNL     1      64.616  33.365  48.493  1.00  0.00     0.134 A 
ATOM     21  C   UNL     1      64.920  33.929  50.616  1.00  0.00     0.006 A 
ATOM     22  N   UNL     1      65.866  33.875  48.598  1.00  0.00    -0.191 N 
ATOM     23  C   UNL     1      66.044  34.215  49.882  1.00  0.00     0.087 A 
ATOM     24  C   UNL     1      64.847  34.234  51.976  1.00  0.00     0.011 A 
ATOM     25  C   UNL     1      67.176  34.792  50.455  1.00  0.00     0.030 A 
ATOM     26  C   UNL     1      65.969  34.825  52.579  1.00  0.00     0.001 A 
ATOM     27  C   UNL     1      67.128  35.098  51.827  1.00  0.00     0.002 A 
BRANCH  22  28
ATOM     28  O   UNL     1      66.807  34.016  47.596  1.00  0.00    -0.417 OA
ATOM     29  C   UNL     1      66.508  34.654  46.359  1.00  0.00     0.313 C 
ENDBRANCH  22  28
ENDBRANCH  18  19
ENDBRANCH   7  18
ENDBRANCH   4   7
ENDBRANCH   2   3
BRANCH   2  30
ATOM     30  N   UNL     1      59.718  29.458  51.825  1.00  0.00    -0.343 N 
ATOM     31  C   UNL     1      59.453  29.413  53.242  1.00  0.00     0.243 C 
ATOM     32  H   UNL     1      59.307  30.241  51.262  1.00  0.00     0.164 HD
ATOM     33  O   UNL     1      60.095  28.621  53.988  1.00  0.00    -0.273 OA
BRANCH  31  34
ATOM     34  C   UNL     1      58.386  30.281  53.865  1.00  0.00     0.174 C 
ATOM     35  N   UNL     1      58.756  31.729  53.848  1.00  0.00    -0.329 N 
ATOM     36  C   UNL     1      57.007  29.981  53.224  1.00  0.00     0.035 C 
ATOM     37  C   UNL     1      57.646  32.696  53.757  1.00  0.00     0.120 C 
ATOM     38  C   UNL     1      55.879  30.915  53.710  1.00  0.00     0.004 C 
ATOM     39  C   UNL     1      56.388  32.156  54.440  1.00  0.00     0.022 C 
BRANCH  35  40
ATOM     40  C   UNL     1      59.853  32.116  54.714  1.00  0.00     0.246 CG0
ATOM     41  O   UNL     1      59.682  31.979  55.959  1.00  0.00    -0.272 OA
ATOM     42  G   UNL     1      61.233  32.628  54.258  1.00  0.00     0.000 G0
ENDBRANCH  35  40
ENDBRANCH  31  34
ENDBRANCH   2  30
ENDBRANCH   1   2
BRANCH   1  43
ATOM     43  C   UNL     1      60.686  25.918  51.617  1.00  0.00     0.003 C 
BRANCH  43  44
ATOM     44  C   UNL     1      60.173  25.779  50.166  1.00  0.00     0.001 C 
BRANCH  44  45
ATOM     45  C   UNL     1      58.729  25.258  50.028  1.00  0.00     0.008 C 
BRANCH  45  46
ATOM     46  C   UNL     1      57.770  25.808  51.095  1.00  0.00     0.075 C 
BRANCH  46  47
ATOM     47  C   UNL     1      56.415  26.142  50.526  1.00  0.00     0.132 C 
ATOM     48  O   UNL     1      55.752  25.260  49.993  1.00  0.00    -0.300 OA
BRANCH  47  49
ATOM     49  C   UNL     1      55.853  27.535  50.627  1.00  0.00     0.072 C 
ATOM     50  C   UNL     1      54.346  27.529  50.382  1.00  0.00     0.012 C 
ENDBRANCH  47  49
ENDBRANCH  46  47
ENDBRANCH  45  46
ENDBRANCH  44  45
ENDBRANCH  43  44
ENDBRANCH   1  43
TORSDOF 12
ENDMDL
MODEL 8
REMARK VINA RESULT:    -4.137      2.980      5.096
REMARK INTER + INTRA:         -11.057
REMARK INTER:                  -8.828
REMARK INTRA:                  -2.228
REMARK UNBOUND:                -2.324
REMARK SMILES CCC(=O)CCCCC[C@H]1NC(=O)[C@@H]2CCCCN2C(=O)[C@H]([C@H](C)CC)NC(=O)[C@H](Cc2cn(OC)c3ccccc23)NC1=O
REMARK SMILES IDX 9 1 10 2 44 3 43 4 45 6 30 7 28 8 27 9 29 11 22 12 23 14
REMARK SMILES IDX 24 15 25 16 26 17 31 18 32 19 33 20 42 21 34 22 37 23 41 24
REMARK SMILES IDX 38 25 40 26 39 27 35 28 36 29 11 30 12 31 13 33 14 34 19 35
REMARK SMILES IDX 15 36 18 37 16 38 17 39 20 40 21 41 8 43 7 44 6 45 5 46 3 47
REMARK SMILES IDX 4 48 2 49 1 50
REMARK H PARENT 43 5 27 10 11 32
REMARK Flexibility Score: 80.00
ROOT
ATOM      1  C   UNL     1      59.527  26.961  52.116  1.00  0.00     0.035 C 
ENDROOT
BRANCH   1   2
ATOM      2  C   UNL     1      59.315  28.107  51.100  1.00  0.00     0.171 C 
BRANCH   2   3
ATOM      3  C   UNL     1      60.511  28.394  50.237  1.00  0.00     0.243 C 
ATOM      4  N   UNL     1      60.993  29.732  50.155  1.00  0.00    -0.342 N 
ATOM      5  H   UNL     1      60.283  30.493  50.230  1.00  0.00     0.164 HD
ATOM      6  O   UNL     1      61.164  27.463  49.698  1.00  0.00    -0.273 OA
BRANCH   4   7
ATOM      7  C   UNL     1      62.348  30.036  50.606  1.00  0.00     0.175 C 
BRANCH   7   8
ATOM      8  C   UNL     1      62.331  30.316  52.098  1.00  0.00     0.243 C 
ATOM      9  N   UNL     1      61.676  31.495  52.591  1.00  0.00    -0.342 N 
ATOM     10  H   UNL     1      61.191  32.091  51.878  1.00  0.00     0.164 HD
ATOM     11  O   UNL     1      62.904  29.527  52.886  1.00  0.00    -0.273 OA
BRANCH   9  12
ATOM     12  C   UNL     1      61.646  31.962  53.987  1.00  0.00     0.174 CG0
ATOM     13  G   UNL     1      60.226  32.050  54.581  1.00  0.00     0.000 G0
BRANCH  12  14
ATOM     14  C   UNL     1      62.797  32.976  54.341  1.00  0.00     0.018 C 
ATOM     15  C   UNL     1      63.137  33.970  53.216  1.00  0.00     0.010 C 
BRANCH  14  16
ATOM     16  C   UNL     1      64.060  32.487  55.090  1.00  0.00     0.002 C 
ATOM     17  C   UNL     1      64.048  32.613  56.606  1.00  0.00     0.004 C 
ENDBRANCH  14  16
ENDBRANCH  12  14
ENDBRANCH   9  12
ENDBRANCH   7   8
BRANCH   7  18
ATOM     18  C   UNL     1      62.976  31.168  49.750  1.00  0.00     0.073 C 
BRANCH  18  19
ATOM     19  C   UNL     1      64.420  30.974  49.373  1.00  0.00    -0.016 A 
ATOM     20  C   UNL     1      65.435  31.909  49.561  1.00  0.00     0.134 A 
ATOM     21  C   UNL     1      65.020  29.888  48.748  1.00  0.00     0.006 A 
ATOM     22  N   UNL     1      66.596  31.438  49.046  1.00  0.00    -0.191 N 
ATOM     23  C   UNL     1      66.340  30.216  48.557  1.00  0.00     0.087 A 
ATOM     24  C   UNL     1      64.520  28.644  48.360  1.00  0.00     0.011 A 
ATOM     25  C   UNL     1      67.238  29.345  47.945  1.00  0.00     0.030 A 
ATOM     26  C   UNL     1      65.405  27.741  47.748  1.00  0.00     0.001 A 
ATOM     27  C   UNL     1      66.754  28.089  47.536  1.00  0.00     0.002 A 
BRANCH  22  28
ATOM     28  O   UNL     1      67.821  32.074  49.003  1.00  0.00    -0.417 OA
ATOM     29  C   UNL     1      68.155  33.009  47.983  1.00  0.00     0.313 C 
ENDBRANCH  22  28
ENDBRANCH  18  19
ENDBRANCH   7  18
ENDBRANCH   4   7
ENDBRANCH   2   3
BRANCH   2  30
ATOM     30  N   UNL     1      58.881  29.338  51.779  1.00  0.00    -0.343 N 
ATOM     31  C   UNL     1      58.929  29.532  53.207  1.00  0.00     0.243 C 
ATOM     32  H   UNL     1      58.518  30.116  51.178  1.00  0.00     0.164 HD
ATOM     33  O   UNL     1      59.550  28.716  53.943  1.00  0.00    -0.273 OA
BRANCH  31  34
ATOM     34  C   UNL     1      58.214  30.691  53.861  1.00  0.00     0.174 C 
ATOM     35  N   UNL     1      58.994  31.962  53.765  1.00  0.00    -0.329 N 
ATOM     36  C   UNL     1      56.766  30.803  53.320  1.00  0.00     0.035 C 
ATOM     37  C   UNL     1      58.216  33.214  53.706  1.00  0.00     0.120 C 
ATOM     38  C   UNL     1      56.002  32.040  53.838  1.00  0.00     0.004 C 
ATOM     39  C   UNL     1      56.906  33.087  54.486  1.00  0.00     0.022 C 
BRANCH  35  40
ATOM     40  C   UNL     1      60.215  32.020  54.544  1.00  0.00     0.246 CG0
ATOM     41  O   UNL     1      60.095  32.089  55.800  1.00  0.00    -0.272 OA
ATOM     42  G   UNL     1      61.651  31.951  53.989  1.00  0.00     0.000 G0
ENDBRANCH  35  40
ENDBRANCH  31  34
ENDBRANCH   2  30
ENDBRANCH   1   2
BRANCH   1  43
ATOM     43  C   UNL     1      58.567  25.761  51.951  1.00  0.00     0.003 C 
BRANCH  43  44
ATOM     44  C   UNL     1      58.001  25.555  50.528  1.00  0.00     0.001 C 
BRANCH  44  45
ATOM     45  C   UNL     1      56.478  25.750  50.393  1.00  0.00     0.008 C 
BRANCH  45  46
ATOM     46  C   UNL     1      55.962  27.042  51.046  1.00  0.00     0.075 C 
BRANCH  46  47
ATOM     47  C   UNL     1      54.527  27.329  50.687  1.00  0.00     0.132 C 
ATOM     48  O   UNL     1      54.201  28.468  50.375  1.00  0.00    -0.300 OA
BRANCH  47  49
ATOM     49  C   UNL     1      53.495  26.233  50.680  1.00  0.00     0.072 C 
ATOM     50  C   UNL     1      52.983  25.981  49.264  1.00  0.00     0.012 C 
ENDBRANCH  47  49
ENDBRANCH  46  47
ENDBRANCH  45  46
ENDBRANCH  44  45
ENDBRANCH  43  44
ENDBRANCH   1  43
TORSDOF 12
ENDMDL
MODEL 9
REMARK VINA RESULT:    -4.096      4.761      8.042
REMARK INTER + INTRA:         -10.970
REMARK INTER:                  -7.872
REMARK INTRA:                  -3.098
REMARK UNBOUND:                -2.324
REMARK SMILES CCC(=O)CCCCC[C@H]1NC(=O)[C@@H]2CCCCN2C(=O)[C@H]([C@H](C)CC)NC(=O)[C@H](Cc2cn(OC)c3ccccc23)NC1=O
REMARK SMILES IDX 9 1 10 2 44 3 43 4 45 6 30 7 28 8 27 9 29 11 22 12 23 14
REMARK SMILES IDX 24 15 25 16 26 17 31 18 32 19 33 20 42 21 34 22 37 23 41 24
REMARK SMILES IDX 38 25 40 26 39 27 35 28 36 29 11 30 12 31 13 33 14 34 19 35
REMARK SMILES IDX 15 36 18 37 16 38 17 39 20 40 21 41 8 43 7 44 6 45 5 46 3 47
REMARK SMILES IDX 4 48 2 49 1 50
REMARK H PARENT 43 5 27 10 11 32
REMARK Flexibility Score: 80.00
ROOT
ATOM      1  C   UNL     1      57.947  28.419  50.755  1.00  0.00     0.035 C 
ENDROOT
BRANCH   1   2
ATOM      2  C   UNL     1      59.282  27.719  51.100  1.00  0.00     0.171 C 
BRANCH   2   3
ATOM      3  C   UNL     1      60.397  28.011  50.136  1.00  0.00     0.243 C 
ATOM      4  N   UNL     1      61.514  28.772  50.588  1.00  0.00    -0.342 N 
ATOM      5  H   UNL     1      61.325  29.499  51.311  1.00  0.00     0.164 HD
ATOM      6  O   UNL     1      60.421  27.489  48.991  1.00  0.00    -0.273 OA
BRANCH   4   7
ATOM      7  C   UNL     1      62.844  28.171  50.577  1.00  0.00     0.175 C 
BRANCH   7   8
ATOM      8  C   UNL     1      62.779  26.792  51.209  1.00  0.00     0.243 C 
ATOM      9  N   UNL     1      62.945  25.626  50.387  1.00  0.00    -0.342 N 
ATOM     10  H   UNL     1      63.153  25.796  49.374  1.00  0.00     0.164 HD
ATOM     11  O   UNL     1      62.565  26.682  52.439  1.00  0.00    -0.273 OA
BRANCH   9  12
ATOM     12  C   UNL     1      62.819  24.224  50.820  1.00  0.00     0.174 CG0
ATOM     13  G   UNL     1      61.362  23.773  51.043  1.00  0.00     0.000 G0
BRANCH  12  14
ATOM     14  C   UNL     1      64.024  23.721  51.698  1.00  0.00     0.018 C 
ATOM     15  C   UNL     1      64.400  22.245  51.474  1.00  0.00     0.010 C 
BRANCH  14  16
ATOM     16  C   UNL     1      64.125  24.130  53.187  1.00  0.00     0.002 C 
ATOM     17  C   UNL     1      65.241  25.094  53.558  1.00  0.00     0.004 C 
ENDBRANCH  14  16
ENDBRANCH  12  14
ENDBRANCH   9  12
ENDBRANCH   7   8
BRANCH   7  18
ATOM     18  C   UNL     1      63.887  29.121  51.223  1.00  0.00     0.073 C 
BRANCH  18  19
ATOM     19  C   UNL     1      63.328  30.371  51.849  1.00  0.00    -0.016 A 
ATOM     20  C   UNL     1      62.976  30.513  53.189  1.00  0.00     0.134 A 
ATOM     21  C   UNL     1      63.019  31.584  51.248  1.00  0.00     0.006 A 
ATOM     22  N   UNL     1      62.444  31.741  53.397  1.00  0.00    -0.191 N 
ATOM     23  C   UNL     1      62.473  32.384  52.222  1.00  0.00     0.087 A 
ATOM     24  C   UNL     1      63.196  32.050  49.945  1.00  0.00     0.011 A 
ATOM     25  C   UNL     1      62.042  33.683  51.957  1.00  0.00     0.030 A 
ATOM     26  C   UNL     1      62.779  33.359  49.650  1.00  0.00     0.001 A 
ATOM     27  C   UNL     1      62.201  34.169  50.647  1.00  0.00     0.002 A 
BRANCH  22  28
ATOM     28  O   UNL     1      61.944  32.256  54.577  1.00  0.00    -0.417 OA
ATOM     29  C   UNL     1      60.870  31.640  55.279  1.00  0.00     0.313 C 
ENDBRANCH  22  28
ENDBRANCH  18  19
ENDBRANCH   7  18
ENDBRANCH   4   7
ENDBRANCH   2   3
BRANCH   2  30
ATOM     30  N   UNL     1      59.095  26.265  51.223  1.00  0.00    -0.343 N 
ATOM     31  C   UNL     1      59.254  25.531  52.454  1.00  0.00     0.243 C 
ATOM     32  H   UNL     1      58.829  25.739  50.356  1.00  0.00     0.164 HD
ATOM     33  O   UNL     1      59.362  26.142  53.554  1.00  0.00    -0.273 OA
BRANCH  31  34
ATOM     34  C   UNL     1      59.329  24.023  52.460  1.00  0.00     0.174 C 
ATOM     35  N   UNL     1      60.732  23.527  52.320  1.00  0.00    -0.329 N 
ATOM     36  C   UNL     1      58.584  23.452  53.692  1.00  0.00     0.035 C 
ATOM     37  C   UNL     1      61.049  22.241  52.969  1.00  0.00     0.120 C 
ATOM     38  C   UNL     1      58.720  21.923  53.849  1.00  0.00     0.004 C 
ATOM     39  C   UNL     1      59.828  21.319  52.988  1.00  0.00     0.022 C 
BRANCH  35  40
ATOM     40  C   UNL     1      61.361  23.750  51.033  1.00  0.00     0.246 CG0
ATOM     41  O   UNL     1      60.640  23.606  50.006  1.00  0.00    -0.272 OA
ATOM     42  G   UNL     1      62.817  24.201  50.799  1.00  0.00     0.000 G0
ENDBRANCH  35  40
ENDBRANCH  31  34
ENDBRANCH   2  30
ENDBRANCH   1   2
BRANCH   1  43
ATOM     43  C   UNL     1      57.198  29.021  51.965  1.00  0.00     0.003 C 
BRANCH  43  44
ATOM     44  C   UNL     1      55.860  28.336  52.324  1.00  0.00     0.001 C 
BRANCH  44  45
ATOM     45  C   UNL     1      55.989  26.945  52.976  1.00  0.00     0.008 C 
BRANCH  45  46
ATOM     46  C   UNL     1      55.102  25.874  52.323  1.00  0.00     0.075 C 
BRANCH  46  47
ATOM     47  C   UNL     1      55.339  25.763  50.840  1.00  0.00     0.132 C 
ATOM     48  O   UNL     1      56.385  25.270  50.433  1.00  0.00    -0.300 OA
BRANCH  47  49
ATOM     49  C   UNL     1      54.302  26.224  49.851  1.00  0.00     0.072 C 
ATOM     50  C   UNL     1      53.637  25.030  49.169  1.00  0.00     0.012 C 
ENDBRANCH  47  49
ENDBRANCH  46  47
ENDBRANCH  45  46
ENDBRANCH  44  45
ENDBRANCH  43  44
ENDBRANCH   1  43
TORSDOF 12
ENDMDL
