MODEL 1
REMARK VINA RESULT:    -4.735      0.000      0.000
REMARK INTER + INTRA:          -4.874
REMARK INTER:                  -4.874
REMARK INTRA:                   0.000
REMARK UNBOUND:                 0.000
REMARK SMILES C=C1[C@H]2C[C@]3(C[C@@H]1O)[C@H](C)CC[C@H]3C2(C)C
REMARK SMILES IDX 10 1 9 2 11 3 12 4 13 5 5 6 4 7 3 8 14 9 15 10 16 11 2 12
REMARK SMILES IDX 1 13 7 14 6 15 8 16
REMARK H PARENT 8 17
REMARK Flexibility Score: inf
ROOT
ATOM      1  C   UNL     1     140.041 131.113 131.785  1.00  0.00     0.008 C 
ATOM      2  C   UNL     1     138.573 131.572 131.732  1.00  0.00    -0.008 C 
ATOM      3  C   UNL     1     138.439 133.113 131.508  1.00  0.00     0.004 C 
ATOM      4  C   UNL     1     137.913 133.738 132.825  1.00  0.00     0.005 C 
ATOM      5  C   UNL     1     138.106 132.603 133.809  1.00  0.00     0.002 C 
ATOM      6  C   UNL     1     137.779 131.332 133.039  1.00  0.00    -0.020 C 
ATOM      7  C   UNL     1     138.162 130.304 134.097  1.00  0.00     0.016 C 
ATOM      8  C   UNL     1     137.364 130.865 135.307  1.00  0.00     0.023 C 
ATOM      9  C   UNL     1     137.494 132.439 135.215  1.00  0.00    -0.025 C 
ATOM     10  C   UNL     1     138.477 132.933 136.305  1.00  0.00     0.012 C 
ATOM     11  C   UNL     1     136.179 133.241 135.380  1.00  0.00     0.012 C 
ATOM     12  C   UNL     1     135.934 130.408 135.124  1.00  0.00    -0.045 C 
ATOM     13  C   UNL     1     135.217 129.971 136.171  1.00  0.00     0.011 C 
ATOM     14  C   UNL     1     135.342 130.412 133.727  1.00  0.00     0.140 C 
ATOM     15  C   UNL     1     136.243 131.141 132.677  1.00  0.00     0.044 C 
ENDROOT
BRANCH  14  16
ATOM     16  O   UNL     1     134.067 131.001 133.753  1.00  0.00    -0.389 OA
ATOM     17  H   UNL     1     133.838 131.143 134.708  1.00  0.00     0.211 HD
ENDBRANCH  14  16
TORSDOF 1
ENDMDL
MODEL 2
REMARK VINA RESULT:    -4.674      8.464     10.661
REMARK INTER + INTRA:          -4.811
REMARK INTER:                  -4.811
REMARK INTRA:                   0.000
REMARK UNBOUND:                 0.000
REMARK SMILES C=C1[C@H]2C[C@]3(C[C@@H]1O)[C@H](C)CC[C@H]3C2(C)C
REMARK SMILES IDX 10 1 9 2 11 3 12 4 13 5 5 6 4 7 3 8 14 9 15 10 16 11 2 12
REMARK SMILES IDX 1 13 7 14 6 15 8 16
REMARK H PARENT 8 17
REMARK Flexibility Score: inf
ROOT
ATOM      1  C   UNL     1     136.101 133.652 140.550  1.00  0.00     0.008 C 
ATOM      2  C   UNL     1     135.236 134.553 141.448  1.00  0.00    -0.008 C 
ATOM      3  C   UNL     1     134.731 135.829 140.700  1.00  0.00     0.004 C 
ATOM      4  C   UNL     1     135.476 137.051 141.295  1.00  0.00     0.005 C 
ATOM      5  C   UNL     1     136.588 136.388 142.080  1.00  0.00     0.002 C 
ATOM      6  C   UNL     1     135.975 135.131 142.679  1.00  0.00    -0.020 C 
ATOM      7  C   UNL     1     137.230 134.518 143.290  1.00  0.00     0.016 C 
ATOM      8  C   UNL     1     137.757 135.743 144.088  1.00  0.00     0.023 C 
ATOM      9  C   UNL     1     137.492 137.002 143.168  1.00  0.00    -0.025 C 
ATOM     10  C   UNL     1     138.835 137.481 142.564  1.00  0.00     0.012 C 
ATOM     11  C   UNL     1     136.833 138.223 143.857  1.00  0.00     0.012 C 
ATOM     12  C   UNL     1     136.947 135.801 145.365  1.00  0.00    -0.045 C 
ATOM     13  C   UNL     1     137.538 136.085 146.536  1.00  0.00     0.011 C 
ATOM     14  C   UNL     1     135.464 135.488 145.300  1.00  0.00     0.140 C 
ATOM     15  C   UNL     1     134.918 135.385 143.838  1.00  0.00     0.044 C 
ENDROOT
BRANCH  14  16
ATOM     16  O   UNL     1     134.742 136.460 146.012  1.00  0.00    -0.389 OA
ATOM     17  H   UNL     1     134.015 135.983 146.490  1.00  0.00     0.211 HD
ENDBRANCH  14  16
TORSDOF 1
ENDMDL
MODEL 3
REMARK VINA RESULT:    -4.649     16.125     17.868
REMARK INTER + INTRA:          -4.785
REMARK INTER:                  -4.785
REMARK INTRA:                   0.000
REMARK UNBOUND:                 0.000
REMARK SMILES C=C1[C@H]2C[C@]3(C[C@@H]1O)[C@H](C)CC[C@H]3C2(C)C
REMARK SMILES IDX 10 1 9 2 11 3 12 4 13 5 5 6 4 7 3 8 14 9 15 10 16 11 2 12
REMARK SMILES IDX 1 13 7 14 6 15 8 16
REMARK H PARENT 8 17
REMARK Flexibility Score: inf
ROOT
ATOM      1  C   UNL     1     125.168 132.791 148.916  1.00  0.00     0.008 C 
ATOM      2  C   UNL     1     125.534 133.314 147.516  1.00  0.00    -0.008 C 
ATOM      3  C   UNL     1     126.751 132.556 146.896  1.00  0.00     0.004 C 
ATOM      4  C   UNL     1     127.953 133.534 146.869  1.00  0.00     0.005 C 
ATOM      5  C   UNL     1     127.470 134.650 147.771  1.00  0.00     0.002 C 
ATOM      6  C   UNL     1     125.983 134.796 147.483  1.00  0.00    -0.020 C 
ATOM      7  C   UNL     1     125.630 135.822 148.553  1.00  0.00     0.016 C 
ATOM      8  C   UNL     1     126.722 136.889 148.262  1.00  0.00     0.023 C 
ATOM      9  C   UNL     1     128.035 136.077 147.918  1.00  0.00    -0.025 C 
ATOM     10  C   UNL     1     129.014 136.162 149.114  1.00  0.00     0.012 C 
ATOM     11  C   UNL     1     128.807 136.535 146.654  1.00  0.00     0.012 C 
ATOM     12  C   UNL     1     126.230 137.691 147.077  1.00  0.00    -0.045 C 
ATOM     13  C   UNL     1     126.378 139.024 147.046  1.00  0.00     0.011 C 
ATOM     14  C   UNL     1     125.528 136.962 145.947  1.00  0.00     0.140 C 
ATOM     15  C   UNL     1     125.630 135.405 146.058  1.00  0.00     0.044 C 
ENDROOT
BRANCH  14  16
ATOM     16  O   UNL     1     126.045 137.388 144.713  1.00  0.00    -0.389 OA
ATOM     17  H   UNL     1     126.782 138.022 144.915  1.00  0.00     0.211 HD
ENDBRANCH  14  16
TORSDOF 1
ENDMDL
MODEL 4
REMARK VINA RESULT:    -4.637     16.141     18.480
REMARK INTER + INTRA:          -4.772
REMARK INTER:                  -4.772
REMARK INTRA:                   0.000
REMARK UNBOUND:                 0.000
REMARK SMILES C=C1[C@H]2C[C@]3(C[C@@H]1O)[C@H](C)CC[C@H]3C2(C)C
REMARK SMILES IDX 10 1 9 2 11 3 12 4 13 5 5 6 4 7 3 8 14 9 15 10 16 11 2 12
REMARK SMILES IDX 1 13 7 14 6 15 8 16
REMARK H PARENT 8 17
REMARK Flexibility Score: inf
ROOT
ATOM      1  C   UNL     1     125.486 133.234 148.562  1.00  0.00     0.008 C 
ATOM      2  C   UNL     1     125.930 134.540 149.243  1.00  0.00    -0.008 C 
ATOM      3  C   UNL     1     124.717 135.408 149.712  1.00  0.00     0.004 C 
ATOM      4  C   UNL     1     124.653 136.661 148.803  1.00  0.00     0.005 C 
ATOM      5  C   UNL     1     125.587 136.277 147.674  1.00  0.00     0.002 C 
ATOM      6  C   UNL     1     126.723 135.503 148.327  1.00  0.00    -0.020 C 
ATOM      7  C   UNL     1     127.471 135.069 147.071  1.00  0.00     0.016 C 
ATOM      8  C   UNL     1     127.599 136.443 146.356  1.00  0.00     0.023 C 
ATOM      9  C   UNL     1     126.227 137.189 146.608  1.00  0.00    -0.025 C 
ATOM     10  C   UNL     1     125.395 137.178 145.302  1.00  0.00     0.012 C 
ATOM     11  C   UNL     1     126.329 138.661 147.079  1.00  0.00     0.012 C 
ATOM     12  C   UNL     1     128.757 137.160 147.014  1.00  0.00    -0.045 C 
ATOM     13  C   UNL     1     129.638 137.854 146.277  1.00  0.00     0.011 C 
ATOM     14  C   UNL     1     128.926 137.042 148.517  1.00  0.00     0.140 C 
ATOM     15  C   UNL     1     127.702 136.374 149.226  1.00  0.00     0.044 C 
ENDROOT
BRANCH  14  16
ATOM     16  O   UNL     1     129.164 138.311 149.069  1.00  0.00    -0.389 OA
ATOM     17  H   UNL     1     130.012 138.640 148.673  1.00  0.00     0.211 HD
ENDBRANCH  14  16
TORSDOF 1
ENDMDL
MODEL 5
REMARK VINA RESULT:    -4.627     16.785     18.145
REMARK INTER + INTRA:          -4.762
REMARK INTER:                  -4.762
REMARK INTRA:                   0.000
REMARK UNBOUND:                 0.000
REMARK SMILES C=C1[C@H]2C[C@]3(C[C@@H]1O)[C@H](C)CC[C@H]3C2(C)C
REMARK SMILES IDX 10 1 9 2 11 3 12 4 13 5 5 6 4 7 3 8 14 9 15 10 16 11 2 12
REMARK SMILES IDX 1 13 7 14 6 15 8 16
REMARK H PARENT 8 17
REMARK Flexibility Score: inf
ROOT
ATOM      1  C   UNL     1     129.807 135.722 148.973  1.00  0.00     0.008 C 
ATOM      2  C   UNL     1     129.023 136.838 148.262  1.00  0.00    -0.008 C 
ATOM      3  C   UNL     1     128.593 137.980 149.239  1.00  0.00     0.004 C 
ATOM      4  C   UNL     1     127.056 137.898 149.415  1.00  0.00     0.005 C 
ATOM      5  C   UNL     1     126.745 136.538 148.827  1.00  0.00     0.002 C 
ATOM      6  C   UNL     1     127.681 136.381 147.638  1.00  0.00    -0.020 C 
ATOM      7  C   UNL     1     127.357 134.939 147.265  1.00  0.00     0.016 C 
ATOM      8  C   UNL     1     125.807 135.029 147.197  1.00  0.00     0.023 C 
ATOM      9  C   UNL     1     125.378 135.971 148.393  1.00  0.00    -0.025 C 
ATOM     10  C   UNL     1     124.755 135.110 149.519  1.00  0.00     0.012 C 
ATOM     11  C   UNL     1     124.362 137.089 148.049  1.00  0.00     0.012 C 
ATOM     12  C   UNL     1     125.474 135.639 145.854  1.00  0.00    -0.045 C 
ATOM     13  C   UNL     1     124.450 135.168 145.124  1.00  0.00     0.011 C 
ATOM     14  C   UNL     1     126.346 136.764 145.329  1.00  0.00     0.140 C 
ATOM     15  C   UNL     1     127.351 137.314 146.394  1.00  0.00     0.044 C 
ENDROOT
BRANCH  14  16
ATOM     16  O   UNL     1     125.538 137.809 144.851  1.00  0.00    -0.389 OA
ATOM     17  H   UNL     1     124.640 137.683 145.254  1.00  0.00     0.211 HD
ENDBRANCH  14  16
TORSDOF 1
ENDMDL
MODEL 6
REMARK VINA RESULT:    -4.604      1.732      2.858
REMARK INTER + INTRA:          -4.739
REMARK INTER:                  -4.739
REMARK INTRA:                   0.000
REMARK UNBOUND:                 0.000
REMARK SMILES C=C1[C@H]2C[C@]3(C[C@@H]1O)[C@H](C)CC[C@H]3C2(C)C
REMARK SMILES IDX 10 1 9 2 11 3 12 4 13 5 5 6 4 7 3 8 14 9 15 10 16 11 2 12
REMARK SMILES IDX 1 13 7 14 6 15 8 16
REMARK H PARENT 8 17
REMARK Flexibility Score: inf
ROOT
ATOM      1  C   UNL     1     136.769 128.023 130.409  1.00  0.00     0.008 C 
ATOM      2  C   UNL     1     136.119 129.328 130.899  1.00  0.00    -0.008 C 
ATOM      3  C   UNL     1     136.293 130.499 129.877  1.00  0.00     0.004 C 
ATOM      4  C   UNL     1     137.285 131.519 130.492  1.00  0.00     0.005 C 
ATOM      5  C   UNL     1     137.877 130.729 131.640  1.00  0.00     0.002 C 
ATOM      6  C   UNL     1     136.731 129.900 132.201  1.00  0.00    -0.020 C 
ATOM      7  C   UNL     1     137.509 129.071 133.217  1.00  0.00     0.016 C 
ATOM      8  C   UNL     1     138.259 130.209 133.963  1.00  0.00     0.023 C 
ATOM      9  C   UNL     1     138.681 131.248 132.848  1.00  0.00    -0.025 C 
ATOM     10  C   UNL     1     140.203 131.127 132.591  1.00  0.00     0.012 C 
ATOM     11  C   UNL     1     138.381 132.737 133.156  1.00  0.00     0.012 C 
ATOM     12  C   UNL     1     137.269 130.805 134.940  1.00  0.00    -0.045 C 
ATOM     13  C   UNL     1     137.651 131.139 136.182  1.00  0.00     0.011 C 
ATOM     14  C   UNL     1     135.827 130.975 134.500  1.00  0.00     0.140 C 
ATOM     15  C   UNL     1     135.614 130.729 132.970  1.00  0.00     0.044 C 
ENDROOT
BRANCH  14  16
ATOM     16  O   UNL     1     135.374 132.259 134.845  1.00  0.00    -0.389 OA
ATOM     17  H   UNL     1     135.502 132.832 134.044  1.00  0.00     0.211 HD
ENDBRANCH  14  16
TORSDOF 1
ENDMDL
MODEL 7
REMARK VINA RESULT:    -4.539     15.401     17.397
REMARK INTER + INTRA:          -4.672
REMARK INTER:                  -4.672
REMARK INTRA:                   0.000
REMARK UNBOUND:                 0.000
REMARK SMILES C=C1[C@H]2C[C@]3(C[C@@H]1O)[C@H](C)CC[C@H]3C2(C)C
REMARK SMILES IDX 10 1 9 2 11 3 12 4 13 5 5 6 4 7 3 8 14 9 15 10 16 11 2 12
REMARK SMILES IDX 1 13 7 14 6 15 8 16
REMARK H PARENT 8 17
REMARK Flexibility Score: inf
ROOT
ATOM      1  C   UNL     1     130.608 135.335 147.377  1.00  0.00     0.008 C 
ATOM      2  C   UNL     1     129.769 136.156 146.383  1.00  0.00    -0.008 C 
ATOM      3  C   UNL     1     130.399 137.555 146.086  1.00  0.00     0.004 C 
ATOM      4  C   UNL     1     129.494 138.630 146.742  1.00  0.00     0.005 C 
ATOM      5  C   UNL     1     128.619 137.791 147.649  1.00  0.00     0.002 C 
ATOM      6  C   UNL     1     128.345 136.506 146.882  1.00  0.00    -0.020 C 
ATOM      7  C   UNL     1     127.603 135.732 147.965  1.00  0.00     0.016 C 
ATOM      8  C   UNL     1     126.544 136.795 148.367  1.00  0.00     0.023 C 
ATOM      9  C   UNL     1     127.298 138.185 148.339  1.00  0.00    -0.025 C 
ATOM     10  C   UNL     1     127.553 138.655 149.792  1.00  0.00     0.012 C 
ATOM     11  C   UNL     1     126.572 139.339 147.600  1.00  0.00     0.012 C 
ATOM     12  C   UNL     1     125.453 136.726 147.321  1.00  0.00    -0.045 C 
ATOM     13  C   UNL     1     124.161 136.803 147.675  1.00  0.00     0.011 C 
ATOM     14  C   UNL     1     125.848 136.525 145.870  1.00  0.00     0.140 C 
ATOM     15  C   UNL     1     127.387 136.664 145.624  1.00  0.00     0.044 C 
ENDROOT
BRANCH  14  16
ATOM     16  O   UNL     1     125.150 137.432 145.057  1.00  0.00    -0.389 OA
ATOM     17  H   UNL     1     124.265 137.026 144.869  1.00  0.00     0.211 HD
ENDBRANCH  14  16
TORSDOF 1
ENDMDL
MODEL 8
REMARK VINA RESULT:    -4.534      8.779     11.031
REMARK INTER + INTRA:          -4.666
REMARK INTER:                  -4.666
REMARK INTRA:                   0.000
REMARK UNBOUND:                 0.000
REMARK SMILES C=C1[C@H]2C[C@]3(C[C@@H]1O)[C@H](C)CC[C@H]3C2(C)C
REMARK SMILES IDX 10 1 9 2 11 3 12 4 13 5 5 6 4 7 3 8 14 9 15 10 16 11 2 12
REMARK SMILES IDX 1 13 7 14 6 15 8 16
REMARK H PARENT 8 17
REMARK Flexibility Score: inf
ROOT
ATOM      1  C   UNL     1     136.039 136.451 144.805  1.00  0.00     0.008 C 
ATOM      2  C   UNL     1     136.719 137.106 143.591  1.00  0.00    -0.008 C 
ATOM      3  C   UNL     1     136.012 136.743 142.245  1.00  0.00     0.004 C 
ATOM      4  C   UNL     1     136.957 135.804 141.453  1.00  0.00     0.005 C 
ATOM      5  C   UNL     1     137.967 135.411 142.511  1.00  0.00     0.002 C 
ATOM      6  C   UNL     1     138.182 136.658 143.356  1.00  0.00    -0.020 C 
ATOM      7  C   UNL     1     139.080 136.065 144.436  1.00  0.00     0.016 C 
ATOM      8  C   UNL     1     140.147 135.377 143.540  1.00  0.00     0.023 C 
ATOM      9  C   UNL     1     139.352 134.760 142.320  1.00  0.00    -0.025 C 
ATOM     10  C   UNL     1     139.268 133.224 142.492  1.00  0.00     0.012 C 
ATOM     11  C   UNL     1     139.941 135.037 140.914  1.00  0.00     0.012 C 
ATOM     12  C   UNL     1     141.098 136.467 143.098  1.00  0.00    -0.045 C 
ATOM     13  C   UNL     1     142.422 136.247 143.065  1.00  0.00     0.011 C 
ATOM     14  C   UNL     1     140.529 137.825 142.734  1.00  0.00     0.140 C 
ATOM     15  C   UNL     1     138.968 137.834 142.632  1.00  0.00     0.044 C 
ENDROOT
BRANCH  14  16
ATOM     16  O   UNL     1     141.089 138.267 141.524  1.00  0.00    -0.389 OA
ATOM     17  H   UNL     1     140.794 139.206 141.399  1.00  0.00     0.211 HD
ENDBRANCH  14  16
TORSDOF 1
ENDMDL
MODEL 9
REMARK VINA RESULT:    -4.507      9.060     10.921
REMARK INTER + INTRA:          -4.639
REMARK INTER:                  -4.639
REMARK INTRA:                   0.000
REMARK UNBOUND:                 0.000
REMARK SMILES C=C1[C@H]2C[C@]3(C[C@@H]1O)[C@H](C)CC[C@H]3C2(C)C
REMARK SMILES IDX 10 1 9 2 11 3 12 4 13 5 5 6 4 7 3 8 14 9 15 10 16 11 2 12
REMARK SMILES IDX 1 13 7 14 6 15 8 16
REMARK H PARENT 8 17
REMARK Flexibility Score: inf
ROOT
ATOM      1  C   UNL     1     140.433 138.264 142.235  1.00  0.00     0.008 C 
ATOM      2  C   UNL     1     140.164 136.870 142.826  1.00  0.00    -0.008 C 
ATOM      3  C   UNL     1     140.339 135.732 141.769  1.00  0.00     0.004 C 
ATOM      4  C   UNL     1     138.934 135.160 141.453  1.00  0.00     0.005 C 
ATOM      5  C   UNL     1     138.025 136.206 142.063  1.00  0.00     0.002 C 
ATOM      6  C   UNL     1     138.719 136.658 143.339  1.00  0.00    -0.020 C 
ATOM      7  C   UNL     1     137.777 137.789 143.737  1.00  0.00     0.016 C 
ATOM      8  C   UNL     1     136.419 137.039 143.656  1.00  0.00     0.023 C 
ATOM      9  C   UNL     1     136.522 136.098 142.389  1.00  0.00    -0.025 C 
ATOM     10  C   UNL     1     135.665 136.691 141.244  1.00  0.00     0.012 C 
ATOM     11  C   UNL     1     136.071 134.630 142.593  1.00  0.00     0.012 C 
ATOM     12  C   UNL     1     136.293 136.245 144.937  1.00  0.00    -0.045 C 
ATOM     13  C   UNL     1     135.121 136.175 145.586  1.00  0.00     0.011 C 
ATOM     14  C   UNL     1     137.530 135.566 145.496  1.00  0.00     0.140 C 
ATOM     15  C   UNL     1     138.743 135.583 144.509  1.00  0.00     0.044 C 
ENDROOT
BRANCH  14  16
ATOM     16  O   UNL     1     137.225 134.243 145.855  1.00  0.00    -0.389 OA
ATOM     17  H   UNL     1     136.457 133.964 145.292  1.00  0.00     0.211 HD
ENDBRANCH  14  16
TORSDOF 1
ENDMDL
