MODEL 1
REMARK VINA RESULT:    -4.204      0.000      0.000
REMARK INTER + INTRA:          -7.093
REMARK INTER:                  -6.662
REMARK INTRA:                  -0.431
REMARK UNBOUND:                -0.431
REMARK SMILES CCCCCCCCCCCC(=O)[O-]
REMARK SMILES IDX 7 1 8 2 9 3 10 4 11 5 12 6 13 7 14 8 6 9 5 10 4 11 3 12 2 13
REMARK SMILES IDX 1 14
REMARK H PARENT
REMARK Flexibility Score: inf
ROOT
ATOM      1  C   UNL     1     -23.393  26.630   7.487  1.00  0.00     0.000 C 
ENDROOT
BRANCH   1   2
ATOM      2  C   UNL     1     -23.219  25.323   8.282  1.00  0.00     0.000 C 
BRANCH   2   3
ATOM      3  C   UNL     1     -23.897  25.370   9.662  1.00  0.00     0.000 C 
BRANCH   3   4
ATOM      4  C   UNL     1     -22.892  25.573  10.810  1.00  0.00     0.006 C 
BRANCH   4   5
ATOM      5  C   UNL     1     -21.935  24.391  11.035  1.00  0.00     0.053 C 
BRANCH   5   6
ATOM      6  C   UNL     1     -21.818  24.028  12.483  1.00  0.00     0.041 C 
ATOM      7  O   UNL     1     -22.840  23.685  13.134  1.00  0.00    -0.550 OA
ATOM      8  O   UNL     1     -20.576  24.035  13.105  1.00  0.00    -0.550 OA
ENDBRANCH   5   6
ENDBRANCH   4   5
ENDBRANCH   3   4
ENDBRANCH   2   3
ENDBRANCH   1   2
BRANCH   1   9
ATOM      9  C   UNL     1     -24.125  27.766   8.234  1.00  0.00     0.000 C 
BRANCH   9  10
ATOM     10  C   UNL     1     -23.956  29.171   7.626  1.00  0.00    -0.000 C 
BRANCH  10  11
ATOM     11  C   UNL     1     -23.022  30.070   8.453  1.00  0.00    -0.000 C 
BRANCH  11  12
ATOM     12  C   UNL     1     -22.940  31.508   7.909  1.00  0.00    -0.000 C 
BRANCH  12  13
ATOM     13  C   UNL     1     -21.611  31.871   7.223  1.00  0.00    -0.003 C 
ATOM     14  C   UNL     1     -20.386  31.519   8.066  1.00  0.00     0.004 C 
ENDBRANCH  12  13
ENDBRANCH  11  12
ENDBRANCH  10  11
ENDBRANCH   9  10
ENDBRANCH   1   9
TORSDOF 10
ENDMDL
MODEL 2
REMARK VINA RESULT:    -3.955      3.658      7.141
REMARK INTER + INTRA:          -6.698
REMARK INTER:                  -6.326
REMARK INTRA:                  -0.372
REMARK UNBOUND:                -0.431
REMARK SMILES CCCCCCCCCCCC(=O)[O-]
REMARK SMILES IDX 7 1 8 2 9 3 10 4 11 5 12 6 13 7 14 8 6 9 5 10 4 11 3 12 2 13
REMARK SMILES IDX 1 14
REMARK H PARENT
REMARK Flexibility Score: inf
ROOT
ATOM      1  C   UNL     1     -23.370  26.439   9.506  1.00  0.00     0.000 C 
ENDROOT
BRANCH   1   2
ATOM      2  C   UNL     1     -24.125  26.385   8.165  1.00  0.00     0.000 C 
BRANCH   2   3
ATOM      3  C   UNL     1     -24.074  27.717   7.399  1.00  0.00     0.000 C 
BRANCH   3   4
ATOM      4  C   UNL     1     -23.797  28.921   8.318  1.00  0.00     0.006 C 
BRANCH   4   5
ATOM      5  C   UNL     1     -23.858  30.286   7.614  1.00  0.00     0.053 C 
BRANCH   5   6
ATOM      6  C   UNL     1     -22.745  31.191   8.042  1.00  0.00     0.041 C 
ATOM      7  O   UNL     1     -21.975  31.698   7.184  1.00  0.00    -0.550 OA
ATOM      8  O   UNL     1     -22.578  31.503   9.386  1.00  0.00    -0.550 OA
ENDBRANCH   5   6
ENDBRANCH   4   5
ENDBRANCH   3   4
ENDBRANCH   2   3
ENDBRANCH   1   2
BRANCH   1   9
ATOM      9  C   UNL     1     -23.221  25.087  10.236  1.00  0.00     0.000 C 
BRANCH   9  10
ATOM     10  C   UNL     1     -23.597  25.099  11.729  1.00  0.00    -0.000 C 
BRANCH  10  11
ATOM     11  C   UNL     1     -23.590  23.695  12.357  1.00  0.00    -0.000 C 
BRANCH  11  12
ATOM     12  C   UNL     1     -22.416  23.482  13.331  1.00  0.00    -0.000 C 
BRANCH  12  13
ATOM     13  C   UNL     1     -21.016  23.620  12.707  1.00  0.00    -0.003 C 
ATOM     14  C   UNL     1     -19.944  24.015  13.722  1.00  0.00     0.004 C 
ENDBRANCH  12  13
ENDBRANCH  11  12
ENDBRANCH  10  11
ENDBRANCH   9  10
ENDBRANCH   1   9
TORSDOF 10
ENDMDL
MODEL 3
REMARK VINA RESULT:    -3.941     12.740     14.945
REMARK INTER + INTRA:          -6.676
REMARK INTER:                  -5.824
REMARK INTRA:                  -0.852
REMARK UNBOUND:                -0.431
REMARK SMILES CCCCCCCCCCCC(=O)[O-]
REMARK SMILES IDX 7 1 8 2 9 3 10 4 11 5 12 6 13 7 14 8 6 9 5 10 4 11 3 12 2 13
REMARK SMILES IDX 1 14
REMARK H PARENT
REMARK Flexibility Score: inf
ROOT
ATOM      1  C   UNL     1     -18.537  32.050  23.821  1.00  0.00     0.000 C 
ENDROOT
BRANCH   1   2
ATOM      2  C   UNL     1     -19.722  32.924  23.371  1.00  0.00     0.000 C 
BRANCH   2   3
ATOM      3  C   UNL     1     -20.844  32.110  22.705  1.00  0.00     0.000 C 
BRANCH   3   4
ATOM      4  C   UNL     1     -21.747  32.972  21.804  1.00  0.00     0.006 C 
BRANCH   4   5
ATOM      5  C   UNL     1     -21.577  34.487  21.995  1.00  0.00     0.053 C 
BRANCH   5   6
ATOM      6  C   UNL     1     -22.244  35.271  20.907  1.00  0.00     0.041 C 
ATOM      7  O   UNL     1     -22.698  34.683  19.890  1.00  0.00    -0.550 OA
ATOM      8  O   UNL     1     -22.394  36.646  21.032  1.00  0.00    -0.550 OA
ENDBRANCH   5   6
ENDBRANCH   4   5
ENDBRANCH   3   4
ENDBRANCH   2   3
ENDBRANCH   1   2
BRANCH   1   9
ATOM      9  C   UNL     1     -18.787  30.527  23.785  1.00  0.00     0.000 C 
BRANCH   9  10
ATOM     10  C   UNL     1     -17.607  29.677  23.279  1.00  0.00    -0.000 C 
BRANCH  10  11
ATOM     11  C   UNL     1     -17.986  28.779  22.090  1.00  0.00    -0.000 C 
BRANCH  11  12
ATOM     12  C   UNL     1     -19.449  28.960  21.645  1.00  0.00    -0.000 C 
BRANCH  12  13
ATOM     13  C   UNL     1     -19.636  29.667  20.291  1.00  0.00    -0.003 C 
ATOM     14  C   UNL     1     -20.390  28.814  19.270  1.00  0.00     0.004 C 
ENDBRANCH  12  13
ENDBRANCH  11  12
ENDBRANCH  10  11
ENDBRANCH   9  10
ENDBRANCH   1   9
TORSDOF 10
ENDMDL
MODEL 4
REMARK VINA RESULT:    -3.666     11.296     12.952
REMARK INTER + INTRA:          -6.241
REMARK INTER:                  -5.178
REMARK INTRA:                  -1.063
REMARK UNBOUND:                -0.431
REMARK SMILES CCCCCCCCCCCC(=O)[O-]
REMARK SMILES IDX 7 1 8 2 9 3 10 4 11 5 12 6 13 7 14 8 6 9 5 10 4 11 3 12 2 13
REMARK SMILES IDX 1 14
REMARK H PARENT
REMARK Flexibility Score: inf
ROOT
ATOM      1  C   UNL     1     -19.741  29.725  22.767  1.00  0.00     0.000 C 
ENDROOT
BRANCH   1   2
ATOM      2  C   UNL     1     -19.137  29.213  21.446  1.00  0.00     0.000 C 
BRANCH   2   3
ATOM      3  C   UNL     1     -19.833  29.799  20.206  1.00  0.00     0.000 C 
BRANCH   3   4
ATOM      4  C   UNL     1     -20.407  28.714  19.279  1.00  0.00     0.006 C 
BRANCH   4   5
ATOM      5  C   UNL     1     -21.644  27.991  19.836  1.00  0.00     0.053 C 
BRANCH   5   6
ATOM      6  C   UNL     1     -22.706  28.950  20.278  1.00  0.00     0.041 C 
ATOM      7  O   UNL     1     -23.002  29.049  21.498  1.00  0.00    -0.550 OA
ATOM      8  O   UNL     1     -23.344  29.760  19.347  1.00  0.00    -0.550 OA
ENDBRANCH   5   6
ENDBRANCH   4   5
ENDBRANCH   3   4
ENDBRANCH   2   3
ENDBRANCH   1   2
BRANCH   1   9
ATOM      9  C   UNL     1     -19.125  31.029  23.316  1.00  0.00     0.000 C 
BRANCH   9  10
ATOM     10  C   UNL     1     -19.964  32.300  23.093  1.00  0.00    -0.000 C 
BRANCH  10  11
ATOM     11  C   UNL     1     -21.434  31.994  22.763  1.00  0.00    -0.000 C 
BRANCH  11  12
ATOM     12  C   UNL     1     -21.938  32.747  21.518  1.00  0.00    -0.000 C 
BRANCH  12  13
ATOM     13  C   UNL     1     -21.676  34.263  21.522  1.00  0.00    -0.003 C 
ATOM     14  C   UNL     1     -21.966  34.925  20.175  1.00  0.00     0.004 C 
ENDBRANCH  12  13
ENDBRANCH  11  12
ENDBRANCH  10  11
ENDBRANCH   9  10
ENDBRANCH   1   9
TORSDOF 10
ENDMDL
MODEL 5
REMARK VINA RESULT:    -3.653     12.017     13.261
REMARK INTER + INTRA:          -6.220
REMARK INTER:                  -5.196
REMARK INTRA:                  -1.024
REMARK UNBOUND:                -0.431
REMARK SMILES CCCCCCCCCCCC(=O)[O-]
REMARK SMILES IDX 7 1 8 2 9 3 10 4 11 5 12 6 13 7 14 8 6 9 5 10 4 11 3 12 2 13
REMARK SMILES IDX 1 14
REMARK H PARENT
REMARK Flexibility Score: inf
ROOT
ATOM      1  C   UNL     1     -20.196  33.230  22.941  1.00  0.00     0.000 C 
ENDROOT
BRANCH   1   2
ATOM      2  C   UNL     1     -20.446  31.717  23.078  1.00  0.00     0.000 C 
BRANCH   2   3
ATOM      3  C   UNL     1     -20.792  31.047  21.738  1.00  0.00     0.000 C 
BRANCH   3   4
ATOM      4  C   UNL     1     -19.799  29.934  21.357  1.00  0.00     0.006 C 
BRANCH   4   5
ATOM      5  C   UNL     1     -20.033  29.321  19.968  1.00  0.00     0.053 C 
BRANCH   5   6
ATOM      6  C   UNL     1     -21.373  28.661  19.861  1.00  0.00     0.041 C 
ATOM      7  O   UNL     1     -22.144  28.943  18.906  1.00  0.00    -0.550 OA
ATOM      8  O   UNL     1     -21.757  27.709  20.798  1.00  0.00    -0.550 OA
ENDBRANCH   5   6
ENDBRANCH   4   5
ENDBRANCH   3   4
ENDBRANCH   2   3
ENDBRANCH   1   2
BRANCH   1   9
ATOM      9  C   UNL     1     -21.244  34.138  23.619  1.00  0.00     0.000 C 
BRANCH   9  10
ATOM     10  C   UNL     1     -22.092  34.995  22.662  1.00  0.00    -0.000 C 
BRANCH  10  11
ATOM     11  C   UNL     1     -21.470  35.118  21.261  1.00  0.00    -0.000 C 
BRANCH  11  12
ATOM     12  C   UNL     1     -22.395  34.596  20.147  1.00  0.00    -0.000 C 
BRANCH  12  13
ATOM     13  C   UNL     1     -23.752  34.051  20.627  1.00  0.00    -0.003 C 
ATOM     14  C   UNL     1     -23.914  32.551  20.387  1.00  0.00     0.004 C 
ENDBRANCH  12  13
ENDBRANCH  11  12
ENDBRANCH  10  11
ENDBRANCH   9  10
ENDBRANCH   1   9
TORSDOF 10
ENDMDL
MODEL 6
REMARK VINA RESULT:    -3.652     11.848     14.163
REMARK INTER + INTRA:          -6.218
REMARK INTER:                  -5.318
REMARK INTRA:                  -0.900
REMARK UNBOUND:                -0.431
REMARK SMILES CCCCCCCCCCCC(=O)[O-]
REMARK SMILES IDX 7 1 8 2 9 3 10 4 11 5 12 6 13 7 14 8 6 9 5 10 4 11 3 12 2 13
REMARK SMILES IDX 1 14
REMARK H PARENT
REMARK Flexibility Score: inf
ROOT
ATOM      1  C   UNL     1     -17.762  29.607  23.418  1.00  0.00     0.000 C 
ENDROOT
BRANCH   1   2
ATOM      2  C   UNL     1     -18.924  30.519  23.853  1.00  0.00     0.000 C 
BRANCH   2   3
ATOM      3  C   UNL     1     -18.578  32.014  23.753  1.00  0.00     0.000 C 
BRANCH   3   4
ATOM      4  C   UNL     1     -19.785  32.877  23.342  1.00  0.00     0.006 C 
BRANCH   4   5
ATOM      5  C   UNL     1     -20.910  32.103  22.639  1.00  0.00     0.053 C 
BRANCH   5   6
ATOM      6  C   UNL     1     -21.764  32.995  21.791  1.00  0.00     0.041 C 
ATOM      7  O   UNL     1     -22.754  32.523  21.173  1.00  0.00    -0.550 OA
ATOM      8  O   UNL     1     -21.486  34.353  21.711  1.00  0.00    -0.550 OA
ENDBRANCH   5   6
ENDBRANCH   4   5
ENDBRANCH   3   4
ENDBRANCH   2   3
ENDBRANCH   1   2
BRANCH   1   9
ATOM      9  C   UNL     1     -17.947  28.903  22.057  1.00  0.00     0.000 C 
BRANCH   9  10
ATOM     10  C   UNL     1     -19.395  28.844  21.537  1.00  0.00    -0.000 C 
BRANCH  10  11
ATOM     11  C   UNL     1     -19.600  29.660  20.249  1.00  0.00    -0.000 C 
BRANCH  11  12
ATOM     12  C   UNL     1     -20.405  28.898  19.180  1.00  0.00    -0.000 C 
BRANCH  12  13
ATOM     13  C   UNL     1     -21.717  28.266  19.678  1.00  0.00    -0.003 C 
ATOM     14  C   UNL     1     -22.912  29.215  19.585  1.00  0.00     0.004 C 
ENDBRANCH  12  13
ENDBRANCH  11  12
ENDBRANCH  10  11
ENDBRANCH   9  10
ENDBRANCH   1   9
TORSDOF 10
ENDMDL
MODEL 7
REMARK VINA RESULT:    -3.641     11.547     13.587
REMARK INTER + INTRA:          -6.201
REMARK INTER:                  -5.158
REMARK INTRA:                  -1.043
REMARK UNBOUND:                -0.431
REMARK SMILES CCCCCCCCCCCC(=O)[O-]
REMARK SMILES IDX 7 1 8 2 9 3 10 4 11 5 12 6 13 7 14 8 6 9 5 10 4 11 3 12 2 13
REMARK SMILES IDX 1 14
REMARK H PARENT
REMARK Flexibility Score: inf
ROOT
ATOM      1  C   UNL     1     -17.593  29.625  23.350  1.00  0.00     0.000 C 
ENDROOT
BRANCH   1   2
ATOM      2  C   UNL     1     -17.866  28.895  22.022  1.00  0.00     0.000 C 
BRANCH   2   3
ATOM      3  C   UNL     1     -19.358  28.870  21.652  1.00  0.00     0.000 C 
BRANCH   3   4
ATOM      4  C   UNL     1     -19.667  29.669  20.373  1.00  0.00     0.006 C 
BRANCH   4   5
ATOM      5  C   UNL     1     -20.310  28.843  19.247  1.00  0.00     0.053 C 
BRANCH   5   6
ATOM      6  C   UNL     1     -21.721  28.458  19.567  1.00  0.00     0.041 C 
ATOM      7  O   UNL     1     -22.040  27.243  19.660  1.00  0.00    -0.550 OA
ATOM      8  O   UNL     1     -22.677  29.440  19.795  1.00  0.00    -0.550 OA
ENDBRANCH   5   6
ENDBRANCH   4   5
ENDBRANCH   3   4
ENDBRANCH   2   3
ENDBRANCH   1   2
BRANCH   1   9
ATOM      9  C   UNL     1     -18.753  30.495  23.878  1.00  0.00     0.000 C 
BRANCH   9  10
ATOM     10  C   UNL     1     -18.473  32.008  23.928  1.00  0.00    -0.000 C 
BRANCH  10  11
ATOM     11  C   UNL     1     -19.593  32.844  23.286  1.00  0.00    -0.000 C 
BRANCH  11  12
ATOM     12  C   UNL     1     -20.899  32.051  23.098  1.00  0.00    -0.000 C 
BRANCH  12  13
ATOM     13  C   UNL     1     -21.608  32.269  21.750  1.00  0.00    -0.003 C 
ATOM     14  C   UNL     1     -23.076  32.668  21.902  1.00  0.00     0.004 C 
ENDBRANCH  12  13
ENDBRANCH  11  12
ENDBRANCH  10  11
ENDBRANCH   9  10
ENDBRANCH   1   9
TORSDOF 10
ENDMDL
MODEL 8
REMARK VINA RESULT:    -3.582     11.570     13.715
REMARK INTER + INTRA:          -6.108
REMARK INTER:                  -5.031
REMARK INTRA:                  -1.077
REMARK UNBOUND:                -0.431
REMARK SMILES CCCCCCCCCCCC(=O)[O-]
REMARK SMILES IDX 7 1 8 2 9 3 10 4 11 5 12 6 13 7 14 8 6 9 5 10 4 11 3 12 2 13
REMARK SMILES IDX 1 14
REMARK H PARENT
REMARK Flexibility Score: inf
ROOT
ATOM      1  C   UNL     1     -19.838  31.195  22.818  1.00  0.00     0.000 C 
ENDROOT
BRANCH   1   2
ATOM      2  C   UNL     1     -20.982  32.205  22.616  1.00  0.00     0.000 C 
BRANCH   2   3
ATOM      3  C   UNL     1     -21.912  31.828  21.452  1.00  0.00     0.000 C 
BRANCH   3   4
ATOM      4  C   UNL     1     -23.306  32.469  21.573  1.00  0.00     0.006 C 
BRANCH   4   5
ATOM      5  C   UNL     1     -23.700  33.363  20.387  1.00  0.00     0.053 C 
BRANCH   5   6
ATOM      6  C   UNL     1     -23.038  34.705  20.448  1.00  0.00     0.041 C 
ATOM      7  O   UNL     1     -23.527  35.621  21.160  1.00  0.00    -0.550 OA
ATOM      8  O   UNL     1     -21.861  34.933  19.745  1.00  0.00    -0.550 OA
ENDBRANCH   5   6
ENDBRANCH   4   5
ENDBRANCH   3   4
ENDBRANCH   2   3
ENDBRANCH   1   2
BRANCH   1   9
ATOM      9  C   UNL     1     -20.113  29.770  22.292  1.00  0.00     0.000 C 
BRANCH   9  10
ATOM     10  C   UNL     1     -19.204  29.304  21.140  1.00  0.00    -0.000 C 
BRANCH  10  11
ATOM     11  C   UNL     1     -19.895  29.374  19.768  1.00  0.00    -0.000 C 
BRANCH  11  12
ATOM     12  C   UNL     1     -20.993  28.308  19.597  1.00  0.00    -0.000 C 
BRANCH  12  13
ATOM     13  C   UNL     1     -22.394  28.859  19.279  1.00  0.00    -0.003 C 
ATOM     14  C   UNL     1     -23.379  28.693  20.436  1.00  0.00     0.004 C 
ENDBRANCH  12  13
ENDBRANCH  11  12
ENDBRANCH  10  11
ENDBRANCH   9  10
ENDBRANCH   1   9
TORSDOF 10
ENDMDL
MODEL 9
REMARK VINA RESULT:    -3.565     11.282     13.270
REMARK INTER + INTRA:          -6.081
REMARK INTER:                  -4.642
REMARK INTRA:                  -1.439
REMARK UNBOUND:                -0.431
REMARK SMILES CCCCCCCCCCCC(=O)[O-]
REMARK SMILES IDX 7 1 8 2 9 3 10 4 11 5 12 6 13 7 14 8 6 9 5 10 4 11 3 12 2 13
REMARK SMILES IDX 1 14
REMARK H PARENT
REMARK Flexibility Score: inf
ROOT
ATOM      1  C   UNL     1     -22.912  29.253  19.672  1.00  0.00     0.000 C 
ENDROOT
BRANCH   1   2
ATOM      2  C   UNL     1     -23.642  29.192  21.027  1.00  0.00     0.000 C 
BRANCH   2   3
ATOM      3  C   UNL     1     -23.548  30.510  21.814  1.00  0.00     0.000 C 
BRANCH   3   4
ATOM      4  C   UNL     1     -23.155  31.705  20.927  1.00  0.00     0.006 C 
BRANCH   4   5
ATOM      5  C   UNL     1     -22.051  32.598  21.515  1.00  0.00     0.053 C 
BRANCH   5   6
ATOM      6  C   UNL     1     -22.131  34.003  21.004  1.00  0.00     0.041 C 
ATOM      7  O   UNL     1     -22.969  34.307  20.114  1.00  0.00    -0.550 OA
ATOM      8  O   UNL     1     -21.304  34.985  21.534  1.00  0.00    -0.550 OA
ENDBRANCH   5   6
ENDBRANCH   4   5
ENDBRANCH   3   4
ENDBRANCH   2   3
ENDBRANCH   1   2
BRANCH   1   9
ATOM      9  C   UNL     1     -21.681  28.330  19.542  1.00  0.00     0.000 C 
BRANCH   9  10
ATOM     10  C   UNL     1     -20.376  29.028  19.119  1.00  0.00    -0.000 C 
BRANCH  10  11
ATOM     11  C   UNL     1     -19.601  29.617  20.309  1.00  0.00    -0.000 C 
BRANCH  11  12
ATOM     12  C   UNL     1     -19.725  28.764  21.585  1.00  0.00    -0.000 C 
BRANCH  12  13
ATOM     13  C   UNL     1     -20.071  29.549  22.863  1.00  0.00    -0.003 C 
ATOM     14  C   UNL     1     -19.203  30.791  23.056  1.00  0.00     0.004 C 
ENDBRANCH  12  13
ENDBRANCH  11  12
ENDBRANCH  10  11
ENDBRANCH   9  10
ENDBRANCH   1   9
TORSDOF 10
ENDMDL
