MODEL 1
REMARK VINA RESULT:    -5.177      0.000      0.000
REMARK INTER + INTRA:          -5.177
REMARK INTER:                  -5.177
REMARK INTRA:                   0.000
REMARK UNBOUND:                 0.000
REMARK SMILES CC1=CC(=O)[C@@H]2C[C@H]1C2(C)C
REMARK SMILES IDX 1 1 2 2 3 3 4 4 5 5 6 6 7 7 8 8 9 9 10 10 11 11
REMARK H PARENT
REMARK Flexibility Score: inf
ROOT
ATOM      1  C   UNL     1      -6.159  -1.976 -10.462  1.00  0.00     0.040 C 
ATOM      2  C   UNL     1      -6.021  -0.684  -9.719  1.00  0.00    -0.066 C 
ATOM      3  C   UNL     1      -5.109  -0.514  -8.721  1.00  0.00     0.047 C 
ATOM      4  C   UNL     1      -5.087   0.836  -8.068  1.00  0.00     0.159 C 
ATOM      5  O   UNL     1      -4.263   1.131  -7.164  1.00  0.00    -0.295 OA
ATOM      6  C   UNL     1      -6.133   1.827  -8.578  1.00  0.00     0.067 C 
ATOM      7  C   UNL     1      -7.438   1.001  -8.637  1.00  0.00     0.021 C 
ATOM      8  C   UNL     1      -6.957   0.505 -10.020  1.00  0.00     0.022 C 
ATOM      9  C   UNL     1      -6.117   1.809 -10.133  1.00  0.00    -0.019 C 
ATOM     10  C   UNL     1      -6.926   2.980 -10.745  1.00  0.00     0.012 C 
ATOM     11  C   UNL     1      -4.742   1.736 -10.856  1.00  0.00     0.012 C 
ENDROOT
TORSDOF 0
ENDMDL
MODEL 2
REMARK VINA RESULT:    -4.889      7.527      9.475
REMARK INTER + INTRA:          -4.889
REMARK INTER:                  -4.889
REMARK INTRA:                   0.000
REMARK UNBOUND:                 0.000
REMARK SMILES CC1=CC(=O)[C@@H]2C[C@H]1C2(C)C
REMARK SMILES IDX 1 1 2 2 3 3 4 4 5 5 6 6 7 7 8 8 9 9 10 10 11 11
REMARK H PARENT
REMARK Flexibility Score: inf
ROOT
ATOM      1  C   UNL     1      -8.057  -3.136 -13.356  1.00  0.00     0.040 C 
ATOM      2  C   UNL     1      -8.695  -3.914 -14.463  1.00  0.00    -0.066 C 
ATOM      3  C   UNL     1      -8.041  -4.913 -15.121  1.00  0.00     0.047 C 
ATOM      4  C   UNL     1      -8.808  -5.604 -16.206  1.00  0.00     0.159 C 
ATOM      5  O   UNL     1      -8.330  -6.569 -16.858  1.00  0.00    -0.295 OA
ATOM      6  C   UNL     1     -10.211  -5.057 -16.467  1.00  0.00     0.067 C 
ATOM      7  C   UNL     1     -10.020  -3.524 -16.491  1.00  0.00     0.021 C 
ATOM      8  C   UNL     1     -10.120  -3.576 -14.949  1.00  0.00     0.022 C 
ATOM      9  C   UNL     1     -10.939  -4.890 -15.103  1.00  0.00    -0.019 C 
ATOM     10  C   UNL     1     -12.456  -4.621 -15.272  1.00  0.00     0.012 C 
ATOM     11  C   UNL     1     -10.758  -5.999 -14.029  1.00  0.00     0.012 C 
ENDROOT
TORSDOF 0
ENDMDL
MODEL 3
REMARK VINA RESULT:    -4.794      1.715      3.174
REMARK INTER + INTRA:          -4.794
REMARK INTER:                  -4.794
REMARK INTRA:                   0.000
REMARK UNBOUND:                 0.000
REMARK SMILES CC1=CC(=O)[C@@H]2C[C@H]1C2(C)C
REMARK SMILES IDX 1 1 2 2 3 3 4 4 5 5 6 6 7 7 8 8 9 9 10 10 11 11
REMARK H PARENT
REMARK Flexibility Score: inf
ROOT
ATOM      1  C   UNL     1      -4.021   1.051  -7.291  1.00  0.00     0.040 C 
ATOM      2  C   UNL     1      -5.030   1.036  -8.396  1.00  0.00    -0.066 C 
ATOM      3  C   UNL     1      -5.283   2.132  -9.165  1.00  0.00     0.047 C 
ATOM      4  C   UNL     1      -6.319   1.965 -10.235  1.00  0.00     0.159 C 
ATOM      5  O   UNL     1      -6.612   2.890 -11.037  1.00  0.00    -0.295 OA
ATOM      6  C   UNL     1      -6.996   0.595 -10.283  1.00  0.00     0.067 C 
ATOM      7  C   UNL     1      -7.330   0.286  -8.807  1.00  0.00     0.021 C 
ATOM      8  C   UNL     1      -5.876  -0.223  -8.676  1.00  0.00     0.022 C 
ATOM      9  C   UNL     1      -5.897  -0.503 -10.206  1.00  0.00    -0.019 C 
ATOM     10  C   UNL     1      -6.446  -1.913 -10.541  1.00  0.00     0.012 C 
ATOM     11  C   UNL     1      -4.582  -0.289 -11.010  1.00  0.00     0.012 C 
ENDROOT
TORSDOF 0
ENDMDL
MODEL 4
REMARK VINA RESULT:    -4.667      1.115      3.112
REMARK INTER + INTRA:          -4.667
REMARK INTER:                  -4.667
REMARK INTRA:                   0.000
REMARK UNBOUND:                 0.000
REMARK SMILES CC1=CC(=O)[C@@H]2C[C@H]1C2(C)C
REMARK SMILES IDX 1 1 2 2 3 3 4 4 5 5 6 6 7 7 8 8 9 9 10 10 11 11
REMARK H PARENT
REMARK Flexibility Score: inf
ROOT
ATOM      1  C   UNL     1      -7.369   3.310 -10.111  1.00  0.00     0.040 C 
ATOM      2  C   UNL     1      -6.243   2.404  -9.724  1.00  0.00    -0.066 C 
ATOM      3  C   UNL     1      -5.850   2.245  -8.429  1.00  0.00     0.047 C 
ATOM      4  C   UNL     1      -4.709   1.303  -8.194  1.00  0.00     0.159 C 
ATOM      5  O   UNL     1      -4.281   1.039  -7.040  1.00  0.00    -0.295 OA
ATOM      6  C   UNL     1      -4.100   0.685  -9.453  1.00  0.00     0.067 C 
ATOM      7  C   UNL     1      -3.952   1.876 -10.425  1.00  0.00     0.021 C 
ATOM      8  C   UNL     1      -5.435   1.645 -10.796  1.00  0.00     0.022 C 
ATOM      9  C   UNL     1      -5.254   0.164 -10.356  1.00  0.00    -0.019 C 
ATOM     10  C   UNL     1      -4.741  -0.736 -11.509  1.00  0.00     0.012 C 
ATOM     11  C   UNL     1      -6.456  -0.553  -9.678  1.00  0.00     0.012 C 
ENDROOT
TORSDOF 0
ENDMDL
MODEL 5
REMARK VINA RESULT:    -4.632      6.164      8.370
REMARK INTER + INTRA:          -4.632
REMARK INTER:                  -4.632
REMARK INTRA:                   0.000
REMARK UNBOUND:                 0.000
REMARK SMILES CC1=CC(=O)[C@@H]2C[C@H]1C2(C)C
REMARK SMILES IDX 1 1 2 2 3 3 4 4 5 5 6 6 7 7 8 8 9 9 10 10 11 11
REMARK H PARENT
REMARK Flexibility Score: inf
ROOT
ATOM      1  C   UNL     1      -8.150  -2.020 -12.746  1.00  0.00     0.040 C 
ATOM      2  C   UNL     1      -8.058  -3.092 -13.786  1.00  0.00    -0.066 C 
ATOM      3  C   UNL     1      -6.872  -3.457 -14.350  1.00  0.00     0.047 C 
ATOM      4  C   UNL     1      -6.936  -4.548 -15.376  1.00  0.00     0.159 C 
ATOM      5  O   UNL     1      -5.906  -5.002 -15.939  1.00  0.00    -0.295 OA
ATOM      6  C   UNL     1      -8.338  -5.068 -15.693  1.00  0.00     0.067 C 
ATOM      7  C   UNL     1      -9.190  -3.788 -15.848  1.00  0.00     0.021 C 
ATOM      8  C   UNL     1      -9.326  -3.798 -14.308  1.00  0.00     0.022 C 
ATOM      9  C   UNL     1      -9.082  -5.334 -14.353  1.00  0.00    -0.019 C 
ATOM     10  C   UNL     1     -10.394  -6.134 -14.555  1.00  0.00     0.012 C 
ATOM     11  C   UNL     1      -8.289  -5.986 -13.186  1.00  0.00     0.012 C 
ENDROOT
TORSDOF 0
ENDMDL
MODEL 6
REMARK VINA RESULT:    -4.522      1.804      3.316
REMARK INTER + INTRA:          -4.522
REMARK INTER:                  -4.522
REMARK INTRA:                   0.000
REMARK UNBOUND:                 0.000
REMARK SMILES CC1=CC(=O)[C@@H]2C[C@H]1C2(C)C
REMARK SMILES IDX 1 1 2 2 3 3 4 4 5 5 6 6 7 7 8 8 9 9 10 10 11 11
REMARK H PARENT
REMARK Flexibility Score: inf
ROOT
ATOM      1  C   UNL     1      -7.374   3.622 -10.262  1.00  0.00     0.040 C 
ATOM      2  C   UNL     1      -6.676   2.336  -9.949  1.00  0.00    -0.066 C 
ATOM      3  C   UNL     1      -6.451   1.382 -10.895  1.00  0.00     0.047 C 
ATOM      4  C   UNL     1      -5.739   0.146 -10.433  1.00  0.00     0.159 C 
ATOM      5  O   UNL     1      -5.436  -0.788 -11.220  1.00  0.00    -0.295 OA
ATOM      6  C   UNL     1      -5.408   0.101  -8.942  1.00  0.00     0.067 C 
ATOM      7  C   UNL     1      -6.710   0.565  -8.251  1.00  0.00     0.021 C 
ATOM      8  C   UNL     1      -6.227   2.011  -8.509  1.00  0.00     0.022 C 
ATOM      9  C   UNL     1      -4.772   1.460  -8.534  1.00  0.00    -0.019 C 
ATOM     10  C   UNL     1      -4.136   1.414  -7.121  1.00  0.00     0.012 C 
ATOM     11  C   UNL     1      -3.753   2.119  -9.505  1.00  0.00     0.012 C 
ENDROOT
TORSDOF 0
ENDMDL
MODEL 7
REMARK VINA RESULT:    -4.504      1.659      2.501
REMARK INTER + INTRA:          -4.504
REMARK INTER:                  -4.504
REMARK INTRA:                   0.000
REMARK UNBOUND:                 0.000
REMARK SMILES CC1=CC(=O)[C@@H]2C[C@H]1C2(C)C
REMARK SMILES IDX 1 1 2 2 3 3 4 4 5 5 6 6 7 7 8 8 9 9 10 10 11 11
REMARK H PARENT
REMARK Flexibility Score: inf
ROOT
ATOM      1  C   UNL     1      -5.340  -1.576 -11.905  1.00  0.00     0.040 C 
ATOM      2  C   UNL     1      -5.716  -0.539 -10.894  1.00  0.00    -0.066 C 
ATOM      3  C   UNL     1      -6.774  -0.697 -10.049  1.00  0.00     0.047 C 
ATOM      4  C   UNL     1      -7.028   0.425  -9.089  1.00  0.00     0.159 C 
ATOM      5  O   UNL     1      -7.948   0.381  -8.231  1.00  0.00    -0.295 OA
ATOM      6  C   UNL     1      -6.094   1.628  -9.226  1.00  0.00     0.067 C 
ATOM      7  C   UNL     1      -6.034   1.889 -10.747  1.00  0.00     0.021 C 
ATOM      8  C   UNL     1      -4.945   0.794 -10.804  1.00  0.00     0.022 C 
ATOM      9  C   UNL     1      -4.630   1.110  -9.314  1.00  0.00    -0.019 C 
ATOM     10  C   UNL     1      -3.590   2.249  -9.160  1.00  0.00     0.012 C 
ATOM     11  C   UNL     1      -4.205  -0.065  -8.388  1.00  0.00     0.012 C 
ENDROOT
TORSDOF 0
ENDMDL
MODEL 8
REMARK VINA RESULT:    -4.474      1.635      3.016
REMARK INTER + INTRA:          -4.474
REMARK INTER:                  -4.474
REMARK INTRA:                   0.000
REMARK UNBOUND:                 0.000
REMARK SMILES CC1=CC(=O)[C@@H]2C[C@H]1C2(C)C
REMARK SMILES IDX 1 1 2 2 3 3 4 4 5 5 6 6 7 7 8 8 9 9 10 10 11 11
REMARK H PARENT
REMARK Flexibility Score: inf
ROOT
ATOM      1  C   UNL     1      -3.906   1.349  -7.042  1.00  0.00     0.040 C 
ATOM      2  C   UNL     1      -4.546   0.894  -8.316  1.00  0.00    -0.066 C 
ATOM      3  C   UNL     1      -4.867  -0.411  -8.542  1.00  0.00     0.047 C 
ATOM      4  C   UNL     1      -5.505  -0.715  -9.864  1.00  0.00     0.159 C 
ATOM      5  O   UNL     1      -5.885  -1.874 -10.176  1.00  0.00    -0.295 OA
ATOM      6  C   UNL     1      -5.660   0.478 -10.807  1.00  0.00     0.067 C 
ATOM      7  C   UNL     1      -4.294   1.195 -10.737  1.00  0.00     0.021 C 
ATOM      8  C   UNL     1      -4.822   1.890  -9.461  1.00  0.00     0.022 C 
ATOM      9  C   UNL     1      -6.262   1.667 -10.005  1.00  0.00    -0.019 C 
ATOM     10  C   UNL     1      -6.730   2.823 -10.925  1.00  0.00     0.012 C 
ATOM     11  C   UNL     1      -7.396   1.370  -8.983  1.00  0.00     0.012 C 
ENDROOT
TORSDOF 0
ENDMDL
