MODEL 1
REMARK VINA RESULT:    -5.140      0.000      0.000
REMARK INTER + INTRA:          -5.754
REMARK INTER:                  -5.440
REMARK INTRA:                  -0.314
REMARK UNBOUND:                -0.314
REMARK SMILES CC1=CC[C@@]23[C@@H]([C@@H]12)[C@H](C(C)C)CC[C@H]3C
REMARK SMILES IDX 15 1 14 2 13 3 12 4 8 5 6 6 5 7 7 8 2 9 3 10 4 11 1 12 9 13
REMARK SMILES IDX 10 14 11 15
REMARK H PARENT
REMARK Flexibility Score: inf
ROOT
ATOM      1  C   UNL     1       2.238  18.731  17.108  1.00  0.00     0.008 C 
ATOM      2  C   UNL     1       1.427  17.432  17.238  1.00  0.00    -0.007 C 
ATOM      3  C   UNL     1       2.301  16.329  17.859  1.00  0.00     0.004 C 
ATOM      4  C   UNL     1       1.628  14.961  17.764  1.00  0.00     0.004 C 
ATOM      5  C   UNL     1       1.541  14.503  16.293  1.00  0.00    -0.004 C 
ATOM      6  C   UNL     1       0.767  15.554  15.450  1.00  0.00     0.007 C 
ATOM      7  C   UNL     1       0.774  17.026  15.890  1.00  0.00    -0.013 C 
ATOM      8  C   UNL     1       1.682  16.572  14.752  1.00  0.00     0.025 C 
ATOM      9  C   UNL     1       1.110  17.250  13.552  1.00  0.00    -0.073 C 
ATOM     10  C   UNL     1       0.043  17.988  13.832  1.00  0.00    -0.027 C 
ATOM     11  C   UNL     1      -0.320  17.916  15.276  1.00  0.00     0.035 C 
ATOM     12  C   UNL     1       1.674  17.105  12.173  1.00  0.00     0.039 C 
ENDROOT
BRANCH   5  13
ATOM     13  C   UNL     1       0.871  13.100  16.138  1.00  0.00    -0.014 C 
ATOM     14  C   UNL     1       1.326  12.354  14.870  1.00  0.00     0.007 C 
ATOM     15  C   UNL     1      -0.665  13.226  16.107  1.00  0.00     0.007 C 
ENDBRANCH   5  13
TORSDOF 1
ENDMDL
MODEL 2
REMARK VINA RESULT:    -5.084      1.558      3.226
REMARK INTER + INTRA:          -5.695
REMARK INTER:                  -5.357
REMARK INTRA:                  -0.338
REMARK UNBOUND:                -0.314
REMARK SMILES CC1=CC[C@@]23[C@@H]([C@@H]12)[C@H](C(C)C)CC[C@H]3C
REMARK SMILES IDX 15 1 14 2 13 3 12 4 8 5 6 6 5 7 7 8 2 9 3 10 4 11 1 12 9 13
REMARK SMILES IDX 10 14 11 15
REMARK H PARENT
REMARK Flexibility Score: inf
ROOT
ATOM      1  C   UNL     1      -0.784  14.654  18.124  1.00  0.00     0.008 C 
ATOM      2  C   UNL     1      -0.253  14.269  16.735  1.00  0.00    -0.007 C 
ATOM      3  C   UNL     1       0.761  13.119  16.861  1.00  0.00     0.004 C 
ATOM      4  C   UNL     1       1.507  12.882  15.550  1.00  0.00     0.004 C 
ATOM      5  C   UNL     1       2.427  14.079  15.229  1.00  0.00    -0.004 C 
ATOM      6  C   UNL     1       1.596  15.389  15.158  1.00  0.00     0.007 C 
ATOM      7  C   UNL     1       0.296  15.501  15.968  1.00  0.00    -0.013 C 
ATOM      8  C   UNL     1       1.568  16.168  16.481  1.00  0.00     0.025 C 
ATOM      9  C   UNL     1       1.270  17.627  16.376  1.00  0.00    -0.073 C 
ATOM     10  C   UNL     1       0.061  17.875  15.886  1.00  0.00    -0.027 C 
ATOM     11  C   UNL     1      -0.668  16.622  15.541  1.00  0.00     0.035 C 
ATOM     12  C   UNL     1       2.237  18.699  16.771  1.00  0.00     0.039 C 
ENDROOT
BRANCH   5  13
ATOM     13  C   UNL     1       3.227  13.884  13.901  1.00  0.00    -0.014 C 
ATOM     14  C   UNL     1       3.237  15.143  13.014  1.00  0.00     0.007 C 
ATOM     15  C   UNL     1       2.650  12.713  13.080  1.00  0.00     0.007 C 
ENDBRANCH   5  13
TORSDOF 1
ENDMDL
MODEL 3
REMARK VINA RESULT:    -5.045      1.051      4.239
REMARK INTER + INTRA:          -5.654
REMARK INTER:                  -5.339
REMARK INTRA:                  -0.315
REMARK UNBOUND:                -0.314
REMARK SMILES CC1=CC[C@@]23[C@@H]([C@@H]12)[C@H](C(C)C)CC[C@H]3C
REMARK SMILES IDX 15 1 14 2 13 3 12 4 8 5 6 6 5 7 7 8 2 9 3 10 4 11 1 12 9 13
REMARK SMILES IDX 10 14 11 15
REMARK H PARENT
REMARK Flexibility Score: inf
ROOT
ATOM      1  C   UNL     1       1.822  14.226  18.351  1.00  0.00     0.008 C 
ATOM      2  C   UNL     1       2.106  15.276  17.267  1.00  0.00    -0.007 C 
ATOM      3  C   UNL     1       1.400  16.596  17.618  1.00  0.00     0.004 C 
ATOM      4  C   UNL     1       1.434  17.578  16.448  1.00  0.00     0.004 C 
ATOM      5  C   UNL     1       0.568  17.059  15.282  1.00  0.00    -0.004 C 
ATOM      6  C   UNL     1       1.060  15.656  14.833  1.00  0.00     0.007 C 
ATOM      7  C   UNL     1       1.764  14.744  15.849  1.00  0.00    -0.013 C 
ATOM      8  C   UNL     1       0.300  14.499  15.500  1.00  0.00     0.025 C 
ATOM      9  C   UNL     1       0.324  13.196  14.773  1.00  0.00    -0.073 C 
ATOM     10  C   UNL     1       1.545  12.689  14.655  1.00  0.00    -0.027 C 
ATOM     11  C   UNL     1       2.577  13.580  15.257  1.00  0.00     0.035 C 
ATOM     12  C   UNL     1      -0.901  12.533  14.224  1.00  0.00     0.039 C 
ENDROOT
BRANCH   5  13
ATOM     13  C   UNL     1       0.556  18.033  14.061  1.00  0.00    -0.014 C 
ATOM     14  C   UNL     1      -0.782  18.026  13.299  1.00  0.00     0.007 C 
ATOM     15  C   UNL     1       1.684  17.685  13.070  1.00  0.00     0.007 C 
ENDBRANCH   5  13
TORSDOF 1
ENDMDL
MODEL 4
REMARK VINA RESULT:    -5.020      0.933      1.184
REMARK INTER + INTRA:          -5.628
REMARK INTER:                  -5.315
REMARK INTRA:                  -0.312
REMARK UNBOUND:                -0.314
REMARK SMILES CC1=CC[C@@]23[C@@H]([C@@H]12)[C@H](C(C)C)CC[C@H]3C
REMARK SMILES IDX 15 1 14 2 13 3 12 4 8 5 6 6 5 7 7 8 2 9 3 10 4 11 1 12 9 13
REMARK SMILES IDX 10 14 11 15
REMARK H PARENT
REMARK Flexibility Score: inf
ROOT
ATOM      1  C   UNL     1       2.057  17.267  17.759  1.00  0.00     0.008 C 
ATOM      2  C   UNL     1       1.131  16.083  17.441  1.00  0.00    -0.007 C 
ATOM      3  C   UNL     1       1.851  14.758  17.744  1.00  0.00     0.004 C 
ATOM      4  C   UNL     1       1.075  13.561  17.199  1.00  0.00     0.004 C 
ATOM      5  C   UNL     1       1.077  13.574  15.656  1.00  0.00    -0.004 C 
ATOM      6  C   UNL     1       0.471  14.904  15.131  1.00  0.00     0.007 C 
ATOM      7  C   UNL     1       0.564  16.169  15.999  1.00  0.00    -0.013 C 
ATOM      8  C   UNL     1       1.525  15.980  14.829  1.00  0.00     0.025 C 
ATOM      9  C   UNL     1       1.118  17.042  13.862  1.00  0.00    -0.073 C 
ATOM     10  C   UNL     1       0.098  17.772  14.294  1.00  0.00    -0.027 C 
ATOM     11  C   UNL     1      -0.393  17.313  15.624  1.00  0.00     0.035 C 
ATOM     12  C   UNL     1       1.785  17.254  12.540  1.00  0.00     0.039 C 
ENDROOT
BRANCH   5  13
ATOM     13  C   UNL     1       0.306  12.361  15.043  1.00  0.00    -0.014 C 
ATOM     14  C   UNL     1       1.160  11.541  14.059  1.00  0.00     0.007 C 
ATOM     15  C   UNL     1      -0.966  12.832  14.311  1.00  0.00     0.007 C 
ENDBRANCH   5  13
TORSDOF 1
ENDMDL
MODEL 5
REMARK VINA RESULT:    -4.994      2.011      4.528
REMARK INTER + INTRA:          -5.600
REMARK INTER:                  -5.387
REMARK INTRA:                  -0.212
REMARK UNBOUND:                -0.314
REMARK SMILES CC1=CC[C@@]23[C@@H]([C@@H]12)[C@H](C(C)C)CC[C@H]3C
REMARK SMILES IDX 15 1 14 2 13 3 12 4 8 5 6 6 5 7 7 8 2 9 3 10 4 11 1 12 9 13
REMARK SMILES IDX 10 14 11 15
REMARK H PARENT
REMARK Flexibility Score: inf
ROOT
ATOM      1  C   UNL     1       1.450  11.964  11.914  1.00  0.00     0.008 C 
ATOM      2  C   UNL     1       1.932  12.110  13.366  1.00  0.00    -0.007 C 
ATOM      3  C   UNL     1       0.737  11.995  14.328  1.00  0.00     0.004 C 
ATOM      4  C   UNL     1       1.123  12.396  15.751  1.00  0.00     0.004 C 
ATOM      5  C   UNL     1       1.439  13.904  15.820  1.00  0.00    -0.004 C 
ATOM      6  C   UNL     1       2.576  14.259  14.824  1.00  0.00     0.007 C 
ATOM      7  C   UNL     1       2.770  13.401  13.565  1.00  0.00    -0.013 C 
ATOM      8  C   UNL     1       2.065  14.749  13.461  1.00  0.00     0.025 C 
ATOM      9  C   UNL     1       3.014  15.584  12.667  1.00  0.00    -0.073 C 
ATOM     10  C   UNL     1       4.119  14.932  12.327  1.00  0.00    -0.027 C 
ATOM     11  C   UNL     1       4.130  13.540  12.860  1.00  0.00     0.035 C 
ATOM     12  C   UNL     1       2.751  17.011  12.301  1.00  0.00     0.039 C 
ENDROOT
BRANCH   5  13
ATOM     13  C   UNL     1       1.827  14.372  17.259  1.00  0.00    -0.014 C 
ATOM     14  C   UNL     1       1.124  13.564  18.366  1.00  0.00     0.007 C 
ATOM     15  C   UNL     1       1.496  15.864  17.459  1.00  0.00     0.007 C 
ENDBRANCH   5  13
TORSDOF 1
ENDMDL
MODEL 6
REMARK VINA RESULT:    -4.975      1.647      4.190
REMARK INTER + INTRA:          -5.580
REMARK INTER:                  -5.242
REMARK INTRA:                  -0.339
REMARK UNBOUND:                -0.314
REMARK SMILES CC1=CC[C@@]23[C@@H]([C@@H]12)[C@H](C(C)C)CC[C@H]3C
REMARK SMILES IDX 15 1 14 2 13 3 12 4 8 5 6 6 5 7 7 8 2 9 3 10 4 11 1 12 9 13
REMARK SMILES IDX 10 14 11 15
REMARK H PARENT
REMARK Flexibility Score: inf
ROOT
ATOM      1  C   UNL     1      -0.766  17.984  15.274  1.00  0.00     0.008 C 
ATOM      2  C   UNL     1       0.628  17.633  14.732  1.00  0.00    -0.007 C 
ATOM      3  C   UNL     1       0.569  17.470  13.203  1.00  0.00     0.004 C 
ATOM      4  C   UNL     1       1.861  16.866  12.654  1.00  0.00     0.004 C 
ATOM      5  C   UNL     1       2.013  15.403  13.121  1.00  0.00    -0.004 C 
ATOM      6  C   UNL     1       1.991  15.331  14.672  1.00  0.00     0.007 C 
ATOM      7  C   UNL     1       1.238  16.409  15.466  1.00  0.00    -0.013 C 
ATOM      8  C   UNL     1       0.599  15.041  15.251  1.00  0.00     0.025 C 
ATOM      9  C   UNL     1       0.570  14.446  16.620  1.00  0.00    -0.073 C 
ATOM     10  C   UNL     1       1.090  15.245  17.544  1.00  0.00    -0.027 C 
ATOM     11  C   UNL     1       1.595  16.518  16.958  1.00  0.00     0.035 C 
ATOM     12  C   UNL     1       0.021  13.086  16.918  1.00  0.00     0.039 C 
ENDROOT
BRANCH   5  13
ATOM     13  C   UNL     1       3.314  14.730  12.576  1.00  0.00    -0.014 C 
ATOM     14  C   UNL     1       4.024  13.855  13.625  1.00  0.00     0.007 C 
ATOM     15  C   UNL     1       4.311  15.792  12.070  1.00  0.00     0.007 C 
ENDBRANCH   5  13
TORSDOF 1
ENDMDL
MODEL 7
REMARK VINA RESULT:    -4.957      1.625      4.951
REMARK INTER + INTRA:          -5.561
REMARK INTER:                  -5.234
REMARK INTRA:                  -0.328
REMARK UNBOUND:                -0.314
REMARK SMILES CC1=CC[C@@]23[C@@H]([C@@H]12)[C@H](C(C)C)CC[C@H]3C
REMARK SMILES IDX 15 1 14 2 13 3 12 4 8 5 6 6 5 7 7 8 2 9 3 10 4 11 1 12 9 13
REMARK SMILES IDX 10 14 11 15
REMARK H PARENT
REMARK Flexibility Score: inf
ROOT
ATOM      1  C   UNL     1       4.130  13.866  13.254  1.00  0.00     0.008 C 
ATOM      2  C   UNL     1       2.822  14.608  12.941  1.00  0.00    -0.007 C 
ATOM      3  C   UNL     1       3.123  16.075  12.587  1.00  0.00     0.004 C 
ATOM      4  C   UNL     1       1.846  16.911  12.528  1.00  0.00     0.004 C 
ATOM      5  C   UNL     1       1.225  17.047  13.934  1.00  0.00    -0.004 C 
ATOM      6  C   UNL     1       0.933  15.643  14.529  1.00  0.00     0.007 C 
ATOM      7  C   UNL     1       1.782  14.443  14.080  1.00  0.00    -0.013 C 
ATOM      8  C   UNL     1       2.063  15.110  15.423  1.00  0.00     0.025 C 
ATOM      9  C   UNL     1       1.673  14.072  16.422  1.00  0.00    -0.073 C 
ATOM     10  C   UNL     1       1.219  12.958  15.861  1.00  0.00    -0.027 C 
ATOM     11  C   UNL     1       1.190  13.054  14.374  1.00  0.00     0.035 C 
ATOM     12  C   UNL     1       1.774  14.270  17.902  1.00  0.00     0.039 C 
ENDROOT
BRANCH   5  13
ATOM     13  C   UNL     1      -0.080  17.907  13.935  1.00  0.00    -0.014 C 
ATOM     14  C   UNL     1      -0.959  17.664  15.175  1.00  0.00     0.007 C 
ATOM     15  C   UNL     1      -0.922  17.625  12.675  1.00  0.00     0.007 C 
ENDBRANCH   5  13
TORSDOF 1
ENDMDL
MODEL 8
REMARK VINA RESULT:    -4.612      1.921      2.834
REMARK INTER + INTRA:          -5.196
REMARK INTER:                  -4.955
REMARK INTRA:                  -0.241
REMARK UNBOUND:                -0.314
REMARK SMILES CC1=CC[C@@]23[C@@H]([C@@H]12)[C@H](C(C)C)CC[C@H]3C
REMARK SMILES IDX 15 1 14 2 13 3 12 4 8 5 6 6 5 7 7 8 2 9 3 10 4 11 1 12 9 13
REMARK SMILES IDX 10 14 11 15
REMARK H PARENT
REMARK Flexibility Score: inf
ROOT
ATOM      1  C   UNL     1       1.410  17.936  14.188  1.00  0.00     0.008 C 
ATOM      2  C   UNL     1       0.651  16.763  14.828  1.00  0.00    -0.007 C 
ATOM      3  C   UNL     1       0.787  16.824  16.358  1.00  0.00     0.004 C 
ATOM      4  C   UNL     1       0.279  15.544  17.018  1.00  0.00     0.004 C 
ATOM      5  C   UNL     1       1.198  14.355  16.668  1.00  0.00    -0.004 C 
ATOM      6  C   UNL     1       1.283  14.181  15.127  1.00  0.00     0.007 C 
ATOM      7  C   UNL     1       1.079  15.402  14.218  1.00  0.00    -0.013 C 
ATOM      8  C   UNL     1       2.490  14.893  14.496  1.00  0.00     0.025 C 
ATOM      9  C   UNL     1       2.943  14.367  13.175  1.00  0.00    -0.073 C 
ATOM     10  C   UNL     1       2.025  14.491  12.225  1.00  0.00    -0.027 C 
ATOM     11  C   UNL     1       0.766  15.098  12.743  1.00  0.00     0.035 C 
ATOM     12  C   UNL     1       4.290  13.755  12.947  1.00  0.00     0.039 C 
ENDROOT
BRANCH   5  13
ATOM     13  C   UNL     1       0.731  13.018  17.328  1.00  0.00    -0.014 C 
ATOM     14  C   UNL     1      -0.713  12.634  16.954  1.00  0.00     0.007 C 
ATOM     15  C   UNL     1       0.831  13.101  18.864  1.00  0.00     0.007 C 
ENDBRANCH   5  13
TORSDOF 1
ENDMDL
MODEL 9
REMARK VINA RESULT:    -4.572      1.757      4.559
REMARK INTER + INTRA:          -5.153
REMARK INTER:                  -4.944
REMARK INTRA:                  -0.209
REMARK UNBOUND:                -0.314
REMARK SMILES CC1=CC[C@@]23[C@@H]([C@@H]12)[C@H](C(C)C)CC[C@H]3C
REMARK SMILES IDX 15 1 14 2 13 3 12 4 8 5 6 6 5 7 7 8 2 9 3 10 4 11 1 12 9 13
REMARK SMILES IDX 10 14 11 15
REMARK H PARENT
REMARK Flexibility Score: inf
ROOT
ATOM      1  C   UNL     1       0.509  16.595  15.920  1.00  0.00     0.008 C 
ATOM      2  C   UNL     1       1.149  15.389  15.216  1.00  0.00    -0.007 C 
ATOM      3  C   UNL     1       0.367  15.054  13.935  1.00  0.00     0.004 C 
ATOM      4  C   UNL     1       0.801  13.713  13.347  1.00  0.00     0.004 C 
ATOM      5  C   UNL     1       0.387  12.555  14.279  1.00  0.00    -0.004 C 
ATOM      6  C   UNL     1       1.002  12.760  15.691  1.00  0.00     0.007 C 
ATOM      7  C   UNL     1       1.314  14.183  16.178  1.00  0.00    -0.013 C 
ATOM      8  C   UNL     1       0.058  13.471  16.672  1.00  0.00     0.025 C 
ATOM      9  C   UNL     1       0.328  13.243  18.122  1.00  0.00    -0.073 C 
ATOM     10  C   UNL     1       1.515  13.697  18.506  1.00  0.00    -0.027 C 
ATOM     11  C   UNL     1       2.279  14.288  17.372  1.00  0.00     0.035 C 
ATOM     12  C   UNL     1      -0.635  12.565  19.045  1.00  0.00     0.039 C 
ENDROOT
BRANCH   5  13
ATOM     13  C   UNL     1       0.796  11.155  13.719  1.00  0.00    -0.014 C 
ATOM     14  C   UNL     1       1.925  11.231  12.675  1.00  0.00     0.007 C 
ATOM     15  C   UNL     1      -0.414  10.446  13.080  1.00  0.00     0.007 C 
ENDBRANCH   5  13
TORSDOF 1
ENDMDL
