MODEL 1
REMARK VINA RESULT:    -6.772      0.000      0.000
REMARK INTER + INTRA:         -10.279
REMARK INTER:                  -9.939
REMARK INTRA:                  -0.340
REMARK UNBOUND:                -0.340
REMARK SMILES CC(C)COC(=O)c1ccccc1C(=O)OCC(C)C
REMARK SMILES IDX 8 1 9 2 10 3 11 4 12 5 13 6 6 7 7 8 5 9 4 10 2 11 1 12 3 13
REMARK SMILES IDX 14 14 15 15 16 16 17 17 18 18 19 19 20 20
REMARK H PARENT
REMARK Flexibility Score: inf
ROOT
ATOM      1  C   UNL     1      32.982   8.575 107.549  1.00  0.00     0.074 A 
ATOM      2  C   UNL     1      34.296   8.751 108.019  1.00  0.00     0.016 A 
ATOM      3  C   UNL     1      35.239   9.444 107.259  1.00  0.00     0.001 A 
ATOM      4  C   UNL     1      34.885   9.971 106.019  1.00  0.00     0.001 A 
ATOM      5  C   UNL     1      33.595   9.788 105.523  1.00  0.00     0.016 A 
ATOM      6  C   UNL     1      32.634   9.073 106.262  1.00  0.00     0.074 A 
ENDROOT
BRANCH   1   7
ATOM      7  C   UNL     1      32.005   7.932 108.456  1.00  0.00     0.339 C 
ATOM      8  O   UNL     1      31.412   8.608 109.341  1.00  0.00    -0.246 OA
BRANCH   7   9
ATOM      9  O   UNL     1      31.788   6.554 108.365  1.00  0.00    -0.462 OA
BRANCH   9  10
ATOM     10  C   UNL     1      32.848   5.613 108.211  1.00  0.00     0.236 C 
BRANCH  10  11
ATOM     11  C   UNL     1      32.384   4.409 107.376  1.00  0.00     0.021 C 
ATOM     12  C   UNL     1      33.578   3.673 106.754  1.00  0.00     0.011 C 
ATOM     13  C   UNL     1      31.388   4.838 106.292  1.00  0.00     0.011 C 
ENDBRANCH  10  11
ENDBRANCH   9  10
ENDBRANCH   7   9
ENDBRANCH   1   7
BRANCH   6  14
ATOM     14  C   UNL     1      31.322   8.819 105.626  1.00  0.00     0.339 C 
ATOM     15  O   UNL     1      31.054   7.683 105.145  1.00  0.00    -0.246 OA
BRANCH  14  16
ATOM     16  O   UNL     1      30.401   9.865 105.510  1.00  0.00    -0.462 OA
BRANCH  16  17
ATOM     17  C   UNL     1      30.768  11.171 105.072  1.00  0.00     0.236 C 
BRANCH  17  18
ATOM     18  C   UNL     1      29.869  12.221 105.739  1.00  0.00     0.021 C 
ATOM     19  C   UNL     1      28.385  11.894 105.525  1.00  0.00     0.011 C 
ATOM     20  C   UNL     1      30.188  13.620 105.200  1.00  0.00     0.011 C 
ENDBRANCH  17  18
ENDBRANCH  16  17
ENDBRANCH  14  16
ENDBRANCH   6  14
TORSDOF 8
ENDMDL
MODEL 2
REMARK VINA RESULT:    -6.740      0.126      5.934
REMARK INTER + INTRA:         -10.233
REMARK INTER:                 -10.016
REMARK INTRA:                  -0.217
REMARK UNBOUND:                -0.340
REMARK SMILES CC(C)COC(=O)c1ccccc1C(=O)OCC(C)C
REMARK SMILES IDX 8 1 9 2 10 3 11 4 12 5 13 6 6 7 7 8 5 9 4 10 2 11 1 12 3 13
REMARK SMILES IDX 14 14 15 15 16 16 17 17 18 18 19 19 20 20
REMARK H PARENT
REMARK Flexibility Score: inf
ROOT
ATOM      1  C   UNL     1      32.632   9.108 106.206  1.00  0.00     0.074 A 
ATOM      2  C   UNL     1      33.610   9.836 105.506  1.00  0.00     0.016 A 
ATOM      3  C   UNL     1      34.894   9.994 106.031  1.00  0.00     0.001 A 
ATOM      4  C   UNL     1      35.220   9.427 107.261  1.00  0.00     0.001 A 
ATOM      5  C   UNL     1      34.258   8.720 107.983  1.00  0.00     0.016 A 
ATOM      6  C   UNL     1      32.952   8.569 107.484  1.00  0.00     0.074 A 
ENDROOT
BRANCH   1   7
ATOM      7  C   UNL     1      31.330   8.883 105.539  1.00  0.00     0.339 C 
ATOM      8  O   UNL     1      31.008   7.732 105.134  1.00  0.00    -0.246 OA
BRANCH   7   9
ATOM      9  O   UNL     1      30.483   9.971 105.305  1.00  0.00    -0.462 OA
BRANCH   9  10
ATOM     10  C   UNL     1      30.963  11.301 105.127  1.00  0.00     0.236 C 
BRANCH  10  11
ATOM     11  C   UNL     1      29.981  12.315 105.734  1.00  0.00     0.021 C 
ATOM     12  C   UNL     1      28.528  11.863 105.539  1.00  0.00     0.011 C 
ATOM     13  C   UNL     1      30.197  13.715 105.147  1.00  0.00     0.011 C 
ENDBRANCH  10  11
ENDBRANCH   9  10
ENDBRANCH   7   9
ENDBRANCH   1   7
BRANCH   6  14
ATOM     14  C   UNL     1      31.953   7.907 108.353  1.00  0.00     0.339 C 
ATOM     15  O   UNL     1      31.371   8.555 109.266  1.00  0.00    -0.246 OA
BRANCH  14  16
ATOM     16  O   UNL     1      31.701   6.540 108.193  1.00  0.00    -0.462 OA
BRANCH  16  17
ATOM     17  C   UNL     1      32.729   5.555 108.247  1.00  0.00     0.236 C 
BRANCH  17  18
ATOM     18  C   UNL     1      32.380   4.380 107.322  1.00  0.00     0.021 C 
ATOM     19  C   UNL     1      33.648   3.732 106.750  1.00  0.00     0.011 C 
ATOM     20  C   UNL     1      31.464   4.848 106.185  1.00  0.00     0.011 C 
ENDBRANCH  17  18
ENDBRANCH  16  17
ENDBRANCH  14  16
ENDBRANCH   6  14
TORSDOF 8
ENDMDL
MODEL 3
REMARK VINA RESULT:    -5.902      1.933      5.806
REMARK INTER + INTRA:          -9.002
REMARK INTER:                  -8.666
REMARK INTRA:                  -0.336
REMARK UNBOUND:                -0.340
REMARK SMILES CC(C)COC(=O)c1ccccc1C(=O)OCC(C)C
REMARK SMILES IDX 8 1 9 2 10 3 11 4 12 5 13 6 6 7 7 8 5 9 4 10 2 11 1 12 3 13
REMARK SMILES IDX 14 14 15 15 16 16 17 17 18 18 19 19 20 20
REMARK H PARENT
REMARK Flexibility Score: inf
ROOT
ATOM      1  C   UNL     1      32.152  11.601 105.164  1.00  0.00     0.074 A 
ATOM      2  C   UNL     1      31.821  12.963 105.045  1.00  0.00     0.016 A 
ATOM      3  C   UNL     1      30.504  13.394 105.211  1.00  0.00     0.001 A 
ATOM      4  C   UNL     1      29.499  12.474 105.498  1.00  0.00     0.001 A 
ATOM      5  C   UNL     1      29.801  11.116 105.597  1.00  0.00     0.016 A 
ATOM      6  C   UNL     1      31.118  10.656 105.411  1.00  0.00     0.074 A 
ENDROOT
BRANCH   1   7
ATOM      7  C   UNL     1      33.583  11.230 105.089  1.00  0.00     0.339 C 
ATOM      8  O   UNL     1      34.356  11.820 104.285  1.00  0.00    -0.246 OA
BRANCH   7   9
ATOM      9  O   UNL     1      34.061  10.177 105.875  1.00  0.00    -0.462 OA
BRANCH   9  10
ATOM     10  C   UNL     1      35.408  10.105 106.336  1.00  0.00     0.236 C 
BRANCH  10  11
ATOM     11  C   UNL     1      35.764  11.352 107.161  1.00  0.00     0.021 C 
ATOM     12  C   UNL     1      37.170  11.860 106.819  1.00  0.00     0.011 C 
ATOM     13  C   UNL     1      35.636  11.076 108.664  1.00  0.00     0.011 C 
ENDBRANCH  10  11
ENDBRANCH   9  10
ENDBRANCH   7   9
ENDBRANCH   1   7
BRANCH   6  14
ATOM     14  C   UNL     1      31.346   9.193 105.417  1.00  0.00     0.339 C 
ATOM     15  O   UNL     1      31.212   8.521 104.357  1.00  0.00    -0.246 OA
BRANCH  14  16
ATOM     16  O   UNL     1      31.655   8.551 106.621  1.00  0.00    -0.462 OA
BRANCH  16  17
ATOM     17  C   UNL     1      31.295   7.198 106.888  1.00  0.00     0.236 C 
BRANCH  17  18
ATOM     18  C   UNL     1      32.020   6.700 108.146  1.00  0.00     0.021 C 
ATOM     19  C   UNL     1      33.247   7.568 108.456  1.00  0.00     0.011 C 
ATOM     20  C   UNL     1      32.434   5.233 107.979  1.00  0.00     0.011 C 
ENDBRANCH  17  18
ENDBRANCH  16  17
ENDBRANCH  14  16
ENDBRANCH   6  14
TORSDOF 8
ENDMDL
MODEL 4
REMARK VINA RESULT:    -5.898      1.949      4.808
REMARK INTER + INTRA:          -8.995
REMARK INTER:                  -8.626
REMARK INTRA:                  -0.370
REMARK UNBOUND:                -0.340
REMARK SMILES CC(C)COC(=O)c1ccccc1C(=O)OCC(C)C
REMARK SMILES IDX 8 1 9 2 10 3 11 4 12 5 13 6 6 7 7 8 5 9 4 10 2 11 1 12 3 13
REMARK SMILES IDX 14 14 15 15 16 16 17 17 18 18 19 19 20 20
REMARK H PARENT
REMARK Flexibility Score: inf
ROOT
ATOM      1  C   UNL     1      31.142  10.639 105.405  1.00  0.00     0.074 A 
ATOM      2  C   UNL     1      29.822  11.085 105.598  1.00  0.00     0.016 A 
ATOM      3  C   UNL     1      29.505  12.440 105.497  1.00  0.00     0.001 A 
ATOM      4  C   UNL     1      30.499  13.370 105.201  1.00  0.00     0.001 A 
ATOM      5  C   UNL     1      31.818  12.953 105.029  1.00  0.00     0.016 A 
ATOM      6  C   UNL     1      32.165  11.594 105.149  1.00  0.00     0.074 A 
ENDROOT
BRANCH   1   7
ATOM      7  C   UNL     1      31.385   9.179 105.414  1.00  0.00     0.339 C 
ATOM      8  O   UNL     1      31.301   8.510 104.347  1.00  0.00    -0.246 OA
BRANCH   7   9
ATOM      9  O   UNL     1      31.650   8.535 106.626  1.00  0.00    -0.462 OA
BRANCH   9  10
ATOM     10  C   UNL     1      31.336   7.163 106.857  1.00  0.00     0.236 C 
BRANCH  10  11
ATOM     11  C   UNL     1      32.143   6.618 108.047  1.00  0.00     0.021 C 
ATOM     12  C   UNL     1      33.310   7.549 108.396  1.00  0.00     0.011 C 
ATOM     13  C   UNL     1      32.646   5.197 107.769  1.00  0.00     0.011 C 
ENDBRANCH  10  11
ENDBRANCH   9  10
ENDBRANCH   7   9
ENDBRANCH   1   7
BRANCH   6  14
ATOM     14  C   UNL     1      33.600  11.238 105.068  1.00  0.00     0.339 C 
ATOM     15  O   UNL     1      34.358  11.823 104.246  1.00  0.00    -0.246 OA
BRANCH  14  16
ATOM     16  O   UNL     1      34.097  10.205 105.869  1.00  0.00    -0.462 OA
BRANCH  16  17
ATOM     17  C   UNL     1      35.458  10.141 106.288  1.00  0.00     0.236 C 
BRANCH  17  18
ATOM     18  C   UNL     1      35.822  11.401 107.086  1.00  0.00     0.021 C 
ATOM     19  C   UNL     1      37.251  11.862 106.770  1.00  0.00     0.011 C 
ATOM     20  C   UNL     1      35.666  11.145 108.590  1.00  0.00     0.011 C 
ENDBRANCH  17  18
ENDBRANCH  16  17
ENDBRANCH  14  16
ENDBRANCH   6  14
TORSDOF 8
ENDMDL
MODEL 5
REMARK VINA RESULT:    -5.756      3.849      6.537
REMARK INTER + INTRA:          -8.788
REMARK INTER:                  -7.816
REMARK INTRA:                  -0.972
REMARK UNBOUND:                -0.340
REMARK SMILES CC(C)COC(=O)c1ccccc1C(=O)OCC(C)C
REMARK SMILES IDX 8 1 9 2 10 3 11 4 12 5 13 6 6 7 7 8 5 9 4 10 2 11 1 12 3 13
REMARK SMILES IDX 14 14 15 15 16 16 17 17 18 18 19 19 20 20
REMARK H PARENT
REMARK Flexibility Score: inf
ROOT
ATOM      1  C   UNL     1      35.655  12.417 106.440  1.00  0.00     0.074 A 
ATOM      2  C   UNL     1      35.533  13.752 106.016  1.00  0.00     0.016 A 
ATOM      3  C   UNL     1      34.547  14.123 105.101  1.00  0.00     0.001 A 
ATOM      4  C   UNL     1      33.668  13.168 104.596  1.00  0.00     0.001 A 
ATOM      5  C   UNL     1      33.785  11.834 104.985  1.00  0.00     0.016 A 
ATOM      6  C   UNL     1      34.787  11.433 105.889  1.00  0.00     0.074 A 
ENDROOT
BRANCH   1   7
ATOM      7  C   UNL     1      36.647  12.115 107.497  1.00  0.00     0.339 C 
ATOM      8  O   UNL     1      36.311  12.134 108.713  1.00  0.00    -0.246 OA
BRANCH   7   9
ATOM      9  O   UNL     1      37.976  11.870 107.141  1.00  0.00    -0.462 OA
BRANCH   9  10
ATOM     10  C   UNL     1      38.588  12.450 105.991  1.00  0.00     0.236 C 
BRANCH  10  11
ATOM     11  C   UNL     1      38.803  11.387 104.901  1.00  0.00     0.021 C 
ATOM     12  C   UNL     1      40.274  11.322 104.474  1.00  0.00     0.011 C 
ATOM     13  C   UNL     1      37.896  11.644 103.691  1.00  0.00     0.011 C 
ENDBRANCH  10  11
ENDBRANCH   9  10
ENDBRANCH   7   9
ENDBRANCH   1   7
BRANCH   6  14
ATOM     14  C   UNL     1      34.926   9.986 106.168  1.00  0.00     0.339 C 
ATOM     15  O   UNL     1      35.983   9.373 105.854  1.00  0.00    -0.246 OA
BRANCH  14  16
ATOM     16  O   UNL     1      33.852   9.289 106.733  1.00  0.00    -0.462 OA
BRANCH  16  17
ATOM     17  C   UNL     1      33.976   8.513 107.922  1.00  0.00     0.236 C 
BRANCH  17  18
ATOM     18  C   UNL     1      32.701   7.687 108.145  1.00  0.00     0.021 C 
ATOM     19  C   UNL     1      33.030   6.197 108.306  1.00  0.00     0.011 C 
ATOM     20  C   UNL     1      31.720   7.892 106.985  1.00  0.00     0.011 C 
ENDBRANCH  17  18
ENDBRANCH  16  17
ENDBRANCH  14  16
ENDBRANCH   6  14
TORSDOF 8
ENDMDL
MODEL 6
REMARK VINA RESULT:    -5.618      4.053      6.472
REMARK INTER + INTRA:          -8.586
REMARK INTER:                  -8.198
REMARK INTRA:                  -0.388
REMARK UNBOUND:                -0.340
REMARK SMILES CC(C)COC(=O)c1ccccc1C(=O)OCC(C)C
REMARK SMILES IDX 8 1 9 2 10 3 11 4 12 5 13 6 6 7 7 8 5 9 4 10 2 11 1 12 3 13
REMARK SMILES IDX 14 14 15 15 16 16 17 17 18 18 19 19 20 20
REMARK H PARENT
REMARK Flexibility Score: inf
ROOT
ATOM      1  C   UNL     1      34.703  11.435 105.897  1.00  0.00     0.074 A 
ATOM      2  C   UNL     1      33.621  11.858 105.105  1.00  0.00     0.016 A 
ATOM      3  C   UNL     1      33.500  13.193 104.717  1.00  0.00     0.001 A 
ATOM      4  C   UNL     1      34.457  14.125 105.112  1.00  0.00     0.001 A 
ATOM      5  C   UNL     1      35.526  13.731 105.918  1.00  0.00     0.016 A 
ATOM      6  C   UNL     1      35.655  12.395 106.340  1.00  0.00     0.074 A 
ENDROOT
BRANCH   1   7
ATOM      7  C   UNL     1      34.830   9.986 106.175  1.00  0.00     0.339 C 
ATOM      8  O   UNL     1      35.900   9.374 105.907  1.00  0.00    -0.246 OA
BRANCH   7   9
ATOM      9  O   UNL     1      33.730   9.285 106.681  1.00  0.00    -0.462 OA
BRANCH   9  10
ATOM     10  C   UNL     1      33.811   8.445 107.829  1.00  0.00     0.236 C 
BRANCH  10  11
ATOM     11  C   UNL     1      32.549   7.576 107.951  1.00  0.00     0.021 C 
ATOM     12  C   UNL     1      31.659   8.050 109.107  1.00  0.00     0.011 C 
ATOM     13  C   UNL     1      32.911   6.095 108.117  1.00  0.00     0.011 C 
ENDBRANCH  10  11
ENDBRANCH   9  10
ENDBRANCH   7   9
ENDBRANCH   1   7
BRANCH   6  14
ATOM     14  C   UNL     1      36.747  12.072 107.286  1.00  0.00     0.339 C 
ATOM     15  O   UNL     1      36.485  11.632 108.439  1.00  0.00    -0.246 OA
BRANCH  14  16
ATOM     16  O   UNL     1      38.073  12.313 106.911  1.00  0.00    -0.462 OA
BRANCH  16  17
ATOM     17  C   UNL     1      38.599  11.925 105.644  1.00  0.00     0.236 C 
BRANCH  17  18
ATOM     18  C   UNL     1      40.133  11.996 105.668  1.00  0.00     0.021 C 
ATOM     19  C   UNL     1      40.743  11.133 104.556  1.00  0.00     0.011 C 
ATOM     20  C   UNL     1      40.668  11.558 107.036  1.00  0.00     0.011 C 
ENDBRANCH  17  18
ENDBRANCH  16  17
ENDBRANCH  14  16
ENDBRANCH   6  14
TORSDOF 8
ENDMDL
MODEL 7
REMARK VINA RESULT:    -5.548      2.207      3.928
REMARK INTER + INTRA:          -8.482
REMARK INTER:                  -7.360
REMARK INTRA:                  -1.122
REMARK UNBOUND:                -0.340
REMARK SMILES CC(C)COC(=O)c1ccccc1C(=O)OCC(C)C
REMARK SMILES IDX 8 1 9 2 10 3 11 4 12 5 13 6 6 7 7 8 5 9 4 10 2 11 1 12 3 13
REMARK SMILES IDX 14 14 15 15 16 16 17 17 18 18 19 19 20 20
REMARK H PARENT
REMARK Flexibility Score: inf
ROOT
ATOM      1  C   UNL     1      32.506   8.458 107.221  1.00  0.00     0.074 A 
ATOM      2  C   UNL     1      31.280   8.462 106.532  1.00  0.00     0.016 A 
ATOM      3  C   UNL     1      31.136   9.168 105.337  1.00  0.00     0.001 A 
ATOM      4  C   UNL     1      32.211   9.880 104.813  1.00  0.00     0.001 A 
ATOM      5  C   UNL     1      33.429   9.909 105.492  1.00  0.00     0.016 A 
ATOM      6  C   UNL     1      33.591   9.223 106.710  1.00  0.00     0.074 A 
ENDROOT
BRANCH   1   7
ATOM      7  C   UNL     1      32.622   7.596 108.419  1.00  0.00     0.339 C 
ATOM      8  O   UNL     1      32.405   8.066 109.569  1.00  0.00    -0.246 OA
BRANCH   7   9
ATOM      9  O   UNL     1      33.035   6.268 108.272  1.00  0.00    -0.462 OA
BRANCH   9  10
ATOM     10  C   UNL     1      32.147   5.162 108.417  1.00  0.00     0.236 C 
BRANCH  10  11
ATOM     11  C   UNL     1      32.187   4.270 107.166  1.00  0.00     0.021 C 
ATOM     12  C   UNL     1      33.623   3.853 106.828  1.00  0.00     0.011 C 
ATOM     13  C   UNL     1      31.528   4.967 105.969  1.00  0.00     0.011 C 
ENDBRANCH  10  11
ENDBRANCH   9  10
ENDBRANCH   7   9
ENDBRANCH   1   7
BRANCH   6  14
ATOM     14  C   UNL     1      34.872   9.391 107.432  1.00  0.00     0.339 C 
ATOM     15  O   UNL     1      35.776   8.515 107.342  1.00  0.00    -0.246 OA
BRANCH  14  16
ATOM     16  O   UNL     1      35.052  10.502 108.264  1.00  0.00    -0.462 OA
BRANCH  16  17
ATOM     17  C   UNL     1      36.026  11.509 108.004  1.00  0.00     0.236 C 
BRANCH  17  18
ATOM     18  C   UNL     1      36.067  11.826 106.502  1.00  0.00     0.021 C 
ATOM     19  C   UNL     1      37.495  11.705 105.952  1.00  0.00     0.011 C 
ATOM     20  C   UNL     1      35.511  13.229 106.235  1.00  0.00     0.011 C 
ENDBRANCH  17  18
ENDBRANCH  16  17
ENDBRANCH  14  16
ENDBRANCH   6  14
TORSDOF 8
ENDMDL
MODEL 8
REMARK VINA RESULT:    -5.526      1.141      3.781
REMARK INTER + INTRA:          -8.449
REMARK INTER:                  -8.302
REMARK INTRA:                  -0.148
REMARK UNBOUND:                -0.340
REMARK SMILES CC(C)COC(=O)c1ccccc1C(=O)OCC(C)C
REMARK SMILES IDX 8 1 9 2 10 3 11 4 12 5 13 6 6 7 7 8 5 9 4 10 2 11 1 12 3 13
REMARK SMILES IDX 14 14 15 15 16 16 17 17 18 18 19 19 20 20
REMARK H PARENT
REMARK Flexibility Score: inf
ROOT
ATOM      1  C   UNL     1      31.892   6.869 107.695  1.00  0.00     0.074 A 
ATOM      2  C   UNL     1      32.276   5.716 108.403  1.00  0.00     0.016 A 
ATOM      3  C   UNL     1      32.245   4.461 107.793  1.00  0.00     0.001 A 
ATOM      4  C   UNL     1      31.831   4.338 106.469  1.00  0.00     0.001 A 
ATOM      5  C   UNL     1      31.424   5.465 105.755  1.00  0.00     0.016 A 
ATOM      6  C   UNL     1      31.425   6.737 106.357  1.00  0.00     0.074 A 
ENDROOT
BRANCH   1   7
ATOM      7  C   UNL     1      32.058   8.178 108.365  1.00  0.00     0.339 C 
ATOM      8  O   UNL     1      31.244   8.549 109.255  1.00  0.00    -0.246 OA
BRANCH   7   9
ATOM      9  O   UNL     1      33.092   9.029 107.962  1.00  0.00    -0.462 OA
BRANCH   9  10
ATOM     10  C   UNL     1      34.445   8.598 107.837  1.00  0.00     0.236 C 
BRANCH  10  11
ATOM     11  C   UNL     1      35.313   9.714 107.236  1.00  0.00     0.021 C 
ATOM     12  C   UNL     1      35.489  10.873 108.225  1.00  0.00     0.011 C 
ATOM     13  C   UNL     1      34.730  10.217 105.910  1.00  0.00     0.011 C 
ENDBRANCH  10  11
ENDBRANCH   9  10
ENDBRANCH   7   9
ENDBRANCH   1   7
BRANCH   6  14
ATOM     14  C   UNL     1      30.872   7.869 105.580  1.00  0.00     0.339 C 
ATOM     15  O   UNL     1      29.994   7.670 104.696  1.00  0.00    -0.246 OA
BRANCH  14  16
ATOM     16  O   UNL     1      31.374   9.158 105.792  1.00  0.00    -0.462 OA
BRANCH  16  17
ATOM     17  C   UNL     1      31.120  10.241 104.901  1.00  0.00     0.236 C 
BRANCH  17  18
ATOM     18  C   UNL     1      30.546  11.436 105.676  1.00  0.00     0.021 C 
ATOM     19  C   UNL     1      29.016  11.475 105.575  1.00  0.00     0.011 C 
ATOM     20  C   UNL     1      31.147  12.748 105.158  1.00  0.00     0.011 C 
ENDBRANCH  17  18
ENDBRANCH  16  17
ENDBRANCH  14  16
ENDBRANCH   6  14
TORSDOF 8
ENDMDL
MODEL 9
REMARK VINA RESULT:    -5.503      1.267      5.668
REMARK INTER + INTRA:          -8.416
REMARK INTER:                  -8.441
REMARK INTRA:                   0.025
REMARK UNBOUND:                -0.340
REMARK SMILES CC(C)COC(=O)c1ccccc1C(=O)OCC(C)C
REMARK SMILES IDX 8 1 9 2 10 3 11 4 12 5 13 6 6 7 7 8 5 9 4 10 2 11 1 12 3 13
REMARK SMILES IDX 14 14 15 15 16 16 17 17 18 18 19 19 20 20
REMARK H PARENT
REMARK Flexibility Score: inf
ROOT
ATOM      1  C   UNL     1      31.334   6.788 106.253  1.00  0.00     0.074 A 
ATOM      2  C   UNL     1      30.980   5.484 105.863  1.00  0.00     0.016 A 
ATOM      3  C   UNL     1      31.348   4.383 106.638  1.00  0.00     0.001 A 
ATOM      4  C   UNL     1      32.074   4.566 107.812  1.00  0.00     0.001 A 
ATOM      5  C   UNL     1      32.456   5.849 108.205  1.00  0.00     0.016 A 
ATOM      6  C   UNL     1      32.116   6.971 107.428  1.00  0.00     0.074 A 
ENDROOT
BRANCH   1   7
ATOM      7  C   UNL     1      30.813   7.915 105.446  1.00  0.00     0.339 C 
ATOM      8  O   UNL     1      30.255   7.702 104.335  1.00  0.00    -0.246 OA
BRANCH   7   9
ATOM      9  O   UNL     1      31.000   9.225 105.897  1.00  0.00    -0.462 OA
BRANCH   9  10
ATOM     10  C   UNL     1      30.998  10.351 105.023  1.00  0.00     0.236 C 
BRANCH  10  11
ATOM     11  C   UNL     1      30.347  11.564 105.708  1.00  0.00     0.021 C 
ATOM     12  C   UNL     1      28.822  11.537 105.549  1.00  0.00     0.011 C 
ATOM     13  C   UNL     1      30.926  12.879 105.171  1.00  0.00     0.011 C 
ENDBRANCH  10  11
ENDBRANCH   9  10
ENDBRANCH   7   9
ENDBRANCH   1   7
BRANCH   6  14
ATOM     14  C   UNL     1      32.651   8.288 107.843  1.00  0.00     0.339 C 
ATOM     15  O   UNL     1      32.156   8.895 108.832  1.00  0.00    -0.246 OA
BRANCH  14  16
ATOM     16  O   UNL     1      33.673   8.881 107.095  1.00  0.00    -0.462 OA
BRANCH  16  17
ATOM     17  C   UNL     1      34.935   9.232 107.657  1.00  0.00     0.236 C 
BRANCH  17  18
ATOM     18  C   UNL     1      35.652  10.241 106.748  1.00  0.00     0.021 C 
ATOM     19  C   UNL     1      36.330  11.343 107.573  1.00  0.00     0.011 C 
ATOM     20  C   UNL     1      34.666  10.855 105.747  1.00  0.00     0.011 C 
ENDBRANCH  17  18
ENDBRANCH  16  17
ENDBRANCH  14  16
ENDBRANCH   6  14
TORSDOF 8
ENDMDL
