MODEL 1
REMARK VINA RESULT:    -4.685      0.000      0.000
REMARK INTER + INTRA:          -5.123
REMARK INTER:                  -4.959
REMARK INTRA:                  -0.164
REMARK UNBOUND:                -0.164
REMARK SMILES Cc1ccc(C(C)C)cc1
REMARK SMILES IDX 1 1 2 2 3 3 4 4 5 5 9 6 10 7 6 8 7 9 8 10
REMARK H PARENT
REMARK Flexibility Score: inf
ROOT
ATOM      1  C   UNL     1       3.186  -3.568   9.749  1.00  0.00     0.044 C 
ATOM      2  C   UNL     1       2.232  -2.512   9.273  1.00  0.00    -0.051 A 
ATOM      3  C   UNL     1       1.042  -2.875   8.627  1.00  0.00     0.004 A 
ATOM      4  C   UNL     1       0.171  -1.891   8.149  1.00  0.00     0.004 A 
ATOM      5  C   UNL     1       0.482  -0.528   8.297  1.00  0.00    -0.045 A 
ATOM      6  C   UNL     1       1.687  -0.170   8.930  1.00  0.00     0.004 A 
ATOM      7  C   UNL     1       2.557  -1.154   9.407  1.00  0.00     0.004 A 
ENDROOT
BRANCH   5   8
ATOM      8  C   UNL     1      -0.473   0.529   7.773  1.00  0.00     0.013 C 
ATOM      9  C   UNL     1      -1.883   0.332   8.342  1.00  0.00     0.012 C 
ATOM     10  C   UNL     1       0.050   1.940   8.070  1.00  0.00     0.012 C 
ENDBRANCH   5   8
TORSDOF 1
ENDMDL
MODEL 2
REMARK VINA RESULT:    -4.303      1.175      2.698
REMARK INTER + INTRA:          -4.719
REMARK INTER:                  -4.552
REMARK INTRA:                  -0.167
REMARK UNBOUND:                -0.164
REMARK SMILES Cc1ccc(C(C)C)cc1
REMARK SMILES IDX 1 1 2 2 3 3 4 4 5 5 9 6 10 7 6 8 7 9 8 10
REMARK H PARENT
REMARK Flexibility Score: inf
ROOT
ATOM      1  C   UNL     1       0.485  -4.037   8.423  1.00  0.00     0.044 C 
ATOM      2  C   UNL     1       0.859  -2.588   8.526  1.00  0.00    -0.051 A 
ATOM      3  C   UNL     1       2.051  -2.209   9.159  1.00  0.00     0.004 A 
ATOM      4  C   UNL     1       2.381  -0.857   9.288  1.00  0.00     0.004 A 
ATOM      5  C   UNL     1       1.519   0.140   8.797  1.00  0.00    -0.045 A 
ATOM      6  C   UNL     1       0.315  -0.246   8.179  1.00  0.00     0.004 A 
ATOM      7  C   UNL     1      -0.015  -1.599   8.051  1.00  0.00     0.004 A 
ENDROOT
BRANCH   5   8
ATOM      8  C   UNL     1       1.890   1.604   8.945  1.00  0.00     0.013 C 
ATOM      9  C   UNL     1       3.368   1.837   8.607  1.00  0.00     0.012 C 
ATOM     10  C   UNL     1       0.982   2.493   8.086  1.00  0.00     0.012 C 
ENDBRANCH   5   8
TORSDOF 1
ENDMDL
MODEL 3
REMARK VINA RESULT:    -4.285      0.758      4.439
REMARK INTER + INTRA:          -4.700
REMARK INTER:                  -4.533
REMARK INTRA:                  -0.167
REMARK UNBOUND:                -0.164
REMARK SMILES Cc1ccc(C(C)C)cc1
REMARK SMILES IDX 1 1 2 2 3 3 4 4 5 5 9 6 10 7 6 8 7 9 8 10
REMARK H PARENT
REMARK Flexibility Score: inf
ROOT
ATOM      1  C   UNL     1      -0.440   0.375   7.784  1.00  0.00     0.044 C 
ATOM      2  C   UNL     1       0.461  -0.726   8.263  1.00  0.00    -0.051 A 
ATOM      3  C   UNL     1       0.081  -2.067   8.110  1.00  0.00     0.004 A 
ATOM      4  C   UNL     1       0.903  -3.091   8.589  1.00  0.00     0.004 A 
ATOM      5  C   UNL     1       2.112  -2.791   9.242  1.00  0.00    -0.045 A 
ATOM      6  C   UNL     1       2.478  -1.443   9.409  1.00  0.00     0.004 A 
ATOM      7  C   UNL     1       1.656  -0.419   8.929  1.00  0.00     0.004 A 
ENDROOT
BRANCH   5   8
ATOM      8  C   UNL     1       2.993  -3.913   9.758  1.00  0.00     0.013 C 
ATOM      9  C   UNL     1       2.803  -5.191   8.931  1.00  0.00     0.012 C 
ATOM     10  C   UNL     1       4.467  -3.489   9.786  1.00  0.00     0.012 C 
ENDBRANCH   5   8
TORSDOF 1
ENDMDL
MODEL 4
REMARK VINA RESULT:    -4.274      0.942      4.010
REMARK INTER + INTRA:          -4.688
REMARK INTER:                  -4.521
REMARK INTRA:                  -0.167
REMARK UNBOUND:                -0.164
REMARK SMILES Cc1ccc(C(C)C)cc1
REMARK SMILES IDX 1 1 2 2 3 3 4 4 5 5 9 6 10 7 6 8 7 9 8 10
REMARK H PARENT
REMARK Flexibility Score: inf
ROOT
ATOM      1  C   UNL     1       0.683   2.672   8.044  1.00  0.00     0.044 C 
ATOM      2  C   UNL     1       0.796   1.194   8.272  1.00  0.00    -0.051 A 
ATOM      3  C   UNL     1      -0.192   0.326   7.786  1.00  0.00     0.004 A 
ATOM      4  C   UNL     1      -0.106  -1.048   8.031  1.00  0.00     0.004 A 
ATOM      5  C   UNL     1       0.963  -1.576   8.776  1.00  0.00    -0.045 A 
ATOM      6  C   UNL     1       1.942  -0.697   9.277  1.00  0.00     0.004 A 
ATOM      7  C   UNL     1       1.855   0.676   9.032  1.00  0.00     0.004 A 
ENDROOT
BRANCH   5   8
ATOM      8  C   UNL     1       1.043  -3.069   9.034  1.00  0.00     0.013 C 
ATOM      9  C   UNL     1       0.338  -3.860   7.926  1.00  0.00     0.012 C 
ATOM     10  C   UNL     1       2.499  -3.523   9.197  1.00  0.00     0.012 C 
ENDBRANCH   5   8
TORSDOF 1
ENDMDL
MODEL 5
REMARK VINA RESULT:    -4.265      1.353      2.516
REMARK INTER + INTRA:          -4.679
REMARK INTER:                  -4.512
REMARK INTRA:                  -0.166
REMARK UNBOUND:                -0.164
REMARK SMILES Cc1ccc(C(C)C)cc1
REMARK SMILES IDX 1 1 2 2 3 3 4 4 5 5 9 6 10 7 6 8 7 9 8 10
REMARK H PARENT
REMARK Flexibility Score: inf
ROOT
ATOM      1  C   UNL     1       0.493  -3.543   8.385  1.00  0.00     0.044 C 
ATOM      2  C   UNL     1       0.773  -2.074   8.501  1.00  0.00    -0.051 A 
ATOM      3  C   UNL     1      -0.119  -1.139   7.956  1.00  0.00     0.004 A 
ATOM      4  C   UNL     1       0.160   0.228   8.031  1.00  0.00     0.004 A 
ATOM      5  C   UNL     1       1.342   0.684   8.641  1.00  0.00    -0.045 A 
ATOM      6  C   UNL     1       2.243  -0.260   9.169  1.00  0.00     0.004 A 
ATOM      7  C   UNL     1       1.963  -1.627   9.094  1.00  0.00     0.004 A 
ENDROOT
BRANCH   5   8
ATOM      8  C   UNL     1       1.633   2.172   8.714  1.00  0.00     0.013 C 
ATOM      9  C   UNL     1       3.070   2.477   8.275  1.00  0.00     0.012 C 
ATOM     10  C   UNL     1       0.621   2.973   7.885  1.00  0.00     0.012 C 
ENDBRANCH   5   8
TORSDOF 1
ENDMDL
MODEL 6
REMARK VINA RESULT:    -4.205      0.910      4.408
REMARK INTER + INTRA:          -4.615
REMARK INTER:                  -4.449
REMARK INTRA:                  -0.166
REMARK UNBOUND:                -0.164
REMARK SMILES Cc1ccc(C(C)C)cc1
REMARK SMILES IDX 1 1 2 2 3 3 4 4 5 5 9 6 10 7 6 8 7 9 8 10
REMARK H PARENT
REMARK Flexibility Score: inf
ROOT
ATOM      1  C   UNL     1       0.366   3.061   8.070  1.00  0.00     0.044 C 
ATOM      2  C   UNL     1       0.592   1.592   8.278  1.00  0.00    -0.051 A 
ATOM      3  C   UNL     1       1.742   1.142   8.942  1.00  0.00     0.004 A 
ATOM      4  C   UNL     1       1.972  -0.228   9.103  1.00  0.00     0.004 A 
ATOM      5  C   UNL     1       1.062  -1.170   8.592  1.00  0.00    -0.045 A 
ATOM      6  C   UNL     1      -0.080  -0.712   7.910  1.00  0.00     0.004 A 
ATOM      7  C   UNL     1      -0.309   0.657   7.749  1.00  0.00     0.004 A 
ENDROOT
BRANCH   5   8
ATOM      8  C   UNL     1       1.325  -2.654   8.773  1.00  0.00     0.013 C 
ATOM      9  C   UNL     1       2.544  -2.894   9.672  1.00  0.00     0.012 C 
ATOM     10  C   UNL     1       0.085  -3.371   9.322  1.00  0.00     0.012 C 
ENDBRANCH   5   8
TORSDOF 1
ENDMDL
MODEL 7
REMARK VINA RESULT:    -4.172      1.320      4.289
REMARK INTER + INTRA:          -4.580
REMARK INTER:                  -4.413
REMARK INTRA:                  -0.167
REMARK UNBOUND:                -0.164
REMARK SMILES Cc1ccc(C(C)C)cc1
REMARK SMILES IDX 1 1 2 2 3 3 4 4 5 5 9 6 10 7 6 8 7 9 8 10
REMARK H PARENT
REMARK Flexibility Score: inf
ROOT
ATOM      1  C   UNL     1       1.490   1.257   8.779  1.00  0.00     0.044 C 
ATOM      2  C   UNL     1       1.313  -0.233   8.746  1.00  0.00    -0.051 A 
ATOM      3  C   UNL     1       2.297  -1.074   9.284  1.00  0.00     0.004 A 
ATOM      4  C   UNL     1       2.151  -2.462   9.220  1.00  0.00     0.004 A 
ATOM      5  C   UNL     1       1.024  -3.034   8.604  1.00  0.00    -0.045 A 
ATOM      6  C   UNL     1       0.048  -2.185   8.048  1.00  0.00     0.004 A 
ATOM      7  C   UNL     1       0.196  -0.797   8.113  1.00  0.00     0.004 A 
ENDROOT
BRANCH   5   8
ATOM      8  C   UNL     1       0.878  -4.543   8.541  1.00  0.00     0.013 C 
ATOM      9  C   UNL     1       0.161  -4.977   7.256  1.00  0.00     0.012 C 
ATOM     10  C   UNL     1       2.241  -5.235   8.671  1.00  0.00     0.012 C 
ENDBRANCH   5   8
TORSDOF 1
ENDMDL
MODEL 8
REMARK VINA RESULT:    -4.144      1.318      1.824
REMARK INTER + INTRA:          -4.550
REMARK INTER:                  -4.390
REMARK INTRA:                  -0.160
REMARK UNBOUND:                -0.164
REMARK SMILES Cc1ccc(C(C)C)cc1
REMARK SMILES IDX 1 1 2 2 3 3 4 4 5 5 9 6 10 7 6 8 7 9 8 10
REMARK H PARENT
REMARK Flexibility Score: inf
ROOT
ATOM      1  C   UNL     1       5.178  -1.817  10.529  1.00  0.00     0.044 C 
ATOM      2  C   UNL     1       3.808  -1.628   9.949  1.00  0.00    -0.051 A 
ATOM      3  C   UNL     1       3.027  -2.741   9.605  1.00  0.00     0.004 A 
ATOM      4  C   UNL     1       1.765  -2.566   9.029  1.00  0.00     0.004 A 
ATOM      5  C   UNL     1       1.267  -1.275   8.777  1.00  0.00    -0.045 A 
ATOM      6  C   UNL     1       2.064  -0.163   9.107  1.00  0.00     0.004 A 
ATOM      7  C   UNL     1       3.325  -0.339   9.682  1.00  0.00     0.004 A 
ENDROOT
BRANCH   5   8
ATOM      8  C   UNL     1      -0.104  -1.100   8.151  1.00  0.00     0.013 C 
ATOM      9  C   UNL     1      -1.213  -1.537   9.117  1.00  0.00     0.012 C 
ATOM     10  C   UNL     1      -0.317   0.345   7.684  1.00  0.00     0.012 C 
ENDBRANCH   5   8
TORSDOF 1
ENDMDL
MODEL 9
REMARK VINA RESULT:    -4.052      1.637      3.097
REMARK INTER + INTRA:          -4.453
REMARK INTER:                  -4.285
REMARK INTRA:                  -0.167
REMARK UNBOUND:                -0.164
REMARK SMILES Cc1ccc(C(C)C)cc1
REMARK SMILES IDX 1 1 2 2 3 3 4 4 5 5 9 6 10 7 6 8 7 9 8 10
REMARK H PARENT
REMARK Flexibility Score: inf
ROOT
ATOM      1  C   UNL     1       5.851  -0.182  10.288  1.00  0.00     0.044 C 
ATOM      2  C   UNL     1       4.442  -0.438   9.843  1.00  0.00    -0.051 A 
ATOM      3  C   UNL     1       3.620   0.629   9.451  1.00  0.00     0.004 A 
ATOM      4  C   UNL     1       2.295   0.395   9.072  1.00  0.00     0.004 A 
ATOM      5  C   UNL     1       1.765  -0.907   9.091  1.00  0.00    -0.045 A 
ATOM      6  C   UNL     1       2.589  -1.971   9.504  1.00  0.00     0.004 A 
ATOM      7  C   UNL     1       3.914  -1.736   9.883  1.00  0.00     0.004 A 
ENDROOT
BRANCH   5   8
ATOM      8  C   UNL     1       0.324  -1.146   8.678  1.00  0.00     0.013 C 
ATOM      9  C   UNL     1      -0.147  -0.084   7.676  1.00  0.00     0.012 C 
ATOM     10  C   UNL     1       0.139  -2.559   8.113  1.00  0.00     0.012 C 
ENDBRANCH   5   8
TORSDOF 1
ENDMDL
