MODEL 1
REMARK VINA RESULT:    -2.360      0.000      0.000
REMARK INTER + INTRA:          -3.937
REMARK INTER:                  -3.601
REMARK INTRA:                  -0.335
REMARK UNBOUND:                -0.335
REMARK SMILES CC1=CCC[C@@H](C)C(=O)C[C@@H](C(C)C)C(=O)C1
REMARK SMILES IDX 8 1 9 2 6 3 7 4 5 5 4 6 3 7 2 8 1 9 10 11 11 12 15 13 16 14
REMARK SMILES IDX 17 15 12 17 13 18 14 19
REMARK H PARENT
REMARK Flexibility Score: 70.00
ROOT
ATOM      1  C   UNL     1      69.305   0.451  33.734  1.00  0.00     0.136 C 
ATOM      2  O   UNL     1      69.650  -0.614  33.239  1.00  0.00    -0.299 OA
ENDROOT
BRANCH   1   3
ATOM      3  C   UNL     1      69.348   1.701  32.861  1.00  0.00     0.053 C 
ATOM      4  C   UNL     1      69.989   2.869  33.628  1.00  0.00     0.016 C 
BRANCH   3   5
ATOM      5  C   UNL     1      67.940   2.104  32.364  1.00  0.00     0.015 C 
BRANCH   5   6
ATOM      6  C   UNL     1      67.220   3.123  33.262  1.00  0.00     0.028 C 
BRANCH   6   7
ATOM      7  C   UNL     1      65.843   2.653  33.669  1.00  0.00    -0.028 C 
ATOM      8  C   UNL     1      65.500   2.117  34.864  1.00  0.00    -0.070 CG0
ATOM      9  C   UNL     1      64.066   1.688  35.055  1.00  0.00     0.039 C 
ATOM     10  G   UNL     1      66.478   1.883  36.005  1.00  0.00     0.000 G0
ENDBRANCH   6   7
ENDBRANCH   5   6
ENDBRANCH   3   5
ENDBRANCH   1   3
BRANCH   1  11
ATOM     11  C   UNL     1      68.974   0.457  35.219  1.00  0.00     0.087 C 
BRANCH  11  12
ATOM     12  C   UNL     1      67.759  -0.414  35.646  1.00  0.00     0.066 C 
BRANCH  12  13
ATOM     13  C   UNL     1      66.672   0.418  36.312  1.00  0.00     0.140 C 
ATOM     14  O   UNL     1      66.002  -0.099  37.195  1.00  0.00    -0.299 OA
BRANCH  13  15
ATOM     15  C   UNL     1      66.472   1.887  36.013  1.00  0.00     0.106 CG0
ATOM     16  G   UNL     1      65.491   2.091  34.869  1.00  0.00     0.000 G0
ENDBRANCH  13  15
ENDBRANCH  12  13
BRANCH  12  17
ATOM     17  C   UNL     1      68.168  -1.600  36.584  1.00  0.00    -0.006 C 
ATOM     18  C   UNL     1      67.975  -2.963  35.886  1.00  0.00     0.008 C 
ATOM     19  C   UNL     1      69.630  -1.502  37.064  1.00  0.00     0.008 C 
ENDBRANCH  12  17
ENDBRANCH  11  12
ENDBRANCH   1  11
TORSDOF 1
ENDMDL
MODEL 2
REMARK VINA RESULT:    -2.302      2.284      4.683
REMARK INTER + INTRA:          -3.849
REMARK INTER:                  -3.535
REMARK INTRA:                  -0.314
REMARK UNBOUND:                -0.335
REMARK SMILES CC1=CCC[C@@H](C)C(=O)C[C@@H](C(C)C)C(=O)C1
REMARK SMILES IDX 8 1 9 2 6 3 7 4 5 5 4 6 3 7 2 8 1 9 10 11 11 12 15 13 16 14
REMARK SMILES IDX 17 15 12 17 13 18 14 19
REMARK H PARENT
REMARK Flexibility Score: 70.00
ROOT
ATOM      1  C   UNL     1      69.203   3.389  31.583  1.00  0.00     0.136 C 
ATOM      2  O   UNL     1      69.674   3.365  30.454  1.00  0.00    -0.299 OA
ENDROOT
BRANCH   1   3
ATOM      3  C   UNL     1      69.760   4.403  32.578  1.00  0.00     0.053 C 
ATOM      4  C   UNL     1      69.909   5.781  31.914  1.00  0.00     0.016 C 
BRANCH   3   5
ATOM      5  C   UNL     1      71.119   3.947  33.162  1.00  0.00     0.015 C 
BRANCH   5   6
ATOM      6  C   UNL     1      71.022   3.290  34.549  1.00  0.00     0.028 C 
BRANCH   6   7
ATOM      7  C   UNL     1      71.332   1.812  34.502  1.00  0.00    -0.028 C 
ATOM      8  C   UNL     1      70.484   0.805  34.820  1.00  0.00    -0.070 CG0
ATOM      9  C   UNL     1      71.006  -0.608  34.728  1.00  0.00     0.039 C 
ATOM     10  G   UNL     1      69.057   1.014  35.303  1.00  0.00     0.000 G0
ENDBRANCH   6   7
ENDBRANCH   5   6
ENDBRANCH   3   5
ENDBRANCH   1   3
BRANCH   1  11
ATOM     11  C   UNL     1      68.179   2.320  31.936  1.00  0.00     0.087 C 
BRANCH  11  12
ATOM     12  C   UNL     1      67.690   2.312  33.412  1.00  0.00     0.066 C 
BRANCH  12  13
ATOM     13  C   UNL     1      68.079   1.028  34.130  1.00  0.00     0.140 C 
ATOM     14  O   UNL     1      67.676  -0.036  33.681  1.00  0.00    -0.299 OA
BRANCH  13  15
ATOM     15  C   UNL     1      69.039   1.006  35.299  1.00  0.00     0.106 CG0
ATOM     16  G   UNL     1      70.472   0.801  34.835  1.00  0.00     0.000 G0
ENDBRANCH  13  15
ENDBRANCH  12  13
BRANCH  12  17
ATOM     17  C   UNL     1      66.145   2.541  33.535  1.00  0.00    -0.006 C 
ATOM     18  C   UNL     1      65.674   2.435  35.001  1.00  0.00     0.008 C 
ATOM     19  C   UNL     1      65.700   3.907  32.978  1.00  0.00     0.008 C 
ENDBRANCH  12  17
ENDBRANCH  11  12
ENDBRANCH   1  11
TORSDOF 1
ENDMDL
MODEL 3
REMARK VINA RESULT:    -2.233     15.998     17.674
REMARK INTER + INTRA:          -3.742
REMARK INTER:                  -3.493
REMARK INTRA:                  -0.249
REMARK UNBOUND:                -0.335
REMARK SMILES CC1=CCC[C@@H](C)C(=O)C[C@@H](C(C)C)C(=O)C1
REMARK SMILES IDX 8 1 9 2 6 3 7 4 5 5 4 6 3 7 2 8 1 9 10 11 11 12 15 13 16 14
REMARK SMILES IDX 17 15 12 17 13 18 14 19
REMARK H PARENT
REMARK Flexibility Score: 70.00
ROOT
ATOM      1  C   UNL     1      63.442  12.101  46.582  1.00  0.00     0.136 C 
ATOM      2  O   UNL     1      63.139  11.050  46.033  1.00  0.00    -0.299 OA
ENDROOT
BRANCH   1   3
ATOM      3  C   UNL     1      64.238  12.035  47.882  1.00  0.00     0.053 C 
ATOM      4  C   UNL     1      63.715  13.077  48.884  1.00  0.00     0.016 C 
BRANCH   3   5
ATOM      5  C   UNL     1      65.751  12.246  47.640  1.00  0.00     0.015 C 
BRANCH   5   6
ATOM      6  C   UNL     1      66.186  13.721  47.601  1.00  0.00     0.028 C 
BRANCH   6   7
ATOM      7  C   UNL     1      66.876  14.077  46.306  1.00  0.00    -0.028 C 
ATOM      8  C   UNL     1      66.355  14.816  45.297  1.00  0.00    -0.070 CG0
ATOM      9  C   UNL     1      67.209  15.034  44.072  1.00  0.00     0.039 C 
ATOM     10  G   UNL     1      64.950  15.400  45.306  1.00  0.00     0.000 G0
ENDBRANCH   6   7
ENDBRANCH   5   6
ENDBRANCH   3   5
ENDBRANCH   1   3
BRANCH   1  11
ATOM     11  C   UNL     1      62.893  13.387  45.981  1.00  0.00     0.087 C 
BRANCH  11  12
ATOM     12  C   UNL     1      63.168  13.596  44.465  1.00  0.00     0.066 C 
BRANCH  12  13
ATOM     13  C   UNL     1      64.084  14.785  44.215  1.00  0.00     0.140 C 
ATOM     14  O   UNL     1      64.053  15.324  43.118  1.00  0.00    -0.299 OA
BRANCH  13  15
ATOM     15  C   UNL     1      64.937  15.400  45.303  1.00  0.00     0.106 CG0
ATOM     16  G   UNL     1      66.338  14.808  45.310  1.00  0.00     0.000 G0
ENDBRANCH  13  15
ENDBRANCH  12  13
BRANCH  12  17
ATOM     17  C   UNL     1      61.851  13.758  43.632  1.00  0.00    -0.006 C 
ATOM     18  C   UNL     1      61.264  12.387  43.234  1.00  0.00     0.008 C 
ATOM     19  C   UNL     1      60.765  14.552  44.383  1.00  0.00     0.008 C 
ENDBRANCH  12  17
ENDBRANCH  11  12
ENDBRANCH   1  11
TORSDOF 1
ENDMDL
MODEL 4
REMARK VINA RESULT:    -2.177     16.098     17.685
REMARK INTER + INTRA:          -3.658
REMARK INTER:                  -3.510
REMARK INTRA:                  -0.148
REMARK UNBOUND:                -0.335
REMARK SMILES CC1=CCC[C@@H](C)C(=O)C[C@@H](C(C)C)C(=O)C1
REMARK SMILES IDX 8 1 9 2 6 3 7 4 5 5 4 6 3 7 2 8 1 9 10 11 11 12 15 13 16 14
REMARK SMILES IDX 17 15 12 17 13 18 14 19
REMARK H PARENT
REMARK Flexibility Score: 70.00
ROOT
ATOM      1  C   UNL     1      67.027  15.116  43.755  1.00  0.00     0.136 C 
ATOM      2  O   UNL     1      66.979  16.166  43.128  1.00  0.00    -0.299 OA
ENDROOT
BRANCH   1   3
ATOM      3  C   UNL     1      68.341  14.737  44.432  1.00  0.00     0.053 C 
ATOM      4  C   UNL     1      68.549  13.215  44.384  1.00  0.00     0.016 C 
BRANCH   3   5
ATOM      5  C   UNL     1      68.396  15.233  45.897  1.00  0.00     0.015 C 
BRANCH   5   6
ATOM      6  C   UNL     1      67.541  14.410  46.875  1.00  0.00     0.028 C 
BRANCH   6   7
ATOM      7  C   UNL     1      66.446  15.235  47.509  1.00  0.00    -0.028 C 
ATOM      8  C   UNL     1      65.117  15.112  47.282  1.00  0.00    -0.070 CG0
ATOM      9  C   UNL     1      64.191  16.060  48.004  1.00  0.00     0.039 C 
ATOM     10  G   UNL     1      64.507  14.111  46.313  1.00  0.00     0.000 G0
ENDBRANCH   6   7
ENDBRANCH   5   6
ENDBRANCH   3   5
ENDBRANCH   1   3
BRANCH   1  11
ATOM     11  C   UNL     1      65.801  14.216  43.705  1.00  0.00     0.087 C 
BRANCH  11  12
ATOM     12  C   UNL     1      64.427  14.939  43.787  1.00  0.00     0.066 C 
BRANCH  12  13
ATOM     13  C   UNL     1      63.786  14.783  45.158  1.00  0.00     0.140 C 
ATOM     14  O   UNL     1      62.623  15.133  45.301  1.00  0.00    -0.299 OA
BRANCH  13  15
ATOM     15  C   UNL     1      64.487  14.102  46.313  1.00  0.00     0.106 CG0
ATOM     16  G   UNL     1      65.112  15.117  47.257  1.00  0.00     0.000 G0
ENDBRANCH  13  15
ENDBRANCH  12  13
BRANCH  12  17
ATOM     17  C   UNL     1      63.429  14.460  42.678  1.00  0.00    -0.006 C 
ATOM     18  C   UNL     1      63.967  14.768  41.264  1.00  0.00     0.008 C 
ATOM     19  C   UNL     1      63.122  12.952  42.764  1.00  0.00     0.008 C 
ENDBRANCH  12  17
ENDBRANCH  11  12
ENDBRANCH   1  11
TORSDOF 1
ENDMDL
MODEL 5
REMARK VINA RESULT:    -2.160      2.643      4.962
REMARK INTER + INTRA:          -3.632
REMARK INTER:                  -3.488
REMARK INTRA:                  -0.144
REMARK UNBOUND:                -0.335
REMARK SMILES CC1=CCC[C@@H](C)C(=O)C[C@@H](C(C)C)C(=O)C1
REMARK SMILES IDX 8 1 9 2 6 3 7 4 5 5 4 6 3 7 2 8 1 9 10 11 11 12 15 13 16 14
REMARK SMILES IDX 17 15 12 17 13 18 14 19
REMARK H PARENT
REMARK Flexibility Score: 70.00
ROOT
ATOM      1  C   UNL     1      69.170  -1.205  37.483  1.00  0.00     0.136 C 
ATOM      2  O   UNL     1      69.163  -1.057  38.698  1.00  0.00    -0.299 OA
ENDROOT
BRANCH   1   3
ATOM      3  C   UNL     1      67.847  -1.501  36.783  1.00  0.00     0.053 C 
ATOM      4  C   UNL     1      67.967  -2.773  35.928  1.00  0.00     0.016 C 
BRANCH   3   5
ATOM      5  C   UNL     1      67.383  -0.315  35.905  1.00  0.00     0.015 C 
BRANCH   5   6
ATOM      6  C   UNL     1      67.643  -0.502  34.401  1.00  0.00     0.028 C 
BRANCH   6   7
ATOM      7  C   UNL     1      68.272   0.721  33.775  1.00  0.00    -0.028 C 
ATOM      8  C   UNL     1      69.597   0.939  33.599  1.00  0.00    -0.070 CG0
ATOM      9  C   UNL     1      70.015   2.247  32.972  1.00  0.00     0.039 C 
ATOM     10  G   UNL     1      70.685  -0.030  34.034  1.00  0.00     0.000 G0
ENDBRANCH   6   7
ENDBRANCH   5   6
ENDBRANCH   3   5
ENDBRANCH   1   3
BRANCH   1  11
ATOM     11  C   UNL     1      70.523  -1.199  36.786  1.00  0.00     0.087 C 
BRANCH  11  12
ATOM     12  C   UNL     1      71.193   0.195  36.621  1.00  0.00     0.066 C 
BRANCH  12  13
ATOM     13  C   UNL     1      71.519   0.498  35.166  1.00  0.00     0.140 C 
ATOM     14  O   UNL     1      72.544   1.115  34.915  1.00  0.00    -0.299 OA
BRANCH  13  15
ATOM     15  C   UNL     1      70.693  -0.038  34.018  1.00  0.00     0.106 CG0
ATOM     16  G   UNL     1      69.597   0.939  33.620  1.00  0.00     0.000 G0
ENDBRANCH  13  15
ENDBRANCH  12  13
BRANCH  12  17
ATOM     17  C   UNL     1      72.483   0.349  37.497  1.00  0.00    -0.006 C 
ATOM     18  C   UNL     1      72.579   1.758  38.117  1.00  0.00     0.008 C 
ATOM     19  C   UNL     1      72.559  -0.689  38.633  1.00  0.00     0.008 C 
ENDBRANCH  12  17
ENDBRANCH  11  12
ENDBRANCH   1  11
TORSDOF 1
ENDMDL
MODEL 6
REMARK VINA RESULT:    -2.133      4.215      6.574
REMARK INTER + INTRA:          -3.591
REMARK INTER:                  -3.211
REMARK INTRA:                  -0.380
REMARK UNBOUND:                -0.335
REMARK SMILES CC1=CCC[C@@H](C)C(=O)C[C@@H](C(C)C)C(=O)C1
REMARK SMILES IDX 8 1 9 2 6 3 7 4 5 5 4 6 3 7 2 8 1 9 10 11 11 12 15 13 16 14
REMARK SMILES IDX 17 15 12 17 13 18 14 19
REMARK H PARENT
REMARK Flexibility Score: 70.00
ROOT
ATOM      1  C   UNL     1      72.393   4.151  34.945  1.00  0.00     0.136 C 
ATOM      2  O   UNL     1      71.722   4.936  35.603  1.00  0.00    -0.299 OA
ENDROOT
BRANCH   1   3
ATOM      3  C   UNL     1      73.441   3.312  35.669  1.00  0.00     0.053 C 
ATOM      4  C   UNL     1      74.640   3.039  34.746  1.00  0.00     0.016 C 
BRANCH   3   5
ATOM      5  C   UNL     1      72.853   1.976  36.182  1.00  0.00     0.015 C 
BRANCH   5   6
ATOM      6  C   UNL     1      72.941   0.818  35.174  1.00  0.00     0.028 C 
BRANCH   6   7
ATOM      7  C   UNL     1      71.577   0.327  34.749  1.00  0.00    -0.028 C 
ATOM      8  C   UNL     1      71.002   0.508  33.536  1.00  0.00    -0.070 CG0
ATOM      9  C   UNL     1      69.614  -0.046  33.328  1.00  0.00     0.039 C 
ATOM     10  G   UNL     1      71.652   1.270  32.391  1.00  0.00     0.000 G0
ENDBRANCH   6   7
ENDBRANCH   5   6
ENDBRANCH   3   5
ENDBRANCH   1   3
BRANCH   1  11
ATOM     11  C   UNL     1      72.205   4.166  33.435  1.00  0.00     0.087 C 
BRANCH  11  12
ATOM     12  C   UNL     1      70.803   3.730  32.923  1.00  0.00     0.066 C 
BRANCH  12  13
ATOM     13  C   UNL     1      70.886   2.518  32.008  1.00  0.00     0.140 C 
ATOM     14  O   UNL     1      70.392   2.595  30.891  1.00  0.00    -0.299 OA
BRANCH  13  15
ATOM     15  C   UNL     1      71.659   1.271  32.375  1.00  0.00     0.106 CG0
ATOM     16  G   UNL     1      70.996   0.525  33.523  1.00  0.00     0.000 G0
ENDBRANCH  13  15
ENDBRANCH  12  13
BRANCH  12  17
ATOM     17  C   UNL     1      70.040   4.891  32.197  1.00  0.00    -0.006 C 
ATOM     18  C   UNL     1      68.889   5.439  33.067  1.00  0.00     0.008 C 
ATOM     19  C   UNL     1      70.963   6.064  31.817  1.00  0.00     0.008 C 
ENDBRANCH  12  17
ENDBRANCH  11  12
ENDBRANCH   1  11
TORSDOF 1
ENDMDL
MODEL 7
REMARK VINA RESULT:    -2.087      3.527      4.820
REMARK INTER + INTRA:          -3.521
REMARK INTER:                  -3.402
REMARK INTRA:                  -0.119
REMARK UNBOUND:                -0.335
REMARK SMILES CC1=CCC[C@@H](C)C(=O)C[C@@H](C(C)C)C(=O)C1
REMARK SMILES IDX 8 1 9 2 6 3 7 4 5 5 4 6 3 7 2 8 1 9 10 11 11 12 15 13 16 14
REMARK SMILES IDX 17 15 12 17 13 18 14 19
REMARK H PARENT
REMARK Flexibility Score: 70.00
ROOT
ATOM      1  C   UNL     1      69.436   0.946  32.975  1.00  0.00     0.136 C 
ATOM      2  O   UNL     1      68.244   0.997  33.252  1.00  0.00    -0.299 OA
ENDROOT
BRANCH   1   3
ATOM      3  C   UNL     1      69.974   1.902  31.915  1.00  0.00     0.053 C 
ATOM      4  C   UNL     1      70.967   1.177  30.993  1.00  0.00     0.016 C 
BRANCH   3   5
ATOM      5  C   UNL     1      70.648   3.142  32.549  1.00  0.00     0.015 C 
BRANCH   5   6
ATOM      6  C   UNL     1      72.123   2.932  32.933  1.00  0.00     0.028 C 
BRANCH   6   7
ATOM      7  C   UNL     1      72.374   3.201  34.398  1.00  0.00    -0.028 C 
ATOM      8  C   UNL     1      72.628   2.273  35.352  1.00  0.00    -0.070 CG0
ATOM      9  C   UNL     1      72.826   2.757  36.767  1.00  0.00     0.039 C 
ATOM     10  G   UNL     1      72.680   0.775  35.090  1.00  0.00     0.000 G0
ENDBRANCH   6   7
ENDBRANCH   5   6
ENDBRANCH   3   5
ENDBRANCH   1   3
BRANCH   1  11
ATOM     11  C   UNL     1      70.258  -0.155  33.629  1.00  0.00     0.087 C 
BRANCH  11  12
ATOM     12  C   UNL     1      70.205  -0.207  35.182  1.00  0.00     0.066 C 
BRANCH  12  13
ATOM     13  C   UNL     1      71.572   0.033  35.804  1.00  0.00     0.140 C 
ATOM     14  O   UNL     1      71.817  -0.476  36.889  1.00  0.00    -0.299 OA
BRANCH  13  15
ATOM     15  C   UNL     1      72.678   0.771  35.082  1.00  0.00     0.106 CG0
ATOM     16  G   UNL     1      72.627   2.264  35.368  1.00  0.00     0.000 G0
ENDBRANCH  13  15
ENDBRANCH  12  13
BRANCH  12  17
ATOM     17  C   UNL     1      69.608  -1.553  35.719  1.00  0.00    -0.006 C 
ATOM     18  C   UNL     1      68.714  -1.320  36.955  1.00  0.00     0.008 C 
ATOM     19  C   UNL     1      68.782  -2.304  34.656  1.00  0.00     0.008 C 
ENDBRANCH  12  17
ENDBRANCH  11  12
ENDBRANCH   1  11
TORSDOF 1
ENDMDL
MODEL 8
REMARK VINA RESULT:    -2.052      3.583      6.040
REMARK INTER + INTRA:          -3.467
REMARK INTER:                  -3.605
REMARK INTRA:                   0.139
REMARK UNBOUND:                -0.335
REMARK SMILES CC1=CCC[C@@H](C)C(=O)C[C@@H](C(C)C)C(=O)C1
REMARK SMILES IDX 8 1 9 2 6 3 7 4 5 5 4 6 3 7 2 8 1 9 10 11 11 12 15 13 16 14
REMARK SMILES IDX 17 15 12 17 13 18 14 19
REMARK H PARENT
REMARK Flexibility Score: 70.00
ROOT
ATOM      1  C   UNL     1      72.517   3.445  33.369  1.00  0.00     0.136 C 
ATOM      2  O   UNL     1      73.186   4.415  33.036  1.00  0.00    -0.299 OA
ENDROOT
BRANCH   1   3
ATOM      3  C   UNL     1      72.791   2.810  34.728  1.00  0.00     0.053 C 
ATOM      4  C   UNL     1      72.968   3.896  35.802  1.00  0.00     0.016 C 
BRANCH   3   5
ATOM      5  C   UNL     1      74.036   1.892  34.693  1.00  0.00     0.015 C 
BRANCH   5   6
ATOM      6  C   UNL     1      73.712   0.391  34.608  1.00  0.00     0.028 C 
BRANCH   6   7
ATOM      7  C   UNL     1      72.449   0.037  35.357  1.00  0.00    -0.028 C 
ATOM      8  C   UNL     1      71.333  -0.519  34.828  1.00  0.00    -0.070 CG0
ATOM      9  C   UNL     1      70.168  -0.769  35.753  1.00  0.00     0.039 C 
ATOM     10  G   UNL     1      71.168  -0.863  33.356  1.00  0.00     0.000 G0
ENDBRANCH   6   7
ENDBRANCH   5   6
ENDBRANCH   3   5
ENDBRANCH   1   3
BRANCH   1  11
ATOM     11  C   UNL     1      71.547   2.880  32.342  1.00  0.00     0.087 C 
BRANCH  11  12
ATOM     12  C   UNL     1      70.667   1.692  32.823  1.00  0.00     0.066 C 
BRANCH  12  13
ATOM     13  C   UNL     1      71.284   0.349  32.464  1.00  0.00     0.140 C 
ATOM     14  O   UNL     1      71.989   0.279  31.467  1.00  0.00    -0.299 OA
BRANCH  13  15
ATOM     15  C   UNL     1      71.161  -0.869  33.353  1.00  0.00     0.106 CG0
ATOM     16  G   UNL     1      71.344  -0.505  34.819  1.00  0.00     0.000 G0
ENDBRANCH  13  15
ENDBRANCH  12  13
BRANCH  12  17
ATOM     17  C   UNL     1      69.202   1.767  32.273  1.00  0.00    -0.006 C 
ATOM     18  C   UNL     1      68.167   1.717  33.417  1.00  0.00     0.008 C 
ATOM     19  C   UNL     1      68.944   3.037  31.439  1.00  0.00     0.008 C 
ENDBRANCH  12  17
ENDBRANCH  11  12
ENDBRANCH   1  11
TORSDOF 1
ENDMDL
MODEL 9
REMARK VINA RESULT:    -2.043      2.874      4.439
REMARK INTER + INTRA:          -3.453
REMARK INTER:                  -3.100
REMARK INTRA:                  -0.352
REMARK UNBOUND:                -0.335
REMARK SMILES CC1=CCC[C@@H](C)C(=O)C[C@@H](C(C)C)C(=O)C1
REMARK SMILES IDX 8 1 9 2 6 3 7 4 5 5 4 6 3 7 2 8 1 9 10 11 11 12 15 13 16 14
REMARK SMILES IDX 17 15 12 17 13 18 14 19
REMARK H PARENT
REMARK Flexibility Score: 70.00
ROOT
ATOM      1  C   UNL     1      71.065   3.083  32.658  1.00  0.00     0.136 C 
ATOM      2  O   UNL     1      71.287   3.927  31.799  1.00  0.00    -0.299 OA
ENDROOT
BRANCH   1   3
ATOM      3  C   UNL     1      70.283   1.835  32.262  1.00  0.00     0.053 C 
ATOM      4  C   UNL     1      70.902   1.188  31.013  1.00  0.00     0.016 C 
BRANCH   3   5
ATOM      5  C   UNL     1      68.789   2.149  32.011  1.00  0.00     0.015 C 
BRANCH   5   6
ATOM      6  C   UNL     1      67.954   2.313  33.292  1.00  0.00     0.028 C 
BRANCH   6   7
ATOM      7  C   UNL     1      68.062   1.110  34.200  1.00  0.00    -0.028 C 
ATOM      8  C   UNL     1      68.722   1.055  35.381  1.00  0.00    -0.070 CG0
ATOM      9  C   UNL     1      68.727  -0.259  36.122  1.00  0.00     0.039 C 
ATOM     10  G   UNL     1      69.493   2.221  35.981  1.00  0.00     0.000 G0
ENDBRANCH   6   7
ENDBRANCH   5   6
ENDBRANCH   3   5
ENDBRANCH   1   3
BRANCH   1  11
ATOM     11  C   UNL     1      71.488   3.410  34.083  1.00  0.00     0.087 C 
BRANCH  11  12
ATOM     12  C   UNL     1      71.945   2.202  34.948  1.00  0.00     0.066 C 
BRANCH  12  13
ATOM     13  C   UNL     1      70.979   1.925  36.090  1.00  0.00     0.140 C 
ATOM     14  O   UNL     1      71.434   1.542  37.159  1.00  0.00    -0.299 OA
BRANCH  13  15
ATOM     15  C   UNL     1      69.498   2.220  35.995  1.00  0.00     0.106 CG0
ATOM     16  G   UNL     1      68.738   1.051  35.389  1.00  0.00     0.000 G0
ENDBRANCH  13  15
ENDBRANCH  12  13
BRANCH  12  17
ATOM     17  C   UNL     1      73.395   2.381  35.513  1.00  0.00    -0.006 C 
ATOM     18  C   UNL     1      74.317   1.223  35.076  1.00  0.00     0.008 C 
ATOM     19  C   UNL     1      74.044   3.710  35.077  1.00  0.00     0.008 C 
ENDBRANCH  12  17
ENDBRANCH  11  12
ENDBRANCH   1  11
TORSDOF 1
ENDMDL
