MODEL 1
REMARK VINA RESULT:    -7.551      0.000      0.000
REMARK INTER + INTRA:          -9.388
REMARK INTER:                  -9.096
REMARK INTRA:                  -0.292
REMARK UNBOUND:                -0.292
REMARK SMILES O=c1c(O)c(-c2ccc(O)c(O)c2)oc2cc(O)cc(O)c12
REMARK SMILES IDX 5 1 3 2 2 3 1 4 22 5 20 6 19 7 17 8 16 9 15 10 14 11 6 12
REMARK SMILES IDX 7 13 8 14 9 15 13 16 11 17 10 18 12 20 4 22 21 24 18 26
REMARK H PARENT 10 19 12 21 4 23 21 25 18 27
REMARK Flexibility Score: inf
ROOT
ATOM      1  C   UNL     1     115.549 -49.098  30.423  1.00  0.00     0.180 A 
ATOM      2  C   UNL     1     115.632 -49.906  31.569  1.00  0.00     0.208 A 
ATOM      3  C   UNL     1     114.487 -50.078  32.364  1.00  0.00     0.238 A 
ATOM      4  O   UNL     1     114.552 -50.846  33.360  1.00  0.00    -0.285 OA
ATOM      5  C   UNL     1     113.280 -49.426  32.013  1.00  0.00     0.111 A 
ATOM      6  C   UNL     1     112.072 -49.497  32.769  1.00  0.00     0.134 A 
ATOM      7  C   UNL     1     110.903 -48.918  32.258  1.00  0.00     0.093 A 
ATOM      8  C   UNL     1     110.915 -48.215  31.051  1.00  0.00     0.123 A 
ATOM      9  C   UNL     1     112.103 -48.091  30.335  1.00  0.00     0.094 A 
ATOM     10  C   UNL     1     113.278 -48.687  30.801  1.00  0.00     0.146 A 
ATOM     11  O   UNL     1     114.386 -48.553  30.083  1.00  0.00    -0.452 OA
ENDROOT
BRANCH   1  12
ATOM     12  C   UNL     1     116.718 -48.849  29.548  1.00  0.00     0.025 A 
ATOM     13  C   UNL     1     117.081 -49.809  28.589  1.00  0.00     0.016 A 
ATOM     14  C   UNL     1     118.168 -49.585  27.740  1.00  0.00     0.051 A 
ATOM     15  C   UNL     1     118.899 -48.397  27.825  1.00  0.00     0.157 A 
ATOM     16  C   UNL     1     117.442 -47.645  29.618  1.00  0.00     0.062 A 
ATOM     17  C   UNL     1     118.532 -47.419  28.765  1.00  0.00     0.158 A 
BRANCH  15  18
ATOM     18  O   UNL     1     119.980 -48.203  26.967  1.00  0.00    -0.504 OA
ATOM     19  H   UNL     1     120.563 -47.375  27.014  1.00  0.00     0.293 HD
ENDBRANCH  15  18
BRANCH  17  20
ATOM     20  O   UNL     1     119.248 -46.225  28.846  1.00  0.00    -0.504 OA
ATOM     21  H   UNL     1     119.498 -45.698  28.016  1.00  0.00     0.293 HD
ENDBRANCH  17  20
ENDBRANCH   1  12
BRANCH   2  22
ATOM     22  O   UNL     1     116.826 -50.557  31.885  1.00  0.00    -0.502 OA
ATOM     23  H   UNL     1     116.850 -51.434  32.393  1.00  0.00     0.293 HD
ENDBRANCH   2  22
BRANCH   6  24
ATOM     24  O   UNL     1     111.973 -50.094  34.030  1.00  0.00    -0.507 OA
ATOM     25  H   UNL     1     111.210 -49.951  34.674  1.00  0.00     0.293 HD
ENDBRANCH   6  24
BRANCH   8  26
ATOM     26  O   UNL     1     109.752 -47.630  30.557  1.00  0.00    -0.508 OA
ATOM     27  H   UNL     1     109.244 -48.034  29.779  1.00  0.00     0.293 HD
ENDBRANCH   8  26
TORSDOF 6
ENDMDL
MODEL 2
REMARK VINA RESULT:    -7.355      1.357      2.906
REMARK INTER + INTRA:          -9.152
REMARK INTER:                  -8.829
REMARK INTRA:                  -0.323
REMARK UNBOUND:                -0.292
REMARK SMILES O=c1c(O)c(-c2ccc(O)c(O)c2)oc2cc(O)cc(O)c12
REMARK SMILES IDX 5 1 3 2 2 3 1 4 22 5 20 6 19 7 17 8 16 9 15 10 14 11 6 12
REMARK SMILES IDX 7 13 8 14 9 15 13 16 11 17 10 18 12 20 4 22 21 24 18 26
REMARK H PARENT 10 19 12 21 4 23 21 25 18 27
REMARK Flexibility Score: inf
ROOT
ATOM      1  C   UNL     1     115.174 -49.163  30.556  1.00  0.00     0.180 A 
ATOM      2  C   UNL     1     113.911 -48.990  29.966  1.00  0.00     0.208 A 
ATOM      3  C   UNL     1     112.762 -49.276  30.721  1.00  0.00     0.238 A 
ATOM      4  O   UNL     1     111.632 -49.067  30.205  1.00  0.00    -0.285 OA
ATOM      5  C   UNL     1     112.891 -49.748  32.050  1.00  0.00     0.111 A 
ATOM      6  C   UNL     1     111.796 -50.108  32.891  1.00  0.00     0.134 A 
ATOM      7  C   UNL     1     112.035 -50.438  34.231  1.00  0.00     0.093 A 
ATOM      8  C   UNL     1     113.334 -50.484  34.742  1.00  0.00     0.123 A 
ATOM      9  C   UNL     1     114.414 -50.192  33.912  1.00  0.00     0.094 A 
ATOM     10  C   UNL     1     114.205 -49.825  32.580  1.00  0.00     0.146 A 
ATOM     11  O   UNL     1     115.261 -49.544  31.826  1.00  0.00    -0.452 OA
ENDROOT
BRANCH   1  12
ATOM     12  C   UNL     1     116.431 -48.907  29.817  1.00  0.00     0.025 A 
ATOM     13  C   UNL     1     117.010 -49.938  29.059  1.00  0.00     0.016 A 
ATOM     14  C   UNL     1     118.185 -49.712  28.337  1.00  0.00     0.051 A 
ATOM     15  C   UNL     1     118.790 -48.452  28.348  1.00  0.00     0.157 A 
ATOM     16  C   UNL     1     117.031 -47.634  29.809  1.00  0.00     0.062 A 
ATOM     17  C   UNL     1     118.209 -47.406  29.084  1.00  0.00     0.158 A 
BRANCH  15  18
ATOM     18  O   UNL     1     119.964 -48.257  27.621  1.00  0.00    -0.504 OA
ATOM     19  H   UNL     1     120.124 -47.421  27.072  1.00  0.00     0.293 HD
ENDBRANCH  15  18
BRANCH  17  20
ATOM     20  O   UNL     1     118.799 -46.143  29.087  1.00  0.00    -0.504 OA
ATOM     21  H   UNL     1     118.465 -45.402  29.694  1.00  0.00     0.293 HD
ENDBRANCH  17  20
ENDBRANCH   1  12
BRANCH   2  22
ATOM     22  O   UNL     1     113.806 -48.502  28.661  1.00  0.00    -0.502 OA
ATOM     23  H   UNL     1     113.507 -47.556  28.457  1.00  0.00     0.293 HD
ENDBRANCH   2  22
BRANCH   6  24
ATOM     24  O   UNL     1     110.469 -50.183  32.457  1.00  0.00    -0.507 OA
ATOM     25  H   UNL     1     110.185 -50.278  31.494  1.00  0.00     0.293 HD
ENDBRANCH   6  24
BRANCH   8  26
ATOM     26  O   UNL     1     113.564 -50.828  36.072  1.00  0.00    -0.508 OA
ATOM     27  H   UNL     1     112.800 -50.990  36.717  1.00  0.00     0.293 HD
ENDBRANCH   8  26
TORSDOF 6
ENDMDL
MODEL 3
REMARK VINA RESULT:    -7.303      2.528      3.959
REMARK INTER + INTRA:          -9.089
REMARK INTER:                  -9.106
REMARK INTRA:                   0.017
REMARK UNBOUND:                -0.292
REMARK SMILES O=c1c(O)c(-c2ccc(O)c(O)c2)oc2cc(O)cc(O)c12
REMARK SMILES IDX 5 1 3 2 2 3 1 4 22 5 20 6 19 7 17 8 16 9 15 10 14 11 6 12
REMARK SMILES IDX 7 13 8 14 9 15 13 16 11 17 10 18 12 20 4 22 21 24 18 26
REMARK H PARENT 10 19 12 21 4 23 21 25 18 27
REMARK Flexibility Score: inf
ROOT
ATOM      1  C   UNL     1     112.862 -49.648  31.475  1.00  0.00     0.180 A 
ATOM      2  C   UNL     1     112.685 -48.575  32.364  1.00  0.00     0.208 A 
ATOM      3  C   UNL     1     111.571 -48.577  33.220  1.00  0.00     0.238 A 
ATOM      4  O   UNL     1     111.447 -47.640  34.052  1.00  0.00    -0.285 OA
ATOM      5  C   UNL     1     110.641 -49.642  33.162  1.00  0.00     0.111 A 
ATOM      6  C   UNL     1     109.456 -49.726  33.954  1.00  0.00     0.134 A 
ATOM      7  C   UNL     1     108.676 -50.888  33.908  1.00  0.00     0.093 A 
ATOM      8  C   UNL     1     109.003 -51.942  33.052  1.00  0.00     0.123 A 
ATOM      9  C   UNL     1     110.125 -51.845  32.233  1.00  0.00     0.094 A 
ATOM     10  C   UNL     1     110.942 -50.712  32.281  1.00  0.00     0.146 A 
ATOM     11  O   UNL     1     112.008 -50.665  31.491  1.00  0.00    -0.452 OA
ENDROOT
BRANCH   1  12
ATOM     12  C   UNL     1     113.997 -49.705  30.525  1.00  0.00     0.025 A 
ATOM     13  C   UNL     1     115.308 -49.550  31.005  1.00  0.00     0.016 A 
ATOM     14  C   UNL     1     116.395 -49.621  30.129  1.00  0.00     0.051 A 
ATOM     15  C   UNL     1     116.192 -49.861  28.767  1.00  0.00     0.157 A 
ATOM     16  C   UNL     1     113.796 -49.968  29.158  1.00  0.00     0.062 A 
ATOM     17  C   UNL     1     114.887 -50.041  28.279  1.00  0.00     0.158 A 
BRANCH  15  18
ATOM     18  O   UNL     1     117.295 -49.924  27.917  1.00  0.00    -0.504 OA
ATOM     19  H   UNL     1     118.218 -49.627  28.211  1.00  0.00     0.293 HD
ENDBRANCH  15  18
BRANCH  17  20
ATOM     20  O   UNL     1     114.677 -50.296  26.924  1.00  0.00    -0.504 OA
ATOM     21  H   UNL     1     115.396 -50.715  26.345  1.00  0.00     0.293 HD
ENDBRANCH  17  20
ENDBRANCH   1  12
BRANCH   2  22
ATOM     22  O   UNL     1     113.628 -47.545  32.419  1.00  0.00    -0.502 OA
ATOM     23  H   UNL     1     113.625 -46.770  31.766  1.00  0.00     0.293 HD
ENDBRANCH   2  22
BRANCH   6  24
ATOM     24  O   UNL     1     108.990 -48.693  34.774  1.00  0.00    -0.507 OA
ATOM     25  H   UNL     1     109.435 -47.793  34.873  1.00  0.00     0.293 HD
ENDBRANCH   6  24
BRANCH   8  26
ATOM     26  O   UNL     1     108.213 -53.088  33.002  1.00  0.00    -0.508 OA
ATOM     27  H   UNL     1     108.303 -53.762  32.250  1.00  0.00     0.293 HD
ENDBRANCH   8  26
TORSDOF 6
ENDMDL
MODEL 4
REMARK VINA RESULT:    -7.155      2.316      3.756
REMARK INTER + INTRA:          -8.911
REMARK INTER:                  -8.605
REMARK INTRA:                  -0.306
REMARK UNBOUND:                -0.292
REMARK SMILES O=c1c(O)c(-c2ccc(O)c(O)c2)oc2cc(O)cc(O)c12
REMARK SMILES IDX 5 1 3 2 2 3 1 4 22 5 20 6 19 7 17 8 16 9 15 10 14 11 6 12
REMARK SMILES IDX 7 13 8 14 9 15 13 16 11 17 10 18 12 20 4 22 21 24 18 26
REMARK H PARENT 10 19 12 21 4 23 21 25 18 27
REMARK Flexibility Score: inf
ROOT
ATOM      1  C   UNL     1     113.404 -49.567  32.160  1.00  0.00     0.180 A 
ATOM      2  C   UNL     1     113.022 -48.500  32.990  1.00  0.00     0.208 A 
ATOM      3  C   UNL     1     111.757 -48.531  33.600  1.00  0.00     0.238 A 
ATOM      4  O   UNL     1     111.442 -47.599  34.385  1.00  0.00    -0.285 OA
ATOM      5  C   UNL     1     110.884 -49.619  33.358  1.00  0.00     0.111 A 
ATOM      6  C   UNL     1     109.565 -49.733  33.891  1.00  0.00     0.134 A 
ATOM      7  C   UNL     1     108.840 -50.915  33.691  1.00  0.00     0.093 A 
ATOM      8  C   UNL     1     109.362 -51.959  32.924  1.00  0.00     0.123 A 
ATOM      9  C   UNL     1     110.624 -51.833  32.351  1.00  0.00     0.094 A 
ATOM     10  C   UNL     1     111.386 -50.680  32.561  1.00  0.00     0.146 A 
ATOM     11  O   UNL     1     112.590 -50.605  32.005  1.00  0.00    -0.452 OA
ENDROOT
BRANCH   1  12
ATOM     12  C   UNL     1     114.710 -49.594  31.463  1.00  0.00     0.025 A 
ATOM     13  C   UNL     1     114.797 -49.127  30.141  1.00  0.00     0.016 A 
ATOM     14  C   UNL     1     116.024 -49.124  29.471  1.00  0.00     0.051 A 
ATOM     15  C   UNL     1     117.181 -49.574  30.113  1.00  0.00     0.157 A 
ATOM     16  C   UNL     1     115.879 -50.027  32.113  1.00  0.00     0.062 A 
ATOM     17  C   UNL     1     117.111 -50.023  31.443  1.00  0.00     0.158 A 
BRANCH  15  18
ATOM     18  O   UNL     1     118.390 -49.563  29.419  1.00  0.00    -0.504 OA
ATOM     19  H   UNL     1     118.444 -49.772  28.429  1.00  0.00     0.293 HD
ENDBRANCH  15  18
BRANCH  17  20
ATOM     20  O   UNL     1     118.264 -50.459  32.094  1.00  0.00    -0.504 OA
ATOM     21  H   UNL     1     119.055 -49.842  32.245  1.00  0.00     0.293 HD
ENDBRANCH  17  20
ENDBRANCH   1  12
BRANCH   2  22
ATOM     22  O   UNL     1     113.907 -47.446  33.232  1.00  0.00    -0.502 OA
ATOM     23  H   UNL     1     113.910 -46.600  32.676  1.00  0.00     0.293 HD
ENDBRANCH   2  22
BRANCH   6  24
ATOM     24  O   UNL     1     108.916 -48.714  34.594  1.00  0.00    -0.507 OA
ATOM     25  H   UNL     1     107.929 -48.700  34.804  1.00  0.00     0.293 HD
ENDBRANCH   6  24
BRANCH   8  26
ATOM     26  O   UNL     1     108.628 -53.125  32.718  1.00  0.00    -0.508 OA
ATOM     27  H   UNL     1     107.981 -53.475  33.415  1.00  0.00     0.293 HD
ENDBRANCH   8  26
TORSDOF 6
ENDMDL
MODEL 5
REMARK VINA RESULT:    -7.075      2.093      7.566
REMARK INTER + INTRA:          -8.814
REMARK INTER:                  -8.518
REMARK INTRA:                  -0.296
REMARK UNBOUND:                -0.292
REMARK SMILES O=c1c(O)c(-c2ccc(O)c(O)c2)oc2cc(O)cc(O)c12
REMARK SMILES IDX 5 1 3 2 2 3 1 4 22 5 20 6 19 7 17 8 16 9 15 10 14 11 6 12
REMARK SMILES IDX 7 13 8 14 9 15 13 16 11 17 10 18 12 20 4 22 21 24 18 26
REMARK H PARENT 10 19 12 21 4 23 21 25 18 27
REMARK Flexibility Score: inf
ROOT
ATOM      1  C   UNL     1     112.714 -49.960  31.673  1.00  0.00     0.180 A 
ATOM      2  C   UNL     1     112.762 -49.525  30.338  1.00  0.00     0.208 A 
ATOM      3  C   UNL     1     114.013 -49.309  29.737  1.00  0.00     0.238 A 
ATOM      4  O   UNL     1     114.050 -48.972  28.524  1.00  0.00    -0.285 OA
ATOM      5  C   UNL     1     115.198 -49.511  30.484  1.00  0.00     0.111 A 
ATOM      6  C   UNL     1     116.517 -49.283  29.987  1.00  0.00     0.134 A 
ATOM      7  C   UNL     1     117.620 -49.641  30.771  1.00  0.00     0.093 A 
ATOM      8  C   UNL     1     117.453 -50.159  32.058  1.00  0.00     0.123 A 
ATOM      9  C   UNL     1     116.171 -50.331  32.573  1.00  0.00     0.094 A 
ATOM     10  C   UNL     1     115.049 -50.015  31.802  1.00  0.00     0.146 A 
ATOM     11  O   UNL     1     113.844 -50.204  32.327  1.00  0.00    -0.452 OA
ENDROOT
BRANCH   1  12
ATOM     12  C   UNL     1     111.435 -50.186  32.383  1.00  0.00     0.025 A 
ATOM     13  C   UNL     1     110.752 -51.400  32.206  1.00  0.00     0.016 A 
ATOM     14  C   UNL     1     109.553 -51.643  32.882  1.00  0.00     0.051 A 
ATOM     15  C   UNL     1     109.026 -50.686  33.754  1.00  0.00     0.157 A 
ATOM     16  C   UNL     1     110.914 -49.233  33.277  1.00  0.00     0.062 A 
ATOM     17  C   UNL     1     109.712 -49.476  33.957  1.00  0.00     0.158 A 
BRANCH  15  18
ATOM     18  O   UNL     1     107.827 -50.955  34.412  1.00  0.00    -0.504 OA
ATOM     19  H   UNL     1     107.227 -50.217  34.759  1.00  0.00     0.293 HD
ENDBRANCH  15  18
BRANCH  17  20
ATOM     20  O   UNL     1     109.200 -48.523  34.836  1.00  0.00    -0.504 OA
ATOM     21  H   UNL     1     108.924 -47.600  34.518  1.00  0.00     0.293 HD
ENDBRANCH  17  20
ENDBRANCH   1  12
BRANCH   2  22
ATOM     22  O   UNL     1     111.580 -49.353  29.613  1.00  0.00    -0.502 OA
ATOM     23  H   UNL     1     110.668 -49.567  30.000  1.00  0.00     0.293 HD
ENDBRANCH   2  22
BRANCH   6  24
ATOM     24  O   UNL     1     116.795 -48.685  28.754  1.00  0.00    -0.507 OA
ATOM     25  H   UNL     1     116.108 -48.240  28.165  1.00  0.00     0.293 HD
ENDBRANCH   6  24
BRANCH   8  26
ATOM     26  O   UNL     1     118.557 -50.499  32.836  1.00  0.00    -0.508 OA
ATOM     27  H   UNL     1     118.765 -51.463  33.070  1.00  0.00     0.293 HD
ENDBRANCH   8  26
TORSDOF 6
ENDMDL
MODEL 6
REMARK VINA RESULT:    -7.060      3.003      7.781
REMARK INTER + INTRA:          -8.797
REMARK INTER:                  -8.484
REMARK INTRA:                  -0.312
REMARK UNBOUND:                -0.292
REMARK SMILES O=c1c(O)c(-c2ccc(O)c(O)c2)oc2cc(O)cc(O)c12
REMARK SMILES IDX 5 1 3 2 2 3 1 4 22 5 20 6 19 7 17 8 16 9 15 10 14 11 6 12
REMARK SMILES IDX 7 13 8 14 9 15 13 16 11 17 10 18 12 20 4 22 21 24 18 26
REMARK H PARENT 10 19 12 21 4 23 21 25 18 27
REMARK Flexibility Score: inf
ROOT
ATOM      1  C   UNL     1     110.796 -47.220  31.537  1.00  0.00     0.180 A 
ATOM      2  C   UNL     1     111.591 -47.371  32.686  1.00  0.00     0.208 A 
ATOM      3  C   UNL     1     112.797 -48.084  32.590  1.00  0.00     0.238 A 
ATOM      4  O   UNL     1     113.531 -48.169  33.609  1.00  0.00    -0.285 OA
ATOM      5  C   UNL     1     113.183 -48.652  31.352  1.00  0.00     0.111 A 
ATOM      6  C   UNL     1     114.364 -49.428  31.151  1.00  0.00     0.134 A 
ATOM      7  C   UNL     1     114.713 -49.830  29.855  1.00  0.00     0.093 A 
ATOM      8  C   UNL     1     113.891 -49.538  28.764  1.00  0.00     0.123 A 
ATOM      9  C   UNL     1     112.707 -48.832  28.960  1.00  0.00     0.094 A 
ATOM     10  C   UNL     1     112.349 -48.387  30.235  1.00  0.00     0.146 A 
ATOM     11  O   UNL     1     111.218 -47.708  30.376  1.00  0.00    -0.452 OA
ENDROOT
BRANCH   1  12
ATOM     12  C   UNL     1     109.500 -46.504  31.565  1.00  0.00     0.025 A 
ATOM     13  C   UNL     1     109.424 -45.193  31.065  1.00  0.00     0.016 A 
ATOM     14  C   UNL     1     108.207 -44.507  31.062  1.00  0.00     0.051 A 
ATOM     15  C   UNL     1     107.048 -45.121  31.543  1.00  0.00     0.157 A 
ATOM     16  C   UNL     1     108.328 -47.127  32.029  1.00  0.00     0.062 A 
ATOM     17  C   UNL     1     107.105 -46.440  32.024  1.00  0.00     0.158 A 
BRANCH  15  18
ATOM     18  O   UNL     1     105.848 -44.409  31.531  1.00  0.00    -0.504 OA
ATOM     19  H   UNL     1     105.614 -43.762  30.787  1.00  0.00     0.293 HD
ENDBRANCH  15  18
BRANCH  17  20
ATOM     20  O   UNL     1     105.950 -47.063  32.492  1.00  0.00    -0.504 OA
ATOM     21  H   UNL     1     105.037 -46.849  32.106  1.00  0.00     0.293 HD
ENDBRANCH  17  20
ENDBRANCH   1  12
BRANCH   2  22
ATOM     22  O   UNL     1     111.201 -46.784  33.892  1.00  0.00    -0.502 OA
ATOM     23  H   UNL     1     111.195 -45.780  34.031  1.00  0.00     0.293 HD
ENDBRANCH   2  22
BRANCH   6  24
ATOM     24  O   UNL     1     115.206 -49.852  32.183  1.00  0.00    -0.507 OA
ATOM     25  H   UNL     1     116.208 -49.940  32.108  1.00  0.00     0.293 HD
ENDBRANCH   6  24
BRANCH   8  26
ATOM     26  O   UNL     1     114.238 -49.955  27.481  1.00  0.00    -0.508 OA
ATOM     27  H   UNL     1     114.318 -49.297  26.714  1.00  0.00     0.293 HD
ENDBRANCH   8  26
TORSDOF 6
ENDMDL
MODEL 7
REMARK VINA RESULT:    -7.042      3.509      5.824
REMARK INTER + INTRA:          -8.775
REMARK INTER:                  -8.501
REMARK INTRA:                  -0.274
REMARK UNBOUND:                -0.292
REMARK SMILES O=c1c(O)c(-c2ccc(O)c(O)c2)oc2cc(O)cc(O)c12
REMARK SMILES IDX 5 1 3 2 2 3 1 4 22 5 20 6 19 7 17 8 16 9 15 10 14 11 6 12
REMARK SMILES IDX 7 13 8 14 9 15 13 16 11 17 10 18 12 20 4 22 21 24 18 26
REMARK H PARENT 10 19 12 21 4 23 21 25 18 27
REMARK Flexibility Score: inf
ROOT
ATOM      1  C   UNL     1     116.326 -47.526  31.256  1.00  0.00     0.180 A 
ATOM      2  C   UNL     1     117.641 -47.841  30.875  1.00  0.00     0.208 A 
ATOM      3  C   UNL     1     117.845 -48.716  29.796  1.00  0.00     0.238 A 
ATOM      4  O   UNL     1     119.025 -48.951  29.424  1.00  0.00    -0.285 OA
ATOM      5  C   UNL     1     116.733 -49.280  29.125  1.00  0.00     0.111 A 
ATOM      6  C   UNL     1     116.825 -50.210  28.046  1.00  0.00     0.134 A 
ATOM      7  C   UNL     1     115.661 -50.602  27.372  1.00  0.00     0.093 A 
ATOM      8  C   UNL     1     114.405 -50.147  27.780  1.00  0.00     0.123 A 
ATOM      9  C   UNL     1     114.301 -49.285  28.868  1.00  0.00     0.094 A 
ATOM     10  C   UNL     1     115.446 -48.849  29.539  1.00  0.00     0.146 A 
ATOM     11  O   UNL     1     115.304 -48.019  30.565  1.00  0.00    -0.452 OA
ENDROOT
BRANCH   1  12
ATOM     12  C   UNL     1     116.029 -46.631  32.398  1.00  0.00     0.025 A 
ATOM     13  C   UNL     1     115.659 -47.187  33.634  1.00  0.00     0.016 A 
ATOM     14  C   UNL     1     115.395 -46.362  34.730  1.00  0.00     0.051 A 
ATOM     15  C   UNL     1     115.510 -44.974  34.615  1.00  0.00     0.157 A 
ATOM     16  C   UNL     1     116.165 -45.235  32.290  1.00  0.00     0.062 A 
ATOM     17  C   UNL     1     115.902 -44.406  33.390  1.00  0.00     0.158 A 
BRANCH  15  18
ATOM     18  O   UNL     1     115.237 -44.175  35.725  1.00  0.00    -0.504 OA
ATOM     19  H   UNL     1     115.903 -44.057  36.479  1.00  0.00     0.293 HD
ENDBRANCH  15  18
BRANCH  17  20
ATOM     20  O   UNL     1     116.033 -43.023  33.272  1.00  0.00    -0.504 OA
ATOM     21  H   UNL     1     115.323 -42.459  32.818  1.00  0.00     0.293 HD
ENDBRANCH  17  20
ENDBRANCH   1  12
BRANCH   2  22
ATOM     22  O   UNL     1     118.723 -47.256  31.537  1.00  0.00    -0.502 OA
ATOM     23  H   UNL     1     119.276 -47.757  32.222  1.00  0.00     0.293 HD
ENDBRANCH   2  22
BRANCH   6  24
ATOM     24  O   UNL     1     118.021 -50.796  27.619  1.00  0.00    -0.507 OA
ATOM     25  H   UNL     1     118.295 -51.747  27.814  1.00  0.00     0.293 HD
ENDBRANCH   6  24
BRANCH   8  26
ATOM     26  O   UNL     1     113.251 -50.553  27.113  1.00  0.00    -0.508 OA
ATOM     27  H   UNL     1     112.976 -51.528  27.076  1.00  0.00     0.293 HD
ENDBRANCH   8  26
TORSDOF 6
ENDMDL
MODEL 8
REMARK VINA RESULT:    -6.985      1.942      7.141
REMARK INTER + INTRA:          -8.706
REMARK INTER:                  -8.375
REMARK INTRA:                  -0.330
REMARK UNBOUND:                -0.292
REMARK SMILES O=c1c(O)c(-c2ccc(O)c(O)c2)oc2cc(O)cc(O)c12
REMARK SMILES IDX 5 1 3 2 2 3 1 4 22 5 20 6 19 7 17 8 16 9 15 10 14 11 6 12
REMARK SMILES IDX 7 13 8 14 9 15 13 16 11 17 10 18 12 20 4 22 21 24 18 26
REMARK H PARENT 10 19 12 21 4 23 21 25 18 27
REMARK Flexibility Score: inf
ROOT
ATOM      1  C   UNL     1     113.281 -48.981  31.256  1.00  0.00     0.180 A 
ATOM      2  C   UNL     1     113.264 -49.942  30.231  1.00  0.00     0.208 A 
ATOM      3  C   UNL     1     114.380 -50.056  29.386  1.00  0.00     0.238 A 
ATOM      4  O   UNL     1     114.382 -50.956  28.505  1.00  0.00    -0.285 OA
ATOM      5  C   UNL     1     115.490 -49.196  29.565  1.00  0.00     0.111 A 
ATOM      6  C   UNL     1     116.656 -49.196  28.741  1.00  0.00     0.134 A 
ATOM      7  C   UNL     1     117.747 -48.391  29.090  1.00  0.00     0.093 A 
ATOM      8  C   UNL     1     117.690 -47.538  30.195  1.00  0.00     0.123 A 
ATOM      9  C   UNL     1     116.534 -47.488  30.971  1.00  0.00     0.094 A 
ATOM     10  C   UNL     1     115.442 -48.305  30.669  1.00  0.00     0.146 A 
ATOM     11  O   UNL     1     114.363 -48.234  31.440  1.00  0.00    -0.452 OA
ENDROOT
BRANCH   1  12
ATOM     12  C   UNL     1     112.133 -48.785  32.171  1.00  0.00     0.025 A 
ATOM     13  C   UNL     1     112.141 -49.404  33.432  1.00  0.00     0.016 A 
ATOM     14  C   UNL     1     111.077 -49.215  34.318  1.00  0.00     0.051 A 
ATOM     15  C   UNL     1     110.000 -48.396  33.968  1.00  0.00     0.157 A 
ATOM     16  C   UNL     1     111.058 -47.945  31.828  1.00  0.00     0.062 A 
ATOM     17  C   UNL     1     109.992 -47.753  32.718  1.00  0.00     0.158 A 
BRANCH  15  18
ATOM     18  O   UNL     1     108.952 -48.229  34.872  1.00  0.00    -0.504 OA
ATOM     19  H   UNL     1     108.850 -48.816  35.691  1.00  0.00     0.293 HD
ENDBRANCH  15  18
BRANCH  17  20
ATOM     20  O   UNL     1     108.928 -46.924  32.368  1.00  0.00    -0.504 OA
ATOM     21  H   UNL     1     108.007 -47.297  32.165  1.00  0.00     0.293 HD
ENDBRANCH  17  20
ENDBRANCH   1  12
BRANCH   2  22
ATOM     22  O   UNL     1     112.167 -50.796  30.087  1.00  0.00    -0.502 OA
ATOM     23  H   UNL     1     111.325 -50.520  29.596  1.00  0.00     0.293 HD
ENDBRANCH   2  22
BRANCH   6  24
ATOM     24  O   UNL     1     116.781 -49.941  27.565  1.00  0.00    -0.507 OA
ATOM     25  H   UNL     1     116.200 -50.729  27.320  1.00  0.00     0.293 HD
ENDBRANCH   6  24
BRANCH   8  26
ATOM     26  O   UNL     1     118.774 -46.729  30.526  1.00  0.00    -0.508 OA
ATOM     27  H   UNL     1     119.615 -46.711  29.960  1.00  0.00     0.293 HD
ENDBRANCH   8  26
TORSDOF 6
ENDMDL
MODEL 9
REMARK VINA RESULT:    -6.918      2.074      6.957
REMARK INTER + INTRA:          -8.626
REMARK INTER:                  -8.506
REMARK INTRA:                  -0.120
REMARK UNBOUND:                -0.292
REMARK SMILES O=c1c(O)c(-c2ccc(O)c(O)c2)oc2cc(O)cc(O)c12
REMARK SMILES IDX 5 1 3 2 2 3 1 4 22 5 20 6 19 7 17 8 16 9 15 10 14 11 6 12
REMARK SMILES IDX 7 13 8 14 9 15 13 16 11 17 10 18 12 20 4 22 21 24 18 26
REMARK H PARENT 10 19 12 21 4 23 21 25 18 27
REMARK Flexibility Score: inf
ROOT
ATOM      1  C   UNL     1     113.643 -47.978  30.913  1.00  0.00     0.180 A 
ATOM      2  C   UNL     1     114.723 -47.186  31.338  1.00  0.00     0.208 A 
ATOM      3  C   UNL     1     115.999 -47.434  30.806  1.00  0.00     0.238 A 
ATOM      4  O   UNL     1     116.952 -46.686  31.149  1.00  0.00    -0.285 OA
ATOM      5  C   UNL     1     116.181 -48.482  29.872  1.00  0.00     0.111 A 
ATOM      6  C   UNL     1     117.437 -48.847  29.300  1.00  0.00     0.134 A 
ATOM      7  C   UNL     1     117.479 -49.814  28.288  1.00  0.00     0.093 A 
ATOM      8  C   UNL     1     116.320 -50.474  27.872  1.00  0.00     0.123 A 
ATOM      9  C   UNL     1     115.098 -50.165  28.466  1.00  0.00     0.094 A 
ATOM     10  C   UNL     1     115.019 -49.180  29.454  1.00  0.00     0.146 A 
ATOM     11  O   UNL     1     113.833 -48.910  29.986  1.00  0.00    -0.452 OA
ENDROOT
BRANCH   1  12
ATOM     12  C   UNL     1     112.273 -47.794  31.446  1.00  0.00     0.025 A 
ATOM     13  C   UNL     1     111.211 -47.562  30.557  1.00  0.00     0.016 A 
ATOM     14  C   UNL     1     109.908 -47.406  31.037  1.00  0.00     0.051 A 
ATOM     15  C   UNL     1     109.643 -47.493  32.406  1.00  0.00     0.157 A 
ATOM     16  C   UNL     1     112.001 -47.902  32.822  1.00  0.00     0.062 A 
ATOM     17  C   UNL     1     110.694 -47.747  33.305  1.00  0.00     0.158 A 
BRANCH  15  18
ATOM     18  O   UNL     1     108.334 -47.329  32.856  1.00  0.00    -0.504 OA
ATOM     19  H   UNL     1     107.767 -48.113  33.159  1.00  0.00     0.293 HD
ENDBRANCH  15  18
BRANCH  17  20
ATOM     20  O   UNL     1     110.435 -47.849  34.671  1.00  0.00    -0.504 OA
ATOM     21  H   UNL     1     109.987 -47.098  35.184  1.00  0.00     0.293 HD
ENDBRANCH  17  20
ENDBRANCH   1  12
BRANCH   2  22
ATOM     22  O   UNL     1     114.516 -46.143  32.244  1.00  0.00    -0.502 OA
ATOM     23  H   UNL     1     115.272 -45.561  32.585  1.00  0.00     0.293 HD
ENDBRANCH   2  22
BRANCH   6  24
ATOM     24  O   UNL     1     118.665 -48.316  29.707  1.00  0.00    -0.507 OA
ATOM     25  H   UNL     1     118.791 -47.392  30.092  1.00  0.00     0.293 HD
ENDBRANCH   6  24
BRANCH   8  26
ATOM     26  O   UNL     1     116.373 -51.445  26.875  1.00  0.00    -0.508 OA
ATOM     27  H   UNL     1     117.119 -52.129  26.841  1.00  0.00     0.293 HD
ENDBRANCH   8  26
TORSDOF 6
ENDMDL
