MODEL 1
REMARK VINA RESULT:    -4.970      0.000      0.000
REMARK INTER + INTRA:          -8.174
REMARK INTER:                  -7.585
REMARK INTRA:                  -0.589
REMARK UNBOUND:                -0.589
REMARK SMILES CCCCCCCCCC=CC(=O)[O-]
REMARK SMILES IDX 7 1 8 2 9 3 10 4 11 5 12 6 13 7 14 8 6 9 5 10 4 11 3 12 2 13
REMARK SMILES IDX 1 14
REMARK H PARENT
REMARK Flexibility Score: inf
ROOT
ATOM      1  C   UNL     1       2.936   2.280  10.506  1.00  0.00     0.000 C 
ENDROOT
BRANCH   1   2
ATOM      2  C   UNL     1       3.972   2.276   9.369  1.00  0.00     0.004 C 
BRANCH   2   3
ATOM      3  C   UNL     1       3.315   2.127   7.990  1.00  0.00     0.027 C 
BRANCH   3   4
ATOM      4  C   UNL     1       3.771   3.200   7.042  1.00  0.00    -0.025 C 
ATOM      5  C   UNL     1       4.216   4.382   7.481  1.00  0.00     0.020 C 
BRANCH   5   6
ATOM      6  C   UNL     1       4.692   5.426   6.562  1.00  0.00     0.064 C 
ATOM      7  O   UNL     1       4.113   5.591   5.455  1.00  0.00    -0.545 OA
ATOM      8  O   UNL     1       5.771   6.236   6.894  1.00  0.00    -0.545 OA
ENDBRANCH   5   6
ENDBRANCH   3   4
ENDBRANCH   2   3
ENDBRANCH   1   2
BRANCH   1   9
ATOM      9  C   UNL     1       2.986   3.567  11.346  1.00  0.00     0.000 C 
BRANCH   9  10
ATOM     10  C   UNL     1       2.046   3.519  12.560  1.00  0.00     0.000 C 
BRANCH  10  11
ATOM     11  C   UNL     1       0.781   2.713  12.242  1.00  0.00    -0.000 C 
BRANCH  11  12
ATOM     12  C   UNL     1      -0.459   3.367  12.863  1.00  0.00    -0.000 C 
BRANCH  12  13
ATOM     13  C   UNL     1      -0.731   4.738  12.233  1.00  0.00    -0.003 C 
ATOM     14  C   UNL     1      -2.030   4.730  11.432  1.00  0.00     0.004 C 
ENDBRANCH  12  13
ENDBRANCH  11  12
ENDBRANCH  10  11
ENDBRANCH   9  10
ENDBRANCH   1   9
TORSDOF 9
ENDMDL
MODEL 2
REMARK VINA RESULT:    -4.953     12.137     13.669
REMARK INTER + INTRA:          -8.149
REMARK INTER:                  -6.617
REMARK INTRA:                  -1.532
REMARK UNBOUND:                -0.589
REMARK SMILES CCCCCCCCCC=CC(=O)[O-]
REMARK SMILES IDX 7 1 8 2 9 3 10 4 11 5 12 6 13 7 14 8 6 9 5 10 4 11 3 12 2 13
REMARK SMILES IDX 1 14
REMARK H PARENT
REMARK Flexibility Score: inf
ROOT
ATOM      1  C   UNL     1       1.674  18.794   8.378  1.00  0.00     0.000 C 
ENDROOT
BRANCH   1   2
ATOM      2  C   UNL     1       2.342  19.470   9.588  1.00  0.00     0.004 C 
BRANCH   2   3
ATOM      3  C   UNL     1       3.697  18.836   9.927  1.00  0.00     0.027 C 
BRANCH   3   4
ATOM      4  C   UNL     1       4.143  17.880   8.857  1.00  0.00    -0.025 C 
ATOM      5  C   UNL     1       5.064  16.940   9.094  1.00  0.00     0.020 C 
BRANCH   5   6
ATOM      6  C   UNL     1       5.485  15.982   8.061  1.00  0.00     0.064 C 
ATOM      7  O   UNL     1       4.823  14.925   7.887  1.00  0.00    -0.545 OA
ATOM      8  O   UNL     1       6.603  16.224   7.272  1.00  0.00    -0.545 OA
ENDBRANCH   5   6
ENDBRANCH   3   4
ENDBRANCH   2   3
ENDBRANCH   1   2
BRANCH   1   9
ATOM      9  C   UNL     1       0.159  18.612   8.564  1.00  0.00     0.000 C 
BRANCH   9  10
ATOM     10  C   UNL     1      -0.286  17.151   8.408  1.00  0.00     0.000 C 
BRANCH  10  11
ATOM     11  C   UNL     1       0.913  16.200   8.503  1.00  0.00    -0.000 C 
BRANCH  11  12
ATOM     12  C   UNL     1       0.770  15.252   9.700  1.00  0.00    -0.000 C 
BRANCH  12  13
ATOM     13  C   UNL     1       2.039  15.258  10.561  1.00  0.00    -0.003 C 
ATOM     14  C   UNL     1       1.885  16.186  11.763  1.00  0.00     0.004 C 
ENDBRANCH  12  13
ENDBRANCH  11  12
ENDBRANCH  10  11
ENDBRANCH   9  10
ENDBRANCH   1   9
TORSDOF 9
ENDMDL
MODEL 3
REMARK VINA RESULT:    -4.819     13.039     14.449
REMARK INTER + INTRA:          -7.943
REMARK INTER:                  -6.355
REMARK INTRA:                  -1.588
REMARK UNBOUND:                -0.589
REMARK SMILES CCCCCCCCCC=CC(=O)[O-]
REMARK SMILES IDX 7 1 8 2 9 3 10 4 11 5 12 6 13 7 14 8 6 9 5 10 4 11 3 12 2 13
REMARK SMILES IDX 1 14
REMARK H PARENT
REMARK Flexibility Score: inf
ROOT
ATOM      1  C   UNL     1       1.462  15.696   9.921  1.00  0.00     0.000 C 
ENDROOT
BRANCH   1   2
ATOM      2  C   UNL     1       2.970  15.944  10.094  1.00  0.00     0.004 C 
BRANCH   2   3
ATOM      3  C   UNL     1       3.709  15.968   8.750  1.00  0.00     0.027 C 
BRANCH   3   4
ATOM      4  C   UNL     1       4.704  17.093   8.686  1.00  0.00    -0.025 C 
ATOM      5  C   UNL     1       4.951  17.872   9.744  1.00  0.00     0.020 C 
BRANCH   5   6
ATOM      6  C   UNL     1       5.944  18.956   9.698  1.00  0.00     0.064 C 
ATOM      7  O   UNL     1       6.987  18.814   9.008  1.00  0.00    -0.545 OA
ATOM      8  O   UNL     1       5.749  20.136  10.406  1.00  0.00    -0.545 OA
ENDBRANCH   5   6
ENDBRANCH   3   4
ENDBRANCH   2   3
ENDBRANCH   1   2
BRANCH   1   9
ATOM      9  C   UNL     1       0.957  16.083   8.521  1.00  0.00     0.000 C 
BRANCH   9  10
ATOM     10  C   UNL     1       0.001  17.284   8.547  1.00  0.00     0.000 C 
BRANCH  10  11
ATOM     11  C   UNL     1       0.615  18.489   7.825  1.00  0.00    -0.000 C 
BRANCH  11  12
ATOM     12  C   UNL     1       1.652  19.192   8.710  1.00  0.00    -0.000 C 
BRANCH  12  13
ATOM     13  C   UNL     1       1.024  19.657  10.029  1.00  0.00    -0.003 C 
ATOM     14  C   UNL     1       1.945  19.366  11.211  1.00  0.00     0.004 C 
ENDBRANCH  12  13
ENDBRANCH  11  12
ENDBRANCH  10  11
ENDBRANCH   9  10
ENDBRANCH   1   9
TORSDOF 9
ENDMDL
MODEL 4
REMARK VINA RESULT:    -4.809     12.422     14.056
REMARK INTER + INTRA:          -7.929
REMARK INTER:                  -6.367
REMARK INTRA:                  -1.562
REMARK UNBOUND:                -0.589
REMARK SMILES CCCCCCCCCC=CC(=O)[O-]
REMARK SMILES IDX 7 1 8 2 9 3 10 4 11 5 12 6 13 7 14 8 6 9 5 10 4 11 3 12 2 13
REMARK SMILES IDX 1 14
REMARK H PARENT
REMARK Flexibility Score: inf
ROOT
ATOM      1  C   UNL     1      -0.140  17.130   8.643  1.00  0.00     0.000 C 
ENDROOT
BRANCH   1   2
ATOM      2  C   UNL     1       0.799  15.922   8.481  1.00  0.00     0.004 C 
BRANCH   2   3
ATOM      3  C   UNL     1       1.411  15.484   9.818  1.00  0.00     0.027 C 
BRANCH   3   4
ATOM      4  C   UNL     1       2.913  15.524   9.777  1.00  0.00    -0.025 C 
ATOM      5  C   UNL     1       3.578  15.777   8.644  1.00  0.00     0.020 C 
BRANCH   5   6
ATOM      6  C   UNL     1       5.046  15.848   8.601  1.00  0.00     0.064 C 
ATOM      7  O   UNL     1       5.616  16.322   7.584  1.00  0.00    -0.545 OA
ATOM      8  O   UNL     1       5.816  15.399   9.668  1.00  0.00    -0.545 OA
ENDBRANCH   5   6
ENDBRANCH   3   4
ENDBRANCH   2   3
ENDBRANCH   1   2
BRANCH   1   9
ATOM      9  C   UNL     1       0.322  18.350   7.829  1.00  0.00     0.000 C 
BRANCH   9  10
ATOM     10  C   UNL     1       1.679  18.896   8.297  1.00  0.00     0.000 C 
BRANCH  10  11
ATOM     11  C   UNL     1       1.544  19.622   9.641  1.00  0.00    -0.000 C 
BRANCH  11  12
ATOM     12  C   UNL     1       2.615  19.150  10.632  1.00  0.00    -0.000 C 
BRANCH  12  13
ATOM     13  C   UNL     1       4.011  19.211  10.003  1.00  0.00    -0.003 C 
ATOM     14  C   UNL     1       5.073  18.684  10.965  1.00  0.00     0.004 C 
ENDBRANCH  12  13
ENDBRANCH  11  12
ENDBRANCH  10  11
ENDBRANCH   9  10
ENDBRANCH   1   9
TORSDOF 9
ENDMDL
MODEL 5
REMARK VINA RESULT:    -4.750     12.849     14.522
REMARK INTER + INTRA:          -7.838
REMARK INTER:                  -6.646
REMARK INTRA:                  -1.192
REMARK UNBOUND:                -0.589
REMARK SMILES CCCCCCCCCC=CC(=O)[O-]
REMARK SMILES IDX 7 1 8 2 9 3 10 4 11 5 12 6 13 7 14 8 6 9 5 10 4 11 3 12 2 13
REMARK SMILES IDX 1 14
REMARK H PARENT
REMARK Flexibility Score: inf
ROOT
ATOM      1  C   UNL     1       0.252  18.451   7.902  1.00  0.00     0.000 C 
ENDROOT
BRANCH   1   2
ATOM      2  C   UNL     1       1.701  18.794   8.291  1.00  0.00     0.004 C 
BRANCH   2   3
ATOM      3  C   UNL     1       1.791  19.417   9.690  1.00  0.00     0.027 C 
BRANCH   3   4
ATOM      4  C   UNL     1       3.217  19.675  10.089  1.00  0.00    -0.025 C 
ATOM      5  C   UNL     1       4.215  18.888   9.674  1.00  0.00     0.020 C 
BRANCH   5   6
ATOM      6  C   UNL     1       5.616  19.151  10.036  1.00  0.00     0.064 C 
ATOM      7  O   UNL     1       6.534  18.481   9.493  1.00  0.00    -0.545 OA
ATOM      8  O   UNL     1       5.944  20.128  10.969  1.00  0.00    -0.545 OA
ENDBRANCH   5   6
ENDBRANCH   3   4
ENDBRANCH   2   3
ENDBRANCH   1   2
BRANCH   1   9
ATOM      9  C   UNL     1      -0.164  17.043   8.359  1.00  0.00     0.000 C 
BRANCH   9  10
ATOM     10  C   UNL     1       1.024  16.075   8.455  1.00  0.00     0.000 C 
BRANCH  10  11
ATOM     11  C   UNL     1       1.056  15.379   9.821  1.00  0.00    -0.000 C 
BRANCH  11  12
ATOM     12  C   UNL     1       2.495  15.060  10.243  1.00  0.00    -0.000 C 
BRANCH  12  13
ATOM     13  C   UNL     1       3.490  15.448   9.142  1.00  0.00    -0.003 C 
ATOM     14  C   UNL     1       4.928  15.194   9.584  1.00  0.00     0.004 C 
ENDBRANCH  12  13
ENDBRANCH  11  12
ENDBRANCH  10  11
ENDBRANCH   9  10
ENDBRANCH   1   9
TORSDOF 9
ENDMDL
MODEL 6
REMARK VINA RESULT:    -4.744     11.900     13.671
REMARK INTER + INTRA:          -7.829
REMARK INTER:                  -6.619
REMARK INTRA:                  -1.210
REMARK UNBOUND:                -0.589
REMARK SMILES CCCCCCCCCC=CC(=O)[O-]
REMARK SMILES IDX 7 1 8 2 9 3 10 4 11 5 12 6 13 7 14 8 6 9 5 10 4 11 3 12 2 13
REMARK SMILES IDX 1 14
REMARK H PARENT
REMARK Flexibility Score: inf
ROOT
ATOM      1  C   UNL     1      -0.852   5.117  -1.964  1.00  0.00     0.000 C 
ENDROOT
BRANCH   1   2
ATOM      2  C   UNL     1      -0.168   4.120  -2.915  1.00  0.00     0.004 C 
BRANCH   2   3
ATOM      3  C   UNL     1       1.152   3.588  -2.341  1.00  0.00     0.027 C 
BRANCH   3   4
ATOM      4  C   UNL     1       2.106   4.706  -2.026  1.00  0.00    -0.025 C 
ATOM      5  C   UNL     1       3.389   4.660  -2.402  1.00  0.00     0.020 C 
BRANCH   5   6
ATOM      6  C   UNL     1       4.322   5.762  -2.123  1.00  0.00     0.064 C 
ATOM      7  O   UNL     1       4.694   5.977  -0.940  1.00  0.00    -0.545 OA
ATOM      8  O   UNL     1       4.802   6.571  -3.147  1.00  0.00    -0.545 OA
ENDBRANCH   5   6
ENDBRANCH   3   4
ENDBRANCH   2   3
ENDBRANCH   1   2
BRANCH   1   9
ATOM      9  C   UNL     1      -2.026   5.856  -2.627  1.00  0.00     0.000 C 
BRANCH   9  10
ATOM     10  C   UNL     1      -2.160   5.535  -4.123  1.00  0.00     0.000 C 
BRANCH  10  11
ATOM     11  C   UNL     1      -2.260   6.820  -4.953  1.00  0.00    -0.000 C 
BRANCH  11  12
ATOM     12  C   UNL     1      -1.140   7.801  -4.587  1.00  0.00    -0.000 C 
BRANCH  12  13
ATOM     13  C   UNL     1       0.183   7.395  -5.247  1.00  0.00    -0.003 C 
ATOM     14  C   UNL     1       1.319   7.358  -4.228  1.00  0.00     0.004 C 
ENDBRANCH  12  13
ENDBRANCH  11  12
ENDBRANCH  10  11
ENDBRANCH   9  10
ENDBRANCH   1   9
TORSDOF 9
ENDMDL
MODEL 7
REMARK VINA RESULT:    -4.712     12.141     13.632
REMARK INTER + INTRA:          -7.780
REMARK INTER:                  -6.500
REMARK INTRA:                  -1.280
REMARK UNBOUND:                -0.589
REMARK SMILES CCCCCCCCCC=CC(=O)[O-]
REMARK SMILES IDX 7 1 8 2 9 3 10 4 11 5 12 6 13 7 14 8 6 9 5 10 4 11 3 12 2 13
REMARK SMILES IDX 1 14
REMARK H PARENT
REMARK Flexibility Score: inf
ROOT
ATOM      1  C   UNL     1       0.973  15.167   9.804  1.00  0.00     0.000 C 
ENDROOT
BRANCH   1   2
ATOM      2  C   UNL     1       2.268  15.472  10.576  1.00  0.00     0.004 C 
BRANCH   2   3
ATOM      3  C   UNL     1       3.418  14.546  10.160  1.00  0.00     0.027 C 
BRANCH   3   4
ATOM      4  C   UNL     1       4.613  15.327   9.687  1.00  0.00    -0.025 C 
ATOM      5  C   UNL     1       4.517  16.230   8.705  1.00  0.00     0.020 C 
BRANCH   5   6
ATOM      6  C   UNL     1       5.673  17.019   8.256  1.00  0.00     0.064 C 
ATOM      7  O   UNL     1       6.060  18.001   8.943  1.00  0.00    -0.545 OA
ATOM      8  O   UNL     1       6.348  16.698   7.085  1.00  0.00    -0.545 OA
ENDBRANCH   5   6
ENDBRANCH   3   4
ENDBRANCH   2   3
ENDBRANCH   1   2
BRANCH   1   9
ATOM      9  C   UNL     1       0.819  16.032   8.542  1.00  0.00     0.000 C 
BRANCH   9  10
ATOM     10  C   UNL     1      -0.087  17.252   8.766  1.00  0.00     0.000 C 
BRANCH  10  11
ATOM     11  C   UNL     1       0.348  18.428   7.883  1.00  0.00    -0.000 C 
BRANCH  11  12
ATOM     12  C   UNL     1       1.778  18.870   8.219  1.00  0.00    -0.000 C 
BRANCH  12  13
ATOM     13  C   UNL     1       1.823  19.606   9.563  1.00  0.00    -0.003 C 
ATOM     14  C   UNL     1       3.040  19.185  10.382  1.00  0.00     0.004 C 
ENDBRANCH  12  13
ENDBRANCH  11  12
ENDBRANCH  10  11
ENDBRANCH   9  10
ENDBRANCH   1   9
TORSDOF 9
ENDMDL
MODEL 8
REMARK VINA RESULT:    -4.705     12.171     13.717
REMARK INTER + INTRA:          -7.769
REMARK INTER:                  -6.370
REMARK INTRA:                  -1.399
REMARK UNBOUND:                -0.589
REMARK SMILES CCCCCCCCCC=CC(=O)[O-]
REMARK SMILES IDX 7 1 8 2 9 3 10 4 11 5 12 6 13 7 14 8 6 9 5 10 4 11 3 12 2 13
REMARK SMILES IDX 1 14
REMARK H PARENT
REMARK Flexibility Score: inf
ROOT
ATOM      1  C   UNL     1       3.308  19.143  10.000  1.00  0.00     0.000 C 
ENDROOT
BRANCH   1   2
ATOM      2  C   UNL     1       3.131  18.323  11.290  1.00  0.00     0.004 C 
BRANCH   2   3
ATOM      3  C   UNL     1       3.912  17.003  11.247  1.00  0.00     0.027 C 
BRANCH   3   4
ATOM      4  C   UNL     1       4.540  16.777   9.900  1.00  0.00    -0.025 C 
ATOM      5  C   UNL     1       4.729  15.547   9.411  1.00  0.00     0.020 C 
BRANCH   5   6
ATOM      6  C   UNL     1       5.316  15.318   8.082  1.00  0.00     0.064 C 
ATOM      7  O   UNL     1       4.955  14.318   7.408  1.00  0.00    -0.545 OA
ATOM      8  O   UNL     1       6.262  16.189   7.557  1.00  0.00    -0.545 OA
ENDBRANCH   5   6
ENDBRANCH   3   4
ENDBRANCH   2   3
ENDBRANCH   1   2
BRANCH   1   9
ATOM      9  C   UNL     1       1.966  19.519   9.350  1.00  0.00     0.000 C 
BRANCH   9  10
ATOM     10  C   UNL     1       1.734  18.801   8.013  1.00  0.00     0.000 C 
BRANCH  10  11
ATOM     11  C   UNL     1       0.264  18.394   7.857  1.00  0.00    -0.000 C 
BRANCH  11  12
ATOM     12  C   UNL     1      -0.068  17.182   8.736  1.00  0.00    -0.000 C 
BRANCH  12  13
ATOM     13  C   UNL     1       0.990  16.083   8.579  1.00  0.00    -0.003 C 
ATOM     14  C   UNL     1       0.999  15.150   9.787  1.00  0.00     0.004 C 
ENDBRANCH  12  13
ENDBRANCH  11  12
ENDBRANCH  10  11
ENDBRANCH   9  10
ENDBRANCH   1   9
TORSDOF 9
ENDMDL
MODEL 9
REMARK VINA RESULT:    -4.625     12.858     14.561
REMARK INTER + INTRA:          -7.647
REMARK INTER:                  -6.263
REMARK INTRA:                  -1.384
REMARK UNBOUND:                -0.589
REMARK SMILES CCCCCCCCCC=CC(=O)[O-]
REMARK SMILES IDX 7 1 8 2 9 3 10 4 11 5 12 6 13 7 14 8 6 9 5 10 4 11 3 12 2 13
REMARK SMILES IDX 1 14
REMARK H PARENT
REMARK Flexibility Score: inf
ROOT
ATOM      1  C   UNL     1       0.358  18.490   7.990  1.00  0.00     0.000 C 
ENDROOT
BRANCH   1   2
ATOM      2  C   UNL     1       1.846  18.685   8.331  1.00  0.00     0.004 C 
BRANCH   2   3
ATOM      3  C   UNL     1       2.046  19.650   9.506  1.00  0.00     0.027 C 
BRANCH   3   4
ATOM      4  C   UNL     1       1.396  19.136  10.760  1.00  0.00    -0.025 C 
ATOM      5  C   UNL     1       2.084  18.443  11.674  1.00  0.00     0.020 C 
BRANCH   5   6
ATOM      6  C   UNL     1       1.464  17.962  12.917  1.00  0.00     0.064 C 
ATOM      7  O   UNL     1       1.117  18.790  13.800  1.00  0.00    -0.545 OA
ATOM      8  O   UNL     1       1.252  16.606  13.134  1.00  0.00    -0.545 OA
ENDBRANCH   5   6
ENDBRANCH   3   4
ENDBRANCH   2   3
ENDBRANCH   1   2
BRANCH   1   9
ATOM      9  C   UNL     1      -0.152  17.084   8.347  1.00  0.00     0.000 C 
BRANCH   9  10
ATOM     10  C   UNL     1       0.983  16.057   8.471  1.00  0.00     0.000 C 
BRANCH  10  11
ATOM     11  C   UNL     1       0.954  15.371   9.843  1.00  0.00    -0.000 C 
BRANCH  11  12
ATOM     12  C   UNL     1       2.346  14.859  10.231  1.00  0.00    -0.000 C 
BRANCH  12  13
ATOM     13  C   UNL     1       3.445  15.713   9.590  1.00  0.00    -0.003 C 
ATOM     14  C   UNL     1       4.578  14.843   9.053  1.00  0.00     0.004 C 
ENDBRANCH  12  13
ENDBRANCH  11  12
ENDBRANCH  10  11
ENDBRANCH   9  10
ENDBRANCH   1   9
TORSDOF 9
ENDMDL
