MODEL 1
REMARK VINA RESULT:    -3.725      0.000      0.000
REMARK INTER + INTRA:          -4.051
REMARK INTER:                  -4.051
REMARK INTRA:                   0.000
REMARK UNBOUND:                 0.000
REMARK SMILES Oc1cccc(O)c1O
REMARK SMILES IDX 4 1 5 2 6 3 8 4 2 5 3 6 7 7 1 9 9 11
REMARK H PARENT 7 8 1 10 9 12
REMARK Flexibility Score: inf
ROOT
ATOM      1  C   UNL     1      17.198  24.416  47.445  1.00  0.00     0.008 A 
ATOM      2  C   UNL     1      17.182  24.451  46.049  1.00  0.00     0.050 A 
ATOM      3  C   UNL     1      18.320  24.073  45.322  1.00  0.00     0.161 A 
ATOM      4  C   UNL     1      19.477  23.660  45.998  1.00  0.00     0.200 A 
ATOM      5  C   UNL     1      19.492  23.625  47.404  1.00  0.00     0.161 A 
ATOM      6  C   UNL     1      18.349  24.005  48.122  1.00  0.00     0.050 A 
ENDROOT
BRANCH   3   7
ATOM      7  O   UNL     1      18.309  24.106  43.929  1.00  0.00    -0.504 OA
ATOM      8  H   UNL     1      17.455  24.273  43.410  1.00  0.00     0.293 HD
ENDBRANCH   3   7
BRANCH   5   9
ATOM      9  O   UNL     1      20.640  23.215  48.082  1.00  0.00    -0.504 OA
ATOM     10  H   UNL     1      20.733  22.273  48.446  1.00  0.00     0.293 HD
ENDBRANCH   5   9
BRANCH   4  11
ATOM     11  O   UNL     1      20.602  23.287  45.260  1.00  0.00    -0.502 OA
ATOM     12  H   UNL     1      21.347  22.731  45.660  1.00  0.00     0.293 HD
ENDBRANCH   4  11
TORSDOF 3
ENDMDL
MODEL 2
REMARK VINA RESULT:    -3.599      1.746      2.940
REMARK INTER + INTRA:          -3.914
REMARK INTER:                  -3.914
REMARK INTRA:                   0.000
REMARK UNBOUND:                 0.000
REMARK SMILES Oc1cccc(O)c1O
REMARK SMILES IDX 4 1 5 2 6 3 8 4 2 5 3 6 7 7 1 9 9 11
REMARK H PARENT 7 8 1 10 9 12
REMARK Flexibility Score: inf
ROOT
ATOM      1  C   UNL     1      20.488  22.260  48.102  1.00  0.00     0.008 A 
ATOM      2  C   UNL     1      21.338  22.391  47.001  1.00  0.00     0.050 A 
ATOM      3  C   UNL     1      20.929  23.126  45.879  1.00  0.00     0.161 A 
ATOM      4  C   UNL     1      19.664  23.731  45.862  1.00  0.00     0.200 A 
ATOM      5  C   UNL     1      18.809  23.598  46.971  1.00  0.00     0.161 A 
ATOM      6  C   UNL     1      19.227  22.860  48.088  1.00  0.00     0.050 A 
ENDROOT
BRANCH   3   7
ATOM      7  O   UNL     1      21.773  23.260  44.778  1.00  0.00    -0.504 OA
ATOM      8  H   UNL     1      21.456  23.048  43.839  1.00  0.00     0.293 HD
ENDBRANCH   3   7
BRANCH   5   9
ATOM      9  O   UNL     1      17.550  24.197  46.960  1.00  0.00    -0.504 OA
ATOM     10  H   UNL     1      16.762  23.768  46.487  1.00  0.00     0.293 HD
ENDBRANCH   5   9
BRANCH   4  11
ATOM     11  O   UNL     1      19.271  24.459  44.738  1.00  0.00    -0.502 OA
ATOM     12  H   UNL     1      18.652  24.073  44.036  1.00  0.00     0.293 HD
ENDBRANCH   4  11
TORSDOF 3
ENDMDL
MODEL 3
REMARK VINA RESULT:    -3.587      1.731      2.843
REMARK INTER + INTRA:          -3.902
REMARK INTER:                  -3.902
REMARK INTRA:                   0.000
REMARK UNBOUND:                 0.000
REMARK SMILES Oc1cccc(O)c1O
REMARK SMILES IDX 4 1 5 2 6 3 8 4 2 5 3 6 7 7 1 9 9 11
REMARK H PARENT 7 8 1 10 9 12
REMARK Flexibility Score: inf
ROOT
ATOM      1  C   UNL     1      20.458  22.254  48.075  1.00  0.00     0.008 A 
ATOM      2  C   UNL     1      19.196  22.854  48.083  1.00  0.00     0.050 A 
ATOM      3  C   UNL     1      18.767  23.605  46.979  1.00  0.00     0.161 A 
ATOM      4  C   UNL     1      19.606  23.754  45.864  1.00  0.00     0.200 A 
ATOM      5  C   UNL     1      20.876  23.149  45.858  1.00  0.00     0.161 A 
ATOM      6  C   UNL     1      21.296  22.400  46.967  1.00  0.00     0.050 A 
ENDROOT
BRANCH   3   7
ATOM      7  O   UNL     1      17.510  24.206  46.981  1.00  0.00    -0.504 OA
ATOM      8  H   UNL     1      17.402  25.207  46.859  1.00  0.00     0.293 HD
ENDBRANCH   3   7
BRANCH   5   9
ATOM      9  O   UNL     1      21.714  23.294  44.753  1.00  0.00    -0.504 OA
ATOM     10  H   UNL     1      22.403  22.589  44.514  1.00  0.00     0.293 HD
ENDBRANCH   5   9
BRANCH   4  11
ATOM     11  O   UNL     1      19.165  24.505  44.774  1.00  0.00    -0.502 OA
ATOM     12  H   UNL     1      19.501  25.443  44.594  1.00  0.00     0.293 HD
ENDBRANCH   4  11
TORSDOF 3
ENDMDL
MODEL 4
REMARK VINA RESULT:    -2.916     20.724     21.648
REMARK INTER + INTRA:          -3.171
REMARK INTER:                  -3.171
REMARK INTRA:                   0.000
REMARK UNBOUND:                 0.000
REMARK SMILES Oc1cccc(O)c1O
REMARK SMILES IDX 4 1 5 2 6 3 8 4 2 5 3 6 7 7 1 9 9 11
REMARK H PARENT 7 8 1 10 9 12
REMARK Flexibility Score: inf
ROOT
ATOM      1  C   UNL     1      30.858  25.096  30.104  1.00  0.00     0.008 A 
ATOM      2  C   UNL     1      32.204  24.723  30.106  1.00  0.00     0.050 A 
ATOM      3  C   UNL     1      32.627  23.611  29.363  1.00  0.00     0.161 A 
ATOM      4  C   UNL     1      31.697  22.872  28.616  1.00  0.00     0.200 A 
ATOM      5  C   UNL     1      30.341  23.250  28.616  1.00  0.00     0.161 A 
ATOM      6  C   UNL     1      29.928  24.364  29.362  1.00  0.00     0.050 A 
ENDROOT
BRANCH   3   7
ATOM      7  O   UNL     1      33.968  23.233  29.361  1.00  0.00    -0.504 OA
ATOM      8  H   UNL     1      34.303  22.469  29.938  1.00  0.00     0.293 HD
ENDBRANCH   3   7
BRANCH   5   9
ATOM      9  O   UNL     1      29.412  22.520  27.875  1.00  0.00    -0.504 OA
ATOM     10  H   UNL     1      28.666  22.976  27.363  1.00  0.00     0.293 HD
ENDBRANCH   5   9
BRANCH   4  11
ATOM     11  O   UNL     1      32.133  21.769  27.883  1.00  0.00    -0.502 OA
ATOM     12  H   UNL     1      31.641  20.884  27.897  1.00  0.00     0.293 HD
ENDBRANCH   4  11
TORSDOF 3
ENDMDL
MODEL 5
REMARK VINA RESULT:    -2.905     18.909     20.018
REMARK INTER + INTRA:          -3.159
REMARK INTER:                  -3.159
REMARK INTRA:                   0.000
REMARK UNBOUND:                 0.000
REMARK SMILES Oc1cccc(O)c1O
REMARK SMILES IDX 4 1 5 2 6 3 8 4 2 5 3 6 7 7 1 9 9 11
REMARK H PARENT 7 8 1 10 9 12
REMARK Flexibility Score: inf
ROOT
ATOM      1  C   UNL     1      32.033  25.119  33.885  1.00  0.00     0.008 A 
ATOM      2  C   UNL     1      31.033  25.121  32.910  1.00  0.00     0.050 A 
ATOM      3  C   UNL     1      31.375  25.119  31.550  1.00  0.00     0.161 A 
ATOM      4  C   UNL     1      32.725  25.117  31.168  1.00  0.00     0.200 A 
ATOM      5  C   UNL     1      33.731  25.115  32.151  1.00  0.00     0.161 A 
ATOM      6  C   UNL     1      33.378  25.116  33.509  1.00  0.00     0.050 A 
ENDROOT
BRANCH   3   7
ATOM      7  O   UNL     1      30.381  25.121  30.573  1.00  0.00    -0.504 OA
ATOM      8  H   UNL     1      29.865  25.963  30.345  1.00  0.00     0.293 HD
ENDBRANCH   3   7
BRANCH   5   9
ATOM      9  O   UNL     1      35.074  25.112  31.777  1.00  0.00    -0.504 OA
ATOM     10  H   UNL     1      35.434  24.452  31.098  1.00  0.00     0.293 HD
ENDBRANCH   5   9
BRANCH   4  11
ATOM     11  O   UNL     1      33.049  25.116  29.811  1.00  0.00    -0.502 OA
ATOM     12  H   UNL     1      32.935  25.937  29.229  1.00  0.00     0.293 HD
ENDBRANCH   4  11
TORSDOF 3
ENDMDL
MODEL 6
REMARK VINA RESULT:    -2.883     18.534     19.771
REMARK INTER + INTRA:          -3.136
REMARK INTER:                  -3.136
REMARK INTRA:                   0.000
REMARK UNBOUND:                 0.000
REMARK SMILES Oc1cccc(O)c1O
REMARK SMILES IDX 4 1 5 2 6 3 8 4 2 5 3 6 7 7 1 9 9 11
REMARK H PARENT 7 8 1 10 9 12
REMARK Flexibility Score: inf
ROOT
ATOM      1  C   UNL     1      32.263  25.092  34.332  1.00  0.00     0.008 A 
ATOM      2  C   UNL     1      33.514  25.109  33.712  1.00  0.00     0.050 A 
ATOM      3  C   UNL     1      33.607  25.107  32.313  1.00  0.00     0.161 A 
ATOM      4  C   UNL     1      32.441  25.086  31.534  1.00  0.00     0.200 A 
ATOM      5  C   UNL     1      31.181  25.069  32.160  1.00  0.00     0.161 A 
ATOM      6  C   UNL     1      31.099  25.072  33.560  1.00  0.00     0.050 A 
ENDROOT
BRANCH   3   7
ATOM      7  O   UNL     1      34.853  25.123  31.689  1.00  0.00    -0.504 OA
ATOM      8  H   UNL     1      34.947  25.326  30.701  1.00  0.00     0.293 HD
ENDBRANCH   3   7
BRANCH   5   9
ATOM      9  O   UNL     1      30.018  25.049  31.391  1.00  0.00    -0.504 OA
ATOM     10  H   UNL     1      29.966  25.520  30.495  1.00  0.00     0.293 HD
ENDBRANCH   5   9
BRANCH   4  11
ATOM     11  O   UNL     1      32.549  25.083  30.143  1.00  0.00    -0.502 OA
ATOM     12  H   UNL     1      33.219  24.500  29.657  1.00  0.00     0.293 HD
ENDBRANCH   4  11
TORSDOF 3
ENDMDL
MODEL 7
REMARK VINA RESULT:    -2.862     20.746     21.595
REMARK INTER + INTRA:          -3.113
REMARK INTER:                  -3.113
REMARK INTRA:                   0.000
REMARK UNBOUND:                 0.000
REMARK SMILES Oc1cccc(O)c1O
REMARK SMILES IDX 4 1 5 2 6 3 8 4 2 5 3 6 7 7 1 9 9 11
REMARK H PARENT 7 8 1 10 9 12
REMARK Flexibility Score: inf
ROOT
ATOM      1  C   UNL     1      31.167  25.125  30.257  1.00  0.00     0.008 A 
ATOM      2  C   UNL     1      30.196  24.439  29.524  1.00  0.00     0.050 A 
ATOM      3  C   UNL     1      30.557  23.342  28.730  1.00  0.00     0.161 A 
ATOM      4  C   UNL     1      31.898  22.932  28.670  1.00  0.00     0.200 A 
ATOM      5  C   UNL     1      32.875  23.624  29.409  1.00  0.00     0.161 A 
ATOM      6  C   UNL     1      32.503  24.720  30.201  1.00  0.00     0.050 A 
ENDROOT
BRANCH   3   7
ATOM      7  O   UNL     1      29.593  22.654  27.996  1.00  0.00    -0.504 OA
ATOM      8  H   UNL     1      29.515  21.644  28.040  1.00  0.00     0.293 HD
ENDBRANCH   3   7
BRANCH   5   9
ATOM      9  O   UNL     1      34.209  23.221  29.354  1.00  0.00    -0.504 OA
ATOM     10  H   UNL     1      34.839  23.566  28.639  1.00  0.00     0.293 HD
ENDBRANCH   5   9
BRANCH   4  11
ATOM     11  O   UNL     1      32.242  21.838  27.875  1.00  0.00    -0.502 OA
ATOM     12  H   UNL     1      31.648  21.022  27.795  1.00  0.00     0.293 HD
ENDBRANCH   4  11
TORSDOF 3
ENDMDL
MODEL 8
REMARK VINA RESULT:    -2.563     18.433     19.547
REMARK INTER + INTRA:          -2.787
REMARK INTER:                  -2.787
REMARK INTRA:                   0.000
REMARK UNBOUND:                 0.000
REMARK SMILES Oc1cccc(O)c1O
REMARK SMILES IDX 4 1 5 2 6 3 8 4 2 5 3 6 7 7 1 9 9 11
REMARK H PARENT 7 8 1 10 9 12
REMARK Flexibility Score: inf
ROOT
ATOM      1  C   UNL     1      30.298  25.125  31.639  1.00  0.00     0.008 A 
ATOM      2  C   UNL     1      31.349  25.115  30.718  1.00  0.00     0.050 A 
ATOM      3  C   UNL     1      32.677  25.106  31.166  1.00  0.00     0.161 A 
ATOM      4  C   UNL     1      32.952  25.106  32.542  1.00  0.00     0.200 A 
ATOM      5  C   UNL     1      31.893  25.116  33.468  1.00  0.00     0.161 A 
ATOM      6  C   UNL     1      30.568  25.125  33.009  1.00  0.00     0.050 A 
ENDROOT
BRANCH   3   7
ATOM      7  O   UNL     1      33.730  25.097  30.253  1.00  0.00    -0.504 OA
ATOM      8  H   UNL     1      34.596  25.588  30.439  1.00  0.00     0.293 HD
ENDBRANCH   3   7
BRANCH   5   9
ATOM      9  O   UNL     1      32.160  25.115  34.836  1.00  0.00    -0.504 OA
ATOM     10  H   UNL     1      32.720  24.389  35.268  1.00  0.00     0.293 HD
ENDBRANCH   5   9
BRANCH   4  11
ATOM     11  O   UNL     1      34.280  25.097  32.972  1.00  0.00    -0.502 OA
ATOM     12  H   UNL     1      34.799  25.951  33.134  1.00  0.00     0.293 HD
ENDBRANCH   4  11
TORSDOF 3
ENDMDL
MODEL 9
REMARK VINA RESULT:    -2.554     18.497     19.741
REMARK INTER + INTRA:          -2.778
REMARK INTER:                  -2.778
REMARK INTRA:                   0.000
REMARK UNBOUND:                 0.000
REMARK SMILES Oc1cccc(O)c1O
REMARK SMILES IDX 4 1 5 2 6 3 8 4 2 5 3 6 7 7 1 9 9 11
REMARK H PARENT 7 8 1 10 9 12
REMARK Flexibility Score: inf
ROOT
ATOM      1  C   UNL     1      30.052  25.033  31.532  1.00  0.00     0.008 A 
ATOM      2  C   UNL     1      30.462  25.124  32.865  1.00  0.00     0.050 A 
ATOM      3  C   UNL     1      31.822  25.032  33.191  1.00  0.00     0.161 A 
ATOM      4  C   UNL     1      32.775  24.847  32.178  1.00  0.00     0.200 A 
ATOM      5  C   UNL     1      32.361  24.754  30.836  1.00  0.00     0.161 A 
ATOM      6  C   UNL     1      30.998  24.848  30.520  1.00  0.00     0.050 A 
ENDROOT
BRANCH   3   7
ATOM      7  O   UNL     1      32.236  25.122  34.519  1.00  0.00    -0.504 OA
ATOM      8  H   UNL     1      31.772  24.602  35.255  1.00  0.00     0.293 HD
ENDBRANCH   3   7
BRANCH   5   9
ATOM      9  O   UNL     1      33.303  24.570  29.825  1.00  0.00    -0.504 OA
ATOM     10  H   UNL     1      33.707  23.660  29.636  1.00  0.00     0.293 HD
ENDBRANCH   5   9
BRANCH   4  11
ATOM     11  O   UNL     1      34.125  24.756  32.519  1.00  0.00    -0.502 OA
ATOM     12  H   UNL     1      34.479  24.029  33.128  1.00  0.00     0.293 HD
ENDBRANCH   4  11
TORSDOF 3
ENDMDL
