MODEL 1
REMARK VINA RESULT:    -6.910      0.000      0.000
REMARK INTER + INTRA:          -8.415
REMARK INTER:                  -8.121
REMARK INTRA:                  -0.294
REMARK UNBOUND:                -0.294
REMARK SMILES O=c1cc(-c2ccc(O)c(O)c2)oc2cc(O)cc(O)c12
REMARK SMILES IDX 4 1 3 2 2 3 1 4 21 5 19 6 18 7 16 8 15 9 14 10 13 11 5 12
REMARK SMILES IDX 6 13 7 14 8 15 12 16 10 17 9 18 11 20 20 22 17 24
REMARK H PARENT 9 19 11 21 20 23 17 25
REMARK Flexibility Score: inf
ROOT
ATOM      1  C   UNL     1      19.466  -1.188 -18.604  1.00  0.00     0.138 A 
ATOM      2  C   UNL     1      19.046  -0.388 -17.533  1.00  0.00     0.100 A 
ATOM      3  C   UNL     1      18.362  -0.969 -16.464  1.00  0.00     0.197 A 
ATOM      4  O   UNL     1      17.943  -0.216 -15.547  1.00  0.00    -0.289 OA
ATOM      5  C   UNL     1      18.125  -2.365 -16.455  1.00  0.00     0.107 A 
ATOM      6  C   UNL     1      17.474  -3.072 -15.401  1.00  0.00     0.134 A 
ATOM      7  C   UNL     1      17.191  -4.434 -15.556  1.00  0.00     0.093 A 
ATOM      8  C   UNL     1      17.591  -5.128 -16.701  1.00  0.00     0.123 A 
ATOM      9  C   UNL     1      18.275  -4.458 -17.712  1.00  0.00     0.094 A 
ATOM     10  C   UNL     1      18.541  -3.091 -17.603  1.00  0.00     0.146 A 
ATOM     11  O   UNL     1      19.183  -2.487 -18.598  1.00  0.00    -0.456 OA
ENDROOT
BRANCH   1  12
ATOM     12  C   UNL     1      20.199  -0.622 -19.765  1.00  0.00     0.021 A 
ATOM     13  C   UNL     1      20.407  -1.364 -20.942  1.00  0.00     0.016 A 
ATOM     14  C   UNL     1      21.091  -0.803 -22.023  1.00  0.00     0.051 A 
ATOM     15  C   UNL     1      21.572   0.511 -21.951  1.00  0.00     0.157 A 
ATOM     16  C   UNL     1      20.674   0.701 -19.705  1.00  0.00     0.062 A 
ATOM     17  C   UNL     1      21.361   1.265 -20.786  1.00  0.00     0.158 A 
BRANCH  15  18
ATOM     18  O   UNL     1      22.255   1.067 -23.031  1.00  0.00    -0.504 OA
ATOM     19  H   UNL     1      22.881   1.856 -22.914  1.00  0.00     0.293 HD
ENDBRANCH  15  18
BRANCH  17  20
ATOM     20  O   UNL     1      21.824   2.577 -20.683  1.00  0.00    -0.504 OA
ATOM     21  H   UNL     1      21.479   3.318 -21.282  1.00  0.00     0.293 HD
ENDBRANCH  17  20
ENDBRANCH   1  12
BRANCH   6  22
ATOM     22  O   UNL     1      17.109  -2.494 -14.181  1.00  0.00    -0.507 OA
ATOM     23  H   UNL     1      17.290  -2.897 -13.275  1.00  0.00     0.293 HD
ENDBRANCH   6  22
BRANCH   8  24
ATOM     24  O   UNL     1      17.319  -6.487 -16.839  1.00  0.00    -0.508 OA
ATOM     25  H   UNL     1      17.901  -7.090 -17.409  1.00  0.00     0.293 HD
ENDBRANCH   8  24
TORSDOF 5
ENDMDL
MODEL 2
REMARK VINA RESULT:    -6.565     12.122     15.469
REMARK INTER + INTRA:          -8.010
REMARK INTER:                  -7.702
REMARK INTRA:                  -0.308
REMARK UNBOUND:                -0.294
REMARK SMILES O=c1cc(-c2ccc(O)c(O)c2)oc2cc(O)cc(O)c12
REMARK SMILES IDX 4 1 3 2 2 3 1 4 21 5 19 6 18 7 16 8 15 9 14 10 13 11 5 12
REMARK SMILES IDX 6 13 7 14 8 15 12 16 10 17 9 18 11 20 20 22 17 24
REMARK H PARENT 9 19 11 21 20 23 17 25
REMARK Flexibility Score: inf
ROOT
ATOM      1  C   UNL     1       9.094  -7.010  -9.340  1.00  0.00     0.138 A 
ATOM      2  C   UNL     1       8.097  -7.136 -10.317  1.00  0.00     0.100 A 
ATOM      3  C   UNL     1       8.414  -7.681 -11.562  1.00  0.00     0.197 A 
ATOM      4  O   UNL     1       7.513  -7.724 -12.439  1.00  0.00    -0.289 OA
ATOM      5  C   UNL     1       9.731  -8.132 -11.817  1.00  0.00     0.107 A 
ATOM      6  C   UNL     1      10.159  -8.742 -13.034  1.00  0.00     0.134 A 
ATOM      7  C   UNL     1      11.516  -9.041 -13.215  1.00  0.00     0.093 A 
ATOM      8  C   UNL     1      12.447  -8.809 -12.201  1.00  0.00     0.123 A 
ATOM      9  C   UNL     1      12.029  -8.264 -10.989  1.00  0.00     0.094 A 
ATOM     10  C   UNL     1      10.690  -7.922 -10.790  1.00  0.00     0.146 A 
ATOM     11  O   UNL     1      10.336  -7.390  -9.624  1.00  0.00    -0.456 OA
ENDROOT
BRANCH   1  12
ATOM     12  C   UNL     1       8.811  -6.438  -7.999  1.00  0.00     0.021 A 
ATOM     13  C   UNL     1       7.538  -6.536  -7.407  1.00  0.00     0.016 A 
ATOM     14  C   UNL     1       7.303  -5.997  -6.140  1.00  0.00     0.051 A 
ATOM     15  C   UNL     1       8.334  -5.359  -5.438  1.00  0.00     0.157 A 
ATOM     16  C   UNL     1       9.845  -5.808  -7.283  1.00  0.00     0.062 A 
ATOM     17  C   UNL     1       9.611  -5.266  -6.014  1.00  0.00     0.158 A 
BRANCH  15  18
ATOM     18  O   UNL     1       8.095  -4.822  -4.175  1.00  0.00    -0.504 OA
ATOM     19  H   UNL     1       8.850  -4.481  -3.592  1.00  0.00     0.293 HD
ENDBRANCH  15  18
BRANCH  17  20
ATOM     20  O   UNL     1      10.661  -4.641  -5.341  1.00  0.00    -0.504 OA
ATOM     21  H   UNL     1      10.876  -4.845  -4.372  1.00  0.00     0.293 HD
ENDBRANCH  17  20
ENDBRANCH   1  12
BRANCH   6  22
ATOM     22  O   UNL     1       9.298  -9.094 -14.076  1.00  0.00    -0.507 OA
ATOM     23  H   UNL     1       8.646  -8.467 -14.522  1.00  0.00     0.293 HD
ENDBRANCH   6  22
BRANCH   8  24
ATOM     24  O   UNL     1      13.792  -9.125 -12.385  1.00  0.00    -0.508 OA
ATOM     25  H   UNL     1      14.286  -9.733 -11.744  1.00  0.00     0.293 HD
ENDBRANCH   8  24
TORSDOF 5
ENDMDL
MODEL 3
REMARK VINA RESULT:    -6.557      1.231      2.794
REMARK INTER + INTRA:          -8.001
REMARK INTER:                  -7.683
REMARK INTRA:                  -0.318
REMARK UNBOUND:                -0.294
REMARK SMILES O=c1cc(-c2ccc(O)c(O)c2)oc2cc(O)cc(O)c12
REMARK SMILES IDX 4 1 3 2 2 3 1 4 21 5 19 6 18 7 16 8 15 9 14 10 13 11 5 12
REMARK SMILES IDX 6 13 7 14 8 15 12 16 10 17 9 18 11 20 20 22 17 24
REMARK H PARENT 9 19 11 21 20 23 17 25
REMARK Flexibility Score: inf
ROOT
ATOM      1  C   UNL     1      19.574  -1.263 -18.818  1.00  0.00     0.138 A 
ATOM      2  C   UNL     1      19.248  -2.626 -18.819  1.00  0.00     0.100 A 
ATOM      3  C   UNL     1      18.564  -3.174 -17.732  1.00  0.00     0.197 A 
ATOM      4  O   UNL     1      18.340  -4.411 -17.734  1.00  0.00    -0.289 OA
ATOM      5  C   UNL     1      18.178  -2.343 -16.654  1.00  0.00     0.107 A 
ATOM      6  C   UNL     1      17.442  -2.782 -15.513  1.00  0.00     0.134 A 
ATOM      7  C   UNL     1      17.219  -1.895 -14.453  1.00  0.00     0.093 A 
ATOM      8  C   UNL     1      17.651  -0.568 -14.519  1.00  0.00     0.123 A 
ATOM      9  C   UNL     1      18.322  -0.116 -15.652  1.00  0.00     0.094 A 
ATOM     10  C   UNL     1      18.591  -0.985 -16.712  1.00  0.00     0.146 A 
ATOM     11  O   UNL     1      19.248  -0.516 -17.768  1.00  0.00    -0.456 OA
ENDROOT
BRANCH   1  12
ATOM     12  C   UNL     1      20.299  -0.629 -19.948  1.00  0.00     0.021 A 
ATOM     13  C   UNL     1      20.550  -1.322 -21.148  1.00  0.00     0.016 A 
ATOM     14  C   UNL     1      21.226  -0.697 -22.199  1.00  0.00     0.051 A 
ATOM     15  C   UNL     1      21.656   0.630 -22.075  1.00  0.00     0.157 A 
ATOM     16  C   UNL     1      20.722   0.708 -19.836  1.00  0.00     0.062 A 
ATOM     17  C   UNL     1      21.401   1.335 -20.888  1.00  0.00     0.158 A 
BRANCH  15  18
ATOM     18  O   UNL     1      22.331   1.249 -23.125  1.00  0.00    -0.504 OA
ATOM     19  H   UNL     1      23.316   1.479 -23.061  1.00  0.00     0.293 HD
ENDBRANCH  15  18
BRANCH  17  20
ATOM     20  O   UNL     1      21.812   2.659 -20.733  1.00  0.00    -0.504 OA
ATOM     21  H   UNL     1      22.618   2.910 -20.173  1.00  0.00     0.293 HD
ENDBRANCH  17  20
ENDBRANCH   1  12
BRANCH   6  22
ATOM     22  O   UNL     1      16.893  -4.061 -15.383  1.00  0.00    -0.507 OA
ATOM     23  H   UNL     1      16.866  -4.593 -14.526  1.00  0.00     0.293 HD
ENDBRANCH   6  22
BRANCH   8  24
ATOM     24  O   UNL     1      17.409   0.311 -13.466  1.00  0.00    -0.508 OA
ATOM     25  H   UNL     1      17.058  -0.014 -12.573  1.00  0.00     0.293 HD
ENDBRANCH   8  24
TORSDOF 5
ENDMDL
MODEL 4
REMARK VINA RESULT:    -6.495      1.426      1.892
REMARK INTER + INTRA:          -7.928
REMARK INTER:                  -7.664
REMARK INTRA:                  -0.264
REMARK UNBOUND:                -0.294
REMARK SMILES O=c1cc(-c2ccc(O)c(O)c2)oc2cc(O)cc(O)c12
REMARK SMILES IDX 4 1 3 2 2 3 1 4 21 5 19 6 18 7 16 8 15 9 14 10 13 11 5 12
REMARK SMILES IDX 6 13 7 14 8 15 12 16 10 17 9 18 11 20 20 22 17 24
REMARK H PARENT 9 19 11 21 20 23 17 25
REMARK Flexibility Score: inf
ROOT
ATOM      1  C   UNL     1      18.542  -1.638 -17.139  1.00  0.00     0.138 A 
ATOM      2  C   UNL     1      17.868  -0.872 -16.178  1.00  0.00     0.100 A 
ATOM      3  C   UNL     1      17.171  -1.509 -15.151  1.00  0.00     0.197 A 
ATOM      4  O   UNL     1      16.525  -0.797 -14.340  1.00  0.00    -0.289 OA
ATOM      5  C   UNL     1      17.176  -2.922 -15.069  1.00  0.00     0.107 A 
ATOM      6  C   UNL     1      16.534  -3.679 -14.043  1.00  0.00     0.134 A 
ATOM      7  C   UNL     1      16.508  -5.076 -14.132  1.00  0.00     0.093 A 
ATOM      8  C   UNL     1      17.152  -5.745 -15.175  1.00  0.00     0.123 A 
ATOM      9  C   UNL     1      17.827  -5.017 -16.151  1.00  0.00     0.094 A 
ATOM     10  C   UNL     1      17.842  -3.621 -16.111  1.00  0.00     0.146 A 
ATOM     11  O   UNL     1      18.485  -2.964 -17.071  1.00  0.00    -0.456 OA
ENDROOT
BRANCH   1  12
ATOM     12  C   UNL     1      19.300  -1.011 -18.251  1.00  0.00     0.021 A 
ATOM     13  C   UNL     1      18.851  -1.079 -19.583  1.00  0.00     0.016 A 
ATOM     14  C   UNL     1      19.579  -0.471 -20.609  1.00  0.00     0.051 A 
ATOM     15  C   UNL     1      20.762   0.222 -20.323  1.00  0.00     0.157 A 
ATOM     16  C   UNL     1      20.482  -0.301 -17.970  1.00  0.00     0.062 A 
ATOM     17  C   UNL     1      21.214   0.308 -18.996  1.00  0.00     0.158 A 
BRANCH  15  18
ATOM     18  O   UNL     1      21.486   0.826 -21.349  1.00  0.00    -0.504 OA
ATOM     19  H   UNL     1      22.478   0.658 -21.469  1.00  0.00     0.293 HD
ENDBRANCH  15  18
BRANCH  17  20
ATOM     20  O   UNL     1      22.385   0.994 -18.676  1.00  0.00    -0.504 OA
ATOM     21  H   UNL     1      22.432   1.649 -17.905  1.00  0.00     0.293 HD
ENDBRANCH  17  20
ENDBRANCH   1  12
BRANCH   6  22
ATOM     22  O   UNL     1      15.935  -3.113 -12.914  1.00  0.00    -0.507 OA
ATOM     23  H   UNL     1      15.903  -2.125 -12.712  1.00  0.00     0.293 HD
ENDBRANCH   6  22
BRANCH   8  24
ATOM     24  O   UNL     1      17.134  -7.137 -15.245  1.00  0.00    -0.508 OA
ATOM     25  H   UNL     1      17.936  -7.662 -15.571  1.00  0.00     0.293 HD
ENDBRANCH   8  24
TORSDOF 5
ENDMDL
MODEL 5
REMARK VINA RESULT:    -6.101      1.816      3.400
REMARK INTER + INTRA:          -7.465
REMARK INTER:                  -7.196
REMARK INTRA:                  -0.269
REMARK UNBOUND:                -0.294
REMARK SMILES O=c1cc(-c2ccc(O)c(O)c2)oc2cc(O)cc(O)c12
REMARK SMILES IDX 4 1 3 2 2 3 1 4 21 5 19 6 18 7 16 8 15 9 14 10 13 11 5 12
REMARK SMILES IDX 6 13 7 14 8 15 12 16 10 17 9 18 11 20 20 22 17 24
REMARK H PARENT 9 19 11 21 20 23 17 25
REMARK Flexibility Score: inf
ROOT
ATOM      1  C   UNL     1      18.518  -1.940 -17.178  1.00  0.00     0.138 A 
ATOM      2  C   UNL     1      18.473  -3.340 -17.202  1.00  0.00     0.100 A 
ATOM      3  C   UNL     1      17.765  -4.026 -16.214  1.00  0.00     0.197 A 
ATOM      4  O   UNL     1      17.794  -5.283 -16.226  1.00  0.00    -0.289 OA
ATOM      5  C   UNL     1      17.072  -3.301 -15.215  1.00  0.00     0.107 A 
ATOM      6  C   UNL     1      16.285  -3.892 -14.182  1.00  0.00     0.134 A 
ATOM      7  C   UNL     1      15.742  -3.079 -13.179  1.00  0.00     0.093 A 
ATOM      8  C   UNL     1      15.907  -1.692 -13.206  1.00  0.00     0.123 A 
ATOM      9  C   UNL     1      16.628  -1.102 -14.240  1.00  0.00     0.094 A 
ATOM     10  C   UNL     1      17.212  -1.888 -15.237  1.00  0.00     0.146 A 
ATOM     11  O   UNL     1      17.906  -1.285 -16.197  1.00  0.00    -0.456 OA
ENDROOT
BRANCH   1  12
ATOM     12  C   UNL     1      19.256  -1.161 -18.206  1.00  0.00     0.021 A 
ATOM     13  C   UNL     1      18.756  -0.998 -19.511  1.00  0.00     0.016 A 
ATOM     14  C   UNL     1      19.466  -0.252 -20.454  1.00  0.00     0.051 A 
ATOM     15  C   UNL     1      20.683   0.350 -20.110  1.00  0.00     0.157 A 
ATOM     16  C   UNL     1      20.472  -0.542 -17.863  1.00  0.00     0.062 A 
ATOM     17  C   UNL     1      21.186   0.205 -18.807  1.00  0.00     0.158 A 
BRANCH  15  18
ATOM     18  O   UNL     1      21.389   1.093 -21.054  1.00  0.00    -0.504 OA
ATOM     19  H   UNL     1      20.942   1.818 -21.602  1.00  0.00     0.293 HD
ENDBRANCH  15  18
BRANCH  17  20
ATOM     20  O   UNL     1      22.392   0.795 -18.431  1.00  0.00    -0.504 OA
ATOM     21  H   UNL     1      22.900   1.420 -19.045  1.00  0.00     0.293 HD
ENDBRANCH  17  20
ENDBRANCH   1  12
BRANCH   6  22
ATOM     22  O   UNL     1      15.988  -5.256 -14.109  1.00  0.00    -0.507 OA
ATOM     23  H   UNL     1      16.060  -5.818 -13.275  1.00  0.00     0.293 HD
ENDBRANCH   6  22
BRANCH   8  24
ATOM     24  O   UNL     1      15.349  -0.891 -12.212  1.00  0.00    -0.508 OA
ATOM     25  H   UNL     1      14.533  -0.317 -12.389  1.00  0.00     0.293 HD
ENDBRANCH   8  24
TORSDOF 5
ENDMDL
MODEL 6
REMARK VINA RESULT:    -6.009      8.900     14.295
REMARK INTER + INTRA:          -7.357
REMARK INTER:                  -7.048
REMARK INTRA:                  -0.309
REMARK UNBOUND:                -0.294
REMARK SMILES O=c1cc(-c2ccc(O)c(O)c2)oc2cc(O)cc(O)c12
REMARK SMILES IDX 4 1 3 2 2 3 1 4 21 5 19 6 18 7 16 8 15 9 14 10 13 11 5 12
REMARK SMILES IDX 6 13 7 14 8 15 12 16 10 17 9 18 11 20 20 22 17 24
REMARK H PARENT 9 19 11 21 20 23 17 25
REMARK Flexibility Score: inf
ROOT
ATOM      1  C   UNL     1      11.395  -6.916  -9.567  1.00  0.00     0.138 A 
ATOM      2  C   UNL     1      11.395  -7.818 -10.640  1.00  0.00     0.100 A 
ATOM      3  C   UNL     1      12.363  -7.703 -11.640  1.00  0.00     0.197 A 
ATOM      4  O   UNL     1      12.300  -8.486 -12.621  1.00  0.00    -0.289 OA
ATOM      5  C   UNL     1      13.355  -6.698 -11.545  1.00  0.00     0.107 A 
ATOM      6  C   UNL     1      14.415  -6.512 -12.482  1.00  0.00     0.134 A 
ATOM      7  C   UNL     1      15.269  -5.410 -12.347  1.00  0.00     0.093 A 
ATOM      8  C   UNL     1      15.139  -4.524 -11.275  1.00  0.00     0.123 A 
ATOM      9  C   UNL     1      14.141  -4.728 -10.326  1.00  0.00     0.094 A 
ATOM     10  C   UNL     1      13.252  -5.797 -10.451  1.00  0.00     0.146 A 
ATOM     11  O   UNL     1      12.304  -5.948  -9.530  1.00  0.00    -0.456 OA
ENDROOT
BRANCH   1  12
ATOM     12  C   UNL     1      10.389  -6.995  -8.477  1.00  0.00     0.021 A 
ATOM     13  C   UNL     1       9.785  -8.213  -8.114  1.00  0.00     0.016 A 
ATOM     14  C   UNL     1       8.850  -8.259  -7.078  1.00  0.00     0.051 A 
ATOM     15  C   UNL     1       8.506  -7.093  -6.381  1.00  0.00     0.157 A 
ATOM     16  C   UNL     1      10.050  -5.830  -7.765  1.00  0.00     0.062 A 
ATOM     17  C   UNL     1       9.111  -5.874  -6.727  1.00  0.00     0.158 A 
BRANCH  15  18
ATOM     18  O   UNL     1       7.571  -7.142  -5.349  1.00  0.00    -0.504 OA
ATOM     19  H   UNL     1       6.839  -6.448  -5.263  1.00  0.00     0.293 HD
ENDBRANCH  15  18
BRANCH  17  20
ATOM     20  O   UNL     1       8.795  -4.695  -6.051  1.00  0.00    -0.504 OA
ATOM     21  H   UNL     1       8.061  -4.656  -5.354  1.00  0.00     0.293 HD
ENDBRANCH  17  20
ENDBRANCH   1  12
BRANCH   6  22
ATOM     22  O   UNL     1      14.685  -7.385 -13.539  1.00  0.00    -0.507 OA
ATOM     23  H   UNL     1      15.588  -7.504 -13.972  1.00  0.00     0.293 HD
ENDBRANCH   6  22
BRANCH   8  24
ATOM     24  O   UNL     1      16.004  -3.440 -11.141  1.00  0.00    -0.508 OA
ATOM     25  H   UNL     1      16.356  -2.939 -11.949  1.00  0.00     0.293 HD
ENDBRANCH   8  24
TORSDOF 5
ENDMDL
MODEL 7
REMARK VINA RESULT:    -5.897      8.503     12.107
REMARK INTER + INTRA:          -7.225
REMARK INTER:                  -6.940
REMARK INTRA:                  -0.285
REMARK UNBOUND:                -0.294
REMARK SMILES O=c1cc(-c2ccc(O)c(O)c2)oc2cc(O)cc(O)c12
REMARK SMILES IDX 4 1 3 2 2 3 1 4 21 5 19 6 18 7 16 8 15 9 14 10 13 11 5 12
REMARK SMILES IDX 6 13 7 14 8 15 12 16 10 17 9 18 11 20 20 22 17 24
REMARK H PARENT 9 19 11 21 20 23 17 25
REMARK Flexibility Score: inf
ROOT
ATOM      1  C   UNL     1      11.900  -5.713 -10.582  1.00  0.00     0.138 A 
ATOM      2  C   UNL     1      11.746  -6.126  -9.251  1.00  0.00     0.100 A 
ATOM      3  C   UNL     1      10.647  -6.908  -8.893  1.00  0.00     0.197 A 
ATOM      4  O   UNL     1      10.503  -7.211  -7.681  1.00  0.00    -0.289 OA
ATOM      5  C   UNL     1       9.713  -7.302  -9.881  1.00  0.00     0.107 A 
ATOM      6  C   UNL     1       8.577  -8.131  -9.640  1.00  0.00     0.134 A 
ATOM      7  C   UNL     1       7.658  -8.358 -10.672  1.00  0.00     0.093 A 
ATOM      8  C   UNL     1       7.866  -7.838 -11.951  1.00  0.00     0.123 A 
ATOM      9  C   UNL     1       9.000  -7.072 -12.210  1.00  0.00     0.094 A 
ATOM     10  C   UNL     1       9.918  -6.798 -11.193  1.00  0.00     0.146 A 
ATOM     11  O   UNL     1      10.980  -6.050 -11.479  1.00  0.00    -0.456 OA
ENDROOT
BRANCH   1  12
ATOM     12  C   UNL     1      13.051  -4.882 -11.016  1.00  0.00     0.021 A 
ATOM     13  C   UNL     1      12.930  -3.930 -12.046  1.00  0.00     0.016 A 
ATOM     14  C   UNL     1      14.027  -3.155 -12.428  1.00  0.00     0.051 A 
ATOM     15  C   UNL     1      15.262  -3.310 -11.784  1.00  0.00     0.157 A 
ATOM     16  C   UNL     1      14.291  -5.022 -10.366  1.00  0.00     0.062 A 
ATOM     17  C   UNL     1      15.392  -4.248 -10.748  1.00  0.00     0.158 A 
BRANCH  15  18
ATOM     18  O   UNL     1      16.355  -2.536 -12.169  1.00  0.00    -0.504 OA
ATOM     19  H   UNL     1      16.313  -1.523 -12.174  1.00  0.00     0.293 HD
ENDBRANCH  15  18
BRANCH  17  20
ATOM     20  O   UNL     1      16.606  -4.424 -10.084  1.00  0.00    -0.504 OA
ATOM     21  H   UNL     1      17.037  -5.336  -9.984  1.00  0.00     0.293 HD
ENDBRANCH  17  20
ENDBRANCH   1  12
BRANCH   6  22
ATOM     22  O   UNL     1       8.320  -8.769  -8.423  1.00  0.00    -0.507 OA
ATOM     23  H   UNL     1       8.496  -9.745  -8.235  1.00  0.00     0.293 HD
ENDBRANCH   6  22
BRANCH   8  24
ATOM     24  O   UNL     1       6.954  -8.083 -12.975  1.00  0.00    -0.508 OA
ATOM     25  H   UNL     1       6.512  -8.988 -13.087  1.00  0.00     0.293 HD
ENDBRANCH   8  24
TORSDOF 5
ENDMDL
MODEL 8
REMARK VINA RESULT:    -5.764      9.152     13.062
REMARK INTER + INTRA:          -7.068
REMARK INTER:                  -6.752
REMARK INTRA:                  -0.317
REMARK UNBOUND:                -0.294
REMARK SMILES O=c1cc(-c2ccc(O)c(O)c2)oc2cc(O)cc(O)c12
REMARK SMILES IDX 4 1 3 2 2 3 1 4 21 5 19 6 18 7 16 8 15 9 14 10 13 11 5 12
REMARK SMILES IDX 6 13 7 14 8 15 12 16 10 17 9 18 11 20 20 22 17 24
REMARK H PARENT 9 19 11 21 20 23 17 25
REMARK Flexibility Score: inf
ROOT
ATOM      1  C   UNL     1      11.713  -6.675 -10.240  1.00  0.00     0.138 A 
ATOM      2  C   UNL     1      10.974  -7.718 -10.814  1.00  0.00     0.100 A 
ATOM      3  C   UNL     1       9.788  -8.139 -10.211  1.00  0.00     0.197 A 
ATOM      4  O   UNL     1       9.180  -9.118 -10.714  1.00  0.00    -0.289 OA
ATOM      5  C   UNL     1       9.325  -7.488  -9.043  1.00  0.00     0.107 A 
ATOM      6  C   UNL     1       8.109  -7.803  -8.365  1.00  0.00     0.134 A 
ATOM      7  C   UNL     1       7.813  -7.170  -7.151  1.00  0.00     0.093 A 
ATOM      8  C   UNL     1       8.656  -6.190  -6.624  1.00  0.00     0.123 A 
ATOM      9  C   UNL     1       9.817  -5.837  -7.306  1.00  0.00     0.094 A 
ATOM     10  C   UNL     1      10.160  -6.474  -8.501  1.00  0.00     0.146 A 
ATOM     11  O   UNL     1      11.285  -6.117  -9.113  1.00  0.00    -0.456 OA
ENDROOT
BRANCH   1  12
ATOM     12  C   UNL     1      12.981  -6.188 -10.842  1.00  0.00     0.021 A 
ATOM     13  C   UNL     1      13.599  -6.863 -11.911  1.00  0.00     0.016 A 
ATOM     14  C   UNL     1      14.786  -6.377 -12.465  1.00  0.00     0.051 A 
ATOM     15  C   UNL     1      15.372  -5.206 -11.966  1.00  0.00     0.157 A 
ATOM     16  C   UNL     1      13.568  -5.006 -10.356  1.00  0.00     0.062 A 
ATOM     17  C   UNL     1      14.758  -4.517 -10.908  1.00  0.00     0.158 A 
BRANCH  15  18
ATOM     18  O   UNL     1      16.557  -4.724 -12.520  1.00  0.00    -0.504 OA
ATOM     19  H   UNL     1      17.348  -4.470 -11.941  1.00  0.00     0.293 HD
ENDBRANCH  15  18
BRANCH  17  20
ATOM     20  O   UNL     1      15.313  -3.347 -10.391  1.00  0.00    -0.504 OA
ATOM     21  H   UNL     1      14.749  -2.639  -9.936  1.00  0.00     0.293 HD
ENDBRANCH  17  20
ENDBRANCH   1  12
BRANCH   6  22
ATOM     22  O   UNL     1       7.157  -8.705  -8.848  1.00  0.00    -0.507 OA
ATOM     23  H   UNL     1       7.318  -9.689  -8.999  1.00  0.00     0.293 HD
ENDBRANCH   6  22
BRANCH   8  24
ATOM     24  O   UNL     1       8.344  -5.554  -5.424  1.00  0.00    -0.508 OA
ATOM     25  H   UNL     1       7.404  -5.233  -5.223  1.00  0.00     0.293 HD
ENDBRANCH   8  24
TORSDOF 5
ENDMDL
MODEL 9
REMARK VINA RESULT:    -5.727     16.697     18.713
REMARK INTER + INTRA:          -7.025
REMARK INTER:                  -6.748
REMARK INTRA:                  -0.277
REMARK UNBOUND:                -0.294
REMARK SMILES O=c1cc(-c2ccc(O)c(O)c2)oc2cc(O)cc(O)c12
REMARK SMILES IDX 4 1 3 2 2 3 1 4 21 5 19 6 18 7 16 8 15 9 14 10 13 11 5 12
REMARK SMILES IDX 6 13 7 14 8 15 12 16 10 17 9 18 11 20 20 22 17 24
REMARK H PARENT 9 19 11 21 20 23 17 25
REMARK Flexibility Score: inf
ROOT
ATOM      1  C   UNL     1       5.113   5.756 -10.337  1.00  0.00     0.138 A 
ATOM      2  C   UNL     1       5.148   7.151 -10.212  1.00  0.00     0.100 A 
ATOM      3  C   UNL     1       4.952   7.951 -11.339  1.00  0.00     0.197 A 
ATOM      4  O   UNL     1       5.051   9.198 -11.207  1.00  0.00    -0.289 OA
ATOM      5  C   UNL     1       4.689   7.348 -12.592  1.00  0.00     0.107 A 
ATOM      6  C   UNL     1       4.434   8.063 -13.800  1.00  0.00     0.134 A 
ATOM      7  C   UNL     1       4.302   7.359 -15.003  1.00  0.00     0.093 A 
ATOM      8  C   UNL     1       4.356   5.963 -15.032  1.00  0.00     0.123 A 
ATOM      9  C   UNL     1       4.551   5.254 -13.850  1.00  0.00     0.094 A 
ATOM     10  C   UNL     1       4.720   5.928 -12.638  1.00  0.00     0.146 A 
ATOM     11  O   UNL     1       4.919   5.214 -11.535  1.00  0.00    -0.456 OA
ENDROOT
BRANCH   1  12
ATOM     12  C   UNL     1       5.314   4.858  -9.171  1.00  0.00     0.021 A 
ATOM     13  C   UNL     1       4.419   4.845  -8.085  1.00  0.00     0.016 A 
ATOM     14  C   UNL     1       4.627   3.983  -7.005  1.00  0.00     0.051 A 
ATOM     15  C   UNL     1       5.726   3.115  -6.994  1.00  0.00     0.157 A 
ATOM     16  C   UNL     1       6.408   3.974  -9.159  1.00  0.00     0.062 A 
ATOM     17  C   UNL     1       6.619   3.110  -8.077  1.00  0.00     0.158 A 
BRANCH  15  18
ATOM     18  O   UNL     1       5.931   2.257  -5.915  1.00  0.00    -0.504 OA
ATOM     19  H   UNL     1       6.666   2.423  -5.238  1.00  0.00     0.293 HD
ENDBRANCH  15  18
BRANCH  17  20
ATOM     20  O   UNL     1       7.721   2.255  -8.099  1.00  0.00    -0.504 OA
ATOM     21  H   UNL     1       8.324   2.176  -8.909  1.00  0.00     0.293 HD
ENDBRANCH  17  20
ENDBRANCH   1  12
BRANCH   6  22
ATOM     22  O   UNL     1       4.277   9.450 -13.868  1.00  0.00    -0.507 OA
ATOM     23  H   UNL     1       4.964  10.124 -13.565  1.00  0.00     0.293 HD
ENDBRANCH   6  22
BRANCH   8  24
ATOM     24  O   UNL     1       4.208   5.271 -16.232  1.00  0.00    -0.508 OA
ATOM     25  H   UNL     1       3.303   4.936 -16.543  1.00  0.00     0.293 HD
ENDBRANCH   8  24
TORSDOF 5
ENDMDL
