MODEL 1
REMARK VINA RESULT:    -4.605      0.000      0.000
REMARK INTER + INTRA:          -7.860
REMARK INTER:                  -7.297
REMARK INTRA:                  -0.563
REMARK UNBOUND:                -0.563
REMARK SMILES CCCCCCCCCCCC(=O)[O-]
REMARK SMILES IDX 7 1 8 2 9 3 10 4 11 5 12 6 13 7 14 8 6 9 5 10 4 11 3 12 2 13
REMARK SMILES IDX 1 14
REMARK H PARENT
REMARK Flexibility Score: inf
ROOT
ATOM      1  C   UNL     1       3.448 -37.726  19.621  1.00  0.00     0.000 C 
ENDROOT
BRANCH   1   2
ATOM      2  C   UNL     1       4.868 -37.437  20.126  1.00  0.00     0.000 C 
BRANCH   2   3
ATOM      3  C   UNL     1       5.170 -35.935  20.091  1.00  0.00     0.000 C 
BRANCH   3   4
ATOM      4  C   UNL     1       6.083 -35.529  21.259  1.00  0.00     0.006 C 
BRANCH   4   5
ATOM      5  C   UNL     1       5.876 -36.417  22.493  1.00  0.00     0.053 C 
BRANCH   5   6
ATOM      6  C   UNL     1       5.705 -35.605  23.740  1.00  0.00     0.041 C 
ATOM      7  O   UNL     1       5.766 -34.349  23.691  1.00  0.00    -0.550 OA
ATOM      8  O   UNL     1       5.513 -36.238  24.963  1.00  0.00    -0.550 OA
ENDBRANCH   5   6
ENDBRANCH   4   5
ENDBRANCH   3   4
ENDBRANCH   2   3
ENDBRANCH   1   2
BRANCH   1   9
ATOM      9  C   UNL     1       3.339 -37.477  18.112  1.00  0.00     0.000 C 
BRANCH   9  10
ATOM     10  C   UNL     1       1.873 -37.299  17.690  1.00  0.00    -0.000 C 
BRANCH  10  11
ATOM     11  C   UNL     1       1.730 -36.680  16.290  1.00  0.00    -0.000 C 
BRANCH  11  12
ATOM     12  C   UNL     1       3.082 -36.500  15.582  1.00  0.00    -0.000 C 
BRANCH  12  13
ATOM     13  C   UNL     1       3.066 -37.157  14.197  1.00  0.00    -0.003 C 
ATOM     14  C   UNL     1       4.207 -38.159  14.049  1.00  0.00     0.004 C 
ENDBRANCH  12  13
ENDBRANCH  11  12
ENDBRANCH  10  11
ENDBRANCH   9  10
ENDBRANCH   1   9
TORSDOF 10
ENDMDL
MODEL 2
REMARK VINA RESULT:    -4.328      4.030      7.786
REMARK INTER + INTRA:          -7.422
REMARK INTER:                  -6.881
REMARK INTRA:                  -0.541
REMARK UNBOUND:                -0.563
REMARK SMILES CCCCCCCCCCCC(=O)[O-]
REMARK SMILES IDX 7 1 8 2 9 3 10 4 11 5 12 6 13 7 14 8 6 9 5 10 4 11 3 12 2 13
REMARK SMILES IDX 1 14
REMARK H PARENT
REMARK Flexibility Score: inf
ROOT
ATOM      1  C   UNL     1       4.185 -35.633  20.437  1.00  0.00     0.000 C 
ENDROOT
BRANCH   1   2
ATOM      2  C   UNL     1       3.287 -36.798  20.005  1.00  0.00     0.000 C 
BRANCH   2   3
ATOM      3  C   UNL     1       3.842 -37.487  18.752  1.00  0.00     0.000 C 
BRANCH   3   4
ATOM      4  C   UNL     1       2.831 -37.427  17.597  1.00  0.00     0.006 C 
BRANCH   4   5
ATOM      5  C   UNL     1       3.245 -36.421  16.515  1.00  0.00     0.053 C 
BRANCH   5   6
ATOM      6  C   UNL     1       3.005 -36.957  15.136  1.00  0.00     0.041 C 
ATOM      7  O   UNL     1       1.978 -36.616  14.494  1.00  0.00    -0.550 OA
ATOM      8  O   UNL     1       3.899 -37.860  14.575  1.00  0.00    -0.550 OA
ENDBRANCH   5   6
ENDBRANCH   4   5
ENDBRANCH   3   4
ENDBRANCH   2   3
ENDBRANCH   1   2
BRANCH   1   9
ATOM      9  C   UNL     1       5.633 -36.097  20.637  1.00  0.00     0.000 C 
BRANCH   9  10
ATOM     10  C   UNL     1       5.948 -36.283  22.129  1.00  0.00    -0.000 C 
BRANCH  10  11
ATOM     11  C   UNL     1       5.779 -34.985  22.937  1.00  0.00    -0.000 C 
BRANCH  11  12
ATOM     12  C   UNL     1       6.065 -35.178  24.433  1.00  0.00    -0.000 C 
BRANCH  12  13
ATOM     13  C   UNL     1       6.104 -36.667  24.795  1.00  0.00    -0.003 C 
ATOM     14  C   UNL     1       4.961 -37.036  25.737  1.00  0.00     0.004 C 
ENDBRANCH  12  13
ENDBRANCH  11  12
ENDBRANCH  10  11
ENDBRANCH   9  10
ENDBRANCH   1   9
TORSDOF 10
ENDMDL
MODEL 3
REMARK VINA RESULT:    -4.264      3.965      7.761
REMARK INTER + INTRA:          -7.320
REMARK INTER:                  -6.867
REMARK INTRA:                  -0.453
REMARK UNBOUND:                -0.563
REMARK SMILES CCCCCCCCCCCC(=O)[O-]
REMARK SMILES IDX 7 1 8 2 9 3 10 4 11 5 12 6 13 7 14 8 6 9 5 10 4 11 3 12 2 13
REMARK SMILES IDX 1 14
REMARK H PARENT
REMARK Flexibility Score: inf
ROOT
ATOM      1  C   UNL     1       3.665 -36.420  20.192  1.00  0.00     0.000 C 
ENDROOT
BRANCH   1   2
ATOM      2  C   UNL     1       3.496 -37.431  19.051  1.00  0.00     0.000 C 
BRANCH   2   3
ATOM      3  C   UNL     1       2.017 -37.613  18.691  1.00  0.00     0.000 C 
BRANCH   3   4
ATOM      4  C   UNL     1       1.753 -37.221  17.229  1.00  0.00     0.006 C 
BRANCH   4   5
ATOM      5  C   UNL     1       3.021 -36.720  16.525  1.00  0.00     0.053 C 
BRANCH   5   6
ATOM      6  C   UNL     1       3.139 -37.268  15.135  1.00  0.00     0.041 C 
ATOM      7  O   UNL     1       3.922 -38.223  14.895  1.00  0.00    -0.550 OA
ATOM      8  O   UNL     1       2.408 -36.700  14.099  1.00  0.00    -0.550 OA
ENDBRANCH   5   6
ENDBRANCH   4   5
ENDBRANCH   3   4
ENDBRANCH   2   3
ENDBRANCH   1   2
BRANCH   1   9
ATOM      9  C   UNL     1       5.129 -35.986  20.331  1.00  0.00     0.000 C 
BRANCH   9  10
ATOM     10  C   UNL     1       5.653 -36.264  21.748  1.00  0.00    -0.000 C 
BRANCH  10  11
ATOM     11  C   UNL     1       5.125 -35.257  22.783  1.00  0.00    -0.000 C 
BRANCH  11  12
ATOM     12  C   UNL     1       6.015 -35.171  24.032  1.00  0.00    -0.000 C 
BRANCH  12  13
ATOM     13  C   UNL     1       6.125 -36.537  24.721  1.00  0.00    -0.003 C 
ATOM     14  C   UNL     1       4.882 -36.834  25.556  1.00  0.00     0.004 C 
ENDBRANCH  12  13
ENDBRANCH  11  12
ENDBRANCH  10  11
ENDBRANCH   9  10
ENDBRANCH   1   9
TORSDOF 10
ENDMDL
MODEL 4
REMARK VINA RESULT:    -3.855      3.953      7.809
REMARK INTER + INTRA:          -6.672
REMARK INTER:                  -6.142
REMARK INTRA:                  -0.530
REMARK UNBOUND:                -0.563
REMARK SMILES CCCCCCCCCCCC(=O)[O-]
REMARK SMILES IDX 7 1 8 2 9 3 10 4 11 5 12 6 13 7 14 8 6 9 5 10 4 11 3 12 2 13
REMARK SMILES IDX 1 14
REMARK H PARENT
REMARK Flexibility Score: inf
ROOT
ATOM      1  C   UNL     1       4.483 -36.437  20.029  1.00  0.00     0.000 C 
ENDROOT
BRANCH   1   2
ATOM      2  C   UNL     1       4.858 -35.498  18.876  1.00  0.00     0.000 C 
BRANCH   2   3
ATOM      3  C   UNL     1       3.979 -35.756  17.647  1.00  0.00     0.000 C 
BRANCH   3   4
ATOM      4  C   UNL     1       3.221 -37.086  17.781  1.00  0.00     0.006 C 
BRANCH   4   5
ATOM      5  C   UNL     1       2.206 -37.293  16.649  1.00  0.00     0.053 C 
BRANCH   5   6
ATOM      6  C   UNL     1       2.869 -37.323  15.306  1.00  0.00     0.041 C 
ATOM      7  O   UNL     1       3.793 -38.146  15.074  1.00  0.00    -0.550 OA
ATOM      8  O   UNL     1       2.490 -36.418  14.322  1.00  0.00    -0.550 OA
ENDBRANCH   5   6
ENDBRANCH   4   5
ENDBRANCH   3   4
ENDBRANCH   2   3
ENDBRANCH   1   2
BRANCH   1   9
ATOM      9  C   UNL     1       4.332 -35.663  21.343  1.00  0.00     0.000 C 
BRANCH   9  10
ATOM     10  C   UNL     1       5.642 -35.680  22.145  1.00  0.00    -0.000 C 
BRANCH  10  11
ATOM     11  C   UNL     1       5.595 -34.764  23.379  1.00  0.00    -0.000 C 
BRANCH  11  12
ATOM     12  C   UNL     1       6.124 -35.450  24.647  1.00  0.00    -0.000 C 
BRANCH  12  13
ATOM     13  C   UNL     1       5.753 -36.938  24.659  1.00  0.00    -0.003 C 
ATOM     14  C   UNL     1       4.849 -37.270  25.844  1.00  0.00     0.004 C 
ENDBRANCH  12  13
ENDBRANCH  11  12
ENDBRANCH  10  11
ENDBRANCH   9  10
ENDBRANCH   1   9
TORSDOF 10
ENDMDL
MODEL 5
REMARK VINA RESULT:    -3.848      1.088      1.388
REMARK INTER + INTRA:          -6.660
REMARK INTER:                  -6.144
REMARK INTRA:                  -0.516
REMARK UNBOUND:                -0.563
REMARK SMILES CCCCCCCCCCCC(=O)[O-]
REMARK SMILES IDX 7 1 8 2 9 3 10 4 11 5 12 6 13 7 14 8 6 9 5 10 4 11 3 12 2 13
REMARK SMILES IDX 1 14
REMARK H PARENT
REMARK Flexibility Score: inf
ROOT
ATOM      1  C   UNL     1       3.510 -36.277  20.354  1.00  0.00     0.000 C 
ENDROOT
BRANCH   1   2
ATOM      2  C   UNL     1       4.589 -35.245  20.006  1.00  0.00     0.000 C 
BRANCH   2   3
ATOM      3  C   UNL     1       5.934 -35.620  20.638  1.00  0.00     0.000 C 
BRANCH   3   4
ATOM      4  C   UNL     1       5.733 -36.274  22.014  1.00  0.00     0.006 C 
BRANCH   4   5
ATOM      5  C   UNL     1       6.122 -35.337  23.165  1.00  0.00     0.053 C 
BRANCH   5   6
ATOM      6  C   UNL     1       5.979 -36.005  24.499  1.00  0.00     0.041 C 
ATOM      7  O   UNL     1       6.121 -35.341  25.558  1.00  0.00    -0.550 OA
ATOM      8  O   UNL     1       5.721 -37.369  24.570  1.00  0.00    -0.550 OA
ENDBRANCH   5   6
ENDBRANCH   4   5
ENDBRANCH   3   4
ENDBRANCH   2   3
ENDBRANCH   1   2
BRANCH   1   9
ATOM      9  C   UNL     1       3.371 -37.325  19.243  1.00  0.00     0.000 C 
BRANCH   9  10
ATOM     10  C   UNL     1       3.544 -36.683  17.858  1.00  0.00    -0.000 C 
BRANCH  10  11
ATOM     11  C   UNL     1       3.006 -37.570  16.723  1.00  0.00    -0.000 C 
BRANCH  11  12
ATOM     12  C   UNL     1       2.136 -36.791  15.725  1.00  0.00    -0.000 C 
BRANCH  12  13
ATOM     13  C   UNL     1       2.813 -36.716  14.351  1.00  0.00    -0.003 C 
ATOM     14  C   UNL     1       3.847 -37.826  14.185  1.00  0.00     0.004 C 
ENDBRANCH  12  13
ENDBRANCH  11  12
ENDBRANCH  10  11
ENDBRANCH   9  10
ENDBRANCH   1   9
TORSDOF 10
ENDMDL
MODEL 6
REMARK VINA RESULT:    -3.795      4.088      7.393
REMARK INTER + INTRA:          -6.576
REMARK INTER:                  -6.161
REMARK INTRA:                  -0.415
REMARK UNBOUND:                -0.563
REMARK SMILES CCCCCCCCCCCC(=O)[O-]
REMARK SMILES IDX 7 1 8 2 9 3 10 4 11 5 12 6 13 7 14 8 6 9 5 10 4 11 3 12 2 13
REMARK SMILES IDX 1 14
REMARK H PARENT
REMARK Flexibility Score: inf
ROOT
ATOM      1  C   UNL     1       2.531 -37.520  19.633  1.00  0.00     0.000 C 
ENDROOT
BRANCH   1   2
ATOM      2  C   UNL     1       1.895 -37.645  18.243  1.00  0.00     0.000 C 
BRANCH   2   3
ATOM      3  C   UNL     1       2.925 -37.374  17.140  1.00  0.00     0.000 C 
BRANCH   3   4
ATOM      4  C   UNL     1       2.351 -36.432  16.070  1.00  0.00     0.006 C 
BRANCH   4   5
ATOM      5  C   UNL     1       2.363 -37.064  14.672  1.00  0.00     0.053 C 
BRANCH   5   6
ATOM      6  C   UNL     1       3.703 -37.646  14.337  1.00  0.00     0.041 C 
ATOM      7  O   UNL     1       4.616 -36.909  13.881  1.00  0.00    -0.550 OA
ATOM      8  O   UNL     1       3.930 -39.007  14.496  1.00  0.00    -0.550 OA
ENDBRANCH   5   6
ENDBRANCH   4   5
ENDBRANCH   3   4
ENDBRANCH   2   3
ENDBRANCH   1   2
BRANCH   1   9
ATOM      9  C   UNL     1       3.826 -36.701  19.575  1.00  0.00     0.000 C 
BRANCH   9  10
ATOM     10  C   UNL     1       5.028 -37.544  20.027  1.00  0.00    -0.000 C 
BRANCH  10  11
ATOM     11  C   UNL     1       5.397 -37.308  21.501  1.00  0.00    -0.000 C 
BRANCH  11  12
ATOM     12  C   UNL     1       5.933 -35.891  21.757  1.00  0.00    -0.000 C 
BRANCH  12  13
ATOM     13  C   UNL     1       5.131 -35.195  22.862  1.00  0.00    -0.003 C 
ATOM     14  C   UNL     1       6.001 -34.206  23.634  1.00  0.00     0.004 C 
ENDBRANCH  12  13
ENDBRANCH  11  12
ENDBRANCH  10  11
ENDBRANCH   9  10
ENDBRANCH   1   9
TORSDOF 10
ENDMDL
MODEL 7
REMARK VINA RESULT:    -3.293      2.923      6.631
REMARK INTER + INTRA:          -5.781
REMARK INTER:                  -5.228
REMARK INTRA:                  -0.553
REMARK UNBOUND:                -0.563
REMARK SMILES CCCCCCCCCCCC(=O)[O-]
REMARK SMILES IDX 7 1 8 2 9 3 10 4 11 5 12 6 13 7 14 8 6 9 5 10 4 11 3 12 2 13
REMARK SMILES IDX 1 14
REMARK H PARENT
REMARK Flexibility Score: inf
ROOT
ATOM      1  C   UNL     1       4.303 -34.844  18.065  1.00  0.00     0.000 C 
ENDROOT
BRANCH   1   2
ATOM      2  C   UNL     1       4.123 -36.037  17.118  1.00  0.00     0.000 C 
BRANCH   2   3
ATOM      3  C   UNL     1       2.866 -35.870  16.255  1.00  0.00     0.000 C 
BRANCH   3   4
ATOM      4  C   UNL     1       1.737 -36.790  16.743  1.00  0.00     0.006 C 
BRANCH   4   5
ATOM      5  C   UNL     1       2.229 -37.820  17.769  1.00  0.00     0.053 C 
BRANCH   5   6
ATOM      6  C   UNL     1       1.446 -37.752  19.045  1.00  0.00     0.041 C 
ATOM      7  O   UNL     1       0.188 -37.765  19.017  1.00  0.00    -0.550 OA
ATOM      8  O   UNL     1       2.108 -37.642  20.262  1.00  0.00    -0.550 OA
ENDBRANCH   5   6
ENDBRANCH   4   5
ENDBRANCH   3   4
ENDBRANCH   2   3
ENDBRANCH   1   2
BRANCH   1   9
ATOM      9  C   UNL     1       5.465 -35.084  19.036  1.00  0.00     0.000 C 
BRANCH   9  10
ATOM     10  C   UNL     1       5.074 -36.099  20.121  1.00  0.00    -0.000 C 
BRANCH  10  11
ATOM     11  C   UNL     1       5.863 -35.906  21.426  1.00  0.00    -0.000 C 
BRANCH  11  12
ATOM     12  C   UNL     1       5.007 -35.309  22.553  1.00  0.00    -0.000 C 
BRANCH  12  13
ATOM     13  C   UNL     1       5.858 -35.026  23.795  1.00  0.00    -0.003 C 
ATOM     14  C   UNL     1       6.124 -36.304  24.585  1.00  0.00     0.004 C 
ENDBRANCH  12  13
ENDBRANCH  11  12
ENDBRANCH  10  11
ENDBRANCH   9  10
ENDBRANCH   1   9
TORSDOF 10
ENDMDL
MODEL 8
REMARK VINA RESULT:    -3.139      4.107      6.444
REMARK INTER + INTRA:          -5.537
REMARK INTER:                  -4.726
REMARK INTRA:                  -0.811
REMARK UNBOUND:                -0.563
REMARK SMILES CCCCCCCCCCCC(=O)[O-]
REMARK SMILES IDX 7 1 8 2 9 3 10 4 11 5 12 6 13 7 14 8 6 9 5 10 4 11 3 12 2 13
REMARK SMILES IDX 1 14
REMARK H PARENT
REMARK Flexibility Score: inf
ROOT
ATOM      1  C   UNL     1       2.835 -37.469  20.074  1.00  0.00     0.000 C 
ENDROOT
BRANCH   1   2
ATOM      2  C   UNL     1       1.516 -37.839  19.384  1.00  0.00     0.000 C 
BRANCH   2   3
ATOM      3  C   UNL     1       1.604 -37.613  17.871  1.00  0.00     0.000 C 
BRANCH   3   4
ATOM      4  C   UNL     1       3.055 -37.358  17.435  1.00  0.00     0.006 C 
BRANCH   4   5
ATOM      5  C   UNL     1       3.143 -36.390  16.248  1.00  0.00     0.053 C 
BRANCH   5   6
ATOM      6  C   UNL     1       3.024 -37.105  14.937  1.00  0.00     0.041 C 
ATOM      7  O   UNL     1       2.187 -36.721  14.079  1.00  0.00    -0.550 OA
ATOM      8  O   UNL     1       3.816 -38.217  14.676  1.00  0.00    -0.550 OA
ENDBRANCH   5   6
ENDBRANCH   4   5
ENDBRANCH   3   4
ENDBRANCH   2   3
ENDBRANCH   1   2
BRANCH   1   9
ATOM      9  C   UNL     1       2.697 -36.159  20.858  1.00  0.00     0.000 C 
BRANCH   9  10
ATOM     10  C   UNL     1       4.070 -35.652  21.326  1.00  0.00    -0.000 C 
BRANCH  10  11
ATOM     11  C   UNL     1       5.201 -36.652  21.035  1.00  0.00    -0.000 C 
BRANCH  11  12
ATOM     12  C   UNL     1       5.850 -36.426  19.661  1.00  0.00    -0.000 C 
BRANCH  12  13
ATOM     13  C   UNL     1       6.124 -34.937  19.423  1.00  0.00    -0.003 C 
ATOM     14  C   UNL     1       5.249 -34.388  18.299  1.00  0.00     0.004 C 
ENDBRANCH  12  13
ENDBRANCH  11  12
ENDBRANCH  10  11
ENDBRANCH   9  10
ENDBRANCH   1   9
TORSDOF 10
ENDMDL
MODEL 9
REMARK VINA RESULT:    -2.825      4.184      6.874
REMARK INTER + INTRA:          -5.039
REMARK INTER:                  -4.369
REMARK INTRA:                  -0.669
REMARK UNBOUND:                -0.563
REMARK SMILES CCCCCCCCCCCC(=O)[O-]
REMARK SMILES IDX 7 1 8 2 9 3 10 4 11 5 12 6 13 7 14 8 6 9 5 10 4 11 3 12 2 13
REMARK SMILES IDX 1 14
REMARK H PARENT
REMARK Flexibility Score: inf
ROOT
ATOM      1  C   UNL     1       5.899 -35.257  19.504  1.00  0.00     0.000 C 
ENDROOT
BRANCH   1   2
ATOM      2  C   UNL     1       4.450 -35.090  19.029  1.00  0.00     0.000 C 
BRANCH   2   3
ATOM      3  C   UNL     1       4.242 -35.739  17.656  1.00  0.00     0.000 C 
BRANCH   3   4
ATOM      4  C   UNL     1       3.357 -36.990  17.766  1.00  0.00     0.006 C 
BRANCH   4   5
ATOM      5  C   UNL     1       3.086 -37.633  16.399  1.00  0.00     0.053 C 
BRANCH   5   6
ATOM      6  C   UNL     1       2.338 -36.708  15.488  1.00  0.00     0.041 C 
ATOM      7  O   UNL     1       1.277 -36.154  15.879  1.00  0.00    -0.550 OA
ATOM      8  O   UNL     1       2.796 -36.483  14.195  1.00  0.00    -0.550 OA
ENDBRANCH   5   6
ENDBRANCH   4   5
ENDBRANCH   3   4
ENDBRANCH   2   3
ENDBRANCH   1   2
BRANCH   1   9
ATOM      9  C   UNL     1       5.950 -35.845  20.919  1.00  0.00     0.000 C 
BRANCH   9  10
ATOM     10  C   UNL     1       4.863 -36.914  21.109  1.00  0.00    -0.000 C 
BRANCH  10  11
ATOM     11  C   UNL     1       5.303 -38.301  20.611  1.00  0.00    -0.000 C 
BRANCH  11  12
ATOM     12  C   UNL     1       5.611 -39.273  21.759  1.00  0.00    -0.000 C 
BRANCH  12  13
ATOM     13  C   UNL     1       6.115 -40.616  21.219  1.00  0.00    -0.003 C 
ATOM     14  C   UNL     1       6.065 -41.697  22.295  1.00  0.00     0.004 C 
ENDBRANCH  12  13
ENDBRANCH  11  12
ENDBRANCH  10  11
ENDBRANCH   9  10
ENDBRANCH   1   9
TORSDOF 10
ENDMDL
