MODEL 1
REMARK VINA RESULT:    -2.999      0.000      0.000
REMARK INTER + INTRA:          -3.390
REMARK INTER:                  -3.350
REMARK INTRA:                  -0.040
REMARK UNBOUND:                -0.040
REMARK SMILES CCCC(=O)[O-]
REMARK SMILES IDX 3 1 4 2 5 3 6 4 2 5 1 6
REMARK H PARENT
REMARK Flexibility Score: inf
ROOT
ATOM      1  C   UNL     1     -30.671 -21.196 -32.485  1.00  0.00     0.052 C 
ENDROOT
BRANCH   1   2
ATOM      2  C   UNL     1     -30.581 -21.438 -31.012  1.00  0.00     0.041 C 
ATOM      3  O   UNL     1     -30.364 -22.598 -30.573  1.00  0.00    -0.550 OA
ATOM      4  O   UNL     1     -30.688 -20.375 -30.125  1.00  0.00    -0.550 OA
ENDBRANCH   1   2
BRANCH   1   5
ATOM      5  C   UNL     1     -29.273 -21.180 -33.112  1.00  0.00     0.003 C 
ATOM      6  C   UNL     1     -28.546 -19.875 -32.803  1.00  0.00     0.004 C 
ENDBRANCH   1   5
TORSDOF 2
ENDMDL
MODEL 2
REMARK VINA RESULT:    -2.880      0.831      1.481
REMARK INTER + INTRA:          -3.257
REMARK INTER:                  -3.242
REMARK INTRA:                  -0.015
REMARK UNBOUND:                -0.040
REMARK SMILES CCCC(=O)[O-]
REMARK SMILES IDX 3 1 4 2 5 3 6 4 2 5 1 6
REMARK H PARENT
REMARK Flexibility Score: inf
ROOT
ATOM      1  C   UNL     1     -30.677 -20.770 -32.000  1.00  0.00     0.052 C 
ENDROOT
BRANCH   1   2
ATOM      2  C   UNL     1     -30.830 -20.779 -30.512  1.00  0.00     0.041 C 
ATOM      3  O   UNL     1     -31.536 -19.906 -29.943  1.00  0.00    -0.550 OA
ATOM      4  O   UNL     1     -30.231 -21.780 -29.757  1.00  0.00    -0.550 OA
ENDBRANCH   1   2
BRANCH   1   5
ATOM      5  C   UNL     1     -29.225 -21.059 -32.391  1.00  0.00     0.003 C 
ATOM      6  C   UNL     1     -28.610 -19.877 -33.135  1.00  0.00     0.004 C 
ENDBRANCH   1   5
TORSDOF 2
ENDMDL
MODEL 3
REMARK VINA RESULT:    -2.853      1.039      1.859
REMARK INTER + INTRA:          -3.227
REMARK INTER:                  -3.186
REMARK INTRA:                  -0.041
REMARK UNBOUND:                -0.040
REMARK SMILES CCCC(=O)[O-]
REMARK SMILES IDX 3 1 4 2 5 3 6 4 2 5 1 6
REMARK H PARENT
REMARK Flexibility Score: inf
ROOT
ATOM      1  C   UNL     1     -29.843 -21.413 -32.343  1.00  0.00     0.052 C 
ENDROOT
BRANCH   1   2
ATOM      2  C   UNL     1     -30.344 -21.776 -30.981  1.00  0.00     0.041 C 
ATOM      3  O   UNL     1     -30.406 -22.983 -30.630  1.00  0.00    -0.550 OA
ATOM      4  O   UNL     1     -30.696 -20.778 -30.082  1.00  0.00    -0.550 OA
ENDBRANCH   1   2
BRANCH   1   5
ATOM      5  C   UNL     1     -31.016 -21.137 -33.289  1.00  0.00     0.003 C 
ATOM      6  C   UNL     1     -31.474 -22.414 -33.987  1.00  0.00     0.004 C 
ENDBRANCH   1   5
TORSDOF 2
ENDMDL
MODEL 4
REMARK VINA RESULT:    -2.846      5.016      5.511
REMARK INTER + INTRA:          -3.219
REMARK INTER:                  -3.213
REMARK INTRA:                  -0.005
REMARK UNBOUND:                -0.040
REMARK SMILES CCCC(=O)[O-]
REMARK SMILES IDX 3 1 4 2 5 3 6 4 2 5 1 6
REMARK H PARENT
REMARK Flexibility Score: inf
ROOT
ATOM      1  C   UNL     1     -32.437 -23.897 -36.094  1.00  0.00     0.052 C 
ENDROOT
BRANCH   1   2
ATOM      2  C   UNL     1     -32.425 -22.739 -35.147  1.00  0.00     0.041 C 
ATOM      3  O   UNL     1     -31.702 -22.772 -34.116  1.00  0.00    -0.550 OA
ATOM      4  O   UNL     1     -33.175 -21.604 -35.428  1.00  0.00    -0.550 OA
ENDBRANCH   1   2
BRANCH   1   5
ATOM      5  C   UNL     1     -31.200 -23.865 -36.996  1.00  0.00     0.003 C 
ATOM      6  C   UNL     1     -31.193 -25.045 -37.964  1.00  0.00     0.004 C 
ENDBRANCH   1   5
TORSDOF 2
ENDMDL
MODEL 5
REMARK VINA RESULT:    -2.805     21.939     22.666
REMARK INTER + INTRA:          -3.173
REMARK INTER:                  -3.166
REMARK INTRA:                  -0.007
REMARK UNBOUND:                -0.040
REMARK SMILES CCCC(=O)[O-]
REMARK SMILES IDX 3 1 4 2 5 3 6 4 2 5 1 6
REMARK H PARENT
REMARK Flexibility Score: inf
ROOT
ATOM      1  C   UNL     1     -18.805 -38.767 -38.062  1.00  0.00     0.052 C 
ENDROOT
BRANCH   1   2
ATOM      2  C   UNL     1     -17.513 -38.375 -38.705  1.00  0.00     0.041 C 
ATOM      3  O   UNL     1     -17.314 -37.180 -39.050  1.00  0.00    -0.550 OA
ATOM      4  O   UNL     1     -16.510 -39.319 -38.882  1.00  0.00    -0.550 OA
ENDBRANCH   1   2
BRANCH   1   5
ATOM      5  C   UNL     1     -19.292 -40.111 -38.611  1.00  0.00     0.003 C 
ATOM      6  C   UNL     1     -20.810 -40.125 -38.766  1.00  0.00     0.004 C 
ENDBRANCH   1   5
TORSDOF 2
ENDMDL
MODEL 6
REMARK VINA RESULT:    -2.714      2.193      2.845
REMARK INTER + INTRA:          -3.072
REMARK INTER:                  -3.007
REMARK INTRA:                  -0.065
REMARK UNBOUND:                -0.040
REMARK SMILES CCCC(=O)[O-]
REMARK SMILES IDX 3 1 4 2 5 3 6 4 2 5 1 6
REMARK H PARENT
REMARK Flexibility Score: inf
ROOT
ATOM      1  C   UNL     1     -30.428 -22.140 -31.179  1.00  0.00     0.052 C 
ENDROOT
BRANCH   1   2
ATOM      2  C   UNL     1     -30.188 -21.642 -32.568  1.00  0.00     0.041 C 
ATOM      3  O   UNL     1     -31.104 -21.701 -33.430  1.00  0.00    -0.550 OA
ATOM      4  O   UNL     1     -28.968 -21.067 -32.899  1.00  0.00    -0.550 OA
ENDBRANCH   1   2
BRANCH   1   5
ATOM      5  C   UNL     1     -30.251 -21.007 -30.164  1.00  0.00     0.003 C 
ATOM      6  C   UNL     1     -31.244 -19.877 -30.421  1.00  0.00     0.004 C 
ENDBRANCH   1   5
TORSDOF 2
ENDMDL
MODEL 7
REMARK VINA RESULT:    -2.684      6.290      7.104
REMARK INTER + INTRA:          -3.038
REMARK INTER:                  -3.033
REMARK INTRA:                  -0.005
REMARK UNBOUND:                -0.040
REMARK SMILES CCCC(=O)[O-]
REMARK SMILES IDX 3 1 4 2 5 3 6 4 2 5 1 6
REMARK H PARENT
REMARK Flexibility Score: inf
ROOT
ATOM      1  C   UNL     1     -31.115 -23.711 -36.832  1.00  0.00     0.052 C 
ENDROOT
BRANCH   1   2
ATOM      2  C   UNL     1     -31.411 -24.538 -38.042  1.00  0.00     0.041 C 
ATOM      3  O   UNL     1     -31.741 -23.984 -39.123  1.00  0.00    -0.550 OA
ATOM      4  O   UNL     1     -31.277 -25.920 -37.990  1.00  0.00    -0.550 OA
ENDBRANCH   1   2
BRANCH   1   5
ATOM      5  C   UNL     1     -32.343 -23.635 -35.921  1.00  0.00     0.003 C 
ATOM      6  C   UNL     1     -32.044 -22.830 -34.660  1.00  0.00     0.004 C 
ENDBRANCH   1   5
TORSDOF 2
ENDMDL
MODEL 8
REMARK VINA RESULT:    -2.592      1.593      2.402
REMARK INTER + INTRA:          -2.935
REMARK INTER:                  -2.930
REMARK INTRA:                  -0.006
REMARK UNBOUND:                -0.040
REMARK SMILES CCCC(=O)[O-]
REMARK SMILES IDX 3 1 4 2 5 3 6 4 2 5 1 6
REMARK H PARENT
REMARK Flexibility Score: inf
ROOT
ATOM      1  C   UNL     1     -30.750 -22.153 -32.050  1.00  0.00     0.052 C 
ENDROOT
BRANCH   1   2
ATOM      2  C   UNL     1     -30.177 -21.041 -31.229  1.00  0.00     0.041 C 
ATOM      3  O   UNL     1     -30.733 -20.697 -30.153  1.00  0.00    -0.550 OA
ATOM      4  O   UNL     1     -29.002 -20.417 -31.628  1.00  0.00    -0.550 OA
ENDBRANCH   1   2
BRANCH   1   5
ATOM      5  C   UNL     1     -30.945 -21.703 -33.501  1.00  0.00     0.003 C 
ATOM      6  C   UNL     1     -31.875 -22.651 -34.251  1.00  0.00     0.004 C 
ENDBRANCH   1   5
TORSDOF 2
ENDMDL
MODEL 9
REMARK VINA RESULT:    -2.440      7.443      8.124
REMARK INTER + INTRA:          -2.766
REMARK INTER:                  -2.755
REMARK INTRA:                  -0.011
REMARK UNBOUND:                -0.040
REMARK SMILES CCCC(=O)[O-]
REMARK SMILES IDX 3 1 4 2 5 3 6 4 2 5 1 6
REMARK H PARENT
REMARK Flexibility Score: inf
ROOT
ATOM      1  C   UNL     1     -31.345 -25.637 -38.154  1.00  0.00     0.052 C 
ENDROOT
BRANCH   1   2
ATOM      2  C   UNL     1     -31.769 -24.429 -37.382  1.00  0.00     0.041 C 
ATOM      3  O   UNL     1     -31.000 -23.437 -37.285  1.00  0.00    -0.550 OA
ATOM      4  O   UNL     1     -33.034 -24.378 -36.810  1.00  0.00    -0.550 OA
ENDBRANCH   1   2
BRANCH   1   5
ATOM      5  C   UNL     1     -32.507 -26.626 -38.284  1.00  0.00     0.003 C 
ATOM      6  C   UNL     1     -32.021 -27.986 -38.776  1.00  0.00     0.004 C 
ENDBRANCH   1   5
TORSDOF 2
ENDMDL
