MODEL 1
REMARK VINA RESULT:    -3.885      0.000      0.000
REMARK INTER + INTRA:          -6.391
REMARK INTER:                  -5.702
REMARK INTRA:                  -0.689
REMARK UNBOUND:                -0.689
REMARK SMILES O=C([O-])CCCCCCCC(=O)[O-]
REMARK SMILES IDX 7 1 6 2 5 3 4 4 2 5 1 6 3 7 8 8 9 9 10 10 11 11 12 12 13 13
REMARK H PARENT
REMARK Flexibility Score: inf
ROOT
ATOM      1  C   UNL     1      31.650  25.004  13.230  1.00  0.00     0.000 C 
ENDROOT
BRANCH   1   2
ATOM      2  C   UNL     1      31.578  25.189  11.705  1.00  0.00     0.000 C 
BRANCH   2   3
ATOM      3  C   UNL     1      31.138  26.606  11.303  1.00  0.00     0.006 C 
BRANCH   3   4
ATOM      4  C   UNL     1      31.108  27.573  12.493  1.00  0.00     0.053 C 
BRANCH   4   5
ATOM      5  C   UNL     1      30.219  28.740  12.195  1.00  0.00     0.041 C 
ATOM      6  O   UNL     1      29.154  28.907  12.845  1.00  0.00    -0.550 OA
ATOM      7  O   UNL     1      30.543  29.615  11.166  1.00  0.00    -0.550 OA
ENDBRANCH   4   5
ENDBRANCH   3   4
ENDBRANCH   2   3
ENDBRANCH   1   2
BRANCH   1   8
ATOM      8  C   UNL     1      31.090  23.648  13.689  1.00  0.00     0.000 C 
BRANCH   8   9
ATOM      9  C   UNL     1      29.871  23.203  12.861  1.00  0.00     0.006 C 
BRANCH   9  10
ATOM     10  C   UNL     1      28.554  23.738  13.437  1.00  0.00     0.053 C 
BRANCH  10  11
ATOM     11  C   UNL     1      27.742  24.451  12.400  1.00  0.00     0.041 C 
ATOM     12  O   UNL     1      27.915  25.682  12.193  1.00  0.00    -0.550 OA
ATOM     13  O   UNL     1      26.772  23.763  11.683  1.00  0.00    -0.550 OA
ENDBRANCH  10  11
ENDBRANCH   9  10
ENDBRANCH   8   9
ENDBRANCH   1   8
TORSDOF 8
ENDMDL
MODEL 2
REMARK VINA RESULT:    -3.872      0.540      4.527
REMARK INTER + INTRA:          -6.372
REMARK INTER:                  -5.845
REMARK INTRA:                  -0.527
REMARK UNBOUND:                -0.689
REMARK SMILES O=C([O-])CCCCCCCC(=O)[O-]
REMARK SMILES IDX 7 1 6 2 5 3 4 4 2 5 1 6 3 7 8 8 9 9 10 10 11 11 12 12 13 13
REMARK H PARENT
REMARK Flexibility Score: inf
ROOT
ATOM      1  C   UNL     1      31.949  24.509  13.538  1.00  0.00     0.000 C 
ENDROOT
BRANCH   1   2
ATOM      2  C   UNL     1      30.921  23.416  13.877  1.00  0.00     0.000 C 
BRANCH   2   3
ATOM      3  C   UNL     1      29.803  23.312  12.827  1.00  0.00     0.006 C 
BRANCH   3   4
ATOM      4  C   UNL     1      28.439  23.752  13.374  1.00  0.00     0.053 C 
BRANCH   4   5
ATOM      5  C   UNL     1      27.648  24.442  12.307  1.00  0.00     0.041 C 
ATOM      6  O   UNL     1      26.815  23.796  11.618  1.00  0.00    -0.550 OA
ATOM      7  O   UNL     1      27.866  25.788  12.040  1.00  0.00    -0.550 OA
ENDBRANCH   4   5
ENDBRANCH   3   4
ENDBRANCH   2   3
ENDBRANCH   1   2
BRANCH   1   8
ATOM      8  C   UNL     1      31.496  25.406  12.375  1.00  0.00     0.000 C 
BRANCH   8   9
ATOM      9  C   UNL     1      31.336  26.879  12.794  1.00  0.00     0.006 C 
BRANCH   9  10
ATOM     10  C   UNL     1      31.082  27.798  11.592  1.00  0.00     0.053 C 
BRANCH  10  11
ATOM     11  C   UNL     1      30.207  28.959  11.954  1.00  0.00     0.041 C 
ATOM     12  O   UNL     1      29.381  28.862  12.899  1.00  0.00    -0.550 OA
ATOM     13  O   UNL     1      30.284  30.140  11.227  1.00  0.00    -0.550 OA
ENDBRANCH  10  11
ENDBRANCH   9  10
ENDBRANCH   8   9
ENDBRANCH   1   8
TORSDOF 8
ENDMDL
MODEL 3
REMARK VINA RESULT:    -3.845      1.406      1.860
REMARK INTER + INTRA:          -6.332
REMARK INTER:                  -5.715
REMARK INTRA:                  -0.617
REMARK UNBOUND:                -0.689
REMARK SMILES O=C([O-])CCCCCCCC(=O)[O-]
REMARK SMILES IDX 7 1 6 2 5 3 4 4 2 5 1 6 3 7 8 8 9 9 10 10 11 11 12 12 13 13
REMARK H PARENT
REMARK Flexibility Score: inf
ROOT
ATOM      1  C   UNL     1      31.705  25.787  12.140  1.00  0.00     0.000 C 
ENDROOT
BRANCH   1   2
ATOM      2  C   UNL     1      31.650  27.058  13.005  1.00  0.00     0.000 C 
BRANCH   2   3
ATOM      3  C   UNL     1      31.164  28.287  12.218  1.00  0.00     0.006 C 
BRANCH   3   4
ATOM      4  C   UNL     1      29.696  28.625  12.503  1.00  0.00     0.053 C 
BRANCH   4   5
ATOM      5  C   UNL     1      28.801  27.937  11.520  1.00  0.00     0.041 C 
ATOM      6  O   UNL     1      27.635  27.598  11.854  1.00  0.00    -0.550 OA
ATOM      7  O   UNL     1      29.273  27.625  10.251  1.00  0.00    -0.550 OA
ENDBRANCH   4   5
ENDBRANCH   3   4
ENDBRANCH   2   3
ENDBRANCH   1   2
BRANCH   1   8
ATOM      8  C   UNL     1      31.388  24.513  12.939  1.00  0.00     0.000 C 
BRANCH   8   9
ATOM      9  C   UNL     1      30.431  23.570  12.188  1.00  0.00     0.006 C 
BRANCH   9  10
ATOM     10  C   UNL     1      29.230  24.317  11.593  1.00  0.00     0.053 C 
BRANCH  10  11
ATOM     11  C   UNL     1      27.958  23.990  12.312  1.00  0.00     0.041 C 
ATOM     12  O   UNL     1      26.871  23.915  11.680  1.00  0.00    -0.550 OA
ATOM     13  O   UNL     1      27.968  23.795  13.688  1.00  0.00    -0.550 OA
ENDBRANCH  10  11
ENDBRANCH   9  10
ENDBRANCH   8   9
ENDBRANCH   1   8
TORSDOF 8
ENDMDL
MODEL 4
REMARK VINA RESULT:    -3.824      2.538      5.498
REMARK INTER + INTRA:          -6.301
REMARK INTER:                  -6.052
REMARK INTRA:                  -0.249
REMARK UNBOUND:                -0.689
REMARK SMILES O=C([O-])CCCCCCCC(=O)[O-]
REMARK SMILES IDX 7 1 6 2 5 3 4 4 2 5 1 6 3 7 8 8 9 9 10 10 11 11 12 12 13 13
REMARK H PARENT
REMARK Flexibility Score: inf
ROOT
ATOM      1  C   UNL     1      28.140  25.422  12.004  1.00  0.00     0.000 C 
ENDROOT
BRANCH   1   2
ATOM      2  C   UNL     1      28.981  24.135  12.030  1.00  0.00     0.000 C 
BRANCH   2   3
ATOM      3  C   UNL     1      28.954  23.441  13.403  1.00  0.00     0.006 C 
BRANCH   3   4
ATOM      4  C   UNL     1      29.864  22.208  13.458  1.00  0.00     0.053 C 
BRANCH   4   5
ATOM      5  C   UNL     1      31.151  22.540  14.146  1.00  0.00     0.041 C 
ATOM      6  O   UNL     1      31.916  21.619  14.535  1.00  0.00    -0.550 OA
ATOM      7  O   UNL     1      31.481  23.864  14.401  1.00  0.00    -0.550 OA
ENDBRANCH   4   5
ENDBRANCH   3   4
ENDBRANCH   2   3
ENDBRANCH   1   2
BRANCH   1   8
ATOM      8  C   UNL     1      28.890  26.606  11.372  1.00  0.00     0.000 C 
BRANCH   8   9
ATOM      9  C   UNL     1      28.343  27.967  11.839  1.00  0.00     0.006 C 
BRANCH   9  10
ATOM     10  C   UNL     1      29.389  28.772  12.621  1.00  0.00     0.053 C 
BRANCH  10  11
ATOM     11  C   UNL     1      30.732  28.731  11.960  1.00  0.00     0.041 C 
ATOM     12  O   UNL     1      31.688  28.113  12.501  1.00  0.00    -0.550 OA
ATOM     13  O   UNL     1      30.938  29.399  10.760  1.00  0.00    -0.550 OA
ENDBRANCH  10  11
ENDBRANCH   9  10
ENDBRANCH   8   9
ENDBRANCH   1   8
TORSDOF 8
ENDMDL
MODEL 5
REMARK VINA RESULT:    -3.767      1.713      5.496
REMARK INTER + INTRA:          -6.218
REMARK INTER:                  -5.608
REMARK INTRA:                  -0.610
REMARK UNBOUND:                -0.689
REMARK SMILES O=C([O-])CCCCCCCC(=O)[O-]
REMARK SMILES IDX 7 1 6 2 5 3 4 4 2 5 1 6 3 7 8 8 9 9 10 10 11 11 12 12 13 13
REMARK H PARENT
REMARK Flexibility Score: inf
ROOT
ATOM      1  C   UNL     1      29.184  26.946  10.737  1.00  0.00     0.000 C 
ENDROOT
BRANCH   1   2
ATOM      2  C   UNL     1      30.320  25.909  10.793  1.00  0.00     0.000 C 
BRANCH   2   3
ATOM      3  C   UNL     1      29.797  24.464  10.844  1.00  0.00     0.006 C 
BRANCH   3   4
ATOM      4  C   UNL     1      29.740  23.909  12.272  1.00  0.00     0.053 C 
BRANCH   4   5
ATOM      5  C   UNL     1      28.324  23.852  12.754  1.00  0.00     0.041 C 
ATOM      6  O   UNL     1      28.076  23.633  13.969  1.00  0.00    -0.550 OA
ATOM      7  O   UNL     1      27.277  23.992  11.852  1.00  0.00    -0.550 OA
ENDBRANCH   4   5
ENDBRANCH   3   4
ENDBRANCH   2   3
ENDBRANCH   1   2
BRANCH   1   8
ATOM      8  C   UNL     1      28.876  27.561  12.110  1.00  0.00     0.000 C 
BRANCH   8   9
ATOM      9  C   UNL     1      29.896  28.641  12.515  1.00  0.00     0.006 C 
BRANCH   9  10
ATOM     10  C   UNL     1      29.934  29.804  11.515  1.00  0.00     0.053 C 
BRANCH  10  11
ATOM     11  C   UNL     1      31.290  29.962  10.898  1.00  0.00     0.041 C 
ATOM     12  O   UNL     1      32.111  29.007  10.914  1.00  0.00    -0.550 OA
ATOM     13  O   UNL     1      31.658  31.175  10.330  1.00  0.00    -0.550 OA
ENDBRANCH  10  11
ENDBRANCH   9  10
ENDBRANCH   8   9
ENDBRANCH   1   8
TORSDOF 8
ENDMDL
MODEL 6
REMARK VINA RESULT:    -3.732      1.903      2.770
REMARK INTER + INTRA:          -6.166
REMARK INTER:                  -5.649
REMARK INTRA:                  -0.517
REMARK UNBOUND:                -0.689
REMARK SMILES O=C([O-])CCCCCCCC(=O)[O-]
REMARK SMILES IDX 7 1 6 2 5 3 4 4 2 5 1 6 3 7 8 8 9 9 10 10 11 11 12 12 13 13
REMARK H PARENT
REMARK Flexibility Score: inf
ROOT
ATOM      1  C   UNL     1      29.660  25.756  10.794  1.00  0.00     0.000 C 
ENDROOT
BRANCH   1   2
ATOM      2  C   UNL     1      28.602  26.277  11.781  1.00  0.00     0.000 C 
BRANCH   2   3
ATOM      3  C   UNL     1      28.332  27.782  11.618  1.00  0.00     0.006 C 
BRANCH   3   4
ATOM      4  C   UNL     1      29.188  28.638  12.559  1.00  0.00     0.053 C 
BRANCH   4   5
ATOM      5  C   UNL     1      30.365  29.202  11.827  1.00  0.00     0.041 C 
ATOM      6  O   UNL     1      31.481  28.622  11.880  1.00  0.00    -0.550 OA
ATOM      7  O   UNL     1      30.241  30.395  11.126  1.00  0.00    -0.550 OA
ENDBRANCH   4   5
ENDBRANCH   3   4
ENDBRANCH   2   3
ENDBRANCH   1   2
BRANCH   1   8
ATOM      8  C   UNL     1      30.463  24.573  11.356  1.00  0.00     0.000 C 
BRANCH   8   9
ATOM      9  C   UNL     1      30.920  24.807  12.808  1.00  0.00     0.006 C 
BRANCH   9  10
ATOM     10  C   UNL     1      31.105  23.491  13.575  1.00  0.00     0.053 C 
BRANCH  10  11
ATOM     11  C   UNL     1      29.820  22.729  13.691  1.00  0.00     0.041 C 
ATOM     12  O   UNL     1      29.815  21.473  13.599  1.00  0.00    -0.550 OA
ATOM     13  O   UNL     1      28.623  23.410  13.872  1.00  0.00    -0.550 OA
ENDBRANCH  10  11
ENDBRANCH   9  10
ENDBRANCH   8   9
ENDBRANCH   1   8
TORSDOF 8
ENDMDL
MODEL 7
REMARK VINA RESULT:    -3.705      2.191      3.077
REMARK INTER + INTRA:          -6.127
REMARK INTER:                  -5.685
REMARK INTRA:                  -0.443
REMARK UNBOUND:                -0.689
REMARK SMILES O=C([O-])CCCCCCCC(=O)[O-]
REMARK SMILES IDX 7 1 6 2 5 3 4 4 2 5 1 6 3 7 8 8 9 9 10 10 11 11 12 12 13 13
REMARK H PARENT
REMARK Flexibility Score: inf
ROOT
ATOM      1  C   UNL     1      27.686  25.312  12.185  1.00  0.00     0.000 C 
ENDROOT
BRANCH   1   2
ATOM      2  C   UNL     1      28.821  26.256  11.753  1.00  0.00     0.000 C 
BRANCH   2   3
ATOM      3  C   UNL     1      28.410  27.737  11.809  1.00  0.00     0.006 C 
BRANCH   3   4
ATOM      4  C   UNL     1      29.427  28.602  12.563  1.00  0.00     0.053 C 
BRANCH   4   5
ATOM      5  C   UNL     1      30.821  28.254  12.143  1.00  0.00     0.041 C 
ATOM      6  O   UNL     1      31.587  27.644  12.935  1.00  0.00    -0.550 OA
ATOM      7  O   UNL     1      31.290  28.647  10.896  1.00  0.00    -0.550 OA
ENDBRANCH   4   5
ENDBRANCH   3   4
ENDBRANCH   2   3
ENDBRANCH   1   2
BRANCH   1   8
ATOM      8  C   UNL     1      28.114  23.836  12.194  1.00  0.00     0.000 C 
BRANCH   8   9
ATOM      9  C   UNL     1      28.778  23.423  13.520  1.00  0.00     0.006 C 
BRANCH   9  10
ATOM     10  C   UNL     1      30.129  22.729  13.299  1.00  0.00     0.053 C 
BRANCH  10  11
ATOM     11  C   UNL     1      31.245  23.718  13.156  1.00  0.00     0.041 C 
ATOM     12  O   UNL     1      31.785  24.219  14.178  1.00  0.00    -0.550 OA
ATOM     13  O   UNL     1      31.670  24.110  11.893  1.00  0.00    -0.550 OA
ENDBRANCH  10  11
ENDBRANCH   9  10
ENDBRANCH   8   9
ENDBRANCH   1   8
TORSDOF 8
ENDMDL
MODEL 8
REMARK VINA RESULT:    -3.684      3.222      6.045
REMARK INTER + INTRA:          -6.096
REMARK INTER:                  -5.822
REMARK INTRA:                  -0.273
REMARK UNBOUND:                -0.689
REMARK SMILES O=C([O-])CCCCCCCC(=O)[O-]
REMARK SMILES IDX 7 1 6 2 5 3 4 4 2 5 1 6 3 7 8 8 9 9 10 10 11 11 12 12 13 13
REMARK H PARENT
REMARK Flexibility Score: inf
ROOT
ATOM      1  C   UNL     1      28.233  23.770  13.424  1.00  0.00     0.000 C 
ENDROOT
BRANCH   1   2
ATOM      2  C   UNL     1      29.729  23.418  13.353  1.00  0.00     0.000 C 
BRANCH   2   3
ATOM      3  C   UNL     1      29.985  21.906  13.473  1.00  0.00     0.006 C 
BRANCH   3   4
ATOM      4  C   UNL     1      31.271  21.586  14.244  1.00  0.00     0.053 C 
BRANCH   4   5
ATOM      5  C   UNL     1      31.140  20.276  14.956  1.00  0.00     0.041 C 
ATOM      6  O   UNL     1      31.783  20.065  16.018  1.00  0.00    -0.550 OA
ATOM      7  O   UNL     1      30.346  19.270  14.420  1.00  0.00    -0.550 OA
ENDBRANCH   4   5
ENDBRANCH   3   4
ENDBRANCH   2   3
ENDBRANCH   1   2
BRANCH   1   8
ATOM      8  C   UNL     1      27.745  24.533  12.183  1.00  0.00     0.000 C 
BRANCH   8   9
ATOM      9  C   UNL     1      28.804  25.508  11.636  1.00  0.00     0.006 C 
BRANCH   9  10
ATOM     10  C   UNL     1      28.430  26.973  11.895  1.00  0.00     0.053 C 
BRANCH  10  11
ATOM     11  C   UNL     1      29.616  27.782  12.324  1.00  0.00     0.041 C 
ATOM     12  O   UNL     1      29.461  28.951  12.767  1.00  0.00    -0.550 OA
ATOM     13  O   UNL     1      30.896  27.256  12.206  1.00  0.00    -0.550 OA
ENDBRANCH  10  11
ENDBRANCH   9  10
ENDBRANCH   8   9
ENDBRANCH   1   8
TORSDOF 8
ENDMDL
MODEL 9
REMARK VINA RESULT:    -3.597      2.950      3.634
REMARK INTER + INTRA:          -5.968
REMARK INTER:                  -5.605
REMARK INTRA:                  -0.363
REMARK UNBOUND:                -0.689
REMARK SMILES O=C([O-])CCCCCCCC(=O)[O-]
REMARK SMILES IDX 7 1 6 2 5 3 4 4 2 5 1 6 3 7 8 8 9 9 10 10 11 11 12 12 13 13
REMARK H PARENT
REMARK Flexibility Score: inf
ROOT
ATOM      1  C   UNL     1      28.249  24.473  12.644  1.00  0.00     0.000 C 
ENDROOT
BRANCH   1   2
ATOM      2  C   UNL     1      29.190  24.729  11.454  1.00  0.00     0.000 C 
BRANCH   2   3
ATOM      3  C   UNL     1      29.984  26.037  11.602  1.00  0.00     0.006 C 
BRANCH   3   4
ATOM      4  C   UNL     1      29.361  27.196  10.815  1.00  0.00     0.053 C 
BRANCH   4   5
ATOM      5  C   UNL     1      28.689  28.157  11.747  1.00  0.00     0.041 C 
ATOM      6  O   UNL     1      27.499  28.510  11.542  1.00  0.00    -0.550 OA
ATOM      7  O   UNL     1      29.396  28.700  12.812  1.00  0.00    -0.550 OA
ENDBRANCH   4   5
ENDBRANCH   3   4
ENDBRANCH   2   3
ENDBRANCH   1   2
BRANCH   1   8
ATOM      8  C   UNL     1      28.739  23.335  13.552  1.00  0.00     0.000 C 
BRANCH   8   9
ATOM      9  C   UNL     1      30.029  22.677  13.029  1.00  0.00     0.006 C 
BRANCH   9  10
ATOM     10  C   UNL     1      31.103  22.563  14.119  1.00  0.00     0.053 C 
BRANCH  10  11
ATOM     11  C   UNL     1      31.574  21.151  14.290  1.00  0.00     0.041 C 
ATOM     12  O   UNL     1      31.738  20.672  15.443  1.00  0.00    -0.550 OA
ATOM     13  O   UNL     1      31.861  20.374  13.175  1.00  0.00    -0.550 OA
ENDBRANCH  10  11
ENDBRANCH   9  10
ENDBRANCH   8   9
ENDBRANCH   1   8
TORSDOF 8
ENDMDL
