MODEL 1
REMARK VINA RESULT:    -4.631      0.000      0.000
REMARK INTER + INTRA:          -5.197
REMARK INTER:                  -4.902
REMARK INTRA:                  -0.295
REMARK UNBOUND:                -0.295
REMARK SMILES C=C1CC[C@@]2(C(C)C)C[C@@H]12
REMARK SMILES IDX 5 1 4 2 3 3 2 4 1 5 10 6 9 7 6 8 7 9 8 10
REMARK H PARENT
REMARK Flexibility Score: inf
ROOT
ATOM      1  C   UNL     1     141.352 146.613 163.277  1.00  0.00    -0.020 C 
ATOM      2  C   UNL     1     140.417 145.832 162.339  1.00  0.00     0.012 C 
ATOM      3  C   UNL     1     140.476 146.508 160.966  1.00  0.00     0.031 C 
ATOM      4  C   UNL     1     141.475 147.605 161.117  1.00  0.00    -0.074 C 
ATOM      5  C   UNL     1     141.846 148.402 160.112  1.00  0.00     0.008 C 
ATOM      6  C   UNL     1     142.039 147.717 162.488  1.00  0.00     0.021 C 
ATOM      7  C   UNL     1     142.846 146.513 162.965  1.00  0.00     0.016 C 
ENDROOT
BRANCH   1   8
ATOM      8  C   UNL     1     140.936 146.804 164.766  1.00  0.00    -0.011 C 
ATOM      9  C   UNL     1     140.031 145.707 165.356  1.00  0.00     0.008 C 
ATOM     10  C   UNL     1     140.290 148.182 164.954  1.00  0.00     0.008 C 
ENDBRANCH   1   8
TORSDOF 1
ENDMDL
MODEL 2
REMARK VINA RESULT:    -4.614      2.046      3.132
REMARK INTER + INTRA:          -5.179
REMARK INTER:                  -4.888
REMARK INTRA:                  -0.291
REMARK UNBOUND:                -0.295
REMARK SMILES C=C1CC[C@@]2(C(C)C)C[C@@H]12
REMARK SMILES IDX 5 1 4 2 3 3 2 4 1 5 10 6 9 7 6 8 7 9 8 10
REMARK H PARENT
REMARK Flexibility Score: inf
ROOT
ATOM      1  C   UNL     1     142.491 146.889 164.192  1.00  0.00    -0.020 C 
ATOM      2  C   UNL     1     142.747 147.380 162.757  1.00  0.00     0.012 C 
ATOM      3  C   UNL     1     143.940 148.338 162.806  1.00  0.00     0.031 C 
ATOM      4  C   UNL     1     144.384 148.330 164.230  1.00  0.00    -0.074 C 
ATOM      5  C   UNL     1     145.444 149.014 164.671  1.00  0.00     0.008 C 
ATOM      6  C   UNL     1     143.551 147.474 165.113  1.00  0.00     0.021 C 
ATOM      7  C   UNL     1     143.571 145.983 164.788  1.00  0.00     0.016 C 
ENDROOT
BRANCH   1   8
ATOM      8  C   UNL     1     141.023 146.669 164.661  1.00  0.00    -0.011 C 
ATOM      9  C   UNL     1     140.100 145.946 163.664  1.00  0.00     0.008 C 
ATOM     10  C   UNL     1     140.405 148.008 165.082  1.00  0.00     0.008 C 
ENDBRANCH   1   8
TORSDOF 1
ENDMDL
MODEL 3
REMARK VINA RESULT:    -4.613      5.560      7.146
REMARK INTER + INTRA:          -5.178
REMARK INTER:                  -4.888
REMARK INTRA:                  -0.290
REMARK UNBOUND:                -0.295
REMARK SMILES C=C1CC[C@@]2(C(C)C)C[C@@H]12
REMARK SMILES IDX 5 1 4 2 3 3 2 4 1 5 10 6 9 7 6 8 7 9 8 10
REMARK H PARENT
REMARK Flexibility Score: inf
ROOT
ATOM      1  C   UNL     1     146.893 148.252 164.183  1.00  0.00    -0.020 C 
ATOM      2  C   UNL     1     147.374 148.006 162.743  1.00  0.00     0.012 C 
ATOM      3  C   UNL     1     148.333 146.814 162.777  1.00  0.00     0.031 C 
ATOM      4  C   UNL     1     148.338 146.360 164.197  1.00  0.00    -0.074 C 
ATOM      5  C   UNL     1     149.026 145.298 164.626  1.00  0.00     0.008 C 
ATOM      6  C   UNL     1     147.487 147.187 165.093  1.00  0.00     0.021 C 
ATOM      7  C   UNL     1     145.994 147.167 164.780  1.00  0.00     0.016 C 
ENDROOT
BRANCH   1   8
ATOM      8  C   UNL     1     146.676 149.717 164.664  1.00  0.00    -0.011 C 
ATOM      9  C   UNL     1     145.942 150.645 163.680  1.00  0.00     0.008 C 
ATOM     10  C   UNL     1     148.018 150.334 165.075  1.00  0.00     0.008 C 
ENDBRANCH   1   8
TORSDOF 1
ENDMDL
MODEL 4
REMARK VINA RESULT:    -4.611      6.866      8.518
REMARK INTER + INTRA:          -5.176
REMARK INTER:                  -4.882
REMARK INTRA:                  -0.294
REMARK UNBOUND:                -0.295
REMARK SMILES C=C1CC[C@@]2(C(C)C)C[C@@H]12
REMARK SMILES IDX 5 1 4 2 3 3 2 4 1 5 10 6 9 7 6 8 7 9 8 10
REMARK H PARENT
REMARK Flexibility Score: inf
ROOT
ATOM      1  C   UNL     1     148.265 143.887 164.151  1.00  0.00    -0.020 C 
ATOM      2  C   UNL     1     148.018 143.389 162.717  1.00  0.00     0.012 C 
ATOM      3  C   UNL     1     146.821 142.435 162.764  1.00  0.00     0.031 C 
ATOM      4  C   UNL     1     146.368 142.450 164.184  1.00  0.00    -0.074 C 
ATOM      5  C   UNL     1     145.304 141.772 164.622  1.00  0.00     0.008 C 
ATOM      6  C   UNL     1     147.198 143.309 165.069  1.00  0.00     0.021 C 
ATOM      7  C   UNL     1     147.185 144.798 164.736  1.00  0.00     0.016 C 
ENDROOT
BRANCH   1   8
ATOM      8  C   UNL     1     149.732 144.105 164.629  1.00  0.00    -0.011 C 
ATOM      9  C   UNL     1     150.670 144.796 163.624  1.00  0.00     0.008 C 
ATOM     10  C   UNL     1     150.333 142.770 165.086  1.00  0.00     0.008 C 
ENDBRANCH   1   8
TORSDOF 1
ENDMDL
MODEL 5
REMARK VINA RESULT:    -4.607      4.420      5.619
REMARK INTER + INTRA:          -5.172
REMARK INTER:                  -4.881
REMARK INTRA:                  -0.290
REMARK UNBOUND:                -0.295
REMARK SMILES C=C1CC[C@@]2(C(C)C)C[C@@H]12
REMARK SMILES IDX 5 1 4 2 3 3 2 4 1 5 10 6 9 7 6 8 7 9 8 10
REMARK H PARENT
REMARK Flexibility Score: inf
ROOT
ATOM      1  C   UNL     1     143.871 142.469 164.196  1.00  0.00    -0.020 C 
ATOM      2  C   UNL     1     143.400 142.699 162.750  1.00  0.00     0.012 C 
ATOM      3  C   UNL     1     142.445 143.896 162.765  1.00  0.00     0.031 C 
ATOM      4  C   UNL     1     142.435 144.366 164.180  1.00  0.00    -0.074 C 
ATOM      5  C   UNL     1     141.749 145.436 164.592  1.00  0.00     0.008 C 
ATOM      6  C   UNL     1     143.277 143.547 165.090  1.00  0.00     0.021 C 
ATOM      7  C   UNL     1     144.772 143.556 164.785  1.00  0.00     0.016 C 
ENDROOT
BRANCH   1   8
ATOM      8  C   UNL     1     144.080 141.008 164.696  1.00  0.00    -0.011 C 
ATOM      9  C   UNL     1     144.821 140.067 163.728  1.00  0.00     0.008 C 
ATOM     10  C   UNL     1     142.733 140.400 165.101  1.00  0.00     0.008 C 
ENDBRANCH   1   8
TORSDOF 1
ENDMDL
MODEL 6
REMARK VINA RESULT:    -4.607      5.729      6.590
REMARK INTER + INTRA:          -5.171
REMARK INTER:                  -4.876
REMARK INTRA:                  -0.295
REMARK UNBOUND:                -0.295
REMARK SMILES C=C1CC[C@@]2(C(C)C)C[C@@H]12
REMARK SMILES IDX 5 1 4 2 3 3 2 4 1 5 10 6 9 7 6 8 7 9 8 10
REMARK H PARENT
REMARK Flexibility Score: inf
ROOT
ATOM      1  C   UNL     1     146.641 149.337 163.258  1.00  0.00    -0.020 C 
ATOM      2  C   UNL     1     145.813 150.260 162.348  1.00  0.00     0.012 C 
ATOM      3  C   UNL     1     146.471 150.252 160.966  1.00  0.00     0.031 C 
ATOM      4  C   UNL     1     147.606 149.292 161.083  1.00  0.00    -0.074 C 
ATOM      5  C   UNL     1     148.403 148.970 160.060  1.00  0.00     0.008 C 
ATOM      6  C   UNL     1     147.759 148.706 162.440  1.00  0.00     0.021 C 
ATOM      7  C   UNL     1     146.592 147.846 162.917  1.00  0.00     0.016 C 
ENDROOT
BRANCH   1   8
ATOM      8  C   UNL     1     146.837 149.731 164.752  1.00  0.00    -0.011 C 
ATOM      9  C   UNL     1     145.715 150.581 165.374  1.00  0.00     0.008 C 
ATOM     10  C   UNL     1     148.192 150.424 164.934  1.00  0.00     0.008 C 
ENDBRANCH   1   8
TORSDOF 1
ENDMDL
MODEL 7
REMARK VINA RESULT:    -4.604      5.655      6.552
REMARK INTER + INTRA:          -5.168
REMARK INTER:                  -4.869
REMARK INTRA:                  -0.299
REMARK UNBOUND:                -0.295
REMARK SMILES C=C1CC[C@@]2(C(C)C)C[C@@H]12
REMARK SMILES IDX 5 1 4 2 3 3 2 4 1 5 10 6 9 7 6 8 7 9 8 10
REMARK H PARENT
REMARK Flexibility Score: inf
ROOT
ATOM      1  C   UNL     1     144.159 141.391 163.251  1.00  0.00    -0.020 C 
ATOM      2  C   UNL     1     144.890 140.430 162.297  1.00  0.00     0.012 C 
ATOM      3  C   UNL     1     144.205 140.531 160.932  1.00  0.00     0.031 C 
ATOM      4  C   UNL     1     143.154 141.575 161.102  1.00  0.00    -0.074 C 
ATOM      5  C   UNL     1     142.364 141.989 160.107  1.00  0.00     0.008 C 
ATOM      6  C   UNL     1     143.079 142.132 162.478  1.00  0.00     0.021 C 
ATOM      7  C   UNL     1     144.322 142.882 162.949  1.00  0.00     0.016 C 
ENDROOT
BRANCH   1   8
ATOM      8  C   UNL     1     143.966 140.971 164.738  1.00  0.00    -0.011 C 
ATOM      9  C   UNL     1     145.051 140.050 165.323  1.00  0.00     0.008 C 
ATOM     10  C   UNL     1     142.579 140.343 164.925  1.00  0.00     0.008 C 
ENDBRANCH   1   8
TORSDOF 1
ENDMDL
MODEL 8
REMARK VINA RESULT:    -4.598      7.507      9.273
REMARK INTER + INTRA:          -5.162
REMARK INTER:                  -4.862
REMARK INTRA:                  -0.300
REMARK UNBOUND:                -0.295
REMARK SMILES C=C1CC[C@@]2(C(C)C)C[C@@H]12
REMARK SMILES IDX 5 1 4 2 3 3 2 4 1 5 10 6 9 7 6 8 7 9 8 10
REMARK H PARENT
REMARK Flexibility Score: inf
ROOT
ATOM      1  C   UNL     1     149.344 144.164 163.235  1.00  0.00    -0.020 C 
ATOM      2  C   UNL     1     150.310 144.903 162.293  1.00  0.00     0.012 C 
ATOM      3  C   UNL     1     150.230 144.218 160.926  1.00  0.00     0.031 C 
ATOM      4  C   UNL     1     149.192 143.159 161.083  1.00  0.00    -0.074 C 
ATOM      5  C   UNL     1     148.796 142.366 160.083  1.00  0.00     0.008 C 
ATOM      6  C   UNL     1     148.619 143.079 162.452  1.00  0.00     0.021 C 
ATOM      7  C   UNL     1     147.855 144.315 162.916  1.00  0.00     0.016 C 
ENDROOT
BRANCH   1   8
ATOM      8  C   UNL     1     149.747 143.972 164.727  1.00  0.00    -0.011 C 
ATOM      9  C   UNL     1     150.643 145.071 165.327  1.00  0.00     0.008 C 
ATOM     10  C   UNL     1     150.396 142.596 164.917  1.00  0.00     0.008 C 
ENDBRANCH   1   8
TORSDOF 1
ENDMDL
MODEL 9
REMARK VINA RESULT:    -4.443      6.595      8.529
REMARK INTER + INTRA:          -4.998
REMARK INTER:                  -4.708
REMARK INTRA:                  -0.290
REMARK UNBOUND:                -0.295
REMARK SMILES C=C1CC[C@@]2(C(C)C)C[C@@H]12
REMARK SMILES IDX 5 1 4 2 3 3 2 4 1 5 10 6 9 7 6 8 7 9 8 10
REMARK H PARENT
REMARK Flexibility Score: inf
ROOT
ATOM      1  C   UNL     1     148.381 145.497 163.299  1.00  0.00    -0.020 C 
ATOM      2  C   UNL     1     149.756 145.724 162.647  1.00  0.00     0.012 C 
ATOM      3  C   UNL     1     150.741 144.756 163.307  1.00  0.00     0.031 C 
ATOM      4  C   UNL     1     149.920 143.958 164.262  1.00  0.00    -0.074 C 
ATOM      5  C   UNL     1     150.416 142.963 165.002  1.00  0.00     0.008 C 
ATOM      6  C   UNL     1     148.489 144.357 164.300  1.00  0.00     0.021 C 
ATOM      7  C   UNL     1     147.716 144.151 163.001  1.00  0.00     0.016 C 
ENDROOT
BRANCH   1   8
ATOM      8  C   UNL     1     147.453 146.723 163.544  1.00  0.00    -0.011 C 
ATOM      9  C   UNL     1     147.670 147.927 162.610  1.00  0.00     0.008 C 
ATOM     10  C   UNL     1     147.550 147.163 165.010  1.00  0.00     0.008 C 
ENDBRANCH   1   8
TORSDOF 1
ENDMDL
