MODEL 1
REMARK VINA RESULT:    -4.913      0.000      0.000
REMARK INTER + INTRA:          -5.443
REMARK INTER:                  -5.344
REMARK INTRA:                  -0.099
REMARK UNBOUND:                -0.099
REMARK SMILES C=C(C)[C@@H]1CC[C@H](C)[C@H](O)C1
REMARK SMILES IDX 8 1 7 2 6 3 5 4 4 5 11 6 9 7 10 8 2 10 1 11 3 12
REMARK H PARENT 10 9
REMARK Flexibility Score: inf
ROOT
ATOM      1  C   UNL     1      -2.745  20.002  49.046  1.00  0.00     0.010 C 
ATOM      2  C   UNL     1      -1.834  18.764  49.075  1.00  0.00     0.015 C 
ATOM      3  C   UNL     1      -2.578  17.563  48.439  1.00  0.00     0.006 C 
ATOM      4  C   UNL     1      -1.624  16.429  48.039  1.00  0.00     0.008 C 
ATOM      5  C   UNL     1      -0.514  16.885  47.051  1.00  0.00     0.017 C 
ATOM      6  C   UNL     1      -0.323  18.419  47.013  1.00  0.00     0.040 C 
ATOM      7  C   UNL     1      -0.429  19.009  48.433  1.00  0.00     0.117 C 
ENDROOT
BRANCH   7   8
ATOM      8  O   UNL     1      -0.058  20.368  48.452  1.00  0.00    -0.393 OA
ATOM      9  H   UNL     1       0.786  20.451  48.967  1.00  0.00     0.210 HD
ENDBRANCH   7   8
BRANCH   5  10
ATOM     10  C   UNL     1      -0.733  16.325  45.650  1.00  0.00    -0.077 C 
ATOM     11  C   UNL     1      -1.974  16.233  45.147  1.00  0.00     0.008 C 
ATOM     12  C   UNL     1       0.421  15.876  44.792  1.00  0.00     0.039 C 
ENDBRANCH   5  10
TORSDOF 2
ENDMDL
MODEL 2
REMARK VINA RESULT:    -4.870      2.122      4.839
REMARK INTER + INTRA:          -5.396
REMARK INTER:                  -5.253
REMARK INTRA:                  -0.143
REMARK UNBOUND:                -0.099
REMARK SMILES C=C(C)[C@@H]1CC[C@H](C)[C@H](O)C1
REMARK SMILES IDX 8 1 7 2 6 3 5 4 4 5 11 6 9 7 10 8 2 10 1 11 3 12
REMARK H PARENT 10 9
REMARK Flexibility Score: inf
ROOT
ATOM      1  C   UNL     1      -1.681  16.619  46.417  1.00  0.00     0.010 C 
ATOM      2  C   UNL     1      -1.995  17.069  47.853  1.00  0.00     0.015 C 
ATOM      3  C   UNL     1      -0.822  17.926  48.391  1.00  0.00     0.006 C 
ATOM      4  C   UNL     1      -1.220  18.757  49.619  1.00  0.00     0.008 C 
ATOM      5  C   UNL     1      -2.424  19.704  49.351  1.00  0.00     0.017 C 
ATOM      6  C   UNL     1      -3.235  19.317  48.093  1.00  0.00     0.040 C 
ATOM      7  C   UNL     1      -3.378  17.786  47.994  1.00  0.00     0.117 C 
ENDROOT
BRANCH   7   8
ATOM      8  O   UNL     1      -4.280  17.420  46.976  1.00  0.00    -0.393 OA
ATOM      9  H   UNL     1      -5.192  17.688  47.260  1.00  0.00     0.210 HD
ENDBRANCH   7   8
BRANCH   5  10
ATOM     10  C   UNL     1      -1.998  21.167  49.301  1.00  0.00    -0.077 C 
ATOM     11  C   UNL     1      -1.278  21.625  48.266  1.00  0.00     0.008 C 
ATOM     12  C   UNL     1      -2.380  22.135  50.391  1.00  0.00     0.039 C 
ENDBRANCH   5  10
TORSDOF 2
ENDMDL
MODEL 3
REMARK VINA RESULT:    -4.854      1.938      4.415
REMARK INTER + INTRA:          -5.378
REMARK INTER:                  -5.240
REMARK INTRA:                  -0.138
REMARK UNBOUND:                -0.099
REMARK SMILES C=C(C)[C@@H]1CC[C@H](C)[C@H](O)C1
REMARK SMILES IDX 8 1 7 2 6 3 5 4 4 5 11 6 9 7 10 8 2 10 1 11 3 12
REMARK H PARENT 10 9
REMARK Flexibility Score: inf
ROOT
ATOM      1  C   UNL     1      -1.238  15.891  47.751  1.00  0.00     0.010 C 
ATOM      2  C   UNL     1      -1.932  17.212  47.385  1.00  0.00     0.015 C 
ATOM      3  C   UNL     1      -2.708  17.744  48.616  1.00  0.00     0.006 C 
ATOM      4  C   UNL     1      -3.065  19.231  48.485  1.00  0.00     0.008 C 
ATOM      5  C   UNL     1      -1.822  20.141  48.270  1.00  0.00     0.017 C 
ATOM      6  C   UNL     1      -0.571  19.363  47.802  1.00  0.00     0.040 C 
ATOM      7  C   UNL     1      -0.962  18.279  46.779  1.00  0.00     0.117 C 
ENDROOT
BRANCH   7   8
ATOM      8  O   UNL     1       0.176  17.697  46.188  1.00  0.00    -0.393 OA
ATOM      9  H   UNL     1       0.959  18.272  46.392  1.00  0.00     0.210 HD
ENDBRANCH   7   8
BRANCH   5  10
ATOM     10  C   UNL     1      -1.515  20.986  49.501  1.00  0.00    -0.077 C 
ATOM     11  C   UNL     1      -2.479  21.732  50.064  1.00  0.00     0.008 C 
ATOM     12  C   UNL     1      -0.144  21.001  50.124  1.00  0.00     0.039 C 
ENDBRANCH   5  10
TORSDOF 2
ENDMDL
MODEL 4
REMARK VINA RESULT:    -4.403      2.027      4.710
REMARK INTER + INTRA:          -4.888
REMARK INTER:                  -4.754
REMARK INTRA:                  -0.133
REMARK UNBOUND:                -0.099
REMARK SMILES C=C(C)[C@@H]1CC[C@H](C)[C@H](O)C1
REMARK SMILES IDX 8 1 7 2 6 3 5 4 4 5 11 6 9 7 10 8 2 10 1 11 3 12
REMARK H PARENT 10 9
REMARK Flexibility Score: inf
ROOT
ATOM      1  C   UNL     1      -1.584  16.519  46.938  1.00  0.00     0.010 C 
ATOM      2  C   UNL     1      -0.729  17.364  47.896  1.00  0.00     0.015 C 
ATOM      3  C   UNL     1      -0.363  18.705  47.212  1.00  0.00     0.006 C 
ATOM      4  C   UNL     1       0.107  19.766  48.216  1.00  0.00     0.008 C 
ATOM      5  C   UNL     1      -0.941  20.062  49.326  1.00  0.00     0.017 C 
ATOM      6  C   UNL     1      -2.019  18.962  49.457  1.00  0.00     0.040 C 
ATOM      7  C   UNL     1      -1.384  17.566  49.302  1.00  0.00     0.117 C 
ENDROOT
BRANCH   7   8
ATOM      8  O   UNL     1      -2.303  16.546  49.619  1.00  0.00    -0.393 OA
ATOM      9  H   UNL     1      -1.902  15.978  50.327  1.00  0.00     0.210 HD
ENDBRANCH   7   8
BRANCH   5  10
ATOM     10  C   UNL     1      -1.578  21.437  49.155  1.00  0.00    -0.077 C 
ATOM     11  C   UNL     1      -2.380  21.932  50.111  1.00  0.00     0.008 C 
ATOM     12  C   UNL     1      -1.320  22.278  47.932  1.00  0.00     0.039 C 
ENDBRANCH   5  10
TORSDOF 2
ENDMDL
MODEL 5
REMARK VINA RESULT:    -4.359      1.707      3.100
REMARK INTER + INTRA:          -4.841
REMARK INTER:                  -4.699
REMARK INTRA:                  -0.141
REMARK UNBOUND:                -0.099
REMARK SMILES C=C(C)[C@@H]1CC[C@H](C)[C@H](O)C1
REMARK SMILES IDX 8 1 7 2 6 3 5 4 4 5 11 6 9 7 10 8 2 10 1 11 3 12
REMARK H PARENT 10 9
REMARK Flexibility Score: inf
ROOT
ATOM      1  C   UNL     1       0.402  21.504  50.091  1.00  0.00     0.010 C 
ATOM      2  C   UNL     1      -0.412  21.047  48.870  1.00  0.00     0.015 C 
ATOM      3  C   UNL     1       0.376  19.952  48.108  1.00  0.00     0.006 C 
ATOM      4  C   UNL     1      -0.516  19.148  47.152  1.00  0.00     0.008 C 
ATOM      5  C   UNL     1      -1.718  18.467  47.866  1.00  0.00     0.017 C 
ATOM      6  C   UNL     1      -2.022  19.069  49.257  1.00  0.00     0.040 C 
ATOM      7  C   UNL     1      -1.869  20.602  49.224  1.00  0.00     0.117 C 
ENDROOT
BRANCH   7   8
ATOM      8  O   UNL     1      -2.337  21.190  50.416  1.00  0.00    -0.393 OA
ATOM      9  H   UNL     1      -2.073  22.146  50.412  1.00  0.00     0.210 HD
ENDBRANCH   7   8
BRANCH   5  10
ATOM     10  C   UNL     1      -1.548  16.954  47.948  1.00  0.00    -0.077 C 
ATOM     11  C   UNL     1      -1.434  16.226  46.826  1.00  0.00     0.008 C 
ATOM     12  C   UNL     1      -1.491  16.238  49.273  1.00  0.00     0.039 C 
ENDBRANCH   5  10
TORSDOF 2
ENDMDL
MODEL 6
REMARK VINA RESULT:    -4.264      9.804     10.873
REMARK INTER + INTRA:          -4.737
REMARK INTER:                  -4.601
REMARK INTRA:                  -0.136
REMARK UNBOUND:                -0.099
REMARK SMILES C=C(C)[C@@H]1CC[C@H](C)[C@H](O)C1
REMARK SMILES IDX 8 1 7 2 6 3 5 4 4 5 11 6 9 7 10 8 2 10 1 11 3 12
REMARK H PARENT 10 9
REMARK Flexibility Score: inf
ROOT
ATOM      1  C   UNL     1       2.102  26.095  39.156  1.00  0.00     0.010 C 
ATOM      2  C   UNL     1       2.060  24.579  38.904  1.00  0.00     0.015 C 
ATOM      3  C   UNL     1       3.314  24.158  38.097  1.00  0.00     0.006 C 
ATOM      4  C   UNL     1       3.575  22.647  38.169  1.00  0.00     0.008 C 
ATOM      5  C   UNL     1       3.741  22.124  39.624  1.00  0.00     0.017 C 
ATOM      6  C   UNL     1       3.191  23.100  40.689  1.00  0.00     0.040 C 
ATOM      7  C   UNL     1       1.872  23.735  40.207  1.00  0.00     0.117 C 
ENDROOT
BRANCH   7   8
ATOM      8  O   UNL     1       1.248  24.467  41.237  1.00  0.00    -0.393 OA
ATOM      9  H   UNL     1       0.350  24.077  41.393  1.00  0.00     0.210 HD
ENDBRANCH   7   8
BRANCH   5  10
ATOM     10  C   UNL     1       5.183  21.734  39.929  1.00  0.00    -0.077 C 
ATOM     11  C   UNL     1       5.925  21.117  38.996  1.00  0.00     0.008 C 
ATOM     12  C   UNL     1       5.816  22.038  41.262  1.00  0.00     0.039 C 
ENDBRANCH   5  10
TORSDOF 2
ENDMDL
MODEL 7
REMARK VINA RESULT:    -4.238      2.285      5.459
REMARK INTER + INTRA:          -4.708
REMARK INTER:                  -4.578
REMARK INTRA:                  -0.130
REMARK UNBOUND:                -0.099
REMARK SMILES C=C(C)[C@@H]1CC[C@H](C)[C@H](O)C1
REMARK SMILES IDX 8 1 7 2 6 3 5 4 4 5 11 6 9 7 10 8 2 10 1 11 3 12
REMARK H PARENT 10 9
REMARK Flexibility Score: inf
ROOT
ATOM      1  C   UNL     1      -0.669  18.705  46.515  1.00  0.00     0.010 C 
ATOM      2  C   UNL     1      -0.811  18.861  48.038  1.00  0.00     0.015 C 
ATOM      3  C   UNL     1      -0.018  20.109  48.502  1.00  0.00     0.006 C 
ATOM      4  C   UNL     1      -0.441  20.584  49.899  1.00  0.00     0.008 C 
ATOM      5  C   UNL     1      -1.957  20.913  49.999  1.00  0.00     0.017 C 
ATOM      6  C   UNL     1      -2.792  20.298  48.852  1.00  0.00     0.040 C 
ATOM      7  C   UNL     1      -2.296  18.876  48.528  1.00  0.00     0.117 C 
ENDROOT
BRANCH   7   8
ATOM      8  O   UNL     1      -3.164  18.221  47.632  1.00  0.00    -0.393 OA
ATOM      9  H   UNL     1      -3.125  17.248  47.819  1.00  0.00     0.210 HD
ENDBRANCH   7   8
BRANCH   5  10
ATOM     10  C   UNL     1      -2.209  22.411  50.119  1.00  0.00    -0.077 C 
ATOM     11  C   UNL     1      -2.987  22.887  51.104  1.00  0.00     0.008 C 
ATOM     12  C   UNL     1      -1.590  23.394  49.159  1.00  0.00     0.039 C 
ENDBRANCH   5  10
TORSDOF 2
ENDMDL
MODEL 8
REMARK VINA RESULT:    -4.170      1.816      2.657
REMARK INTER + INTRA:          -4.634
REMARK INTER:                  -4.498
REMARK INTRA:                  -0.137
REMARK UNBOUND:                -0.099
REMARK SMILES C=C(C)[C@@H]1CC[C@H](C)[C@H](O)C1
REMARK SMILES IDX 8 1 7 2 6 3 5 4 4 5 11 6 9 7 10 8 2 10 1 11 3 12
REMARK H PARENT 10 9
REMARK Flexibility Score: inf
ROOT
ATOM      1  C   UNL     1      -2.314  19.928  49.476  1.00  0.00     0.010 C 
ATOM      2  C   UNL     1      -2.249  19.228  48.110  1.00  0.00     0.015 C 
ATOM      3  C   UNL     1      -0.987  19.706  47.348  1.00  0.00     0.006 C 
ATOM      4  C   UNL     1      -0.611  18.768  46.192  1.00  0.00     0.008 C 
ATOM      5  C   UNL     1      -0.372  17.301  46.648  1.00  0.00     0.017 C 
ATOM      6  C   UNL     1      -0.967  16.991  48.041  1.00  0.00     0.040 C 
ATOM      7  C   UNL     1      -2.341  17.670  48.201  1.00  0.00     0.117 C 
ENDROOT
BRANCH   7   8
ATOM      8  O   UNL     1      -2.993  17.238  49.374  1.00  0.00    -0.393 OA
ATOM      9  H   UNL     1      -3.229  16.281  49.262  1.00  0.00     0.210 HD
ENDBRANCH   7   8
BRANCH   5  10
ATOM     10  C   UNL     1       1.103  16.918  46.584  1.00  0.00    -0.077 C 
ATOM     11  C   UNL     1       1.988  17.504  47.406  1.00  0.00     0.008 C 
ATOM     12  C   UNL     1       1.604  15.875  45.619  1.00  0.00     0.039 C 
ENDBRANCH   5  10
TORSDOF 2
ENDMDL
