MODEL 1
REMARK VINA RESULT:    24.413      0.000      0.000
REMARK INTER + INTRA:          27.695
REMARK INTER:                  27.981
REMARK INTRA:                  -0.286
REMARK UNBOUND:                -0.286
REMARK SMILES O=C1C[C@@H](c2ccc(O)cc2)Oc2cc(O)cc(O)c21
REMARK SMILES IDX 3 1 4 2 12 3 13 4 14 5 15 6 17 7 18 8 20 9 2 10 1 11 5 12
REMARK SMILES IDX 6 13 11 14 7 15 10 16 8 17 9 18 19 20 16 22
REMARK H PARENT 9 19 19 21 16 23
REMARK Flexibility Score: inf
ROOT
ATOM      1  C   UNL     1      16.294  95.507   9.002  1.00  0.00     0.131 C 
ATOM      2  C   UNL     1      17.768  95.492   9.429  1.00  0.00     0.211 C 
ATOM      3  O   UNL     1      18.420  96.702   9.031  1.00  0.00    -0.484 OA
ATOM      4  C   UNL     1      17.796  97.955   9.103  1.00  0.00     0.138 A 
ATOM      5  C   UNL     1      18.573  99.107   8.966  1.00  0.00     0.093 A 
ATOM      6  C   UNL     1      17.985 100.369   9.049  1.00  0.00     0.123 A 
ATOM      7  C   UNL     1      16.604 100.481   9.241  1.00  0.00     0.093 A 
ATOM      8  C   UNL     1      15.799  99.339   9.342  1.00  0.00     0.133 A 
ATOM      9  C   UNL     1      16.402  98.054   9.307  1.00  0.00     0.102 A 
ATOM     10  C   UNL     1      15.658  96.780   9.473  1.00  0.00     0.174 C 
ATOM     11  O   UNL     1      14.538  96.737  10.047  1.00  0.00    -0.294 OA
ENDROOT
BRANCH   2  12
ATOM     12  C   UNL     1      18.483  94.302   8.838  1.00  0.00    -0.007 A 
ATOM     13  C   UNL     1      18.414  94.048   7.458  1.00  0.00     0.011 A 
ATOM     14  C   UNL     1      19.272  93.465   9.650  1.00  0.00     0.011 A 
ATOM     15  C   UNL     1      19.102  92.963   6.903  1.00  0.00     0.046 A 
ATOM     16  C   UNL     1      19.956  92.382   9.093  1.00  0.00     0.046 A 
ATOM     17  C   UNL     1      19.872  92.127   7.718  1.00  0.00     0.115 A 
BRANCH  17  18
ATOM     18  O   UNL     1      20.549  91.050   7.152  1.00  0.00    -0.508 OA
ATOM     19  H   UNL     1      21.462  90.762   7.487  1.00  0.00     0.293 HD
ENDBRANCH  17  18
ENDBRANCH   2  12
BRANCH   8  20
ATOM     20  O   UNL     1      14.420  99.533   9.439  1.00  0.00    -0.507 OA
ATOM     21  H   UNL     1      13.757  98.792   9.619  1.00  0.00     0.293 HD
ENDBRANCH   8  20
BRANCH   6  22
ATOM     22  O   UNL     1      18.780 101.507   8.931  1.00  0.00    -0.508 OA
ATOM     23  H   UNL     1      19.675 101.481   8.458  1.00  0.00     0.293 HD
ENDBRANCH   6  22
TORSDOF 4
ENDMDL
MODEL 2
REMARK VINA RESULT:    25.035      1.653      6.318
REMARK INTER + INTRA:          28.408
REMARK INTER:                  28.707
REMARK INTRA:                  -0.299
REMARK UNBOUND:                -0.286
REMARK SMILES O=C1C[C@@H](c2ccc(O)cc2)Oc2cc(O)cc(O)c21
REMARK SMILES IDX 3 1 4 2 12 3 13 4 14 5 15 6 17 7 18 8 20 9 2 10 1 11 5 12
REMARK SMILES IDX 6 13 11 14 7 15 10 16 8 17 9 18 19 20 16 22
REMARK H PARENT 9 19 19 21 16 23
REMARK Flexibility Score: inf
ROOT
ATOM      1  C   UNL     1      16.834  97.526   9.756  1.00  0.00     0.131 C 
ATOM      2  C   UNL     1      17.765  97.942   8.609  1.00  0.00     0.211 C 
ATOM      3  O   UNL     1      18.583  96.842   8.200  1.00  0.00    -0.484 OA
ATOM      4  C   UNL     1      18.100  95.529   8.122  1.00  0.00     0.138 A 
ATOM      5  C   UNL     1      18.862  94.565   7.458  1.00  0.00     0.093 A 
ATOM      6  C   UNL     1      18.401  93.254   7.349  1.00  0.00     0.123 A 
ATOM      7  C   UNL     1      17.182  92.894   7.934  1.00  0.00     0.093 A 
ATOM      8  C   UNL     1      16.420  93.834   8.639  1.00  0.00     0.133 A 
ATOM      9  C   UNL     1      16.863  95.181   8.709  1.00  0.00     0.102 A 
ATOM     10  C   UNL     1      16.105  96.274   9.368  1.00  0.00     0.174 C 
ATOM     11  O   UNL     1      14.863  96.198   9.558  1.00  0.00    -0.294 OA
ENDROOT
BRANCH   2  12
ATOM     12  C   UNL     1      18.632  99.106   9.021  1.00  0.00    -0.007 A 
ATOM     13  C   UNL     1      19.806  98.888   9.761  1.00  0.00     0.011 A 
ATOM     14  C   UNL     1      18.307 100.417   8.622  1.00  0.00     0.011 A 
ATOM     15  C   UNL     1      20.628  99.962  10.118  1.00  0.00     0.046 A 
ATOM     16  C   UNL     1      19.130 101.488   8.981  1.00  0.00     0.046 A 
ATOM     17  C   UNL     1      20.292 101.263   9.731  1.00  0.00     0.115 A 
BRANCH  17  18
ATOM     18  O   UNL     1      21.119 102.323  10.095  1.00  0.00    -0.508 OA
ATOM     19  H   UNL     1      21.493 102.406  11.033  1.00  0.00     0.293 HD
ENDBRANCH  17  18
ENDBRANCH   2  12
BRANCH   8  20
ATOM     20  O   UNL     1      15.264  93.377   9.273  1.00  0.00    -0.507 OA
ATOM     21  H   UNL     1      14.723  93.926   9.926  1.00  0.00     0.293 HD
ENDBRANCH   8  20
BRANCH   6  22
ATOM     22  O   UNL     1      19.165  92.311   6.663  1.00  0.00    -0.508 OA
ATOM     23  H   UNL     1      20.169  92.410   6.571  1.00  0.00     0.293 HD
ENDBRANCH   6  22
TORSDOF 4
ENDMDL
