MODEL 1
REMARK VINA RESULT:    -0.518      0.000      0.000
REMARK INTER + INTRA:          -0.895
REMARK INTER:                  -0.715
REMARK INTRA:                  -0.180
REMARK UNBOUND:                -0.180
REMARK SMILES C=C(CC[C@H](C(=O)[O-])[C@@H]1CC[C@]2(C)C3=C(CC[C@]12C)[C@]1(C)CC[C@@H](O)C(C)(C)[C@@H]1CC3)C(C)C
REMARK SMILES IDX 4 1 5 2 6 3 7 4 8 5 9 6 10 7 18 8 11 9 12 10 17 11 19 12
REMARK SMILES IDX 13 13 14 14 16 15 15 16 31 17 20 18 30 19 29 20 22 21 21 22
REMARK SMILES IDX 26 23 23 24 24 25 27 26 28 27 25 28 3 30 2 31 1 32 32 33
REMARK SMILES IDX 33 34 34 35
REMARK H PARENT 25 29
REMARK Flexibility Score: inf
ROOT
ATOM      1  C   UNL     1       1.996  40.795  13.535  1.00  0.00     0.014 C 
ENDROOT
BRANCH   1   2
ATOM      2  C   UNL     1       3.059  40.691  12.396  1.00  0.00     0.039 C 
BRANCH   2   3
ATOM      3  C   UNL     1       4.230  39.830  12.814  1.00  0.00     0.045 C 
ATOM      4  O   UNL     1       5.322  40.368  13.159  1.00  0.00    -0.550 OA
ATOM      5  O   UNL     1       4.117  38.435  12.811  1.00  0.00    -0.550 OA
ENDBRANCH   2   3
BRANCH   2   6
ATOM      6  C   UNL     1       3.554  42.040  11.752  1.00  0.00     0.004 C 
ATOM      7  C   UNL     1       3.986  43.133  12.719  1.00  0.00     0.006 C 
ATOM      8  C   UNL     1       2.625  42.749  10.725  1.00  0.00    -0.020 C 
ATOM      9  C   UNL     1       4.077  44.404  11.885  1.00  0.00     0.012 C 
ATOM     10  C   UNL     1       3.306  44.167  10.550  1.00  0.00    -0.006 C 
ATOM     11  C   UNL     1       1.194  42.938  11.281  1.00  0.00     0.012 C 
ATOM     12  C   UNL     1       2.550  41.900   9.416  1.00  0.00     0.012 C 
ATOM     13  C   UNL     1       4.329  44.167   9.375  1.00  0.00     0.017 C 
ATOM     14  C   UNL     1       2.320  45.339  10.318  1.00  0.00    -0.064 C 
ATOM     15  C   UNL     1       0.363  43.799  10.338  1.00  0.00     0.032 C 
ATOM     16  C   UNL     1       0.979  45.176  10.119  1.00  0.00    -0.064 C 
ATOM     17  C   UNL     1       2.868  46.740  10.345  1.00  0.00     0.032 C 
ATOM     18  C   UNL     1       0.045  46.364   9.696  1.00  0.00    -0.008 C 
ATOM     19  C   UNL     1       2.347  47.495   9.146  1.00  0.00     0.009 C 
ATOM     20  C   UNL     1       0.825  47.718   9.303  1.00  0.00     0.007 C 
ATOM     21  C   UNL     1      -0.858  45.894   8.509  1.00  0.00     0.014 C 
ATOM     22  C   UNL     1      -0.868  46.665  10.912  1.00  0.00     0.016 C 
ATOM     23  C   UNL     1       0.210  48.522   8.075  1.00  0.00    -0.006 C 
ATOM     24  C   UNL     1      -0.162  46.093   7.171  1.00  0.00     0.033 C 
ATOM     25  C   UNL     1      -0.003  47.584   6.823  1.00  0.00     0.120 C 
ATOM     26  C   UNL     1      -1.113  49.215   8.520  1.00  0.00     0.014 C 
ATOM     27  C   UNL     1       1.139  49.693   7.642  1.00  0.00     0.014 C 
BRANCH  25  28
ATOM     28  O   UNL     1      -1.118  47.992   6.065  1.00  0.00    -0.393 OA
ATOM     29  H   UNL     1      -1.881  48.065   6.696  1.00  0.00     0.210 HD
ENDBRANCH  25  28
ENDBRANCH   2   6
ENDBRANCH   1   2
BRANCH   1  30
ATOM     30  C   UNL     1       1.151  39.529  13.843  1.00  0.00     0.031 C 
BRANCH  30  31
ATOM     31  C   UNL     1      -0.341  39.714  13.636  1.00  0.00    -0.075 C 
ATOM     32  C   UNL     1      -1.035  38.797  12.930  1.00  0.00     0.008 C 
BRANCH  31  33
ATOM     33  C   UNL     1      -1.060  40.861  14.342  1.00  0.00     0.008 C 
ATOM     34  C   UNL     1      -1.110  42.114  13.455  1.00  0.00     0.012 C 
ATOM     35  C   UNL     1      -0.426  41.180  15.703  1.00  0.00     0.012 C 
ENDBRANCH  31  33
ENDBRANCH  30  31
ENDBRANCH   1  30
TORSDOF 7
ENDMDL
MODEL 2
REMARK VINA RESULT:     0.807      1.671      3.029
REMARK INTER + INTRA:           0.934
REMARK INTER:                   1.031
REMARK INTRA:                  -0.097
REMARK UNBOUND:                -0.180
REMARK SMILES C=C(CC[C@H](C(=O)[O-])[C@@H]1CC[C@]2(C)C3=C(CC[C@]12C)[C@]1(C)CC[C@@H](O)C(C)(C)[C@@H]1CC3)C(C)C
REMARK SMILES IDX 4 1 5 2 6 3 7 4 8 5 9 6 10 7 18 8 11 9 12 10 17 11 19 12
REMARK SMILES IDX 13 13 14 14 16 15 15 16 31 17 20 18 30 19 29 20 22 21 21 22
REMARK SMILES IDX 26 23 23 24 24 25 27 26 28 27 25 28 3 30 2 31 1 32 32 33
REMARK SMILES IDX 33 34 34 35
REMARK H PARENT 25 29
REMARK Flexibility Score: inf
ROOT
ATOM      1  C   UNL     1       3.119  38.618  11.934  1.00  0.00     0.014 C 
ENDROOT
BRANCH   1   2
ATOM      2  C   UNL     1       3.839  39.950  12.313  1.00  0.00     0.039 C 
BRANCH   2   3
ATOM      3  C   UNL     1       4.849  39.734  13.418  1.00  0.00     0.045 C 
ATOM      4  O   UNL     1       4.966  38.595  13.957  1.00  0.00    -0.550 OA
ATOM      5  O   UNL     1       5.649  40.793  13.859  1.00  0.00    -0.550 OA
ENDBRANCH   2   3
BRANCH   2   6
ATOM      6  C   UNL     1       2.925  41.196  12.622  1.00  0.00     0.004 C 
ATOM      7  C   UNL     1       1.440  40.916  12.805  1.00  0.00     0.006 C 
ATOM      8  C   UNL     1       2.994  42.415  11.658  1.00  0.00    -0.020 C 
ATOM      9  C   UNL     1       0.758  42.276  12.740  1.00  0.00     0.012 C 
ATOM     10  C   UNL     1       1.757  43.293  12.107  1.00  0.00    -0.006 C 
ATOM     11  C   UNL     1       2.807  41.991  10.182  1.00  0.00     0.012 C 
ATOM     12  C   UNL     1       4.380  43.122  11.808  1.00  0.00     0.012 C 
ATOM     13  C   UNL     1       2.161  44.337  13.190  1.00  0.00     0.017 C 
ATOM     14  C   UNL     1       1.047  44.055  10.959  1.00  0.00    -0.064 C 
ATOM     15  C   UNL     1       2.688  43.216   9.284  1.00  0.00     0.032 C 
ATOM     16  C   UNL     1       1.518  44.110   9.678  1.00  0.00    -0.064 C 
ATOM     17  C   UNL     1      -0.253  44.746  11.267  1.00  0.00     0.032 C 
ATOM     18  C   UNL     1       0.881  45.046   8.592  1.00  0.00    -0.008 C 
ATOM     19  C   UNL     1      -0.209  46.148  10.708  1.00  0.00     0.009 C 
ATOM     20  C   UNL     1      -0.211  46.084   9.164  1.00  0.00     0.007 C 
ATOM     21  C   UNL     1       2.028  45.814   7.857  1.00  0.00     0.014 C 
ATOM     22  C   UNL     1       0.180  44.121   7.565  1.00  0.00     0.016 C 
ATOM     23  C   UNL     1      -0.177  47.533   8.506  1.00  0.00    -0.006 C 
ATOM     24  C   UNL     1       2.401  47.091   8.597  1.00  0.00     0.033 C 
ATOM     25  C   UNL     1       1.279  48.141   8.531  1.00  0.00     0.120 C 
ATOM     26  C   UNL     1      -0.757  47.459   7.062  1.00  0.00     0.014 C 
ATOM     27  C   UNL     1      -1.120  48.517   9.257  1.00  0.00     0.014 C 
BRANCH  25  28
ATOM     28  O   UNL     1       1.502  48.973   7.417  1.00  0.00    -0.393 OA
ATOM     29  H   UNL     1       2.465  48.888   7.185  1.00  0.00     0.210 HD
ENDBRANCH  25  28
ENDBRANCH   2   6
ENDBRANCH   1   2
BRANCH   1  30
ATOM     30  C   UNL     1       1.808  38.272  12.692  1.00  0.00     0.031 C 
BRANCH  30  31
ATOM     31  C   UNL     1       1.071  37.068  12.137  1.00  0.00    -0.075 C 
ATOM     32  C   UNL     1       1.772  36.000  11.701  1.00  0.00     0.008 C 
BRANCH  31  33
ATOM     33  C   UNL     1      -0.454  37.025  12.202  1.00  0.00     0.008 C 
ATOM     34  C   UNL     1      -1.010  38.234  12.969  1.00  0.00     0.012 C 
ATOM     35  C   UNL     1      -0.962  35.710  12.810  1.00  0.00     0.012 C 
ENDBRANCH  31  33
ENDBRANCH  30  31
ENDBRANCH   1  30
TORSDOF 7
ENDMDL
