MODEL 1
REMARK VINA RESULT:    -3.110      0.000      0.000
REMARK INTER + INTRA:          -5.528
REMARK INTER:                  -4.928
REMARK INTRA:                  -0.600
REMARK UNBOUND:                -0.600
REMARK SMILES CCCCCCCCCCCC(=O)[O-]
REMARK SMILES IDX 7 1 8 2 9 3 10 4 11 5 12 6 13 7 14 8 6 9 5 10 4 11 3 12 2 13
REMARK SMILES IDX 1 14
REMARK H PARENT
REMARK Flexibility Score: inf
ROOT
ATOM      1  C   UNL     1     -15.685  13.791  -7.160  1.00  0.00     0.000 C 
ENDROOT
BRANCH   1   2
ATOM      2  C   UNL     1     -16.579  14.732  -7.985  1.00  0.00     0.000 C 
BRANCH   2   3
ATOM      3  C   UNL     1     -16.375  16.211  -7.624  1.00  0.00     0.000 C 
BRANCH   3   4
ATOM      4  C   UNL     1     -15.681  16.964  -8.768  1.00  0.00     0.006 C 
BRANCH   4   5
ATOM      5  C   UNL     1     -16.477  18.195  -9.222  1.00  0.00     0.053 C 
BRANCH   5   6
ATOM      6  C   UNL     1     -16.149  18.581 -10.631  1.00  0.00     0.041 C 
ATOM      7  O   UNL     1     -16.419  17.801 -11.581  1.00  0.00    -0.550 OA
ATOM      8  O   UNL     1     -15.511  19.788 -10.893  1.00  0.00    -0.550 OA
ENDBRANCH   5   6
ENDBRANCH   4   5
ENDBRANCH   3   4
ENDBRANCH   2   3
ENDBRANCH   1   2
BRANCH   1   9
ATOM      9  C   UNL     1     -14.592  13.120  -8.005  1.00  0.00     0.000 C 
BRANCH   9  10
ATOM     10  C   UNL     1     -14.888  13.275  -9.505  1.00  0.00    -0.000 C 
BRANCH  10  11
ATOM     11  C   UNL     1     -14.450  12.051 -10.330  1.00  0.00    -0.000 C 
BRANCH  11  12
ATOM     12  C   UNL     1     -15.405  11.661 -11.477  1.00  0.00    -0.000 C 
BRANCH  12  13
ATOM     13  C   UNL     1     -14.865  11.933 -12.892  1.00  0.00    -0.003 C 
ATOM     14  C   UNL     1     -13.458  12.527 -12.890  1.00  0.00     0.004 C 
ENDBRANCH  12  13
ENDBRANCH  11  12
ENDBRANCH  10  11
ENDBRANCH   9  10
ENDBRANCH   1   9
TORSDOF 10
ENDMDL
MODEL 2
REMARK VINA RESULT:    -3.109      2.979      6.509
REMARK INTER + INTRA:          -5.526
REMARK INTER:                  -5.123
REMARK INTRA:                  -0.403
REMARK UNBOUND:                -0.600
REMARK SMILES CCCCCCCCCCCC(=O)[O-]
REMARK SMILES IDX 7 1 8 2 9 3 10 4 11 5 12 6 13 7 14 8 6 9 5 10 4 11 3 12 2 13
REMARK SMILES IDX 1 14
REMARK H PARENT
REMARK Flexibility Score: inf
ROOT
ATOM      1  C   UNL     1     -15.762  17.310  -8.912  1.00  0.00     0.000 C 
ENDROOT
BRANCH   1   2
ATOM      2  C   UNL     1     -16.632  16.443  -7.988  1.00  0.00     0.000 C 
BRANCH   2   3
ATOM      3  C   UNL     1     -16.105  15.006  -7.854  1.00  0.00     0.000 C 
BRANCH   3   4
ATOM      4  C   UNL     1     -15.674  14.451  -9.220  1.00  0.00     0.006 C 
BRANCH   4   5
ATOM      5  C   UNL     1     -14.885  13.141  -9.094  1.00  0.00     0.053 C 
BRANCH   5   6
ATOM      6  C   UNL     1     -14.669  12.492 -10.426  1.00  0.00     0.041 C 
ATOM      7  O   UNL     1     -14.150  11.347 -10.497  1.00  0.00    -0.550 OA
ATOM      8  O   UNL     1     -15.008  13.167 -11.593  1.00  0.00    -0.550 OA
ENDBRANCH   5   6
ENDBRANCH   4   5
ENDBRANCH   3   4
ENDBRANCH   2   3
ENDBRANCH   1   2
BRANCH   1   9
ATOM      9  C   UNL     1     -16.559  18.431  -9.596  1.00  0.00     0.000 C 
BRANCH   9  10
ATOM     10  C   UNL     1     -15.745  19.067 -10.732  1.00  0.00    -0.000 C 
BRANCH  10  11
ATOM     11  C   UNL     1     -16.371  20.370 -11.261  1.00  0.00    -0.000 C 
BRANCH  11  12
ATOM     12  C   UNL     1     -15.401  21.303 -12.015  1.00  0.00    -0.000 C 
BRANCH  12  13
ATOM     13  C   UNL     1     -13.950  20.797 -12.103  1.00  0.00    -0.003 C 
ATOM     14  C   UNL     1     -12.921  21.922 -12.011  1.00  0.00     0.004 C 
ENDBRANCH  12  13
ENDBRANCH  11  12
ENDBRANCH  10  11
ENDBRANCH   9  10
ENDBRANCH   1   9
TORSDOF 10
ENDMDL
MODEL 3
REMARK VINA RESULT:    -3.078      3.426      6.527
REMARK INTER + INTRA:          -5.477
REMARK INTER:                  -5.010
REMARK INTRA:                  -0.467
REMARK UNBOUND:                -0.600
REMARK SMILES CCCCCCCCCCCC(=O)[O-]
REMARK SMILES IDX 7 1 8 2 9 3 10 4 11 5 12 6 13 7 14 8 6 9 5 10 4 11 3 12 2 13
REMARK SMILES IDX 1 14
REMARK H PARENT
REMARK Flexibility Score: inf
ROOT
ATOM      1  C   UNL     1     -15.701  17.236  -8.824  1.00  0.00     0.000 C 
ENDROOT
BRANCH   1   2
ATOM      2  C   UNL     1     -16.710  16.129  -8.475  1.00  0.00     0.000 C 
BRANCH   2   3
ATOM      3  C   UNL     1     -16.955  15.162  -9.644  1.00  0.00     0.000 C 
BRANCH   3   4
ATOM      4  C   UNL     1     -16.488  13.743  -9.288  1.00  0.00     0.006 C 
BRANCH   4   5
ATOM      5  C   UNL     1     -14.991  13.691  -8.950  1.00  0.00     0.053 C 
BRANCH   5   6
ATOM      6  C   UNL     1     -14.754  13.185  -7.560  1.00  0.00     0.041 C 
ATOM      7  O   UNL     1     -13.675  12.604  -7.273  1.00  0.00    -0.550 OA
ATOM      8  O   UNL     1     -15.739  13.323  -6.590  1.00  0.00    -0.550 OA
ENDBRANCH   5   6
ENDBRANCH   4   5
ENDBRANCH   3   4
ENDBRANCH   2   3
ENDBRANCH   1   2
BRANCH   1   9
ATOM      9  C   UNL     1     -16.381  18.523  -9.316  1.00  0.00     0.000 C 
BRANCH   9  10
ATOM     10  C   UNL     1     -15.997  18.822 -10.773  1.00  0.00    -0.000 C 
BRANCH  10  11
ATOM     11  C   UNL     1     -16.297  20.275 -11.186  1.00  0.00    -0.000 C 
BRANCH  11  12
ATOM     12  C   UNL     1     -15.361  20.854 -12.265  1.00  0.00    -0.000 C 
BRANCH  12  13
ATOM     13  C   UNL     1     -13.869  20.525 -12.077  1.00  0.00    -0.003 C 
ATOM     14  C   UNL     1     -12.977  21.765 -12.103  1.00  0.00     0.004 C 
ENDBRANCH  12  13
ENDBRANCH  11  12
ENDBRANCH  10  11
ENDBRANCH   9  10
ENDBRANCH   1   9
TORSDOF 10
ENDMDL
MODEL 4
REMARK VINA RESULT:    -3.065      2.768      5.684
REMARK INTER + INTRA:          -5.456
REMARK INTER:                  -4.858
REMARK INTRA:                  -0.598
REMARK UNBOUND:                -0.600
REMARK SMILES CCCCCCCCCCCC(=O)[O-]
REMARK SMILES IDX 7 1 8 2 9 3 10 4 11 5 12 6 13 7 14 8 6 9 5 10 4 11 3 12 2 13
REMARK SMILES IDX 1 14
REMARK H PARENT
REMARK Flexibility Score: inf
ROOT
ATOM      1  C   UNL     1     -16.636  15.834  -7.124  1.00  0.00     0.000 C 
ENDROOT
BRANCH   1   2
ATOM      2  C   UNL     1     -16.652  14.356  -7.548  1.00  0.00     0.000 C 
BRANCH   2   3
ATOM      3  C   UNL     1     -15.408  13.590  -7.071  1.00  0.00     0.000 C 
BRANCH   3   4
ATOM      4  C   UNL     1     -14.580  13.093  -8.266  1.00  0.00     0.006 C 
BRANCH   4   5
ATOM      5  C   UNL     1     -15.060  13.691  -9.595  1.00  0.00     0.053 C 
BRANCH   5   6
ATOM      6  C   UNL     1     -15.015  12.687 -10.705  1.00  0.00     0.041 C 
ATOM      7  O   UNL     1     -15.995  11.924 -10.910  1.00  0.00    -0.550 OA
ATOM      8  O   UNL     1     -13.876  12.569 -11.492  1.00  0.00    -0.550 OA
ENDBRANCH   5   6
ENDBRANCH   4   5
ENDBRANCH   3   4
ENDBRANCH   2   3
ENDBRANCH   1   2
BRANCH   1   9
ATOM      9  C   UNL     1     -17.106  16.776  -8.243  1.00  0.00     0.000 C 
BRANCH   9  10
ATOM     10  C   UNL     1     -15.908  17.372  -8.997  1.00  0.00    -0.000 C 
BRANCH  10  11
ATOM     11  C   UNL     1     -16.289  17.929 -10.381  1.00  0.00    -0.000 C 
BRANCH  11  12
ATOM     12  C   UNL     1     -15.910  19.405 -10.619  1.00  0.00    -0.000 C 
BRANCH  12  13
ATOM     13  C   UNL     1     -14.940  19.647 -11.789  1.00  0.00    -0.003 C 
ATOM     14  C   UNL     1     -14.637  21.127 -12.015  1.00  0.00     0.004 C 
ENDBRANCH  12  13
ENDBRANCH  11  12
ENDBRANCH  10  11
ENDBRANCH   9  10
ENDBRANCH   1   9
TORSDOF 10
ENDMDL
MODEL 5
REMARK VINA RESULT:    -2.998      3.242      6.347
REMARK INTER + INTRA:          -5.350
REMARK INTER:                  -4.827
REMARK INTRA:                  -0.523
REMARK UNBOUND:                -0.600
REMARK SMILES CCCCCCCCCCCC(=O)[O-]
REMARK SMILES IDX 7 1 8 2 9 3 10 4 11 5 12 6 13 7 14 8 6 9 5 10 4 11 3 12 2 13
REMARK SMILES IDX 1 14
REMARK H PARENT
REMARK Flexibility Score: inf
ROOT
ATOM      1  C   UNL     1     -15.984  17.991  -9.307  1.00  0.00     0.000 C 
ENDROOT
BRANCH   1   2
ATOM      2  C   UNL     1     -17.059  17.226  -8.518  1.00  0.00     0.000 C 
BRANCH   2   3
ATOM      3  C   UNL     1     -16.481  16.051  -7.715  1.00  0.00     0.000 C 
BRANCH   3   4
ATOM      4  C   UNL     1     -16.710  14.721  -8.448  1.00  0.00     0.006 C 
BRANCH   4   5
ATOM      5  C   UNL     1     -15.579  14.398  -9.434  1.00  0.00     0.053 C 
BRANCH   5   6
ATOM      6  C   UNL     1     -14.795  13.197  -9.004  1.00  0.00     0.041 C 
ATOM      7  O   UNL     1     -14.489  12.307  -9.840  1.00  0.00    -0.550 OA
ATOM      8  O   UNL     1     -14.431  13.043  -7.671  1.00  0.00    -0.550 OA
ENDBRANCH   5   6
ENDBRANCH   4   5
ENDBRANCH   3   4
ENDBRANCH   2   3
ENDBRANCH   1   2
BRANCH   1   9
ATOM      9  C   UNL     1     -16.387  18.239 -10.769  1.00  0.00     0.000 C 
BRANCH   9  10
ATOM     10  C   UNL     1     -16.710  19.722 -11.003  1.00  0.00    -0.000 C 
BRANCH  10  11
ATOM     11  C   UNL     1     -15.516  20.513 -11.568  1.00  0.00    -0.000 C 
BRANCH  11  12
ATOM     12  C   UNL     1     -14.370  19.651 -12.134  1.00  0.00    -0.000 C 
BRANCH  12  13
ATOM     13  C   UNL     1     -13.190  20.444 -12.724  1.00  0.00    -0.003 C 
ATOM     14  C   UNL     1     -12.980  21.794 -12.041  1.00  0.00     0.004 C 
ENDBRANCH  12  13
ENDBRANCH  11  12
ENDBRANCH  10  11
ENDBRANCH   9  10
ENDBRANCH   1   9
TORSDOF 10
ENDMDL
MODEL 6
REMARK VINA RESULT:    -2.937      2.779      5.319
REMARK INTER + INTRA:          -5.254
REMARK INTER:                  -4.114
REMARK INTRA:                  -1.139
REMARK UNBOUND:                -0.600
REMARK SMILES CCCCCCCCCCCC(=O)[O-]
REMARK SMILES IDX 7 1 8 2 9 3 10 4 11 5 12 6 13 7 14 8 6 9 5 10 4 11 3 12 2 13
REMARK SMILES IDX 1 14
REMARK H PARENT
REMARK Flexibility Score: inf
ROOT
ATOM      1  C   UNL     1     -15.311  13.389  -6.942  1.00  0.00     0.000 C 
ENDROOT
BRANCH   1   2
ATOM      2  C   UNL     1     -14.530  13.110  -8.237  1.00  0.00     0.000 C 
BRANCH   2   3
ATOM      3  C   UNL     1     -15.449  12.919  -9.454  1.00  0.00     0.000 C 
BRANCH   3   4
ATOM      4  C   UNL     1     -15.144  13.962 -10.539  1.00  0.00     0.006 C 
BRANCH   4   5
ATOM      5  C   UNL     1     -15.602  13.504 -11.931  1.00  0.00     0.053 C 
BRANCH   5   6
ATOM      6  C   UNL     1     -14.726  12.417 -12.474  1.00  0.00     0.041 C 
ATOM      7  O   UNL     1     -13.474  12.528 -12.422  1.00  0.00    -0.550 OA
ATOM      8  O   UNL     1     -15.294  11.297 -13.069  1.00  0.00    -0.550 OA
ENDBRANCH   5   6
ENDBRANCH   4   5
ENDBRANCH   3   4
ENDBRANCH   2   3
ENDBRANCH   1   2
BRANCH   1   9
ATOM      9  C   UNL     1     -16.746  13.869  -7.208  1.00  0.00     0.000 C 
BRANCH   9  10
ATOM     10  C   UNL     1     -16.860  15.388  -7.004  1.00  0.00    -0.000 C 
BRANCH  10  11
ATOM     11  C   UNL     1     -16.987  16.161  -8.329  1.00  0.00    -0.000 C 
BRANCH  11  12
ATOM     12  C   UNL     1     -15.874  17.196  -8.590  1.00  0.00    -0.000 C 
BRANCH  12  13
ATOM     13  C   UNL     1     -15.989  17.952  -9.926  1.00  0.00    -0.003 C 
ATOM     14  C   UNL     1     -17.054  17.366 -10.852  1.00  0.00     0.004 C 
ENDBRANCH  12  13
ENDBRANCH  11  12
ENDBRANCH  10  11
ENDBRANCH   9  10
ENDBRANCH   1   9
TORSDOF 10
ENDMDL
MODEL 7
REMARK VINA RESULT:    -2.804      2.338      3.895
REMARK INTER + INTRA:          -5.043
REMARK INTER:                  -4.494
REMARK INTRA:                  -0.550
REMARK UNBOUND:                -0.600
REMARK SMILES CCCCCCCCCCCC(=O)[O-]
REMARK SMILES IDX 7 1 8 2 9 3 10 4 11 5 12 6 13 7 14 8 6 9 5 10 4 11 3 12 2 13
REMARK SMILES IDX 1 14
REMARK H PARENT
REMARK Flexibility Score: inf
ROOT
ATOM      1  C   UNL     1     -16.036  16.903  -9.312  1.00  0.00     0.000 C 
ENDROOT
BRANCH   1   2
ATOM      2  C   UNL     1     -16.704  18.215  -8.868  1.00  0.00     0.000 C 
BRANCH   2   3
ATOM      3  C   UNL     1     -16.835  19.231 -10.014  1.00  0.00     0.000 C 
BRANCH   3   4
ATOM      4  C   UNL     1     -15.615  19.167 -10.944  1.00  0.00     0.006 C 
BRANCH   4   5
ATOM      5  C   UNL     1     -15.304  20.524 -11.589  1.00  0.00     0.053 C 
BRANCH   5   6
ATOM      6  C   UNL     1     -13.944  20.543 -12.217  1.00  0.00     0.041 C 
ATOM      7  O   UNL     1     -13.601  19.630 -13.012  1.00  0.00    -0.550 OA
ATOM      8  O   UNL     1     -13.043  21.551 -11.896  1.00  0.00    -0.550 OA
ENDBRANCH   5   6
ENDBRANCH   4   5
ENDBRANCH   3   4
ENDBRANCH   2   3
ENDBRANCH   1   2
BRANCH   1   9
ATOM      9  C   UNL     1     -17.052  15.848  -9.775  1.00  0.00     0.000 C 
BRANCH   9  10
ATOM     10  C   UNL     1     -16.344  14.672 -10.465  1.00  0.00    -0.000 C 
BRANCH  10  11
ATOM     11  C   UNL     1     -15.585  13.768  -9.478  1.00  0.00    -0.000 C 
BRANCH  11  12
ATOM     12  C   UNL     1     -16.288  13.543  -8.123  1.00  0.00    -0.000 C 
BRANCH  12  13
ATOM     13  C   UNL     1     -15.349  13.485  -6.906  1.00  0.00    -0.003 C 
ATOM     14  C   UNL     1     -14.016  12.804  -7.213  1.00  0.00     0.004 C 
ENDBRANCH  12  13
ENDBRANCH  11  12
ENDBRANCH  10  11
ENDBRANCH   9  10
ENDBRANCH   1   9
TORSDOF 10
ENDMDL
MODEL 8
REMARK VINA RESULT:    -2.768      2.442      5.721
REMARK INTER + INTRA:          -4.987
REMARK INTER:                  -4.555
REMARK INTRA:                  -0.431
REMARK UNBOUND:                -0.600
REMARK SMILES CCCCCCCCCCCC(=O)[O-]
REMARK SMILES IDX 7 1 8 2 9 3 10 4 11 5 12 6 13 7 14 8 6 9 5 10 4 11 3 12 2 13
REMARK SMILES IDX 1 14
REMARK H PARENT
REMARK Flexibility Score: inf
ROOT
ATOM      1  C   UNL     1     -14.529  13.128  -8.196  1.00  0.00     0.000 C 
ENDROOT
BRANCH   1   2
ATOM      2  C   UNL     1     -14.900  13.266  -9.682  1.00  0.00     0.000 C 
BRANCH   2   3
ATOM      3  C   UNL     1     -14.561  12.007 -10.496  1.00  0.00     0.000 C 
BRANCH   3   4
ATOM      4  C   UNL     1     -13.879  12.380 -11.821  1.00  0.00     0.006 C 
BRANCH   4   5
ATOM      5  C   UNL     1     -14.644  11.844 -13.039  1.00  0.00     0.053 C 
BRANCH   5   6
ATOM      6  C   UNL     1     -16.122  11.815 -12.799  1.00  0.00     0.041 C 
ATOM      7  O   UNL     1     -16.734  10.717 -12.746  1.00  0.00    -0.550 OA
ATOM      8  O   UNL     1     -16.829  13.004 -12.668  1.00  0.00    -0.550 OA
ENDBRANCH   5   6
ENDBRANCH   4   5
ENDBRANCH   3   4
ENDBRANCH   2   3
ENDBRANCH   1   2
BRANCH   1   9
ATOM      9  C   UNL     1     -15.696  13.474  -7.259  1.00  0.00     0.000 C 
BRANCH   9  10
ATOM     10  C   UNL     1     -15.898  14.995  -7.175  1.00  0.00    -0.000 C 
BRANCH  10  11
ATOM     11  C   UNL     1     -17.116  15.483  -7.980  1.00  0.00    -0.000 C 
BRANCH  11  12
ATOM     12  C   UNL     1     -17.124  16.991  -8.304  1.00  0.00    -0.000 C 
BRANCH  12  13
ATOM     13  C   UNL     1     -15.874  17.504  -9.041  1.00  0.00    -0.003 C 
ATOM     14  C   UNL     1     -16.210  18.421 -10.216  1.00  0.00     0.004 C 
ENDBRANCH  12  13
ENDBRANCH  11  12
ENDBRANCH  10  11
ENDBRANCH   9  10
ENDBRANCH   1   9
TORSDOF 10
ENDMDL
