MODEL 1
REMARK VINA RESULT:    -5.067      0.000      0.000
REMARK INTER + INTRA:          -7.089
REMARK INTER:                  -6.400
REMARK INTRA:                  -0.689
REMARK UNBOUND:                -0.689
REMARK SMILES O=C(C=Cc1ccc(O)cc1)c1ccc(O)cc1O
REMARK SMILES IDX 4 1 3 2 5 3 6 4 7 5 8 6 11 7 10 8 9 9 2 11 1 12 12 13 18 14
REMARK SMILES IDX 13 15 17 16 14 17 15 18 19 19 16 21
REMARK H PARENT 9 10 19 20 16 22
REMARK Flexibility Score: inf
ROOT
ATOM      1  C   UNL     1      49.700 -21.682  13.020  1.00  0.00     0.012 C 
ATOM      2  C   UNL     1      49.652 -22.081  11.740  1.00  0.00     0.053 C 
ENDROOT
BRANCH   1   3
ATOM      3  C   UNL     1      50.384 -20.446  13.471  1.00  0.00    -0.025 A 
ATOM      4  C   UNL     1      49.732 -19.452  14.230  1.00  0.00     0.012 A 
ATOM      5  C   UNL     1      50.418 -18.298  14.621  1.00  0.00     0.047 A 
ATOM      6  C   UNL     1      51.757 -18.114  14.256  1.00  0.00     0.115 A 
ATOM      7  C   UNL     1      51.724 -20.242  13.097  1.00  0.00     0.012 A 
ATOM      8  C   UNL     1      52.405 -19.088  13.491  1.00  0.00     0.047 A 
BRANCH   6   9
ATOM      9  O   UNL     1      52.449 -16.968  14.643  1.00  0.00    -0.508 OA
ATOM     10  H   UNL     1      53.449 -16.984  14.805  1.00  0.00     0.293 HD
ENDBRANCH   6   9
ENDBRANCH   1   3
BRANCH   2  11
ATOM     11  C   UNL     1      48.948 -23.313  11.325  1.00  0.00     0.189 C 
ATOM     12  O   UNL     1      49.605 -24.318  10.936  1.00  0.00    -0.289 OA
BRANCH  11  13
ATOM     13  C   UNL     1      47.470 -23.367  11.329  1.00  0.00     0.064 A 
ATOM     14  C   UNL     1      46.764 -24.548  11.666  1.00  0.00     0.130 A 
ATOM     15  C   UNL     1      46.743 -22.224  10.948  1.00  0.00     0.020 A 
ATOM     16  C   UNL     1      45.366 -24.570  11.584  1.00  0.00     0.093 A 
ATOM     17  C   UNL     1      45.348 -22.255  10.885  1.00  0.00     0.047 A 
ATOM     18  C   UNL     1      44.656 -23.430  11.197  1.00  0.00     0.119 A 
BRANCH  14  19
ATOM     19  O   UNL     1      47.411 -25.702  12.111  1.00  0.00    -0.507 OA
ATOM     20  H   UNL     1      47.145 -26.201  12.951  1.00  0.00     0.293 HD
ENDBRANCH  14  19
BRANCH  18  21
ATOM     21  O   UNL     1      43.266 -23.476  11.130  1.00  0.00    -0.508 OA
ATOM     22  H   UNL     1      42.734 -24.169  11.643  1.00  0.00     0.293 HD
ENDBRANCH  18  21
ENDBRANCH  11  13
ENDBRANCH   2  11
TORSDOF 6
ENDMDL
MODEL 2
REMARK VINA RESULT:    -5.031      0.590      1.255
REMARK INTER + INTRA:          -7.043
REMARK INTER:                  -6.367
REMARK INTRA:                  -0.676
REMARK UNBOUND:                -0.689
REMARK SMILES O=C(C=Cc1ccc(O)cc1)c1ccc(O)cc1O
REMARK SMILES IDX 4 1 3 2 5 3 6 4 7 5 8 6 11 7 10 8 9 9 2 11 1 12 12 13 18 14
REMARK SMILES IDX 13 15 17 16 14 17 15 18 19 19 16 21
REMARK H PARENT 9 10 19 20 16 22
REMARK Flexibility Score: inf
ROOT
ATOM      1  C   UNL     1      49.601 -21.327  13.160  1.00  0.00     0.012 C 
ATOM      2  C   UNL     1      49.402 -21.663  11.877  1.00  0.00     0.053 C 
ENDROOT
BRANCH   1   3
ATOM      3  C   UNL     1      50.101 -20.000  13.594  1.00  0.00    -0.025 A 
ATOM      4  C   UNL     1      51.331 -19.471  13.153  1.00  0.00     0.012 A 
ATOM      5  C   UNL     1      51.765 -18.219  13.602  1.00  0.00     0.047 A 
ATOM      6  C   UNL     1      50.985 -17.482  14.500  1.00  0.00     0.115 A 
ATOM      7  C   UNL     1      49.334 -19.257  14.509  1.00  0.00     0.012 A 
ATOM      8  C   UNL     1      49.771 -18.006  14.953  1.00  0.00     0.047 A 
BRANCH   6   9
ATOM      9  O   UNL     1      51.407 -16.234  14.951  1.00  0.00    -0.508 OA
ATOM     10  H   UNL     1      50.750 -15.480  15.115  1.00  0.00     0.293 HD
ENDBRANCH   6   9
ENDBRANCH   1   3
BRANCH   2  11
ATOM     11  C   UNL     1      48.888 -22.993  11.482  1.00  0.00     0.189 C 
ATOM     12  O   UNL     1      49.690 -23.910  11.152  1.00  0.00    -0.289 OA
BRANCH  11  13
ATOM     13  C   UNL     1      47.432 -23.248  11.438  1.00  0.00     0.064 A 
ATOM     14  C   UNL     1      46.882 -24.509  11.779  1.00  0.00     0.130 A 
ATOM     15  C   UNL     1      46.571 -22.223  11.006  1.00  0.00     0.020 A 
ATOM     16  C   UNL     1      45.505 -24.723  11.651  1.00  0.00     0.093 A 
ATOM     17  C   UNL     1      45.197 -22.446  10.897  1.00  0.00     0.047 A 
ATOM     18  C   UNL     1      44.660 -23.698  11.214  1.00  0.00     0.119 A 
BRANCH  14  19
ATOM     19  O   UNL     1      47.664 -25.555  12.272  1.00  0.00    -0.507 OA
ATOM     20  H   UNL     1      47.280 -26.439  12.580  1.00  0.00     0.293 HD
ENDBRANCH  14  19
BRANCH  18  21
ATOM     21  O   UNL     1      43.293 -23.935  11.101  1.00  0.00    -0.508 OA
ATOM     22  H   UNL     1      42.842 -24.013  10.197  1.00  0.00     0.293 HD
ENDBRANCH  18  21
ENDBRANCH  11  13
ENDBRANCH   2  11
TORSDOF 6
ENDMDL
MODEL 3
REMARK VINA RESULT:    -4.824      8.413     12.649
REMARK INTER + INTRA:          -6.782
REMARK INTER:                  -6.058
REMARK INTRA:                  -0.724
REMARK UNBOUND:                -0.689
REMARK SMILES O=C(C=Cc1ccc(O)cc1)c1ccc(O)cc1O
REMARK SMILES IDX 4 1 3 2 5 3 6 4 7 5 8 6 11 7 10 8 9 9 2 11 1 12 12 13 18 14
REMARK SMILES IDX 13 15 17 16 14 17 15 18 19 19 16 21
REMARK H PARENT 9 10 19 20 16 22
REMARK Flexibility Score: inf
ROOT
ATOM      1  C   UNL     1      39.366 -25.863  17.481  1.00  0.00     0.012 C 
ATOM      2  C   UNL     1      39.871 -26.643  18.448  1.00  0.00     0.053 C 
ENDROOT
BRANCH   1   3
ATOM      3  C   UNL     1      37.981 -25.986  16.965  1.00  0.00    -0.025 A 
ATOM      4  C   UNL     1      37.662 -26.746  15.821  1.00  0.00     0.012 A 
ATOM      5  C   UNL     1      36.341 -26.821  15.367  1.00  0.00     0.047 A 
ATOM      6  C   UNL     1      35.324 -26.133  16.039  1.00  0.00     0.115 A 
ATOM      7  C   UNL     1      36.953 -25.286  17.621  1.00  0.00     0.012 A 
ATOM      8  C   UNL     1      35.635 -25.365  17.164  1.00  0.00     0.047 A 
BRANCH   6   9
ATOM      9  O   UNL     1      34.005 -26.202  15.595  1.00  0.00    -0.508 OA
ATOM     10  H   UNL     1      33.282 -25.612  15.990  1.00  0.00     0.293 HD
ENDBRANCH   6   9
ENDBRANCH   1   3
BRANCH   2  11
ATOM     11  C   UNL     1      41.254 -26.483  18.948  1.00  0.00     0.189 C 
ATOM     12  O   UNL     1      41.499 -26.598  20.181  1.00  0.00    -0.289 OA
BRANCH  11  13
ATOM     13  C   UNL     1      42.353 -26.154  18.015  1.00  0.00     0.064 A 
ATOM     14  C   UNL     1      42.964 -24.875  17.998  1.00  0.00     0.130 A 
ATOM     15  C   UNL     1      42.779 -27.125  17.090  1.00  0.00     0.020 A 
ATOM     16  C   UNL     1      43.950 -24.589  17.046  1.00  0.00     0.093 A 
ATOM     17  C   UNL     1      43.774 -26.831  16.156  1.00  0.00     0.047 A 
ATOM     18  C   UNL     1      44.359 -25.561  16.128  1.00  0.00     0.119 A 
BRANCH  14  19
ATOM     19  O   UNL     1      42.638 -23.881  18.922  1.00  0.00    -0.507 OA
ATOM     20  H   UNL     1      41.903 -23.202  18.773  1.00  0.00     0.293 HD
ENDBRANCH  14  19
BRANCH  18  21
ATOM     21  O   UNL     1      45.347 -25.253  15.196  1.00  0.00    -0.508 OA
ATOM     22  H   UNL     1      46.184 -24.746  15.459  1.00  0.00     0.293 HD
ENDBRANCH  18  21
ENDBRANCH  11  13
ENDBRANCH   2  11
TORSDOF 6
ENDMDL
MODEL 4
REMARK VINA RESULT:    -4.683      1.919      7.395
REMARK INTER + INTRA:          -6.604
REMARK INTER:                  -5.983
REMARK INTRA:                  -0.621
REMARK UNBOUND:                -0.689
REMARK SMILES O=C(C=Cc1ccc(O)cc1)c1ccc(O)cc1O
REMARK SMILES IDX 4 1 3 2 5 3 6 4 7 5 8 6 11 7 10 8 9 9 2 11 1 12 12 13 18 14
REMARK SMILES IDX 13 15 17 16 14 17 15 18 19 19 16 21
REMARK H PARENT 9 10 19 20 16 22
REMARK Flexibility Score: inf
ROOT
ATOM      1  C   UNL     1      49.608 -23.129  13.100  1.00  0.00     0.012 C 
ATOM      2  C   UNL     1      49.761 -21.953  12.474  1.00  0.00     0.053 C 
ENDROOT
BRANCH   1   3
ATOM      3  C   UNL     1      48.443 -24.023  12.898  1.00  0.00    -0.025 A 
ATOM      4  C   UNL     1      47.616 -23.945  11.759  1.00  0.00     0.012 A 
ATOM      5  C   UNL     1      46.520 -24.804  11.620  1.00  0.00     0.047 A 
ATOM      6  C   UNL     1      46.229 -25.743  12.616  1.00  0.00     0.115 A 
ATOM      7  C   UNL     1      48.130 -24.959  13.899  1.00  0.00     0.012 A 
ATOM      8  C   UNL     1      47.035 -25.816  13.755  1.00  0.00     0.047 A 
BRANCH   6   9
ATOM      9  O   UNL     1      45.141 -26.604  12.486  1.00  0.00    -0.508 OA
ATOM     10  H   UNL     1      45.111 -27.495  12.967  1.00  0.00     0.293 HD
ENDBRANCH   6   9
ENDBRANCH   1   3
BRANCH   2  11
ATOM     11  C   UNL     1      50.945 -21.093  12.690  1.00  0.00     0.189 C 
ATOM     12  O   UNL     1      52.085 -21.474  12.304  1.00  0.00    -0.289 OA
BRANCH  11  13
ATOM     13  C   UNL     1      50.810 -19.797  13.389  1.00  0.00     0.064 A 
ATOM     14  C   UNL     1      51.811 -18.796  13.313  1.00  0.00     0.130 A 
ATOM     15  C   UNL     1      49.673 -19.564  14.184  1.00  0.00     0.020 A 
ATOM     16  C   UNL     1      51.670 -17.615  14.051  1.00  0.00     0.093 A 
ATOM     17  C   UNL     1      49.538 -18.375  14.904  1.00  0.00     0.047 A 
ATOM     18  C   UNL     1      50.539 -17.399  14.844  1.00  0.00     0.119 A 
BRANCH  14  19
ATOM     19  O   UNL     1      52.936 -18.928  12.498  1.00  0.00    -0.507 OA
ATOM     20  H   UNL     1      53.625 -19.660  12.615  1.00  0.00     0.293 HD
ENDBRANCH  14  19
BRANCH  18  21
ATOM     21  O   UNL     1      50.420 -16.213  15.564  1.00  0.00    -0.508 OA
ATOM     22  H   UNL     1      49.548 -15.949  16.008  1.00  0.00     0.293 HD
ENDBRANCH  18  21
ENDBRANCH  11  13
ENDBRANCH   2  11
TORSDOF 6
ENDMDL
MODEL 5
REMARK VINA RESULT:    -4.673      2.310      4.220
REMARK INTER + INTRA:          -6.591
REMARK INTER:                  -5.852
REMARK INTRA:                  -0.739
REMARK UNBOUND:                -0.689
REMARK SMILES O=C(C=Cc1ccc(O)cc1)c1ccc(O)cc1O
REMARK SMILES IDX 4 1 3 2 5 3 6 4 7 5 8 6 11 7 10 8 9 9 2 11 1 12 12 13 18 14
REMARK SMILES IDX 13 15 17 16 14 17 15 18 19 19 16 21
REMARK H PARENT 9 10 19 20 16 22
REMARK Flexibility Score: inf
ROOT
ATOM      1  C   UNL     1      49.947 -21.334  13.479  1.00  0.00     0.012 C 
ATOM      2  C   UNL     1      49.152 -21.648  12.446  1.00  0.00     0.053 C 
ENDROOT
BRANCH   1   3
ATOM      3  C   UNL     1      50.288 -19.942  13.861  1.00  0.00    -0.025 A 
ATOM      4  C   UNL     1      51.522 -19.345  13.529  1.00  0.00     0.012 A 
ATOM      5  C   UNL     1      51.802 -18.033  13.923  1.00  0.00     0.047 A 
ATOM      6  C   UNL     1      50.862 -17.301  14.659  1.00  0.00     0.115 A 
ATOM      7  C   UNL     1      49.360 -19.203  14.614  1.00  0.00     0.012 A 
ATOM      8  C   UNL     1      49.643 -17.891  15.005  1.00  0.00     0.047 A 
BRANCH   6   9
ATOM      9  O   UNL     1      51.130 -15.993  15.054  1.00  0.00    -0.508 OA
ATOM     10  H   UNL     1      50.580 -15.532  15.770  1.00  0.00     0.293 HD
ENDBRANCH   6   9
ENDBRANCH   1   3
BRANCH   2  11
ATOM     11  C   UNL     1      48.821 -23.048  12.103  1.00  0.00     0.189 C 
ATOM     12  O   UNL     1      47.627 -23.377  11.863  1.00  0.00    -0.289 OA
BRANCH  11  13
ATOM     13  C   UNL     1      49.880 -24.080  12.072  1.00  0.00     0.064 A 
ATOM     14  C   UNL     1      49.876 -25.186  12.958  1.00  0.00     0.130 A 
ATOM     15  C   UNL     1      50.945 -23.940  11.162  1.00  0.00     0.020 A 
ATOM     16  C   UNL     1      50.939 -26.096  12.938  1.00  0.00     0.093 A 
ATOM     17  C   UNL     1      51.992 -24.864  11.143  1.00  0.00     0.047 A 
ATOM     18  C   UNL     1      51.994 -25.942  12.035  1.00  0.00     0.119 A 
BRANCH  14  19
ATOM     19  O   UNL     1      48.825 -25.426  13.846  1.00  0.00    -0.507 OA
ATOM     20  H   UNL     1      48.029 -26.009  13.620  1.00  0.00     0.293 HD
ENDBRANCH  14  19
BRANCH  18  21
ATOM     21  O   UNL     1      53.037 -26.865  12.032  1.00  0.00    -0.508 OA
ATOM     22  H   UNL     1      53.066 -27.634  12.692  1.00  0.00     0.293 HD
ENDBRANCH  18  21
ENDBRANCH  11  13
ENDBRANCH   2  11
TORSDOF 6
ENDMDL
MODEL 6
REMARK VINA RESULT:    -4.661      1.818      2.338
REMARK INTER + INTRA:          -6.575
REMARK INTER:                  -5.985
REMARK INTRA:                  -0.591
REMARK UNBOUND:                -0.689
REMARK SMILES O=C(C=Cc1ccc(O)cc1)c1ccc(O)cc1O
REMARK SMILES IDX 4 1 3 2 5 3 6 4 7 5 8 6 11 7 10 8 9 9 2 11 1 12 12 13 18 14
REMARK SMILES IDX 13 15 17 16 14 17 15 18 19 19 16 21
REMARK H PARENT 9 10 19 20 16 22
REMARK Flexibility Score: inf
ROOT
ATOM      1  C   UNL     1      49.922 -21.377  13.381  1.00  0.00     0.012 C 
ATOM      2  C   UNL     1      50.844 -22.221  12.895  1.00  0.00     0.053 C 
ENDROOT
BRANCH   1   3
ATOM      3  C   UNL     1      50.227 -20.000  13.839  1.00  0.00    -0.025 A 
ATOM      4  C   UNL     1      49.327 -19.242  14.616  1.00  0.00     0.012 A 
ATOM      5  C   UNL     1      49.656 -17.942  15.013  1.00  0.00     0.047 A 
ATOM      6  C   UNL     1      50.880 -17.377  14.635  1.00  0.00     0.115 A 
ATOM      7  C   UNL     1      51.445 -19.416  13.452  1.00  0.00     0.012 A 
ATOM      8  C   UNL     1      51.770 -18.117  13.853  1.00  0.00     0.047 A 
BRANCH   6   9
ATOM      9  O   UNL     1      51.218 -16.084  15.028  1.00  0.00    -0.508 OA
ATOM     10  H   UNL     1      51.099 -15.773  15.985  1.00  0.00     0.293 HD
ENDBRANCH   6   9
ENDBRANCH   1   3
BRANCH   2  11
ATOM     11  C   UNL     1      50.500 -23.583  12.433  1.00  0.00     0.189 C 
ATOM     12  O   UNL     1      51.333 -24.254  11.762  1.00  0.00    -0.289 OA
BRANCH  11  13
ATOM     13  C   UNL     1      49.169 -24.158  12.724  1.00  0.00     0.064 A 
ATOM     14  C   UNL     1      48.877 -24.783  13.962  1.00  0.00     0.130 A 
ATOM     15  C   UNL     1      48.175 -24.118  11.730  1.00  0.00     0.020 A 
ATOM     16  C   UNL     1      47.626 -25.377  14.163  1.00  0.00     0.093 A 
ATOM     17  C   UNL     1      46.925 -24.701  11.949  1.00  0.00     0.047 A 
ATOM     18  C   UNL     1      46.648 -25.337  13.164  1.00  0.00     0.119 A 
BRANCH  14  19
ATOM     19  O   UNL     1      49.791 -24.808  15.018  1.00  0.00    -0.507 OA
ATOM     20  H   UNL     1      49.753 -24.169  15.801  1.00  0.00     0.293 HD
ENDBRANCH  14  19
BRANCH  18  21
ATOM     21  O   UNL     1      45.409 -25.930  13.391  1.00  0.00    -0.508 OA
ATOM     22  H   UNL     1      45.327 -26.818  13.872  1.00  0.00     0.293 HD
ENDBRANCH  18  21
ENDBRANCH  11  13
ENDBRANCH   2  11
TORSDOF 6
ENDMDL
MODEL 7
REMARK VINA RESULT:    -4.651      2.296      3.128
REMARK INTER + INTRA:          -6.564
REMARK INTER:                  -5.828
REMARK INTRA:                  -0.736
REMARK UNBOUND:                -0.689
REMARK SMILES O=C(C=Cc1ccc(O)cc1)c1ccc(O)cc1O
REMARK SMILES IDX 4 1 3 2 5 3 6 4 7 5 8 6 11 7 10 8 9 9 2 11 1 12 12 13 18 14
REMARK SMILES IDX 13 15 17 16 14 17 15 18 19 19 16 21
REMARK H PARENT 9 10 19 20 16 22
REMARK Flexibility Score: inf
ROOT
ATOM      1  C   UNL     1      49.948 -21.406  13.141  1.00  0.00     0.012 C 
ATOM      2  C   UNL     1      50.887 -22.291  12.776  1.00  0.00     0.053 C 
ENDROOT
BRANCH   1   3
ATOM      3  C   UNL     1      50.253 -20.053  13.666  1.00  0.00    -0.025 A 
ATOM      4  C   UNL     1      49.374 -19.354  14.518  1.00  0.00     0.012 A 
ATOM      5  C   UNL     1      49.701 -18.074  14.976  1.00  0.00     0.047 A 
ATOM      6  C   UNL     1      50.903 -17.471  14.587  1.00  0.00     0.115 A 
ATOM      7  C   UNL     1      51.449 -19.430  13.268  1.00  0.00     0.012 A 
ATOM      8  C   UNL     1      51.772 -18.151  13.730  1.00  0.00     0.047 A 
BRANCH   6   9
ATOM      9  O   UNL     1      51.239 -16.197  15.040  1.00  0.00    -0.508 OA
ATOM     10  H   UNL     1      50.657 -15.393  14.838  1.00  0.00     0.293 HD
ENDBRANCH   6   9
ENDBRANCH   1   3
BRANCH   2  11
ATOM     11  C   UNL     1      50.546 -23.628  12.242  1.00  0.00     0.189 C 
ATOM     12  O   UNL     1      51.008 -24.004  11.130  1.00  0.00    -0.289 OA
BRANCH  11  13
ATOM     13  C   UNL     1      49.635 -24.521  12.990  1.00  0.00     0.064 A 
ATOM     14  C   UNL     1      48.308 -24.772  12.558  1.00  0.00     0.130 A 
ATOM     15  C   UNL     1      50.083 -25.108  14.188  1.00  0.00     0.020 A 
ATOM     16  C   UNL     1      47.461 -25.566  13.339  1.00  0.00     0.093 A 
ATOM     17  C   UNL     1      49.232 -25.911  14.950  1.00  0.00     0.047 A 
ATOM     18  C   UNL     1      47.917 -26.138  14.531  1.00  0.00     0.119 A 
BRANCH  14  19
ATOM     19  O   UNL     1      47.812 -24.275  11.351  1.00  0.00    -0.507 OA
ATOM     20  H   UNL     1      48.231 -23.500  10.854  1.00  0.00     0.293 HD
ENDBRANCH  14  19
BRANCH  18  21
ATOM     21  O   UNL     1      47.056 -26.929  15.287  1.00  0.00    -0.508 OA
ATOM     22  H   UNL     1      46.098 -27.094  14.999  1.00  0.00     0.293 HD
ENDBRANCH  18  21
ENDBRANCH  11  13
ENDBRANCH   2  11
TORSDOF 6
ENDMDL
