MODEL 1
REMARK VINA RESULT:    -2.706      0.000      0.000
REMARK INTER + INTRA:          -4.277
REMARK INTER:                  -4.130
REMARK INTRA:                  -0.147
REMARK UNBOUND:                -0.147
REMARK SMILES CC1=CCC[C@@H](C)C(=O)C[C@H](C(C)C)C(=O)C1
REMARK SMILES IDX 8 1 9 2 6 3 7 4 5 5 4 6 3 7 2 8 1 9 10 11 11 12 15 13 16 14
REMARK SMILES IDX 17 15 12 17 13 18 14 19
REMARK H PARENT
REMARK Flexibility Score: 70.00
ROOT
ATOM      1  C   UNL     1     187.739 201.656 209.723  1.00  0.00     0.136 C 
ATOM      2  O   UNL     1     187.621 202.311 208.696  1.00  0.00    -0.299 OA
ENDROOT
BRANCH   1   3
ATOM      3  C   UNL     1     186.557 200.874 210.260  1.00  0.00     0.053 C 
ATOM      4  C   UNL     1     185.868 200.140 209.106  1.00  0.00     0.016 C 
BRANCH   3   5
ATOM      5  C   UNL     1     185.547 201.788 210.993  1.00  0.00     0.015 C 
BRANCH   5   6
ATOM      6  C   UNL     1     185.740 201.807 212.517  1.00  0.00     0.028 C 
BRANCH   6   7
ATOM      7  C   UNL     1     186.229 200.471 213.025  1.00  0.00    -0.028 C 
ATOM      8  C   UNL     1     187.379 200.257 213.704  1.00  0.00    -0.070 CG0
ATOM      9  C   UNL     1     187.698 198.843 214.122  1.00  0.00     0.039 C 
ATOM     10  G   UNL     1     188.374 201.353 214.029  1.00  0.00     0.000 G0
ENDBRANCH   6   7
ENDBRANCH   5   6
ENDBRANCH   3   5
ENDBRANCH   1   3
BRANCH   1  11
ATOM     11  C   UNL     1     189.079 201.610 210.410  1.00  0.00     0.087 C 
BRANCH  11  12
ATOM     12  C   UNL     1     189.086 202.440 211.719  1.00  0.00     0.066 C 
BRANCH  12  13
ATOM     13  C   UNL     1     189.365 201.516 212.894  1.00  0.00     0.140 C 
ATOM     14  O   UNL     1     190.448 200.953 212.971  1.00  0.00    -0.299 OA
BRANCH  13  15
ATOM     15  C   UNL     1     188.375 201.351 214.019  1.00  0.00     0.106 CG0
ATOM     16  G   UNL     1     187.356 200.275 213.694  1.00  0.00     0.000 G0
ENDBRANCH  13  15
ENDBRANCH  12  13
BRANCH  12  17
ATOM     17  C   UNL     1     190.132 203.603 211.681  1.00  0.00    -0.006 C 
ATOM     18  C   UNL     1     189.830 204.621 210.562  1.00  0.00     0.008 C 
ATOM     19  C   UNL     1     190.188 204.357 213.025  1.00  0.00     0.008 C 
ENDBRANCH  12  17
ENDBRANCH  11  12
ENDBRANCH   1  11
TORSDOF 1
ENDMDL
MODEL 2
REMARK VINA RESULT:    -2.572      2.003      4.244
REMARK INTER + INTRA:          -4.071
REMARK INTER:                  -3.837
REMARK INTRA:                  -0.234
REMARK UNBOUND:                -0.147
REMARK SMILES CC1=CCC[C@@H](C)C(=O)C[C@H](C(C)C)C(=O)C1
REMARK SMILES IDX 8 1 9 2 6 3 7 4 5 5 4 6 3 7 2 8 1 9 10 11 11 12 15 13 16 14
REMARK SMILES IDX 17 15 12 17 13 18 14 19
REMARK H PARENT
REMARK Flexibility Score: 70.00
ROOT
ATOM      1  C   UNL     1     188.369 202.796 211.009  1.00  0.00     0.136 C 
ATOM      2  O   UNL     1     187.734 203.021 209.987  1.00  0.00    -0.299 OA
ENDROOT
BRANCH   1   3
ATOM      3  C   UNL     1     189.816 203.235 211.111  1.00  0.00     0.053 C 
ATOM      4  C   UNL     1     189.914 204.735 210.816  1.00  0.00     0.016 C 
BRANCH   3   5
ATOM      5  C   UNL     1     190.728 202.439 210.149  1.00  0.00     0.015 C 
BRANCH   5   6
ATOM      6  C   UNL     1     190.623 200.917 210.332  1.00  0.00     0.028 C 
BRANCH   6   7
ATOM      7  C   UNL     1     190.960 200.510 211.747  1.00  0.00    -0.028 C 
ATOM      8  C   UNL     1     190.254 199.643 212.509  1.00  0.00    -0.070 CG0
ATOM      9  C   UNL     1     190.749 199.368 213.907  1.00  0.00     0.039 C 
ATOM     10  G   UNL     1     188.977 198.970 212.044  1.00  0.00     0.000 G0
ENDBRANCH   6   7
ENDBRANCH   5   6
ENDBRANCH   3   5
ENDBRANCH   1   3
BRANCH   1  11
ATOM     11  C   UNL     1     187.677 202.122 212.165  1.00  0.00     0.087 C 
BRANCH  11  12
ATOM     12  C   UNL     1     187.064 200.758 211.755  1.00  0.00     0.066 C 
BRANCH  12  13
ATOM     13  C   UNL     1     187.728 199.651 212.559  1.00  0.00     0.140 C 
ATOM     14  O   UNL     1     187.210 199.272 213.600  1.00  0.00    -0.299 OA
BRANCH  13  15
ATOM     15  C   UNL     1     188.960 198.942 212.056  1.00  0.00     0.106 CG0
ATOM     16  G   UNL     1     190.221 199.639 212.528  1.00  0.00     0.000 G0
ENDBRANCH  13  15
ENDBRANCH  12  13
BRANCH  12  17
ATOM     17  C   UNL     1     185.513 200.719 211.952  1.00  0.00    -0.006 C 
ATOM     18  C   UNL     1     184.876 202.118 211.837  1.00  0.00     0.008 C 
ATOM     19  C   UNL     1     184.836 199.788 210.925  1.00  0.00     0.008 C 
ENDBRANCH  12  17
ENDBRANCH  11  12
ENDBRANCH   1  11
TORSDOF 1
ENDMDL
MODEL 3
REMARK VINA RESULT:    -2.424      2.452      4.562
REMARK INTER + INTRA:          -3.845
REMARK INTER:                  -3.681
REMARK INTRA:                  -0.165
REMARK UNBOUND:                -0.147
REMARK SMILES CC1=CCC[C@@H](C)C(=O)C[C@H](C(C)C)C(=O)C1
REMARK SMILES IDX 8 1 9 2 6 3 7 4 5 5 4 6 3 7 2 8 1 9 10 11 11 12 15 13 16 14
REMARK SMILES IDX 17 15 12 17 13 18 14 19
REMARK H PARENT
REMARK Flexibility Score: 70.00
ROOT
ATOM      1  C   UNL     1     185.634 201.371 211.323  1.00  0.00     0.136 C 
ATOM      2  O   UNL     1     185.043 202.389 210.993  1.00  0.00    -0.299 OA
ENDROOT
BRANCH   1   3
ATOM      3  C   UNL     1     186.598 201.401 212.492  1.00  0.00     0.053 C 
ATOM      4  C   UNL     1     185.858 201.870 213.748  1.00  0.00     0.016 C 
BRANCH   3   5
ATOM      5  C   UNL     1     187.813 202.317 212.213  1.00  0.00     0.015 C 
BRANCH   5   6
ATOM      6  C   UNL     1     189.108 201.539 211.931  1.00  0.00     0.028 C 
BRANCH   6   7
ATOM      7  C   UNL     1     189.113 200.207 212.644  1.00  0.00    -0.028 C 
ATOM      8  C   UNL     1     188.981 198.996 212.055  1.00  0.00    -0.070 CG0
ATOM      9  C   UNL     1     189.004 197.775 212.940  1.00  0.00     0.039 C 
ATOM     10  G   UNL     1     188.771 198.810 210.565  1.00  0.00     0.000 G0
ENDBRANCH   6   7
ENDBRANCH   5   6
ENDBRANCH   3   5
ENDBRANCH   1   3
BRANCH   1  11
ATOM     11  C   UNL     1     185.355 200.090 210.579  1.00  0.00     0.087 C 
BRANCH  11  12
ATOM     12  C   UNL     1     186.501 199.731 209.599  1.00  0.00     0.066 C 
BRANCH  12  13
ATOM     13  C   UNL     1     187.328 198.601 210.192  1.00  0.00     0.140 C 
ATOM     14  O   UNL     1     186.828 197.491 210.313  1.00  0.00    -0.299 OA
BRANCH  13  15
ATOM     15  C   UNL     1     188.781 198.790 210.547  1.00  0.00     0.106 CG0
ATOM     16  G   UNL     1     188.954 199.004 212.038  1.00  0.00     0.000 G0
ENDBRANCH  13  15
ENDBRANCH  12  13
BRANCH  12  17
ATOM     17  C   UNL     1     185.970 199.332 208.182  1.00  0.00    -0.006 C 
ATOM     18  C   UNL     1     184.432 199.230 208.144  1.00  0.00     0.008 C 
ATOM     19  C   UNL     1     186.420 200.340 207.106  1.00  0.00     0.008 C 
ENDBRANCH  12  17
ENDBRANCH  11  12
ENDBRANCH   1  11
TORSDOF 1
ENDMDL
MODEL 4
REMARK VINA RESULT:    -2.398      2.112      5.170
REMARK INTER + INTRA:          -3.806
REMARK INTER:                  -3.437
REMARK INTRA:                  -0.370
REMARK UNBOUND:                -0.147
REMARK SMILES CC1=CCC[C@@H](C)C(=O)C[C@H](C(C)C)C(=O)C1
REMARK SMILES IDX 8 1 9 2 6 3 7 4 5 5 4 6 3 7 2 8 1 9 10 11 11 12 15 13 16 14
REMARK SMILES IDX 17 15 12 17 13 18 14 19
REMARK H PARENT
REMARK Flexibility Score: 70.00
ROOT
ATOM      1  C   UNL     1     188.989 200.675 212.890  1.00  0.00     0.136 C 
ATOM      2  O   UNL     1     188.351 200.427 213.904  1.00  0.00    -0.299 OA
ENDROOT
BRANCH   1   3
ATOM      3  C   UNL     1     190.462 201.014 212.988  1.00  0.00     0.053 C 
ATOM      4  C   UNL     1     191.207 199.856 213.660  1.00  0.00     0.016 C 
BRANCH   3   5
ATOM      5  C   UNL     1     190.700 202.328 213.767  1.00  0.00     0.015 C 
BRANCH   5   6
ATOM      6  C   UNL     1     190.157 203.570 213.044  1.00  0.00     0.028 C 
BRANCH   6   7
ATOM      7  C   UNL     1     190.774 203.721 211.674  1.00  0.00    -0.028 C 
ATOM      8  C   UNL     1     190.096 203.920 210.520  1.00  0.00    -0.070 CG0
ATOM      9  C   UNL     1     190.894 204.039 209.245  1.00  0.00     0.039 C 
ATOM     10  G   UNL     1     188.584 203.991 210.441  1.00  0.00     0.000 G0
ENDBRANCH   6   7
ENDBRANCH   5   6
ENDBRANCH   3   5
ENDBRANCH   1   3
BRANCH   1  11
ATOM     11  C   UNL     1     188.297 200.592 211.554  1.00  0.00     0.087 C 
BRANCH  11  12
ATOM     12  C   UNL     1     187.373 201.812 211.307  1.00  0.00     0.066 C 
BRANCH  12  13
ATOM     13  C   UNL     1     187.943 202.647 210.170  1.00  0.00     0.140 C 
ATOM     14  O   UNL     1     187.828 202.251 209.019  1.00  0.00    -0.299 OA
BRANCH  13  15
ATOM     15  C   UNL     1     188.562 203.999 210.420  1.00  0.00     0.106 CG0
ATOM     16  G   UNL     1     190.072 203.896 210.518  1.00  0.00     0.000 G0
ENDBRANCH  13  15
ENDBRANCH  12  13
BRANCH  12  17
ATOM     17  C   UNL     1     185.901 201.389 210.987  1.00  0.00    -0.006 C 
ATOM     18  C   UNL     1     185.608 199.936 211.410  1.00  0.00     0.008 C 
ATOM     19  C   UNL     1     184.883 202.316 211.682  1.00  0.00     0.008 C 
ENDBRANCH  12  17
ENDBRANCH  11  12
ENDBRANCH   1  11
TORSDOF 1
ENDMDL
MODEL 5
REMARK VINA RESULT:    -2.398      2.503      3.818
REMARK INTER + INTRA:          -3.805
REMARK INTER:                  -3.461
REMARK INTRA:                  -0.344
REMARK UNBOUND:                -0.147
REMARK SMILES CC1=CCC[C@@H](C)C(=O)C[C@H](C(C)C)C(=O)C1
REMARK SMILES IDX 8 1 9 2 6 3 7 4 5 5 4 6 3 7 2 8 1 9 10 11 11 12 15 13 16 14
REMARK SMILES IDX 17 15 12 17 13 18 14 19
REMARK H PARENT
REMARK Flexibility Score: 70.00
ROOT
ATOM      1  C   UNL     1     186.824 202.002 211.978  1.00  0.00     0.136 C 
ATOM      2  O   UNL     1     186.662 201.972 213.190  1.00  0.00    -0.299 OA
ENDROOT
BRANCH   1   3
ATOM      3  C   UNL     1     185.824 201.325 211.064  1.00  0.00     0.053 C 
ATOM      4  C   UNL     1     184.415 201.832 211.388  1.00  0.00     0.016 C 
BRANCH   3   5
ATOM      5  C   UNL     1     185.880 199.784 211.189  1.00  0.00     0.015 C 
BRANCH   5   6
ATOM      6  C   UNL     1     187.014 199.149 210.368  1.00  0.00     0.028 C 
BRANCH   6   7
ATOM      7  C   UNL     1     187.123 199.783 209.002  1.00  0.00    -0.028 C 
ATOM      8  C   UNL     1     188.242 200.327 208.471  1.00  0.00    -0.070 CG0
ATOM      9  C   UNL     1     188.150 200.921 207.088  1.00  0.00     0.039 C 
ATOM     10  G   UNL     1     189.565 200.404 209.208  1.00  0.00     0.000 G0
ENDBRANCH   6   7
ENDBRANCH   5   6
ENDBRANCH   3   5
ENDBRANCH   1   3
BRANCH   1  11
ATOM     11  C   UNL     1     188.003 202.756 211.418  1.00  0.00     0.087 C 
BRANCH  11  12
ATOM     12  C   UNL     1     189.283 201.882 211.382  1.00  0.00     0.066 C 
BRANCH  12  13
ATOM     13  C   UNL     1     189.741 201.728 209.939  1.00  0.00     0.140 C 
ATOM     14  O   UNL     1     190.311 202.660 209.388  1.00  0.00    -0.299 OA
BRANCH  13  15
ATOM     15  C   UNL     1     189.595 200.422 209.201  1.00  0.00     0.106 CG0
ATOM     16  G   UNL     1     188.260 200.346 208.487  1.00  0.00     0.000 G0
ENDBRANCH  13  15
ENDBRANCH  12  13
BRANCH  12  17
ATOM     17  C   UNL     1     190.434 202.476 212.258  1.00  0.00    -0.006 C 
ATOM     18  C   UNL     1     190.249 203.984 212.519  1.00  0.00     0.008 C 
ATOM     19  C   UNL     1     190.538 201.754 213.617  1.00  0.00     0.008 C 
ENDBRANCH  12  17
ENDBRANCH  11  12
ENDBRANCH   1  11
TORSDOF 1
ENDMDL
MODEL 6
REMARK VINA RESULT:    -2.317      1.556      2.079
REMARK INTER + INTRA:          -3.682
REMARK INTER:                  -3.553
REMARK INTRA:                  -0.129
REMARK UNBOUND:                -0.147
REMARK SMILES CC1=CCC[C@@H](C)C(=O)C[C@H](C(C)C)C(=O)C1
REMARK SMILES IDX 8 1 9 2 6 3 7 4 5 5 4 6 3 7 2 8 1 9 10 11 11 12 15 13 16 14
REMARK SMILES IDX 17 15 12 17 13 18 14 19
REMARK H PARENT
REMARK Flexibility Score: 70.00
ROOT
ATOM      1  C   UNL     1     188.694 202.920 210.608  1.00  0.00     0.136 C 
ATOM      2  O   UNL     1     188.805 204.115 210.373  1.00  0.00    -0.299 OA
ENDROOT
BRANCH   1   3
ATOM      3  C   UNL     1     187.433 202.184 210.202  1.00  0.00     0.053 C 
ATOM      4  C   UNL     1     186.368 202.367 211.287  1.00  0.00     0.016 C 
BRANCH   3   5
ATOM      5  C   UNL     1     187.697 200.680 209.958  1.00  0.00     0.015 C 
BRANCH   5   6
ATOM      6  C   UNL     1     186.935 199.765 210.929  1.00  0.00     0.028 C 
BRANCH   6   7
ATOM      7  C   UNL     1     187.870 198.803 211.623  1.00  0.00    -0.028 C 
ATOM      8  C   UNL     1     188.531 199.039 212.780  1.00  0.00    -0.070 CG0
ATOM      9  C   UNL     1     189.429 197.952 213.314  1.00  0.00     0.039 C 
ATOM     10  G   UNL     1     188.444 200.349 213.539  1.00  0.00     0.000 G0
ENDBRANCH   6   7
ENDBRANCH   5   6
ENDBRANCH   3   5
ENDBRANCH   1   3
BRANCH   1  11
ATOM     11  C   UNL     1     189.842 202.195 211.262  1.00  0.00     0.087 C 
BRANCH  11  12
ATOM     12  C   UNL     1     189.880 202.436 212.792  1.00  0.00     0.066 C 
BRANCH  12  13
ATOM     13  C   UNL     1     189.767 201.100 213.511  1.00  0.00     0.140 C 
ATOM     14  O   UNL     1     190.732 200.666 214.125  1.00  0.00    -0.299 OA
BRANCH  13  15
ATOM     15  C   UNL     1     188.465 200.343 213.566  1.00  0.00     0.106 CG0
ATOM     16  G   UNL     1     188.544 199.063 212.756  1.00  0.00     0.000 G0
ENDBRANCH  13  15
ENDBRANCH  12  13
BRANCH  12  17
ATOM     17  C   UNL     1     191.174 203.190 213.244  1.00  0.00    -0.006 C 
ATOM     18  C   UNL     1     192.344 202.977 212.264  1.00  0.00     0.008 C 
ATOM     19  C   UNL     1     190.925 204.705 213.386  1.00  0.00     0.008 C 
ENDBRANCH  12  17
ENDBRANCH  11  12
ENDBRANCH   1  11
TORSDOF 1
ENDMDL
MODEL 7
REMARK VINA RESULT:    -2.245      2.465      4.266
REMARK INTER + INTRA:          -3.573
REMARK INTER:                  -3.313
REMARK INTRA:                  -0.260
REMARK UNBOUND:                -0.147
REMARK SMILES CC1=CCC[C@@H](C)C(=O)C[C@H](C(C)C)C(=O)C1
REMARK SMILES IDX 8 1 9 2 6 3 7 4 5 5 4 6 3 7 2 8 1 9 10 11 11 12 15 13 16 14
REMARK SMILES IDX 17 15 12 17 13 18 14 19
REMARK H PARENT
REMARK Flexibility Score: 70.00
ROOT
ATOM      1  C   UNL     1     188.919 199.175 212.412  1.00  0.00     0.136 C 
ATOM      2  O   UNL     1     190.133 199.093 212.538  1.00  0.00    -0.299 OA
ENDROOT
BRANCH   1   3
ATOM      3  C   UNL     1     188.117 197.955 212.005  1.00  0.00     0.053 C 
ATOM      4  C   UNL     1     188.291 196.858 213.060  1.00  0.00     0.016 C 
BRANCH   3   5
ATOM      5  C   UNL     1     188.536 197.429 210.612  1.00  0.00     0.015 C 
BRANCH   5   6
ATOM      6  C   UNL     1     187.684 197.998 209.467  1.00  0.00     0.028 C 
BRANCH   6   7
ATOM      7  C   UNL     1     186.222 198.043 209.842  1.00  0.00    -0.028 C 
ATOM      8  C   UNL     1     185.470 199.162 209.956  1.00  0.00    -0.070 CG0
ATOM      9  C   UNL     1     184.023 199.002 210.349  1.00  0.00     0.039 C 
ATOM     10  G   UNL     1     186.017 200.561 209.747  1.00  0.00     0.000 G0
ENDBRANCH   6   7
ENDBRANCH   5   6
ENDBRANCH   3   5
ENDBRANCH   1   3
BRANCH   1  11
ATOM     11  C   UNL     1     188.240 200.487 212.709  1.00  0.00     0.087 C 
BRANCH  11  12
ATOM     12  C   UNL     1     187.958 201.296 211.417  1.00  0.00     0.066 C 
BRANCH  12  13
ATOM     13  C   UNL     1     186.482 201.183 211.070  1.00  0.00     0.140 C 
ATOM     14  O   UNL     1     185.649 201.667 211.825  1.00  0.00    -0.299 OA
BRANCH  13  15
ATOM     15  C   UNL     1     186.022 200.573 209.771  1.00  0.00     0.106 CG0
ATOM     16  G   UNL     1     185.488 199.170 209.986  1.00  0.00     0.000 G0
ENDBRANCH  13  15
ENDBRANCH  12  13
BRANCH  12  17
ATOM     17  C   UNL     1     188.372 202.799 211.553  1.00  0.00    -0.006 C 
ATOM     18  C   UNL     1     189.517 202.998 212.566  1.00  0.00     0.008 C 
ATOM     19  C   UNL     1     188.811 203.389 210.198  1.00  0.00     0.008 C 
ENDBRANCH  12  17
ENDBRANCH  11  12
ENDBRANCH   1  11
TORSDOF 1
ENDMDL
MODEL 8
REMARK VINA RESULT:    -2.197      2.339      3.582
REMARK INTER + INTRA:          -3.499
REMARK INTER:                  -3.427
REMARK INTRA:                  -0.073
REMARK UNBOUND:                -0.147
REMARK SMILES CC1=CCC[C@@H](C)C(=O)C[C@H](C(C)C)C(=O)C1
REMARK SMILES IDX 8 1 9 2 6 3 7 4 5 5 4 6 3 7 2 8 1 9 10 11 11 12 15 13 16 14
REMARK SMILES IDX 17 15 12 17 13 18 14 19
REMARK H PARENT
REMARK Flexibility Score: 70.00
ROOT
ATOM      1  C   UNL     1     187.935 199.786 209.866  1.00  0.00     0.136 C 
ATOM      2  O   UNL     1     186.982 199.828 209.101  1.00  0.00    -0.299 OA
ENDROOT
BRANCH   1   3
ATOM      3  C   UNL     1     188.926 198.644 209.777  1.00  0.00     0.053 C 
ATOM      4  C   UNL     1     189.485 198.566 208.353  1.00  0.00     0.016 C 
BRANCH   3   5
ATOM      5  C   UNL     1     188.286 197.294 210.175  1.00  0.00     0.015 C 
BRANCH   5   6
ATOM      6  C   UNL     1     188.254 197.061 211.693  1.00  0.00     0.028 C 
BRANCH   6   7
ATOM      7  C   UNL     1     189.538 197.515 212.345  1.00  0.00    -0.028 C 
ATOM      8  C   UNL     1     189.639 198.417 213.347  1.00  0.00    -0.070 CG0
ATOM      9  C   UNL     1     191.018 198.748 213.863  1.00  0.00     0.039 C 
ATOM     10  G   UNL     1     188.447 199.138 213.947  1.00  0.00     0.000 G0
ENDBRANCH   6   7
ENDBRANCH   5   6
ENDBRANCH   3   5
ENDBRANCH   1   3
BRANCH   1  11
ATOM     11  C   UNL     1     188.125 200.904 210.858  1.00  0.00     0.087 C 
BRANCH  11  12
ATOM     12  C   UNL     1     187.286 200.684 212.143  1.00  0.00     0.066 C 
BRANCH  12  13
ATOM     13  C   UNL     1     188.224 200.494 213.325  1.00  0.00     0.140 C 
ATOM     14  O   UNL     1     188.762 201.472 213.827  1.00  0.00    -0.299 OA
BRANCH  13  15
ATOM     15  C   UNL     1     188.434 199.141 213.955  1.00  0.00     0.106 CG0
ATOM     16  G   UNL     1     189.629 198.435 213.344  1.00  0.00     0.000 G0
ENDBRANCH  13  15
ENDBRANCH  12  13
BRANCH  12  17
ATOM     17  C   UNL     1     186.296 201.864 212.417  1.00  0.00    -0.006 C 
ATOM     18  C   UNL     1     185.111 201.871 211.432  1.00  0.00     0.008 C 
ATOM     19  C   UNL     1     185.737 201.811 213.854  1.00  0.00     0.008 C 
ENDBRANCH  12  17
ENDBRANCH  11  12
ENDBRANCH   1  11
TORSDOF 1
ENDMDL
MODEL 9
REMARK VINA RESULT:    -2.065      1.978      4.246
REMARK INTER + INTRA:          -3.297
REMARK INTER:                  -3.546
REMARK INTRA:                   0.248
REMARK UNBOUND:                -0.147
REMARK SMILES CC1=CCC[C@@H](C)C(=O)C[C@H](C(C)C)C(=O)C1
REMARK SMILES IDX 8 1 9 2 6 3 7 4 5 5 4 6 3 7 2 8 1 9 10 11 11 12 15 13 16 14
REMARK SMILES IDX 17 15 12 17 13 18 14 19
REMARK H PARENT
REMARK Flexibility Score: 70.00
ROOT
ATOM      1  C   UNL     1     187.412 201.280 210.038  1.00  0.00     0.136 C 
ATOM      2  O   UNL     1     187.285 200.065 210.105  1.00  0.00    -0.299 OA
ENDROOT
BRANCH   1   3
ATOM      3  C   UNL     1     187.643 201.942 208.695  1.00  0.00     0.053 C 
ATOM      4  C   UNL     1     187.708 200.869 207.604  1.00  0.00     0.016 C 
BRANCH   3   5
ATOM      5  C   UNL     1     188.933 202.793 208.686  1.00  0.00     0.015 C 
BRANCH   5   6
ATOM      6  C   UNL     1     190.124 202.098 209.365  1.00  0.00     0.028 C 
BRANCH   6   7
ATOM      7  C   UNL     1     191.062 203.103 209.991  1.00  0.00    -0.028 C 
ATOM      8  C   UNL     1     190.784 203.882 211.061  1.00  0.00    -0.070 CG0
ATOM      9  C   UNL     1     191.853 204.835 211.537  1.00  0.00     0.039 C 
ATOM     10  G   UNL     1     189.448 203.873 211.777  1.00  0.00     0.000 G0
ENDBRANCH   6   7
ENDBRANCH   5   6
ENDBRANCH   3   5
ENDBRANCH   1   3
BRANCH   1  11
ATOM     11  C   UNL     1     187.293 202.097 211.298  1.00  0.00     0.087 C 
BRANCH  11  12
ATOM     12  C   UNL     1     188.253 201.593 212.406  1.00  0.00     0.066 C 
BRANCH  12  13
ATOM     13  C   UNL     1     189.309 202.655 212.673  1.00  0.00     0.140 C 
ATOM     14  O   UNL     1     190.121 202.482 213.572  1.00  0.00    -0.299 OA
BRANCH  13  15
ATOM     15  C   UNL     1     189.440 203.874 211.795  1.00  0.00     0.106 CG0
ATOM     16  G   UNL     1     190.765 203.875 211.059  1.00  0.00     0.000 G0
ENDBRANCH  13  15
ENDBRANCH  12  13
BRANCH  12  17
ATOM     17  C   UNL     1     187.499 201.231 213.728  1.00  0.00    -0.006 C 
ATOM     18  C   UNL     1     186.060 201.785 213.748  1.00  0.00     0.008 C 
ATOM     19  C   UNL     1     187.439 199.705 213.944  1.00  0.00     0.008 C 
ENDBRANCH  12  17
ENDBRANCH  11  12
ENDBRANCH   1  11
TORSDOF 1
ENDMDL
