MODEL 1
REMARK VINA RESULT:    -5.538      0.000      0.000
REMARK INTER + INTRA:         -10.775
REMARK INTER:                  -9.746
REMARK INTRA:                  -1.029
REMARK UNBOUND:                -1.029
REMARK SMILES CCCCCCCCCCCCCCC(=O)[O-]
REMARK SMILES IDX 9 1 10 2 11 3 12 4 13 5 14 6 15 7 16 8 17 9 8 10 7 11 6 12
REMARK SMILES IDX 5 13 4 14 3 15 2 16 1 17
REMARK H PARENT
REMARK Flexibility Score: inf
ROOT
ATOM      1  C   UNL     1       5.192 -34.273  20.139  1.00  0.00     0.000 C 
ENDROOT
BRANCH   1   2
ATOM      2  C   UNL     1       4.090 -33.895  21.151  1.00  0.00     0.000 C 
BRANCH   2   3
ATOM      3  C   UNL     1       4.673 -33.439  22.501  1.00  0.00     0.000 C 
BRANCH   3   4
ATOM      4  C   UNL     1       5.873 -34.291  22.954  1.00  0.00     0.000 C 
BRANCH   4   5
ATOM      5  C   UNL     1       5.551 -35.341  24.033  1.00  0.00     0.006 C 
BRANCH   5   6
ATOM      6  C   UNL     1       5.584 -36.778  23.496  1.00  0.00     0.053 C 
BRANCH   6   7
ATOM      7  C   UNL     1       4.737 -37.671  24.345  1.00  0.00     0.041 C 
ATOM      8  O   UNL     1       4.301 -38.758  23.884  1.00  0.00    -0.550 OA
ATOM      9  O   UNL     1       4.387 -37.280  25.632  1.00  0.00    -0.550 OA
ENDBRANCH   6   7
ENDBRANCH   5   6
ENDBRANCH   4   5
ENDBRANCH   3   4
ENDBRANCH   2   3
ENDBRANCH   1   2
BRANCH   1  10
ATOM     10  C   UNL     1       4.713 -35.239  19.041  1.00  0.00     0.000 C 
BRANCH  10  11
ATOM     11  C   UNL     1       3.960 -36.454  19.599  1.00  0.00    -0.000 C 
BRANCH  11  12
ATOM     12  C   UNL     1       3.528 -37.400  18.473  1.00  0.00    -0.000 C 
BRANCH  12  13
ATOM     13  C   UNL     1       2.017 -37.296  18.218  1.00  0.00    -0.000 C 
BRANCH  13  14
ATOM     14  C   UNL     1       1.687 -36.771  16.811  1.00  0.00    -0.000 C 
BRANCH  14  15
ATOM     15  C   UNL     1       2.916 -36.182  16.097  1.00  0.00    -0.000 C 
BRANCH  15  16
ATOM     16  C   UNL     1       2.920 -36.481  14.590  1.00  0.00    -0.003 C 
ATOM     17  C   UNL     1       3.912 -37.579  14.205  1.00  0.00     0.004 C 
ENDBRANCH  15  16
ENDBRANCH  14  15
ENDBRANCH  13  14
ENDBRANCH  12  13
ENDBRANCH  11  12
ENDBRANCH  10  11
ENDBRANCH   1  10
TORSDOF 13
ENDMDL
MODEL 2
REMARK VINA RESULT:    -5.428      0.957      1.512
REMARK INTER + INTRA:         -10.583
REMARK INTER:                  -9.393
REMARK INTRA:                  -1.190
REMARK UNBOUND:                -1.029
REMARK SMILES CCCCCCCCCCCCCCC(=O)[O-]
REMARK SMILES IDX 9 1 10 2 11 3 12 4 13 5 14 6 15 7 16 8 17 9 8 10 7 11 6 12
REMARK SMILES IDX 5 13 4 14 3 15 2 16 1 17
REMARK H PARENT
REMARK Flexibility Score: inf
ROOT
ATOM      1  C   UNL     1       4.276 -33.958  21.047  1.00  0.00     0.000 C 
ENDROOT
BRANCH   1   2
ATOM      2  C   UNL     1       4.604 -33.462  22.471  1.00  0.00     0.000 C 
BRANCH   2   3
ATOM      3  C   UNL     1       6.006 -33.900  22.931  1.00  0.00     0.000 C 
BRANCH   3   4
ATOM      4  C   UNL     1       5.971 -34.858  24.135  1.00  0.00     0.000 C 
BRANCH   4   5
ATOM      5  C   UNL     1       6.086 -36.350  23.779  1.00  0.00     0.006 C 
BRANCH   5   6
ATOM      6  C   UNL     1       4.762 -36.952  23.289  1.00  0.00     0.053 C 
BRANCH   6   7
ATOM      7  C   UNL     1       4.964 -38.366  22.847  1.00  0.00     0.041 C 
ATOM      8  O   UNL     1       5.296 -38.618  21.659  1.00  0.00    -0.550 OA
ATOM      9  O   UNL     1       4.737 -39.411  23.735  1.00  0.00    -0.550 OA
ENDBRANCH   6   7
ENDBRANCH   5   6
ENDBRANCH   4   5
ENDBRANCH   3   4
ENDBRANCH   2   3
ENDBRANCH   1   2
BRANCH   1  10
ATOM     10  C   UNL     1       5.465 -34.638  20.345  1.00  0.00     0.000 C 
BRANCH  10  11
ATOM     11  C   UNL     1       5.033 -35.572  19.207  1.00  0.00    -0.000 C 
BRANCH  11  12
ATOM     12  C   UNL     1       3.788 -36.377  19.597  1.00  0.00    -0.000 C 
BRANCH  12  13
ATOM     13  C   UNL     1       3.170 -37.063  18.369  1.00  0.00    -0.000 C 
BRANCH  13  14
ATOM     14  C   UNL     1       3.188 -36.171  17.117  1.00  0.00    -0.000 C 
BRANCH  14  15
ATOM     15  C   UNL     1       2.268 -36.699  16.003  1.00  0.00    -0.000 C 
BRANCH  15  16
ATOM     16  C   UNL     1       2.866 -36.497  14.602  1.00  0.00    -0.003 C 
ATOM     17  C   UNL     1       3.876 -37.583  14.226  1.00  0.00     0.004 C 
ENDBRANCH  15  16
ENDBRANCH  14  15
ENDBRANCH  13  14
ENDBRANCH  12  13
ENDBRANCH  11  12
ENDBRANCH  10  11
ENDBRANCH   1  10
TORSDOF 13
ENDMDL
MODEL 3
REMARK VINA RESULT:    -5.399      3.265      6.573
REMARK INTER + INTRA:         -10.532
REMARK INTER:                  -9.276
REMARK INTRA:                  -1.255
REMARK UNBOUND:                -1.029
REMARK SMILES CCCCCCCCCCCCCCC(=O)[O-]
REMARK SMILES IDX 9 1 10 2 11 3 12 4 13 5 14 6 15 7 16 8 17 9 8 10 7 11 6 12
REMARK SMILES IDX 5 13 4 14 3 15 2 16 1 17
REMARK H PARENT
REMARK Flexibility Score: inf
ROOT
ATOM      1  C   UNL     1       4.358 -33.964  22.215  1.00  0.00     0.000 C 
ENDROOT
BRANCH   1   2
ATOM      2  C   UNL     1       4.554 -34.074  20.687  1.00  0.00     0.000 C 
BRANCH   2   3
ATOM      3  C   UNL     1       4.917 -35.504  20.250  1.00  0.00     0.000 C 
BRANCH   3   4
ATOM      4  C   UNL     1       4.283 -35.900  18.904  1.00  0.00     0.000 C 
BRANCH   4   5
ATOM      5  C   UNL     1       3.658 -37.305  18.871  1.00  0.00     0.006 C 
BRANCH   5   6
ATOM      6  C   UNL     1       2.295 -37.336  18.165  1.00  0.00     0.053 C 
BRANCH   6   7
ATOM      7  C   UNL     1       2.447 -36.969  16.723  1.00  0.00     0.041 C 
ATOM      8  O   UNL     1       3.238 -37.613  15.985  1.00  0.00    -0.550 OA
ATOM      9  O   UNL     1       1.751 -35.884  16.206  1.00  0.00    -0.550 OA
ENDBRANCH   6   7
ENDBRANCH   5   6
ENDBRANCH   4   5
ENDBRANCH   3   4
ENDBRANCH   2   3
ENDBRANCH   1   2
BRANCH   1  10
ATOM     10  C   UNL     1       5.559 -33.338  22.944  1.00  0.00     0.000 C 
BRANCH  10  11
ATOM     11  C   UNL     1       6.085 -34.211  24.092  1.00  0.00    -0.000 C 
BRANCH  11  12
ATOM     12  C   UNL     1       5.918 -35.700  23.772  1.00  0.00    -0.000 C 
BRANCH  12  13
ATOM     13  C   UNL     1       5.055 -36.397  24.835  1.00  0.00    -0.000 C 
BRANCH  13  14
ATOM     14  C   UNL     1       4.664 -37.830  24.436  1.00  0.00    -0.000 C 
BRANCH  14  15
ATOM     15  C   UNL     1       4.751 -38.065  22.918  1.00  0.00    -0.000 C 
BRANCH  15  16
ATOM     16  C   UNL     1       4.988 -39.542  22.565  1.00  0.00    -0.003 C 
ATOM     17  C   UNL     1       5.889 -39.722  21.343  1.00  0.00     0.004 C 
ENDBRANCH  15  16
ENDBRANCH  14  15
ENDBRANCH  13  14
ENDBRANCH  12  13
ENDBRANCH  11  12
ENDBRANCH  10  11
ENDBRANCH   1  10
TORSDOF 13
ENDMDL
MODEL 4
REMARK VINA RESULT:    -5.346      3.483      6.985
REMARK INTER + INTRA:         -10.439
REMARK INTER:                  -8.896
REMARK INTRA:                  -1.543
REMARK UNBOUND:                -1.029
REMARK SMILES CCCCCCCCCCCCCCC(=O)[O-]
REMARK SMILES IDX 9 1 10 2 11 3 12 4 13 5 14 6 15 7 16 8 17 9 8 10 7 11 6 12
REMARK SMILES IDX 5 13 4 14 3 15 2 16 1 17
REMARK H PARENT
REMARK Flexibility Score: inf
ROOT
ATOM      1  C   UNL     1       4.287 -38.259  22.204  1.00  0.00     0.000 C 
ENDROOT
BRANCH   1   2
ATOM      2  C   UNL     1       5.436 -38.467  21.195  1.00  0.00     0.000 C 
BRANCH   2   3
ATOM      3  C   UNL     1       5.216 -37.675  19.894  1.00  0.00     0.000 C 
BRANCH   3   4
ATOM      4  C   UNL     1       3.738 -37.318  19.651  1.00  0.00     0.000 C 
BRANCH   4   5
ATOM      5  C   UNL     1       3.461 -36.569  18.335  1.00  0.00     0.006 C 
BRANCH   5   6
ATOM      6  C   UNL     1       2.929 -37.487  17.226  1.00  0.00     0.053 C 
BRANCH   6   7
ATOM      7  C   UNL     1       2.726 -36.714  15.962  1.00  0.00     0.041 C 
ATOM      8  O   UNL     1       3.533 -36.840  15.004  1.00  0.00    -0.550 OA
ATOM      9  O   UNL     1       1.672 -35.815  15.859  1.00  0.00    -0.550 OA
ENDBRANCH   6   7
ENDBRANCH   5   6
ENDBRANCH   4   5
ENDBRANCH   3   4
ENDBRANCH   2   3
ENDBRANCH   1   2
BRANCH   1  10
ATOM     10  C   UNL     1       4.719 -38.430  23.671  1.00  0.00     0.000 C 
BRANCH  10  11
ATOM     11  C   UNL     1       4.850 -37.096  24.417  1.00  0.00    -0.000 C 
BRANCH  11  12
ATOM     12  C   UNL     1       6.116 -36.346  23.988  1.00  0.00    -0.000 C 
BRANCH  12  13
ATOM     13  C   UNL     1       6.057 -34.874  24.423  1.00  0.00    -0.000 C 
BRANCH  13  14
ATOM     14  C   UNL     1       5.934 -33.907  23.235  1.00  0.00    -0.000 C 
BRANCH  14  15
ATOM     15  C   UNL     1       6.051 -34.623  21.877  1.00  0.00    -0.000 C 
BRANCH  15  16
ATOM     16  C   UNL     1       4.954 -34.194  20.891  1.00  0.00    -0.003 C 
ATOM     17  C   UNL     1       3.724 -33.610  21.587  1.00  0.00     0.004 C 
ENDBRANCH  15  16
ENDBRANCH  14  15
ENDBRANCH  13  14
ENDBRANCH  12  13
ENDBRANCH  11  12
ENDBRANCH  10  11
ENDBRANCH   1  10
TORSDOF 13
ENDMDL
MODEL 5
REMARK VINA RESULT:    -5.327      3.440      6.961
REMARK INTER + INTRA:         -10.405
REMARK INTER:                  -8.993
REMARK INTRA:                  -1.412
REMARK UNBOUND:                -1.029
REMARK SMILES CCCCCCCCCCCCCCC(=O)[O-]
REMARK SMILES IDX 9 1 10 2 11 3 12 4 13 5 14 6 15 7 16 8 17 9 8 10 7 11 6 12
REMARK SMILES IDX 5 13 4 14 3 15 2 16 1 17
REMARK H PARENT
REMARK Flexibility Score: inf
ROOT
ATOM      1  C   UNL     1       4.098 -34.311  21.273  1.00  0.00     0.000 C 
ENDROOT
BRANCH   1   2
ATOM      2  C   UNL     1       5.174 -34.524  20.187  1.00  0.00     0.000 C 
BRANCH   2   3
ATOM      3  C   UNL     1       5.240 -35.987  19.715  1.00  0.00     0.000 C 
BRANCH   3   4
ATOM      4  C   UNL     1       3.859 -36.667  19.671  1.00  0.00     0.000 C 
BRANCH   4   5
ATOM      5  C   UNL     1       3.462 -37.237  18.298  1.00  0.00     0.006 C 
BRANCH   5   6
ATOM      6  C   UNL     1       3.493 -36.185  17.181  1.00  0.00     0.053 C 
BRANCH   6   7
ATOM      7  C   UNL     1       2.806 -36.701  15.958  1.00  0.00     0.041 C 
ATOM      8  O   UNL     1       1.603 -36.406  15.734  1.00  0.00    -0.550 OA
ATOM      9  O   UNL     1       3.480 -37.550  15.088  1.00  0.00    -0.550 OA
ENDBRANCH   6   7
ENDBRANCH   5   6
ENDBRANCH   4   5
ENDBRANCH   3   4
ENDBRANCH   2   3
ENDBRANCH   1   2
BRANCH   1  10
ATOM     10  C   UNL     1       4.593 -33.492  22.477  1.00  0.00     0.000 C 
BRANCH  10  11
ATOM     11  C   UNL     1       6.049 -33.800  22.854  1.00  0.00    -0.000 C 
BRANCH  11  12
ATOM     12  C   UNL     1       6.124 -34.581  24.171  1.00  0.00    -0.000 C 
BRANCH  12  13
ATOM     13  C   UNL     1       6.125 -36.095  23.913  1.00  0.00    -0.000 C 
BRANCH  13  14
ATOM     14  C   UNL     1       5.237 -36.867  24.902  1.00  0.00    -0.000 C 
BRANCH  14  15
ATOM     15  C   UNL     1       4.286 -37.851  24.198  1.00  0.00    -0.000 C 
BRANCH  15  16
ATOM     16  C   UNL     1       4.733 -38.176  22.765  1.00  0.00    -0.003 C 
ATOM     17  C   UNL     1       5.111 -39.647  22.580  1.00  0.00     0.004 C 
ENDBRANCH  15  16
ENDBRANCH  14  15
ENDBRANCH  13  14
ENDBRANCH  12  13
ENDBRANCH  11  12
ENDBRANCH  10  11
ENDBRANCH   1  10
TORSDOF 13
ENDMDL
MODEL 6
REMARK VINA RESULT:    -5.242      2.311      3.449
REMARK INTER + INTRA:         -10.256
REMARK INTER:                  -8.931
REMARK INTRA:                  -1.325
REMARK UNBOUND:                -1.029
REMARK SMILES CCCCCCCCCCCCCCC(=O)[O-]
REMARK SMILES IDX 9 1 10 2 11 3 12 4 13 5 14 6 15 7 16 8 17 9 8 10 7 11 6 12
REMARK SMILES IDX 5 13 4 14 3 15 2 16 1 17
REMARK H PARENT
REMARK Flexibility Score: inf
ROOT
ATOM      1  C   UNL     1       4.292 -38.394  22.284  1.00  0.00     0.000 C 
ENDROOT
BRANCH   1   2
ATOM      2  C   UNL     1       4.741 -38.338  23.759  1.00  0.00     0.000 C 
BRANCH   2   3
ATOM      3  C   UNL     1       4.739 -36.902  24.313  1.00  0.00     0.000 C 
BRANCH   3   4
ATOM      4  C   UNL     1       6.056 -36.152  24.040  1.00  0.00     0.000 C 
BRANCH   4   5
ATOM      5  C   UNL     1       5.895 -34.805  23.313  1.00  0.00     0.006 C 
BRANCH   5   6
ATOM      6  C   UNL     1       5.969 -34.938  21.786  1.00  0.00     0.053 C 
BRANCH   6   7
ATOM      7  C   UNL     1       4.814 -34.236  21.145  1.00  0.00     0.041 C 
ATOM      8  O   UNL     1       3.779 -33.977  21.814  1.00  0.00    -0.550 OA
ATOM      9  O   UNL     1       4.860 -33.910  19.795  1.00  0.00    -0.550 OA
ENDBRANCH   6   7
ENDBRANCH   5   6
ENDBRANCH   4   5
ENDBRANCH   3   4
ENDBRANCH   2   3
ENDBRANCH   1   2
BRANCH   1  10
ATOM     10  C   UNL     1       5.452 -38.614  21.296  1.00  0.00     0.000 C 
BRANCH  10  11
ATOM     11  C   UNL     1       5.263 -37.860  19.973  1.00  0.00    -0.000 C 
BRANCH  11  12
ATOM     12  C   UNL     1       3.817 -37.374  19.817  1.00  0.00    -0.000 C 
BRANCH  12  13
ATOM     13  C   UNL     1       3.564 -36.851  18.395  1.00  0.00    -0.000 C 
BRANCH  13  14
ATOM     14  C   UNL     1       2.166 -37.213  17.869  1.00  0.00    -0.000 C 
BRANCH  14  15
ATOM     15  C   UNL     1       1.831 -36.503  16.545  1.00  0.00    -0.000 C 
BRANCH  15  16
ATOM     16  C   UNL     1       3.088 -36.136  15.741  1.00  0.00    -0.003 C 
ATOM     17  C   UNL     1       3.469 -37.205  14.716  1.00  0.00     0.004 C 
ENDBRANCH  15  16
ENDBRANCH  14  15
ENDBRANCH  13  14
ENDBRANCH  12  13
ENDBRANCH  11  12
ENDBRANCH  10  11
ENDBRANCH   1  10
TORSDOF 13
ENDMDL
MODEL 7
REMARK VINA RESULT:    -4.906      3.695      7.636
REMARK INTER + INTRA:          -9.663
REMARK INTER:                  -8.502
REMARK INTRA:                  -1.161
REMARK UNBOUND:                -1.029
REMARK SMILES CCCCCCCCCCCCCCC(=O)[O-]
REMARK SMILES IDX 9 1 10 2 11 3 12 4 13 5 14 6 15 7 16 8 17 9 8 10 7 11 6 12
REMARK SMILES IDX 5 13 4 14 3 15 2 16 1 17
REMARK H PARENT
REMARK Flexibility Score: inf
ROOT
ATOM      1  C   UNL     1       4.545 -36.540  20.634  1.00  0.00     0.000 C 
ENDROOT
BRANCH   1   2
ATOM      2  C   UNL     1       4.177 -37.319  19.354  1.00  0.00     0.000 C 
BRANCH   2   3
ATOM      3  C   UNL     1       2.660 -37.543  19.226  1.00  0.00     0.000 C 
BRANCH   3   4
ATOM      4  C   UNL     1       2.186 -37.617  17.763  1.00  0.00     0.000 C 
BRANCH   4   5
ATOM      5  C   UNL     1       2.240 -36.284  16.996  1.00  0.00     0.006 C 
BRANCH   5   6
ATOM      6  C   UNL     1       3.436 -36.194  16.039  1.00  0.00     0.053 C 
BRANCH   6   7
ATOM      7  C   UNL     1       3.123 -36.880  14.748  1.00  0.00     0.041 C 
ATOM      8  O   UNL     1       2.108 -36.545  14.081  1.00  0.00    -0.550 OA
ATOM      9  O   UNL     1       3.925 -37.923  14.302  1.00  0.00    -0.550 OA
ENDBRANCH   6   7
ENDBRANCH   5   6
ENDBRANCH   4   5
ENDBRANCH   3   4
ENDBRANCH   2   3
ENDBRANCH   1   2
BRANCH   1  10
ATOM     10  C   UNL     1       5.228 -35.189  20.357  1.00  0.00     0.000 C 
BRANCH  10  11
ATOM     11  C   UNL     1       4.337 -33.987  20.695  1.00  0.00    -0.000 C 
BRANCH  11  12
ATOM     12  C   UNL     1       4.416 -33.644  22.187  1.00  0.00    -0.000 C 
BRANCH  12  13
ATOM     13  C   UNL     1       5.828 -33.899  22.735  1.00  0.00    -0.000 C 
BRANCH  13  14
ATOM     14  C   UNL     1       5.818 -34.613  24.096  1.00  0.00    -0.000 C 
BRANCH  14  15
ATOM     15  C   UNL     1       6.124 -36.116  23.976  1.00  0.00    -0.000 C 
BRANCH  15  16
ATOM     16  C   UNL     1       5.107 -36.986  24.732  1.00  0.00    -0.003 C 
ATOM     17  C   UNL     1       4.666 -38.212  23.932  1.00  0.00     0.004 C 
ENDBRANCH  15  16
ENDBRANCH  14  15
ENDBRANCH  13  14
ENDBRANCH  12  13
ENDBRANCH  11  12
ENDBRANCH  10  11
ENDBRANCH   1  10
TORSDOF 13
ENDMDL
MODEL 8
REMARK VINA RESULT:    -4.591      3.808      7.419
REMARK INTER + INTRA:          -9.110
REMARK INTER:                  -8.053
REMARK INTRA:                  -1.057
REMARK UNBOUND:                -1.029
REMARK SMILES CCCCCCCCCCCCCCC(=O)[O-]
REMARK SMILES IDX 9 1 10 2 11 3 12 4 13 5 14 6 15 7 16 8 17 9 8 10 7 11 6 12
REMARK SMILES IDX 5 13 4 14 3 15 2 16 1 17
REMARK H PARENT
REMARK Flexibility Score: inf
ROOT
ATOM      1  C   UNL     1       4.823 -37.200  21.041  1.00  0.00     0.000 C 
ENDROOT
BRANCH   1   2
ATOM      2  C   UNL     1       4.268 -37.180  19.601  1.00  0.00     0.000 C 
BRANCH   2   3
ATOM      3  C   UNL     1       4.353 -35.781  18.966  1.00  0.00     0.000 C 
BRANCH   3   4
ATOM      4  C   UNL     1       3.674 -35.705  17.587  1.00  0.00     0.000 C 
BRANCH   4   5
ATOM      5  C   UNL     1       2.688 -36.848  17.287  1.00  0.00     0.006 C 
BRANCH   5   6
ATOM      6  C   UNL     1       3.119 -37.711  16.093  1.00  0.00     0.053 C 
BRANCH   6   7
ATOM      7  C   UNL     1       3.050 -36.919  14.826  1.00  0.00     0.041 C 
ATOM      8  O   UNL     1       4.034 -36.891  14.041  1.00  0.00    -0.550 OA
ATOM      9  O   UNL     1       1.916 -36.171  14.535  1.00  0.00    -0.550 OA
ENDBRANCH   6   7
ENDBRANCH   5   6
ENDBRANCH   4   5
ENDBRANCH   3   4
ENDBRANCH   2   3
ENDBRANCH   1   2
BRANCH   1  10
ATOM     10  C   UNL     1       4.290 -38.368  21.889  1.00  0.00     0.000 C 
BRANCH  10  11
ATOM     11  C   UNL     1       4.549 -38.186  23.390  1.00  0.00    -0.000 C 
BRANCH  11  12
ATOM     12  C   UNL     1       5.819 -37.362  23.634  1.00  0.00    -0.000 C 
BRANCH  12  13
ATOM     13  C   UNL     1       5.621 -36.379  24.798  1.00  0.00    -0.000 C 
BRANCH  13  14
ATOM     14  C   UNL     1       6.125 -34.964  24.473  1.00  0.00    -0.000 C 
BRANCH  14  15
ATOM     15  C   UNL     1       5.976 -34.612  22.983  1.00  0.00    -0.000 C 
BRANCH  15  16
ATOM     16  C   UNL     1       5.031 -33.422  22.751  1.00  0.00    -0.003 C 
ATOM     17  C   UNL     1       4.030 -33.670  21.623  1.00  0.00     0.004 C 
ENDBRANCH  15  16
ENDBRANCH  14  15
ENDBRANCH  13  14
ENDBRANCH  12  13
ENDBRANCH  11  12
ENDBRANCH  10  11
ENDBRANCH   1  10
TORSDOF 13
ENDMDL
MODEL 9
REMARK VINA RESULT:    -4.550      1.855      3.646
REMARK INTER + INTRA:          -9.038
REMARK INTER:                  -8.020
REMARK INTRA:                  -1.018
REMARK UNBOUND:                -1.029
REMARK SMILES CCCCCCCCCCCCCCC(=O)[O-]
REMARK SMILES IDX 9 1 10 2 11 3 12 4 13 5 14 6 15 7 16 8 17 9 8 10 7 11 6 12
REMARK SMILES IDX 5 13 4 14 3 15 2 16 1 17
REMARK H PARENT
REMARK Flexibility Score: inf
ROOT
ATOM      1  C   UNL     1       4.848 -34.938  23.361  1.00  0.00     0.000 C 
ENDROOT
BRANCH   1   2
ATOM      2  C   UNL     1       6.117 -35.623  23.912  1.00  0.00     0.000 C 
BRANCH   2   3
ATOM      3  C   UNL     1       5.804 -36.562  25.090  1.00  0.00     0.000 C 
BRANCH   3   4
ATOM      4  C   UNL     1       4.601 -37.485  24.818  1.00  0.00     0.000 C 
BRANCH   4   5
ATOM      5  C   UNL     1       4.914 -38.717  23.949  1.00  0.00     0.006 C 
BRANCH   5   6
ATOM      6  C   UNL     1       4.339 -38.607  22.530  1.00  0.00     0.053 C 
BRANCH   6   7
ATOM      7  C   UNL     1       5.346 -39.065  21.524  1.00  0.00     0.041 C 
ATOM      8  O   UNL     1       5.601 -38.357  20.514  1.00  0.00    -0.550 OA
ATOM      9  O   UNL     1       5.969 -40.298  21.675  1.00  0.00    -0.550 OA
ENDBRANCH   6   7
ENDBRANCH   5   6
ENDBRANCH   4   5
ENDBRANCH   3   4
ENDBRANCH   2   3
ENDBRANCH   1   2
BRANCH   1  10
ATOM     10  C   UNL     1       5.135 -33.625  22.610  1.00  0.00     0.000 C 
BRANCH  10  11
ATOM     11  C   UNL     1       4.042 -33.264  21.596  1.00  0.00    -0.000 C 
BRANCH  11  12
ATOM     12  C   UNL     1       3.837 -34.393  20.580  1.00  0.00    -0.000 C 
BRANCH  12  13
ATOM     13  C   UNL     1       4.848 -34.286  19.429  1.00  0.00    -0.000 C 
BRANCH  13  14
ATOM     14  C   UNL     1       4.582 -35.302  18.307  1.00  0.00    -0.000 C 
BRANCH  14  15
ATOM     15  C   UNL     1       3.589 -36.400  18.729  1.00  0.00    -0.000 C 
BRANCH  15  16
ATOM     16  C   UNL     1       2.679 -36.845  17.573  1.00  0.00    -0.003 C 
ATOM     17  C   UNL     1       2.900 -36.032  16.297  1.00  0.00     0.004 C 
ENDBRANCH  15  16
ENDBRANCH  14  15
ENDBRANCH  13  14
ENDBRANCH  12  13
ENDBRANCH  11  12
ENDBRANCH  10  11
ENDBRANCH   1  10
TORSDOF 13
ENDMDL
