MODEL 1
REMARK VINA RESULT:    14.493      0.000      0.000
REMARK INTER + INTRA:          25.652
REMARK INTER:                  26.355
REMARK INTRA:                  -0.703
REMARK UNBOUND:                -0.703
REMARK SMILES CCCCCCCCCCCCCC[C@H](C)C(=O)[O-]
REMARK SMILES IDX 9 1 10 2 11 3 12 4 13 5 14 6 15 7 16 8 17 9 18 10 19 11 8 12
REMARK SMILES IDX 7 13 6 14 5 15 4 16 3 17 2 18 1 19
REMARK H PARENT
REMARK Flexibility Score: inf
ROOT
ATOM      1  C   UNL     1     -17.386  61.121  -3.263  1.00  0.00     0.000 C 
ENDROOT
BRANCH   1   2
ATOM      2  C   UNL     1     -18.802  60.560  -3.468  1.00  0.00     0.000 C 
BRANCH   2   3
ATOM      3  C   UNL     1     -18.796  59.027  -3.427  1.00  0.00     0.000 C 
BRANCH   3   4
ATOM      4  C   UNL     1     -19.057  58.512  -2.006  1.00  0.00     0.000 C 
BRANCH   4   5
ATOM      5  C   UNL     1     -17.966  57.522  -1.572  1.00  0.00     0.001 C 
BRANCH   5   6
ATOM      6  C   UNL     1     -16.985  57.177  -2.709  1.00  0.00     0.009 C 
BRANCH   6   7
ATOM      7  C   UNL     1     -16.656  55.671  -2.828  1.00  0.00     0.032 C 
ATOM      8  C   UNL     1     -15.156  55.433  -2.624  1.00  0.00     0.014 C 
BRANCH   7   9
ATOM      9  C   UNL     1     -17.088  55.111  -4.156  1.00  0.00     0.044 C 
ATOM     10  O   UNL     1     -17.601  53.962  -4.230  1.00  0.00    -0.550 OA
ATOM     11  O   UNL     1     -16.916  55.859  -5.313  1.00  0.00    -0.550 OA
ENDBRANCH   7   9
ENDBRANCH   6   7
ENDBRANCH   5   6
ENDBRANCH   4   5
ENDBRANCH   3   4
ENDBRANCH   2   3
ENDBRANCH   1   2
BRANCH   1  12
ATOM     12  C   UNL     1     -16.329  60.023  -3.041  1.00  0.00     0.000 C 
BRANCH  12  13
ATOM     13  C   UNL     1     -14.959  60.287  -3.694  1.00  0.00    -0.000 C 
BRANCH  13  14
ATOM     14  C   UNL     1     -14.562  59.206  -4.714  1.00  0.00    -0.000 C 
BRANCH  14  15
ATOM     15  C   UNL     1     -13.448  58.275  -4.199  1.00  0.00    -0.000 C 
BRANCH  15  16
ATOM     16  C   UNL     1     -12.169  58.985  -3.716  1.00  0.00    -0.000 C 
BRANCH  16  17
ATOM     17  C   UNL     1     -11.159  58.028  -3.067  1.00  0.00    -0.000 C 
BRANCH  17  18
ATOM     18  C   UNL     1     -11.556  56.566  -3.308  1.00  0.00    -0.003 C 
ATOM     19  C   UNL     1     -10.801  55.980  -4.498  1.00  0.00     0.004 C 
ENDBRANCH  17  18
ENDBRANCH  16  17
ENDBRANCH  15  16
ENDBRANCH  14  15
ENDBRANCH  13  14
ENDBRANCH  12  13
ENDBRANCH   1  12
TORSDOF 14
ENDMDL
MODEL 2
REMARK VINA RESULT:    14.903      2.471      5.193
REMARK INTER + INTRA:          26.396
REMARK INTER:                  27.655
REMARK INTRA:                  -1.259
REMARK UNBOUND:                -0.703
REMARK SMILES CCCCCCCCCCCCCC[C@H](C)C(=O)[O-]
REMARK SMILES IDX 9 1 10 2 11 3 12 4 13 5 14 6 15 7 16 8 17 9 18 10 19 11 8 12
REMARK SMILES IDX 7 13 6 14 5 15 4 16 3 17 2 18 1 19
REMARK H PARENT
REMARK Flexibility Score: inf
ROOT
ATOM      1  C   UNL     1     -18.257  60.775  -3.664  1.00  0.00     0.000 C 
ENDROOT
BRANCH   1   2
ATOM      2  C   UNL     1     -16.851  60.948  -3.070  1.00  0.00     0.000 C 
BRANCH   2   3
ATOM      3  C   UNL     1     -16.016  59.675  -3.255  1.00  0.00     0.000 C 
BRANCH   3   4
ATOM      4  C   UNL     1     -14.624  60.005  -3.808  1.00  0.00     0.000 C 
BRANCH   4   5
ATOM      5  C   UNL     1     -14.132  58.898  -4.753  1.00  0.00     0.001 C 
BRANCH   5   6
ATOM      6  C   UNL     1     -13.417  57.753  -4.011  1.00  0.00     0.009 C 
BRANCH   6   7
ATOM      7  C   UNL     1     -11.875  57.858  -4.018  1.00  0.00     0.032 C 
ATOM      8  C   UNL     1     -11.247  56.495  -4.332  1.00  0.00     0.014 C 
BRANCH   7   9
ATOM      9  C   UNL     1     -11.346  58.376  -2.709  1.00  0.00     0.044 C 
ATOM     10  O   UNL     1     -10.780  59.501  -2.646  1.00  0.00    -0.550 OA
ATOM     11  O   UNL     1     -11.475  57.610  -1.558  1.00  0.00    -0.550 OA
ENDBRANCH   7   9
ENDBRANCH   6   7
ENDBRANCH   5   6
ENDBRANCH   4   5
ENDBRANCH   3   4
ENDBRANCH   2   3
ENDBRANCH   1   2
BRANCH   1  12
ATOM     12  C   UNL     1     -18.797  59.338  -3.527  1.00  0.00     0.000 C 
BRANCH  12  13
ATOM     13  C   UNL     1     -19.039  58.862  -2.083  1.00  0.00    -0.000 C 
BRANCH  13  14
ATOM     14  C   UNL     1     -18.548  57.425  -1.835  1.00  0.00    -0.000 C 
BRANCH  14  15
ATOM     15  C   UNL     1     -17.183  57.370  -1.124  1.00  0.00    -0.000 C 
BRANCH  15  16
ATOM     16  C   UNL     1     -16.084  56.593  -1.871  1.00  0.00    -0.000 C 
BRANCH  16  17
ATOM     17  C   UNL     1     -16.644  55.573  -2.873  1.00  0.00    -0.000 C 
BRANCH  17  18
ATOM     18  C   UNL     1     -16.857  56.217  -4.248  1.00  0.00    -0.003 C 
ATOM     19  C   UNL     1     -17.223  55.170  -5.297  1.00  0.00     0.004 C 
ENDBRANCH  17  18
ENDBRANCH  16  17
ENDBRANCH  15  16
ENDBRANCH  14  15
ENDBRANCH  13  14
ENDBRANCH  12  13
ENDBRANCH   1  12
TORSDOF 14
ENDMDL
MODEL 3
REMARK VINA RESULT:    14.919      2.239      5.093
REMARK INTER + INTRA:          26.426
REMARK INTER:                  27.859
REMARK INTRA:                  -1.433
REMARK UNBOUND:                -0.703
REMARK SMILES CCCCCCCCCCCCCC[C@H](C)C(=O)[O-]
REMARK SMILES IDX 9 1 10 2 11 3 12 4 13 5 14 6 15 7 16 8 17 9 18 10 19 11 8 12
REMARK SMILES IDX 7 13 6 14 5 15 4 16 3 17 2 18 1 19
REMARK H PARENT
REMARK Flexibility Score: inf
ROOT
ATOM      1  C   UNL     1     -17.677  60.665  -3.610  1.00  0.00     0.000 C 
ENDROOT
BRANCH   1   2
ATOM      2  C   UNL     1     -16.418  60.278  -2.818  1.00  0.00     0.000 C 
BRANCH   2   3
ATOM      3  C   UNL     1     -15.153  60.495  -3.657  1.00  0.00     0.000 C 
BRANCH   3   4
ATOM      4  C   UNL     1     -14.809  59.242  -4.471  1.00  0.00     0.000 C 
BRANCH   4   5
ATOM      5  C   UNL     1     -13.329  58.868  -4.304  1.00  0.00     0.001 C 
BRANCH   5   6
ATOM      6  C   UNL     1     -13.127  57.584  -3.476  1.00  0.00     0.009 C 
BRANCH   6   7
ATOM      7  C   UNL     1     -11.646  57.204  -3.246  1.00  0.00     0.032 C 
ATOM      8  C   UNL     1     -10.804  58.459  -2.993  1.00  0.00     0.014 C 
BRANCH   7   9
ATOM      9  C   UNL     1     -11.083  56.434  -4.409  1.00  0.00     0.044 C 
ATOM     10  O   UNL     1     -10.842  57.011  -5.504  1.00  0.00    -0.550 OA
ATOM     11  O   UNL     1     -10.830  55.074  -4.283  1.00  0.00    -0.550 OA
ENDBRANCH   7   9
ENDBRANCH   6   7
ENDBRANCH   5   6
ENDBRANCH   4   5
ENDBRANCH   3   4
ENDBRANCH   2   3
ENDBRANCH   1   2
BRANCH   1  12
ATOM     12  C   UNL     1     -18.926  59.872  -3.181  1.00  0.00     0.000 C 
BRANCH  12  13
ATOM     13  C   UNL     1     -18.713  58.357  -3.003  1.00  0.00    -0.000 C 
BRANCH  13  14
ATOM     14  C   UNL     1     -18.858  57.899  -1.542  1.00  0.00    -0.000 C 
BRANCH  14  15
ATOM     15  C   UNL     1     -17.549  57.339  -0.955  1.00  0.00    -0.000 C 
BRANCH  15  16
ATOM     16  C   UNL     1     -16.415  57.116  -1.973  1.00  0.00    -0.000 C 
BRANCH  16  17
ATOM     17  C   UNL     1     -16.521  55.771  -2.706  1.00  0.00    -0.000 C 
BRANCH  17  18
ATOM     18  C   UNL     1     -16.581  55.977  -4.224  1.00  0.00    -0.003 C 
ATOM     19  C   UNL     1     -17.166  54.754  -4.924  1.00  0.00     0.004 C 
ENDBRANCH  17  18
ENDBRANCH  16  17
ENDBRANCH  15  16
ENDBRANCH  14  15
ENDBRANCH  13  14
ENDBRANCH  12  13
ENDBRANCH   1  12
TORSDOF 14
ENDMDL
MODEL 4
REMARK VINA RESULT:    14.998      3.858      6.725
REMARK INTER + INTRA:          26.570
REMARK INTER:                  27.082
REMARK INTRA:                  -0.512
REMARK UNBOUND:                -0.703
REMARK SMILES CCCCCCCCCCCCCC[C@H](C)C(=O)[O-]
REMARK SMILES IDX 9 1 10 2 11 3 12 4 13 5 14 6 15 7 16 8 17 9 18 10 19 11 8 12
REMARK SMILES IDX 7 13 6 14 5 15 4 16 3 17 2 18 1 19
REMARK H PARENT
REMARK Flexibility Score: inf
ROOT
ATOM      1  C   UNL     1     -10.732  56.070  -4.595  1.00  0.00     0.000 C 
ENDROOT
BRANCH   1   2
ATOM      2  C   UNL     1     -10.987  56.992  -3.393  1.00  0.00     0.000 C 
BRANCH   2   3
ATOM      3  C   UNL     1     -12.005  58.083  -3.743  1.00  0.00     0.000 C 
BRANCH   3   4
ATOM      4  C   UNL     1     -13.431  57.638  -3.396  1.00  0.00     0.000 C 
BRANCH   4   5
ATOM      5  C   UNL     1     -14.469  58.463  -4.172  1.00  0.00     0.001 C 
BRANCH   5   6
ATOM      6  C   UNL     1     -15.786  58.650  -3.396  1.00  0.00     0.009 C 
BRANCH   6   7
ATOM      7  C   UNL     1     -16.265  57.385  -2.647  1.00  0.00     0.032 C 
ATOM      8  C   UNL     1     -16.618  56.274  -3.642  1.00  0.00     0.014 C 
BRANCH   7   9
ATOM      9  C   UNL     1     -17.448  57.676  -1.764  1.00  0.00     0.044 C 
ATOM     10  O   UNL     1     -18.536  58.076  -2.260  1.00  0.00    -0.550 OA
ATOM     11  O   UNL     1     -17.343  57.510  -0.389  1.00  0.00    -0.550 OA
ENDBRANCH   7   9
ENDBRANCH   6   7
ENDBRANCH   5   6
ENDBRANCH   4   5
ENDBRANCH   3   4
ENDBRANCH   2   3
ENDBRANCH   1   2
BRANCH   1  12
ATOM     12  C   UNL     1     -10.315  54.645  -4.184  1.00  0.00     0.000 C 
BRANCH  12  13
ATOM     13  C   UNL     1      -8.908  54.524  -3.569  1.00  0.00    -0.000 C 
BRANCH  13  14
ATOM     14  C   UNL     1      -8.261  53.151  -3.817  1.00  0.00    -0.000 C 
BRANCH  14  15
ATOM     15  C   UNL     1      -8.536  52.144  -2.684  1.00  0.00    -0.000 C 
BRANCH  15  16
ATOM     16  C   UNL     1      -8.773  50.692  -3.138  1.00  0.00    -0.000 C 
BRANCH  16  17
ATOM     17  C   UNL     1      -9.263  49.780  -2.004  1.00  0.00    -0.000 C 
BRANCH  17  18
ATOM     18  C   UNL     1     -10.575  49.085  -2.387  1.00  0.00    -0.003 C 
ATOM     19  C   UNL     1     -10.642  48.822  -3.889  1.00  0.00     0.004 C 
ENDBRANCH  17  18
ENDBRANCH  16  17
ENDBRANCH  15  16
ENDBRANCH  14  15
ENDBRANCH  13  14
ENDBRANCH  12  13
ENDBRANCH   1  12
TORSDOF 14
ENDMDL
MODEL 5
REMARK VINA RESULT:    15.155      0.846      1.674
REMARK INTER + INTRA:          26.855
REMARK INTER:                  27.929
REMARK INTRA:                  -1.074
REMARK UNBOUND:                -0.703
REMARK SMILES CCCCCCCCCCCCCC[C@H](C)C(=O)[O-]
REMARK SMILES IDX 9 1 10 2 11 3 12 4 13 5 14 6 15 7 16 8 17 9 18 10 19 11 8 12
REMARK SMILES IDX 7 13 6 14 5 15 4 16 3 17 2 18 1 19
REMARK H PARENT
REMARK Flexibility Score: inf
ROOT
ATOM      1  C   UNL     1     -18.918  60.063  -2.998  1.00  0.00     0.000 C 
ENDROOT
BRANCH   1   2
ATOM      2  C   UNL     1     -18.776  58.542  -2.833  1.00  0.00     0.000 C 
BRANCH   2   3
ATOM      3  C   UNL     1     -19.090  58.114  -1.394  1.00  0.00     0.000 C 
BRANCH   3   4
ATOM      4  C   UNL     1     -17.818  58.087  -0.538  1.00  0.00     0.000 C 
BRANCH   4   5
ATOM      5  C   UNL     1     -16.924  56.896  -0.919  1.00  0.00     0.001 C 
BRANCH   5   6
ATOM      6  C   UNL     1     -17.594  55.947  -1.931  1.00  0.00     0.009 C 
BRANCH   6   7
ATOM      7  C   UNL     1     -16.602  55.188  -2.842  1.00  0.00     0.032 C 
ATOM      8  C   UNL     1     -15.171  55.683  -2.604  1.00  0.00     0.014 C 
BRANCH   7   9
ATOM      9  C   UNL     1     -16.960  55.334  -4.296  1.00  0.00     0.044 C 
ATOM     10  O   UNL     1     -17.059  56.476  -4.821  1.00  0.00    -0.550 OA
ATOM     11  O   UNL     1     -17.190  54.203  -5.069  1.00  0.00    -0.550 OA
ENDBRANCH   7   9
ENDBRANCH   6   7
ENDBRANCH   5   6
ENDBRANCH   4   5
ENDBRANCH   3   4
ENDBRANCH   2   3
ENDBRANCH   1   2
BRANCH   1  12
ATOM     12  C   UNL     1     -17.664  60.723  -3.603  1.00  0.00     0.000 C 
BRANCH  12  13
ATOM     13  C   UNL     1     -16.367  60.531  -2.795  1.00  0.00    -0.000 C 
BRANCH  13  14
ATOM     14  C   UNL     1     -15.555  59.304  -3.244  1.00  0.00    -0.000 C 
BRANCH  14  15
ATOM     15  C   UNL     1     -14.839  59.518  -4.591  1.00  0.00    -0.000 C 
BRANCH  15  16
ATOM     16  C   UNL     1     -13.478  58.812  -4.730  1.00  0.00    -0.000 C 
BRANCH  16  17
ATOM     17  C   UNL     1     -13.023  58.121  -3.437  1.00  0.00    -0.000 C 
BRANCH  17  18
ATOM     18  C   UNL     1     -11.494  58.033  -3.370  1.00  0.00    -0.003 C 
ATOM     19  C   UNL     1     -10.992  56.705  -3.930  1.00  0.00     0.004 C 
ENDBRANCH  17  18
ENDBRANCH  16  17
ENDBRANCH  15  16
ENDBRANCH  14  15
ENDBRANCH  13  14
ENDBRANCH  12  13
ENDBRANCH   1  12
TORSDOF 14
ENDMDL
MODEL 6
REMARK VINA RESULT:    15.364      1.214      2.119
REMARK INTER + INTRA:          27.235
REMARK INTER:                  28.744
REMARK INTRA:                  -1.508
REMARK UNBOUND:                -0.703
REMARK SMILES CCCCCCCCCCCCCC[C@H](C)C(=O)[O-]
REMARK SMILES IDX 9 1 10 2 11 3 12 4 13 5 14 6 15 7 16 8 17 9 18 10 19 11 8 12
REMARK SMILES IDX 7 13 6 14 5 15 4 16 3 17 2 18 1 19
REMARK H PARENT
REMARK Flexibility Score: inf
ROOT
ATOM      1  C   UNL     1     -15.174  60.781  -3.169  1.00  0.00     0.000 C 
ENDROOT
BRANCH   1   2
ATOM      2  C   UNL     1     -16.595  60.645  -2.601  1.00  0.00     0.000 C 
BRANCH   2   3
ATOM      3  C   UNL     1     -17.647  60.925  -3.681  1.00  0.00     0.000 C 
BRANCH   3   4
ATOM      4  C   UNL     1     -18.889  60.048  -3.482  1.00  0.00     0.000 C 
BRANCH   4   5
ATOM      5  C   UNL     1     -18.648  58.995  -2.390  1.00  0.00     0.001 C 
BRANCH   5   6
ATOM      6  C   UNL     1     -18.535  57.566  -2.953  1.00  0.00     0.009 C 
BRANCH   6   7
ATOM      7  C   UNL     1     -17.651  56.619  -2.108  1.00  0.00     0.032 C 
ATOM      8  C   UNL     1     -16.957  57.396  -0.984  1.00  0.00     0.014 C 
BRANCH   7   9
ATOM      9  C   UNL     1     -16.625  55.915  -2.953  1.00  0.00     0.044 C 
ATOM     10  O   UNL     1     -16.916  55.511  -4.111  1.00  0.00    -0.550 OA
ATOM     11  O   UNL     1     -15.347  55.698  -2.454  1.00  0.00    -0.550 OA
ENDBRANCH   7   9
ENDBRANCH   6   7
ENDBRANCH   5   6
ENDBRANCH   4   5
ENDBRANCH   3   4
ENDBRANCH   2   3
ENDBRANCH   1   2
BRANCH   1  12
ATOM     12  C   UNL     1     -14.963  59.976  -4.465  1.00  0.00     0.000 C 
BRANCH  12  13
ATOM     13  C   UNL     1     -14.505  58.519  -4.265  1.00  0.00    -0.000 C 
BRANCH  13  14
ATOM     14  C   UNL     1     -12.996  58.328  -4.491  1.00  0.00    -0.000 C 
BRANCH  14  15
ATOM     15  C   UNL     1     -12.213  58.126  -3.180  1.00  0.00    -0.000 C 
BRANCH  15  16
ATOM     16  C   UNL     1     -10.881  57.366  -3.320  1.00  0.00    -0.000 C 
BRANCH  16  17
ATOM     17  C   UNL     1     -10.817  56.492  -4.581  1.00  0.00    -0.000 C 
BRANCH  17  18
ATOM     18  C   UNL     1     -10.491  55.037  -4.223  1.00  0.00    -0.003 C 
ATOM     19  C   UNL     1     -11.393  54.067  -4.981  1.00  0.00     0.004 C 
ENDBRANCH  17  18
ENDBRANCH  16  17
ENDBRANCH  15  16
ENDBRANCH  14  15
ENDBRANCH  13  14
ENDBRANCH  12  13
ENDBRANCH   1  12
TORSDOF 14
ENDMDL
MODEL 7
REMARK VINA RESULT:    15.507      1.223      2.077
REMARK INTER + INTRA:          27.495
REMARK INTER:                  28.019
REMARK INTRA:                  -0.524
REMARK UNBOUND:                -0.703
REMARK SMILES CCCCCCCCCCCCCC[C@H](C)C(=O)[O-]
REMARK SMILES IDX 9 1 10 2 11 3 12 4 13 5 14 6 15 7 16 8 17 9 18 10 19 11 8 12
REMARK SMILES IDX 7 13 6 14 5 15 4 16 3 17 2 18 1 19
REMARK H PARENT
REMARK Flexibility Score: inf
ROOT
ATOM      1  C   UNL     1     -16.686  61.693  -2.717  1.00  0.00     0.000 C 
ENDROOT
BRANCH   1   2
ATOM      2  C   UNL     1     -17.960  61.947  -3.537  1.00  0.00     0.000 C 
BRANCH   2   3
ATOM      3  C   UNL     1     -19.075  60.973  -3.137  1.00  0.00     0.000 C 
BRANCH   3   4
ATOM      4  C   UNL     1     -19.105  59.756  -4.069  1.00  0.00     0.000 C 
BRANCH   4   5
ATOM      5  C   UNL     1     -19.125  58.448  -3.263  1.00  0.00     0.001 C 
BRANCH   5   6
ATOM      6  C   UNL     1     -18.131  58.456  -2.086  1.00  0.00     0.009 C 
BRANCH   6   7
ATOM      7  C   UNL     1     -17.654  57.052  -1.648  1.00  0.00     0.032 C 
ATOM      8  C   UNL     1     -16.938  57.127  -0.296  1.00  0.00     0.014 C 
BRANCH   7   9
ATOM      9  C   UNL     1     -16.749  56.428  -2.674  1.00  0.00     0.044 C 
ATOM     10  O   UNL     1     -17.008  56.526  -3.904  1.00  0.00    -0.550 OA
ATOM     11  O   UNL     1     -15.619  55.730  -2.267  1.00  0.00    -0.550 OA
ENDBRANCH   7   9
ENDBRANCH   6   7
ENDBRANCH   5   6
ENDBRANCH   4   5
ENDBRANCH   3   4
ENDBRANCH   2   3
ENDBRANCH   1   2
BRANCH   1  12
ATOM     12  C   UNL     1     -16.040  60.327  -3.015  1.00  0.00     0.000 C 
BRANCH  12  13
ATOM     13  C   UNL     1     -14.696  60.386  -3.765  1.00  0.00    -0.000 C 
BRANCH  13  14
ATOM     14  C   UNL     1     -14.669  59.496  -5.019  1.00  0.00    -0.000 C 
BRANCH  14  15
ATOM     15  C   UNL     1     -13.973  58.143  -4.781  1.00  0.00    -0.000 C 
BRANCH  15  16
ATOM     16  C   UNL     1     -13.052  58.085  -3.548  1.00  0.00    -0.000 C 
BRANCH  16  17
ATOM     17  C   UNL     1     -11.752  57.310  -3.804  1.00  0.00    -0.000 C 
BRANCH  17  18
ATOM     18  C   UNL     1     -10.565  57.984  -3.105  1.00  0.00    -0.003 C 
ATOM     19  C   UNL     1     -10.934  59.382  -2.616  1.00  0.00     0.004 C 
ENDBRANCH  17  18
ENDBRANCH  16  17
ENDBRANCH  15  16
ENDBRANCH  14  15
ENDBRANCH  13  14
ENDBRANCH  12  13
ENDBRANCH   1  12
TORSDOF 14
ENDMDL
MODEL 8
REMARK VINA RESULT:    16.218     11.098     15.255
REMARK INTER + INTRA:          28.788
REMARK INTER:                  30.384
REMARK INTRA:                  -1.596
REMARK UNBOUND:                -0.703
REMARK SMILES CCCCCCCCCCCCCC[C@H](C)C(=O)[O-]
REMARK SMILES IDX 9 1 10 2 11 3 12 4 13 5 14 6 15 7 16 8 17 9 18 10 19 11 8 12
REMARK SMILES IDX 7 13 6 14 5 15 4 16 3 17 2 18 1 19
REMARK H PARENT
REMARK Flexibility Score: inf
ROOT
ATOM      1  C   UNL     1      -3.872  43.875  -1.712  1.00  0.00     0.000 C 
ENDROOT
BRANCH   1   2
ATOM      2  C   UNL     1      -5.163  44.359  -1.035  1.00  0.00     0.000 C 
BRANCH   2   3
ATOM      3  C   UNL     1      -6.018  45.183  -2.006  1.00  0.00     0.000 C 
BRANCH   3   4
ATOM      4  C   UNL     1      -7.031  46.050  -1.249  1.00  0.00     0.000 C 
BRANCH   4   5
ATOM      5  C   UNL     1      -7.872  46.889  -2.223  1.00  0.00     0.001 C 
BRANCH   5   6
ATOM      6  C   UNL     1      -8.376  48.203  -1.598  1.00  0.00     0.009 C 
BRANCH   6   7
ATOM      7  C   UNL     1      -9.036  49.173  -2.606  1.00  0.00     0.032 C 
ATOM      8  C   UNL     1      -8.643  50.621  -2.292  1.00  0.00     0.014 C 
BRANCH   7   9
ATOM      9  C   UNL     1     -10.534  49.038  -2.609  1.00  0.00     0.044 C 
ATOM     10  O   UNL     1     -11.166  48.938  -3.695  1.00  0.00    -0.550 OA
ATOM     11  O   UNL     1     -11.231  49.029  -1.408  1.00  0.00    -0.550 OA
ENDBRANCH   7   9
ENDBRANCH   6   7
ENDBRANCH   5   6
ENDBRANCH   4   5
ENDBRANCH   3   4
ENDBRANCH   2   3
ENDBRANCH   1   2
BRANCH   1  12
ATOM     12  C   UNL     1      -2.642  43.950  -0.788  1.00  0.00     0.000 C 
BRANCH  12  13
ATOM     13  C   UNL     1      -1.586  45.000  -1.184  1.00  0.00    -0.000 C 
BRANCH  13  14
ATOM     14  C   UNL     1      -1.456  46.137  -0.157  1.00  0.00    -0.000 C 
BRANCH  14  15
ATOM     15  C   UNL     1      -1.841  47.513  -0.731  1.00  0.00    -0.000 C 
BRANCH  15  16
ATOM     16  C   UNL     1      -3.351  47.745  -0.925  1.00  0.00    -0.000 C 
BRANCH  16  17
ATOM     17  C   UNL     1      -3.695  48.358  -2.290  1.00  0.00    -0.000 C 
BRANCH  17  18
ATOM     18  C   UNL     1      -4.358  49.731  -2.123  1.00  0.00    -0.003 C 
ATOM     19  C   UNL     1      -4.425  50.136  -0.653  1.00  0.00     0.004 C 
ENDBRANCH  17  18
ENDBRANCH  16  17
ENDBRANCH  15  16
ENDBRANCH  14  15
ENDBRANCH  13  14
ENDBRANCH  12  13
ENDBRANCH   1  12
TORSDOF 14
ENDMDL
MODEL 9
REMARK VINA RESULT:    16.581     10.366     13.723
REMARK INTER + INTRA:          29.449
REMARK INTER:                  29.955
REMARK INTRA:                  -0.507
REMARK UNBOUND:                -0.703
REMARK SMILES CCCCCCCCCCCCCC[C@H](C)C(=O)[O-]
REMARK SMILES IDX 9 1 10 2 11 3 12 4 13 5 14 6 15 7 16 8 17 9 18 10 19 11 8 12
REMARK SMILES IDX 7 13 6 14 5 15 4 16 3 17 2 18 1 19
REMARK H PARENT
REMARK Flexibility Score: inf
ROOT
ATOM      1  C   UNL     1      -6.777  50.404  -1.789  1.00  0.00     0.000 C 
ENDROOT
BRANCH   1   2
ATOM      2  C   UNL     1      -5.305  50.574  -2.192  1.00  0.00     0.000 C 
BRANCH   2   3
ATOM      3  C   UNL     1      -4.371  50.050  -1.095  1.00  0.00     0.000 C 
BRANCH   3   4
ATOM      4  C   UNL     1      -3.640  48.782  -1.553  1.00  0.00     0.000 C 
BRANCH   4   5
ATOM      5  C   UNL     1      -4.634  47.732  -2.072  1.00  0.00     0.001 C 
BRANCH   5   6
ATOM      6  C   UNL     1      -5.356  46.980  -0.938  1.00  0.00     0.009 C 
BRANCH   6   7
ATOM      7  C   UNL     1      -6.496  46.051  -1.417  1.00  0.00     0.032 C 
ATOM      8  C   UNL     1      -7.088  45.277  -0.234  1.00  0.00     0.014 C 
BRANCH   7   9
ATOM      9  C   UNL     1      -6.023  45.091  -2.474  1.00  0.00     0.044 C 
ATOM     10  O   UNL     1      -6.461  45.169  -3.653  1.00  0.00    -0.550 OA
ATOM     11  O   UNL     1      -5.102  44.103  -2.150  1.00  0.00    -0.550 OA
ENDBRANCH   7   9
ENDBRANCH   6   7
ENDBRANCH   5   6
ENDBRANCH   4   5
ENDBRANCH   3   4
ENDBRANCH   2   3
ENDBRANCH   1   2
BRANCH   1  12
ATOM     12  C   UNL     1      -7.728  51.325  -2.578  1.00  0.00     0.000 C 
BRANCH  12  13
ATOM     13  C   UNL     1      -9.104  50.718  -2.911  1.00  0.00    -0.000 C 
BRANCH  13  14
ATOM     14  C   UNL     1      -9.027  49.597  -3.962  1.00  0.00    -0.000 C 
BRANCH  14  15
ATOM     15  C   UNL     1     -10.076  48.492  -3.739  1.00  0.00    -0.000 C 
BRANCH  15  16
ATOM     16  C   UNL     1     -11.348  48.934  -2.991  1.00  0.00    -0.000 C 
BRANCH  16  17
ATOM     17  C   UNL     1     -11.134  49.079  -1.477  1.00  0.00    -0.000 C 
BRANCH  17  18
ATOM     18  C   UNL     1     -12.453  49.408  -0.767  1.00  0.00    -0.003 C 
ATOM     19  C   UNL     1     -13.153  48.139  -0.288  1.00  0.00     0.004 C 
ENDBRANCH  17  18
ENDBRANCH  16  17
ENDBRANCH  15  16
ENDBRANCH  14  15
ENDBRANCH  13  14
ENDBRANCH  12  13
ENDBRANCH   1  12
TORSDOF 14
ENDMDL
