MODEL 1
REMARK VINA RESULT:    -4.692      0.000      0.000
REMARK INTER + INTRA:          -9.973
REMARK INTER:                  -7.161
REMARK INTRA:                  -2.812
REMARK UNBOUND:                -2.812
REMARK SMILES CC(=O)CCC=C(C)CCC=C(C)CCC=C(C)C
REMARK SMILES IDX 10 1 11 2 12 3 13 4 14 5 15 6 16 7 18 8 17 9 19 10 9 11 7 12
REMARK SMILES IDX 6 13 8 14 5 15 4 16 2 17 3 18 1 19
REMARK H PARENT
REMARK Flexibility Score: inf
ROOT
ATOM      1  C   UNL     1       2.549   9.915  16.325  1.00  0.00     0.032 C 
ENDROOT
BRANCH   1   2
ATOM      2  C   UNL     1       1.567   8.979  16.981  1.00  0.00    -0.028 C 
ATOM      3  C   UNL     1       1.189   9.053  18.279  1.00  0.00    -0.077 C 
ATOM      4  C   UNL     1       0.178   8.057  18.787  1.00  0.00     0.039 C 
BRANCH   3   5
ATOM      5  C   UNL     1       1.776  10.060  19.250  1.00  0.00     0.034 C 
BRANCH   5   6
ATOM      6  C   UNL     1       0.666  10.889  19.911  1.00  0.00     0.032 C 
BRANCH   6   7
ATOM      7  C   UNL     1      -0.136  11.642  18.877  1.00  0.00    -0.028 C 
ATOM      8  C   UNL     1      -1.589  13.413  17.983  1.00  0.00     0.039 C 
ATOM      9  C   UNL     1      -0.860  12.757  19.128  1.00  0.00    -0.080 C 
ATOM     10  C   UNL     1      -0.966  13.349  20.515  1.00  0.00     0.039 C 
ENDBRANCH   6   7
ENDBRANCH   5   6
ENDBRANCH   3   5
ENDBRANCH   1   2
BRANCH   1  11
ATOM     11  C   UNL     1       1.876  10.730  15.209  1.00  0.00     0.034 C 
BRANCH  11  12
ATOM     12  C   UNL     1       1.623  12.157  15.647  1.00  0.00    -0.077 C 
ATOM     13  C   UNL     1       2.419  12.708  16.592  1.00  0.00    -0.028 C 
ATOM     14  C   UNL     1       0.507  12.943  14.996  1.00  0.00     0.039 C 
BRANCH  13  15
ATOM     15  C   UNL     1       2.216  14.081  17.189  1.00  0.00     0.035 C 
BRANCH  15  16
ATOM     16  C   UNL     1       2.563  14.106  18.685  1.00  0.00     0.079 C 
BRANCH  16  17
ATOM     17  C   UNL     1       2.103  15.381  19.344  1.00  0.00     0.130 C 
ATOM     18  O   UNL     1       2.690  15.796  20.331  1.00  0.00    -0.300 OA
ATOM     19  C   UNL     1       0.956  16.169  18.784  1.00  0.00     0.087 C 
ENDBRANCH  16  17
ENDBRANCH  15  16
ENDBRANCH  13  15
ENDBRANCH  11  12
ENDBRANCH   1  11
TORSDOF 9
ENDMDL
MODEL 2
REMARK VINA RESULT:    -4.628      3.616      6.249
REMARK INTER + INTRA:          -9.875
REMARK INTER:                  -7.089
REMARK INTRA:                  -2.786
REMARK UNBOUND:                -2.812
REMARK SMILES CC(=O)CCC=C(C)CCC=C(C)CCC=C(C)C
REMARK SMILES IDX 10 1 11 2 12 3 13 4 14 5 15 6 16 7 18 8 17 9 19 10 9 11 7 12
REMARK SMILES IDX 6 13 8 14 5 15 4 16 2 17 3 18 1 19
REMARK H PARENT
REMARK Flexibility Score: inf
ROOT
ATOM      1  C   UNL     1       3.516  14.944  23.549  1.00  0.00     0.032 C 
ENDROOT
BRANCH   1   2
ATOM      2  C   UNL     1       3.143  13.939  24.608  1.00  0.00    -0.028 C 
ATOM      3  C   UNL     1       2.205  12.975  24.452  1.00  0.00    -0.077 C 
ATOM      4  C   UNL     1       1.957  12.026  25.596  1.00  0.00     0.039 C 
BRANCH   3   5
ATOM      5  C   UNL     1       1.362  12.844  23.197  1.00  0.00     0.034 C 
BRANCH   5   6
ATOM      6  C   UNL     1       1.866  11.688  22.322  1.00  0.00     0.032 C 
BRANCH   6   7
ATOM      7  C   UNL     1       2.830  12.185  21.272  1.00  0.00    -0.028 C 
ATOM      8  C   UNL     1       5.000  12.544  20.175  1.00  0.00     0.039 C 
ATOM      9  C   UNL     1       4.170  12.010  21.314  1.00  0.00    -0.080 C 
ATOM     10  C   UNL     1       4.853  11.313  22.469  1.00  0.00     0.039 C 
ENDBRANCH   6   7
ENDBRANCH   5   6
ENDBRANCH   3   5
ENDBRANCH   1   2
BRANCH   1  11
ATOM     11  C   UNL     1       2.523  16.118  23.527  1.00  0.00     0.034 C 
BRANCH  11  12
ATOM     12  C   UNL     1       1.947  16.325  22.141  1.00  0.00    -0.077 C 
ATOM     13  C   UNL     1       2.694  16.000  21.062  1.00  0.00    -0.028 C 
ATOM     14  C   UNL     1       0.539  16.858  21.999  1.00  0.00     0.039 C 
BRANCH  13  15
ATOM     15  C   UNL     1       2.281  16.246  19.629  1.00  0.00     0.035 C 
BRANCH  15  16
ATOM     16  C   UNL     1       2.077  14.931  18.863  1.00  0.00     0.079 C 
BRANCH  16  17
ATOM     17  C   UNL     1       0.616  14.597  18.705  1.00  0.00     0.130 C 
ATOM     18  O   UNL     1       0.043  14.874  17.663  1.00  0.00    -0.300 OA
ATOM     19  C   UNL     1      -0.138  13.894  19.795  1.00  0.00     0.087 C 
ENDBRANCH  16  17
ENDBRANCH  15  16
ENDBRANCH  13  15
ENDBRANCH  11  12
ENDBRANCH   1  11
TORSDOF 9
ENDMDL
MODEL 3
REMARK VINA RESULT:    -4.578      2.300      4.290
REMARK INTER + INTRA:          -9.800
REMARK INTER:                  -6.870
REMARK INTRA:                  -2.930
REMARK UNBOUND:                -2.812
REMARK SMILES CC(=O)CCC=C(C)CCC=C(C)CCC=C(C)C
REMARK SMILES IDX 10 1 11 2 12 3 13 4 14 5 15 6 16 7 18 8 17 9 19 10 9 11 7 12
REMARK SMILES IDX 6 13 8 14 5 15 4 16 2 17 3 18 1 19
REMARK H PARENT
REMARK Flexibility Score: inf
ROOT
ATOM      1  C   UNL     1       0.052   8.521  18.407  1.00  0.00     0.032 C 
ENDROOT
BRANCH   1   2
ATOM      2  C   UNL     1      -0.481   8.848  19.779  1.00  0.00    -0.028 C 
ATOM      3  C   UNL     1      -0.829  10.091  20.188  1.00  0.00    -0.077 C 
ATOM      4  C   UNL     1      -1.368  10.260  21.584  1.00  0.00     0.039 C 
BRANCH   3   5
ATOM      5  C   UNL     1      -0.654  11.322  19.317  1.00  0.00     0.034 C 
BRANCH   5   6
ATOM      6  C   UNL     1       0.277  12.337  19.994  1.00  0.00     0.032 C 
BRANCH   6   7
ATOM      7  C   UNL     1       1.631  12.359  19.326  1.00  0.00    -0.028 C 
ATOM      8  C   UNL     1       4.001  11.802  18.987  1.00  0.00     0.039 C 
ATOM      9  C   UNL     1       2.722  11.702  19.779  1.00  0.00    -0.080 C 
ATOM     10  C   UNL     1       2.698  10.889  21.054  1.00  0.00     0.039 C 
ENDBRANCH   6   7
ENDBRANCH   5   6
ENDBRANCH   3   5
ENDBRANCH   1   2
BRANCH   1  11
ATOM     11  C   UNL     1       1.587   8.437  18.416  1.00  0.00     0.034 C 
BRANCH  11  12
ATOM     12  C   UNL     1       2.179   9.094  17.186  1.00  0.00    -0.077 C 
ATOM     13  C   UNL     1       1.478  10.062  16.553  1.00  0.00    -0.028 C 
ATOM     14  C   UNL     1       3.553   8.674  16.714  1.00  0.00     0.039 C 
BRANCH  13  15
ATOM     15  C   UNL     1       1.905  10.727  15.266  1.00  0.00     0.035 C 
BRANCH  15  16
ATOM     16  C   UNL     1       2.459  12.138  15.511  1.00  0.00     0.079 C 
BRANCH  16  17
ATOM     17  C   UNL     1       3.817  12.323  14.885  1.00  0.00     0.130 C 
ATOM     18  O   UNL     1       4.779  12.577  15.594  1.00  0.00    -0.300 OA
ATOM     19  C   UNL     1       4.014  12.163  13.406  1.00  0.00     0.087 C 
ENDBRANCH  16  17
ENDBRANCH  15  16
ENDBRANCH  13  15
ENDBRANCH  11  12
ENDBRANCH   1  11
TORSDOF 9
ENDMDL
MODEL 4
REMARK VINA RESULT:    -4.568      3.605      5.788
REMARK INTER + INTRA:          -9.783
REMARK INTER:                  -6.705
REMARK INTRA:                  -3.078
REMARK UNBOUND:                -2.812
REMARK SMILES CC(=O)CCC=C(C)CCC=C(C)CCC=C(C)C
REMARK SMILES IDX 10 1 11 2 12 3 13 4 14 5 15 6 16 7 18 8 17 9 19 10 9 11 7 12
REMARK SMILES IDX 6 13 8 14 5 15 4 16 2 17 3 18 1 19
REMARK H PARENT
REMARK Flexibility Score: inf
ROOT
ATOM      1  C   UNL     1       3.657  15.404  23.382  1.00  0.00     0.032 C 
ENDROOT
BRANCH   1   2
ATOM      2  C   UNL     1       3.711  14.127  24.180  1.00  0.00    -0.028 C 
ATOM      3  C   UNL     1       3.913  12.899  23.645  1.00  0.00    -0.077 C 
ATOM      4  C   UNL     1       3.964  11.714  24.575  1.00  0.00     0.039 C 
BRANCH   3   5
ATOM      5  C   UNL     1       4.039  12.663  22.152  1.00  0.00     0.034 C 
BRANCH   5   6
ATOM      6  C   UNL     1       2.908  11.757  21.647  1.00  0.00     0.032 C 
BRANCH   6   7
ATOM      7  C   UNL     1       1.735  12.575  21.162  1.00  0.00    -0.028 C 
ATOM      8  C   UNL     1      -0.459  13.678  21.269  1.00  0.00     0.039 C 
ATOM      9  C   UNL     1       0.618  12.820  21.883  1.00  0.00    -0.080 C 
ATOM     10  C   UNL     1       0.416  12.251  23.269  1.00  0.00     0.039 C 
ENDBRANCH   6   7
ENDBRANCH   5   6
ENDBRANCH   3   5
ENDBRANCH   1   2
BRANCH   1  11
ATOM     11  C   UNL     1       2.262  16.045  23.458  1.00  0.00     0.034 C 
BRANCH  11  12
ATOM     12  C   UNL     1       1.778  16.471  22.087  1.00  0.00    -0.077 C 
ATOM     13  C   UNL     1       2.539  16.193  21.004  1.00  0.00    -0.028 C 
ATOM     14  C   UNL     1       0.440  17.165  21.959  1.00  0.00     0.039 C 
BRANCH  13  15
ATOM     15  C   UNL     1       2.224  16.646  19.597  1.00  0.00     0.035 C 
BRANCH  15  16
ATOM     16  C   UNL     1       2.154  15.462  18.621  1.00  0.00     0.079 C 
BRANCH  16  17
ATOM     17  C   UNL     1       0.742  15.188  18.174  1.00  0.00     0.130 C 
ATOM     18  O   UNL     1       0.464  14.104  17.683  1.00  0.00    -0.300 OA
ATOM     19  C   UNL     1      -0.339  16.212  18.357  1.00  0.00     0.087 C 
ENDBRANCH  16  17
ENDBRANCH  15  16
ENDBRANCH  13  15
ENDBRANCH  11  12
ENDBRANCH   1  11
TORSDOF 9
ENDMDL
MODEL 5
REMARK VINA RESULT:    -4.565      3.517      5.951
REMARK INTER + INTRA:          -9.779
REMARK INTER:                  -7.616
REMARK INTRA:                  -2.163
REMARK UNBOUND:                -2.812
REMARK SMILES CC(=O)CCC=C(C)CCC=C(C)CCC=C(C)C
REMARK SMILES IDX 10 1 11 2 12 3 13 4 14 5 15 6 16 7 18 8 17 9 19 10 9 11 7 12
REMARK SMILES IDX 6 13 8 14 5 15 4 16 2 17 3 18 1 19
REMARK H PARENT
REMARK Flexibility Score: inf
ROOT
ATOM      1  C   UNL     1       4.365  13.016  21.571  1.00  0.00     0.032 C 
ENDROOT
BRANCH   1   2
ATOM      2  C   UNL     1       3.595  12.581  22.791  1.00  0.00    -0.028 C 
ATOM      3  C   UNL     1       3.258  13.401  23.815  1.00  0.00    -0.077 C 
ATOM      4  C   UNL     1       2.466  12.826  24.961  1.00  0.00     0.039 C 
BRANCH   3   5
ATOM      5  C   UNL     1       3.686  14.856  23.879  1.00  0.00     0.034 C 
BRANCH   5   6
ATOM      6  C   UNL     1       2.528  15.780  23.478  1.00  0.00     0.032 C 
BRANCH   6   7
ATOM      7  C   UNL     1       2.710  16.297  22.072  1.00  0.00    -0.028 C 
ATOM      8  C   UNL     1       2.308  16.477  19.653  1.00  0.00     0.039 C 
ATOM      9  C   UNL     1       2.034  15.841  20.992  1.00  0.00    -0.080 C 
ATOM     10  C   UNL     1       1.031  14.715  21.090  1.00  0.00     0.039 C 
ENDBRANCH   6   7
ENDBRANCH   5   6
ENDBRANCH   3   5
ENDBRANCH   1   2
BRANCH   1  11
ATOM     11  C   UNL     1       4.481  11.869  20.553  1.00  0.00     0.034 C 
BRANCH  11  12
ATOM     12  C   UNL     1       3.297  11.852  19.608  1.00  0.00    -0.077 C 
ATOM     13  C   UNL     1       2.371  10.874  19.729  1.00  0.00    -0.028 C 
ATOM     14  C   UNL     1       3.162  12.947  18.574  1.00  0.00     0.039 C 
BRANCH  13  15
ATOM     15  C   UNL     1       1.200  10.682  18.794  1.00  0.00     0.035 C 
BRANCH  15  16
ATOM     16  C   UNL     1       1.271   9.332  18.065  1.00  0.00     0.079 C 
BRANCH  16  17
ATOM     17  C   UNL     1       2.209   9.383  16.886  1.00  0.00     0.130 C 
ATOM     18  O   UNL     1       3.148   8.604  16.829  1.00  0.00    -0.300 OA
ATOM     19  C   UNL     1       1.986  10.351  15.762  1.00  0.00     0.087 C 
ENDBRANCH  16  17
ENDBRANCH  15  16
ENDBRANCH  13  15
ENDBRANCH  11  12
ENDBRANCH   1  11
TORSDOF 9
ENDMDL
MODEL 6
REMARK VINA RESULT:    -4.484      2.145      3.678
REMARK INTER + INTRA:          -9.655
REMARK INTER:                  -7.297
REMARK INTRA:                  -2.358
REMARK UNBOUND:                -2.812
REMARK SMILES CC(=O)CCC=C(C)CCC=C(C)CCC=C(C)C
REMARK SMILES IDX 10 1 11 2 12 3 13 4 14 5 15 6 16 7 18 8 17 9 19 10 9 11 7 12
REMARK SMILES IDX 6 13 8 14 5 15 4 16 2 17 3 18 1 19
REMARK H PARENT
REMARK Flexibility Score: inf
ROOT
ATOM      1  C   UNL     1       0.650   8.898  17.867  1.00  0.00     0.032 C 
ENDROOT
BRANCH   1   2
ATOM      2  C   UNL     1       0.421   8.156  19.159  1.00  0.00    -0.028 C 
ATOM      3  C   UNL     1       0.898   8.551  20.364  1.00  0.00    -0.077 C 
ATOM      4  C   UNL     1       0.567   7.716  21.573  1.00  0.00     0.039 C 
BRANCH   3   5
ATOM      5  C   UNL     1       1.790   9.767  20.535  1.00  0.00     0.034 C 
BRANCH   5   6
ATOM      6  C   UNL     1       0.957  11.056  20.535  1.00  0.00     0.032 C 
BRANCH   6   7
ATOM      7  C   UNL     1       1.670  12.161  19.795  1.00  0.00    -0.028 C 
ATOM      8  C   UNL     1       1.988  13.926  18.114  1.00  0.00     0.039 C 
ATOM      9  C   UNL     1       1.163  12.826  18.733  1.00  0.00    -0.080 C 
ATOM     10  C   UNL     1      -0.189  12.491  18.146  1.00  0.00     0.039 C 
ENDBRANCH   6   7
ENDBRANCH   5   6
ENDBRANCH   3   5
ENDBRANCH   1   2
BRANCH   1  11
ATOM     11  C   UNL     1       2.090   8.701  17.365  1.00  0.00     0.034 C 
BRANCH  11  12
ATOM     12  C   UNL     1       2.624   9.964  16.721  1.00  0.00    -0.077 C 
ATOM     13  C   UNL     1       1.948  10.512  15.685  1.00  0.00    -0.028 C 
ATOM     14  C   UNL     1       3.881  10.599  17.271  1.00  0.00     0.039 C 
BRANCH  13  15
ATOM     15  C   UNL     1       2.419  11.708  14.891  1.00  0.00     0.035 C 
BRANCH  15  16
ATOM     16  C   UNL     1       1.292  12.730  14.681  1.00  0.00     0.079 C 
BRANCH  16  17
ATOM     17  C   UNL     1       1.652  13.750  13.632  1.00  0.00     0.130 C 
ATOM     18  O   UNL     1       2.793  14.182  13.577  1.00  0.00    -0.300 OA
ATOM     19  C   UNL     1       0.639  14.216  12.629  1.00  0.00     0.087 C 
ENDBRANCH  16  17
ENDBRANCH  15  16
ENDBRANCH  13  15
ENDBRANCH  11  12
ENDBRANCH   1  11
TORSDOF 9
ENDMDL
MODEL 7
REMARK VINA RESULT:    -4.454      4.509      7.212
REMARK INTER + INTRA:          -9.610
REMARK INTER:                  -6.672
REMARK INTRA:                  -2.939
REMARK UNBOUND:                -2.812
REMARK SMILES CC(=O)CCC=C(C)CCC=C(C)CCC=C(C)C
REMARK SMILES IDX 10 1 11 2 12 3 13 4 14 5 15 6 16 7 18 8 17 9 19 10 9 11 7 12
REMARK SMILES IDX 6 13 8 14 5 15 4 16 2 17 3 18 1 19
REMARK H PARENT
REMARK Flexibility Score: inf
ROOT
ATOM      1  C   UNL     1       3.360  15.036  23.883  1.00  0.00     0.032 C 
ENDROOT
BRANCH   1   2
ATOM      2  C   UNL     1       2.135  15.832  23.510  1.00  0.00    -0.028 C 
ATOM      3  C   UNL     1       1.853  16.260  22.257  1.00  0.00    -0.077 C 
ATOM      4  C   UNL     1       0.577  17.029  22.034  1.00  0.00     0.039 C 
BRANCH   3   5
ATOM      5  C   UNL     1       2.790  16.041  21.083  1.00  0.00     0.034 C 
BRANCH   5   6
ATOM      6  C   UNL     1       2.034  15.448  19.887  1.00  0.00     0.032 C 
BRANCH   6   7
ATOM      7  C   UNL     1       2.464  14.025  19.626  1.00  0.00    -0.028 C 
ATOM      8  C   UNL     1       2.382  11.571  19.756  1.00  0.00     0.039 C 
ATOM      9  C   UNL     1       1.848  12.931  20.128  1.00  0.00    -0.080 C 
ATOM     10  C   UNL     1       0.657  13.034  21.054  1.00  0.00     0.039 C 
ENDBRANCH   6   7
ENDBRANCH   5   6
ENDBRANCH   3   5
ENDBRANCH   1   2
BRANCH   1  11
ATOM     11  C   UNL     1       2.997  13.572  24.182  1.00  0.00     0.034 C 
BRANCH  11  12
ATOM     12  C   UNL     1       3.767  12.622  23.288  1.00  0.00    -0.077 C 
ATOM     13  C   UNL     1       4.736  13.114  22.482  1.00  0.00    -0.028 C 
ATOM     14  C   UNL     1       3.457  11.143  23.341  1.00  0.00     0.039 C 
BRANCH  13  15
ATOM     15  C   UNL     1       5.508  12.297  21.473  1.00  0.00     0.035 C 
BRANCH  15  16
ATOM     16  C   UNL     1       7.013  12.289  21.782  1.00  0.00     0.079 C 
BRANCH  16  17
ATOM     17  C   UNL     1       7.313  11.590  23.083  1.00  0.00     0.130 C 
ATOM     18  O   UNL     1       7.035  10.408  23.210  1.00  0.00    -0.300 OA
ATOM     19  C   UNL     1       7.982  12.315  24.213  1.00  0.00     0.087 C 
ENDBRANCH  16  17
ENDBRANCH  15  16
ENDBRANCH  13  15
ENDBRANCH  11  12
ENDBRANCH   1  11
TORSDOF 9
ENDMDL
MODEL 8
REMARK VINA RESULT:    -4.414      2.467      3.761
REMARK INTER + INTRA:          -9.548
REMARK INTER:                  -7.229
REMARK INTRA:                  -2.320
REMARK UNBOUND:                -2.812
REMARK SMILES CC(=O)CCC=C(C)CCC=C(C)CCC=C(C)C
REMARK SMILES IDX 10 1 11 2 12 3 13 4 14 5 15 6 16 7 18 8 17 9 19 10 9 11 7 12
REMARK SMILES IDX 6 13 8 14 5 15 4 16 2 17 3 18 1 19
REMARK H PARENT
REMARK Flexibility Score: inf
ROOT
ATOM      1  C   UNL     1       1.149   8.883  17.518  1.00  0.00     0.032 C 
ENDROOT
BRANCH   1   2
ATOM      2  C   UNL     1       1.281   8.311  18.906  1.00  0.00    -0.028 C 
ATOM      3  C   UNL     1       0.349   8.444  19.880  1.00  0.00    -0.077 C 
ATOM      4  C   UNL     1       0.613   7.797  21.215  1.00  0.00     0.039 C 
BRANCH   3   5
ATOM      5  C   UNL     1      -0.920   9.256  19.698  1.00  0.00     0.034 C 
BRANCH   5   6
ATOM      6  C   UNL     1      -0.780  10.637  20.352  1.00  0.00     0.032 C 
BRANCH   6   7
ATOM      7  C   UNL     1      -0.389  11.681  19.335  1.00  0.00    -0.028 C 
ATOM      8  C   UNL     1       1.093  13.225  18.125  1.00  0.00     0.039 C 
ATOM      9  C   UNL     1       0.851  12.206  19.209  1.00  0.00    -0.080 C 
ATOM     10  C   UNL     1       1.987  11.811  20.125  1.00  0.00     0.039 C 
ENDBRANCH   6   7
ENDBRANCH   5   6
ENDBRANCH   3   5
ENDBRANCH   1   2
BRANCH   1  11
ATOM     11  C   UNL     1       2.509   8.914  16.801  1.00  0.00     0.034 C 
BRANCH  11  12
ATOM     12  C   UNL     1       2.886  10.325  16.399  1.00  0.00    -0.077 C 
ATOM     13  C   UNL     1       2.221  10.921  15.383  1.00  0.00    -0.028 C 
ATOM     14  C   UNL     1       3.973  11.046  17.165  1.00  0.00     0.039 C 
BRANCH  13  15
ATOM     15  C   UNL     1       2.560  12.280  14.818  1.00  0.00     0.035 C 
BRANCH  15  16
ATOM     16  C   UNL     1       3.689  12.198  13.779  1.00  0.00     0.079 C 
BRANCH  16  17
ATOM     17  C   UNL     1       4.696  13.304  13.960  1.00  0.00     0.130 C 
ATOM     18  O   UNL     1       4.392  14.450  13.665  1.00  0.00    -0.300 OA
ATOM     19  C   UNL     1       6.055  13.027  14.532  1.00  0.00     0.087 C 
ENDBRANCH  16  17
ENDBRANCH  15  16
ENDBRANCH  13  15
ENDBRANCH  11  12
ENDBRANCH   1  11
TORSDOF 9
ENDMDL
MODEL 9
REMARK VINA RESULT:    -4.392      2.023      3.987
REMARK INTER + INTRA:          -9.515
REMARK INTER:                  -6.451
REMARK INTRA:                  -3.064
REMARK UNBOUND:                -2.812
REMARK SMILES CC(=O)CCC=C(C)CCC=C(C)CCC=C(C)C
REMARK SMILES IDX 10 1 11 2 12 3 13 4 14 5 15 6 16 7 18 8 17 9 19 10 9 11 7 12
REMARK SMILES IDX 6 13 8 14 5 15 4 16 2 17 3 18 1 19
REMARK H PARENT
REMARK Flexibility Score: inf
ROOT
ATOM      1  C   UNL     1       1.708   8.589  17.953  1.00  0.00     0.032 C 
ENDROOT
BRANCH   1   2
ATOM      2  C   UNL     1       1.752   9.256  16.602  1.00  0.00    -0.028 C 
ATOM      3  C   UNL     1       2.497  10.350  16.313  1.00  0.00    -0.077 C 
ATOM      4  C   UNL     1       2.454  10.892  14.907  1.00  0.00     0.039 C 
BRANCH   3   5
ATOM      5  C   UNL     1       3.328  11.076  17.353  1.00  0.00     0.034 C 
BRANCH   5   6
ATOM      6  C   UNL     1       3.113  12.593  17.258  1.00  0.00     0.032 C 
BRANCH   6   7
ATOM      7  C   UNL     1       2.380  13.113  18.471  1.00  0.00    -0.028 C 
ATOM      8  C   UNL     1       0.449  13.723  19.864  1.00  0.00     0.039 C 
ATOM      9  C   UNL     1       1.035  13.206  18.575  1.00  0.00    -0.080 C 
ATOM     10  C   UNL     1       0.113  12.820  17.441  1.00  0.00     0.039 C 
ENDBRANCH   6   7
ENDBRANCH   5   6
ENDBRANCH   3   5
ENDBRANCH   1   2
BRANCH   1  11
ATOM     11  C   UNL     1       0.321   8.740  18.599  1.00  0.00     0.034 C 
BRANCH  11  12
ATOM     12  C   UNL     1       0.370   9.672  19.792  1.00  0.00    -0.077 C 
ATOM     13  C   UNL     1       1.566   9.961  20.354  1.00  0.00    -0.028 C 
ATOM     14  C   UNL     1      -0.915  10.281  20.306  1.00  0.00     0.039 C 
BRANCH  13  15
ATOM     15  C   UNL     1       1.747  10.793  21.602  1.00  0.00     0.035 C 
BRANCH  15  16
ATOM     16  C   UNL     1       3.165  11.376  21.695  1.00  0.00     0.079 C 
BRANCH  16  17
ATOM     17  C   UNL     1       3.157  12.778  22.247  1.00  0.00     0.130 C 
ATOM     18  O   UNL     1       3.822  13.645  21.701  1.00  0.00    -0.300 OA
ATOM     19  C   UNL     1       2.315  13.136  23.436  1.00  0.00     0.087 C 
ENDBRANCH  16  17
ENDBRANCH  15  16
ENDBRANCH  13  15
ENDBRANCH  11  12
ENDBRANCH   1  11
TORSDOF 9
ENDMDL
