MODEL 1
REMARK VINA RESULT:    23.437      0.000      0.000
REMARK INTER + INTRA:          58.005
REMARK INTER:                  59.061
REMARK INTRA:                  -1.056
REMARK UNBOUND:                -1.056
REMARK SMILES CCCCCCCCCCCCCCCCCCCCCCCCCCCC(=O)[O-]
REMARK SMILES IDX 15 1 16 2 17 3 18 4 19 5 20 6 21 7 22 8 23 9 24 10 25 11
REMARK SMILES IDX 26 12 27 13 28 14 29 15 30 16 14 17 13 18 12 19 11 20 10 21
REMARK SMILES IDX 9 22 8 23 7 24 6 25 5 26 4 27 3 28 2 29 1 30
REMARK H PARENT
REMARK Flexibility Score: inf
ROOT
ATOM      1  C   UNL     1       6.114  15.882  46.488  1.00  0.00     0.000 C 
ENDROOT
BRANCH   1   2
ATOM      2  C   UNL     1       7.519  15.368  46.108  1.00  0.00     0.000 C 
BRANCH   2   3
ATOM      3  C   UNL     1       7.490  13.989  45.431  1.00  0.00     0.000 C 
BRANCH   3   4
ATOM      4  C   UNL     1       8.897  13.570  44.978  1.00  0.00     0.000 C 
BRANCH   4   5
ATOM      5  C   UNL     1       9.557  14.614  44.060  1.00  0.00     0.000 C 
BRANCH   5   6
ATOM      6  C   UNL     1      10.314  13.969  42.887  1.00  0.00     0.000 C 
BRANCH   6   7
ATOM      7  C   UNL     1      11.808  13.745  43.189  1.00  0.00     0.000 C 
BRANCH   7   8
ATOM      8  C   UNL     1      12.434  12.522  42.491  1.00  0.00     0.000 C 
BRANCH   8   9
ATOM      9  C   UNL     1      12.908  11.449  43.486  1.00  0.00     0.000 C 
BRANCH   9  10
ATOM     10  C   UNL     1      14.323  11.717  44.030  1.00  0.00     0.000 C 
BRANCH  10  11
ATOM     11  C   UNL     1      15.067  10.477  44.555  1.00  0.00     0.000 C 
BRANCH  11  12
ATOM     12  C   UNL     1      15.772  10.727  45.900  1.00  0.00     0.006 C 
BRANCH  12  13
ATOM     13  C   UNL     1      15.863  12.223  46.236  1.00  0.00     0.053 C 
BRANCH  13  14
ATOM     14  C   UNL     1      15.418  12.507  47.637  1.00  0.00     0.041 C 
ATOM     15  O   UNL     1      14.469  11.854  48.146  1.00  0.00    -0.550 OA
ATOM     16  O   UNL     1      16.070  13.473  48.393  1.00  0.00    -0.550 OA
ENDBRANCH  13  14
ENDBRANCH  12  13
ENDBRANCH  11  12
ENDBRANCH  10  11
ENDBRANCH   9  10
ENDBRANCH   8   9
ENDBRANCH   7   8
ENDBRANCH   6   7
ENDBRANCH   5   6
ENDBRANCH   4   5
ENDBRANCH   3   4
ENDBRANCH   2   3
ENDBRANCH   1   2
BRANCH   1  17
ATOM     17  C   UNL     1       6.050  17.401  46.737  1.00  0.00     0.000 C 
BRANCH  17  18
ATOM     18  C   UNL     1       6.589  17.862  48.103  1.00  0.00     0.000 C 
BRANCH  18  19
ATOM     19  C   UNL     1       5.830  19.070  48.697  1.00  0.00     0.000 C 
BRANCH  19  20
ATOM     20  C   UNL     1       5.353  18.825  50.138  1.00  0.00     0.000 C 
BRANCH  20  21
ATOM     21  C   UNL     1       4.527  19.993  50.707  1.00  0.00     0.000 C 
BRANCH  21  22
ATOM     22  C   UNL     1       4.360  19.991  52.240  1.00  0.00    -0.000 C 
BRANCH  22  23
ATOM     23  C   UNL     1       5.567  20.535  53.031  1.00  0.00    -0.000 C 
BRANCH  23  24
ATOM     24  C   UNL     1       5.216  21.185  54.383  1.00  0.00    -0.000 C 
BRANCH  24  25
ATOM     25  C   UNL     1       6.280  21.015  55.486  1.00  0.00    -0.000 C 
BRANCH  25  26
ATOM     26  C   UNL     1       7.741  21.022  54.995  1.00  0.00    -0.000 C 
BRANCH  26  27
ATOM     27  C   UNL     1       8.742  20.610  56.089  1.00  0.00    -0.000 C 
BRANCH  27  28
ATOM     28  C   UNL     1      10.031  20.002  55.511  1.00  0.00    -0.000 C 
BRANCH  28  29
ATOM     29  C   UNL     1      11.301  20.611  56.125  1.00  0.00    -0.003 C 
ATOM     30  C   UNL     1      11.390  22.107  55.831  1.00  0.00     0.004 C 
ENDBRANCH  28  29
ENDBRANCH  27  28
ENDBRANCH  26  27
ENDBRANCH  25  26
ENDBRANCH  24  25
ENDBRANCH  23  24
ENDBRANCH  22  23
ENDBRANCH  21  22
ENDBRANCH  20  21
ENDBRANCH  19  20
ENDBRANCH  18  19
ENDBRANCH  17  18
ENDBRANCH   1  17
TORSDOF 26
ENDMDL
MODEL 2
REMARK VINA RESULT:    25.907      3.633      4.905
REMARK INTER + INTRA:          64.228
REMARK INTER:                  63.971
REMARK INTRA:                   0.257
REMARK UNBOUND:                -1.056
REMARK SMILES CCCCCCCCCCCCCCCCCCCCCCCCCCCC(=O)[O-]
REMARK SMILES IDX 15 1 16 2 17 3 18 4 19 5 20 6 21 7 22 8 23 9 24 10 25 11
REMARK SMILES IDX 26 12 27 13 28 14 29 15 30 16 14 17 13 18 12 19 11 20 10 21
REMARK SMILES IDX 9 22 8 23 7 24 6 25 5 26 4 27 3 28 2 29 1 30
REMARK H PARENT
REMARK Flexibility Score: inf
ROOT
ATOM      1  C   UNL     1       6.669  16.971  47.647  1.00  0.00     0.000 C 
ENDROOT
BRANCH   1   2
ATOM      2  C   UNL     1       6.167  16.642  46.224  1.00  0.00     0.000 C 
BRANCH   2   3
ATOM      3  C   UNL     1       5.628  17.873  45.478  1.00  0.00     0.000 C 
BRANCH   3   4
ATOM      4  C   UNL     1       5.008  17.471  44.132  1.00  0.00     0.000 C 
BRANCH   4   5
ATOM      5  C   UNL     1       5.949  16.597  43.285  1.00  0.00     0.000 C 
BRANCH   5   6
ATOM      6  C   UNL     1       5.257  16.034  42.031  1.00  0.00     0.000 C 
BRANCH   6   7
ATOM      7  C   UNL     1       6.143  16.110  40.773  1.00  0.00     0.000 C 
BRANCH   7   8
ATOM      8  C   UNL     1       6.833  17.469  40.549  1.00  0.00     0.000 C 
BRANCH   8   9
ATOM      9  C   UNL     1       7.933  17.755  41.584  1.00  0.00     0.000 C 
BRANCH   9  10
ATOM     10  C   UNL     1       8.312  16.517  42.416  1.00  0.00     0.000 C 
BRANCH  10  11
ATOM     11  C   UNL     1       9.711  16.560  43.055  1.00  0.00     0.000 C 
BRANCH  11  12
ATOM     12  C   UNL     1       9.969  15.382  44.012  1.00  0.00     0.006 C 
BRANCH  12  13
ATOM     13  C   UNL     1       8.672  14.660  44.403  1.00  0.00     0.053 C 
BRANCH  13  14
ATOM     14  C   UNL     1       8.889  13.190  44.591  1.00  0.00     0.041 C 
ATOM     15  O   UNL     1       9.861  12.616  44.034  1.00  0.00    -0.550 OA
ATOM     16  O   UNL     1       8.034  12.459  45.406  1.00  0.00    -0.550 OA
ENDBRANCH  13  14
ENDBRANCH  12  13
ENDBRANCH  11  12
ENDBRANCH  10  11
ENDBRANCH   9  10
ENDBRANCH   8   9
ENDBRANCH   7   8
ENDBRANCH   6   7
ENDBRANCH   5   6
ENDBRANCH   4   5
ENDBRANCH   3   4
ENDBRANCH   2   3
ENDBRANCH   1   2
BRANCH   1  17
ATOM     17  C   UNL     1       6.167  18.323  48.188  1.00  0.00     0.000 C 
BRANCH  17  18
ATOM     18  C   UNL     1       6.196  18.463  49.721  1.00  0.00     0.000 C 
BRANCH  18  19
ATOM     19  C   UNL     1       5.012  19.272  50.295  1.00  0.00     0.000 C 
BRANCH  19  20
ATOM     20  C   UNL     1       5.461  20.539  51.042  1.00  0.00     0.000 C 
BRANCH  20  21
ATOM     21  C   UNL     1       5.458  20.371  52.572  1.00  0.00     0.000 C 
BRANCH  21  22
ATOM     22  C   UNL     1       4.332  21.122  53.312  1.00  0.00    -0.000 C 
BRANCH  22  23
ATOM     23  C   UNL     1       4.162  20.748  54.798  1.00  0.00    -0.000 C 
BRANCH  23  24
ATOM     24  C   UNL     1       5.470  20.377  55.525  1.00  0.00    -0.000 C 
BRANCH  24  25
ATOM     25  C   UNL     1       6.349  21.572  55.941  1.00  0.00    -0.000 C 
BRANCH  25  26
ATOM     26  C   UNL     1       7.690  21.693  55.192  1.00  0.00    -0.000 C 
BRANCH  26  27
ATOM     27  C   UNL     1       8.909  21.574  56.124  1.00  0.00    -0.000 C 
BRANCH  27  28
ATOM     28  C   UNL     1       9.536  20.169  56.101  1.00  0.00    -0.000 C 
BRANCH  28  29
ATOM     29  C   UNL     1      10.946  20.159  55.491  1.00  0.00    -0.003 C 
ATOM     30  C   UNL     1      11.702  21.439  55.835  1.00  0.00     0.004 C 
ENDBRANCH  28  29
ENDBRANCH  27  28
ENDBRANCH  26  27
ENDBRANCH  25  26
ENDBRANCH  24  25
ENDBRANCH  23  24
ENDBRANCH  22  23
ENDBRANCH  21  22
ENDBRANCH  20  21
ENDBRANCH  19  20
ENDBRANCH  18  19
ENDBRANCH  17  18
ENDBRANCH   1  17
TORSDOF 26
ENDMDL
