MODEL 1
REMARK VINA RESULT:    -3.850      0.000      0.000
REMARK INTER + INTRA:          -4.086
REMARK INTER:                  -4.750
REMARK INTRA:                   0.664
REMARK UNBOUND:                 0.664
REMARK SMILES C=C1[C@@H]2CC[C@H]3[C@@H]2C(C)(C)CCC[C@@]13C
REMARK SMILES IDX 14 1 6 2 7 3 3 4 2 5 1 6 4 7 5 8 15 9 8 10 9 11 10 12 11 13
REMARK SMILES IDX 13 15 12 16
REMARK H PARENT
REMARK Flexibility Score: 80.00
ROOT
ATOM      1  C   UNL     1       2.016  -1.054  14.544  1.00  0.00    -0.008 C 
ATOM      2  C   UNL     1       2.480  -2.555  14.619  1.00  0.00     0.003 C 
ATOM      3  C   UNL     1       1.169  -3.336  14.441  1.00  0.00     0.006 C 
ATOM      4  C   UNL     1       0.477  -2.634  15.611  1.00  0.00     0.019 C 
ATOM      5  C   UNL     1       0.696  -1.186  15.269  1.00  0.00    -0.068 C 
ATOM      6  C   UNL     1      -0.115  -0.184  15.632  1.00  0.00     0.009 C 
ATOM      7  C   UNL     1       1.439  -2.947  16.773  1.00  0.00     0.008 C 
ATOM      8  C   UNL     1       2.820  -2.956  16.081  1.00  0.00     0.005 C 
ATOM      9  C   UNL     1       2.960  -0.084  15.301  1.00  0.00     0.016 C 
ENDROOT
BRANCH   3  10
ATOM     10  C   UNL     1       0.453  -3.326  13.018  1.00  0.00    -0.032 C 
ATOM     11  C   UNL     1      -0.900  -2.560  12.973  1.00  0.00     0.011 C 
ATOM     12  C   UNL     1       0.077  -4.797  12.681  1.00  0.00     0.011 C 
BRANCH  10  13
ATOM     13  C   UNL     1       1.391  -2.852  11.860  1.00  0.00     0.007 CG0
ATOM     14  G   UNL     1       2.132  -1.492  11.943  1.00  0.00     0.000 G0
ENDBRANCH  10  13
ENDBRANCH   3  10
BRANCH   1  15
ATOM     15  C   UNL     1       1.795  -0.532  13.082  1.00  0.00     0.011 C 
BRANCH  15  16
ATOM     16  C   UNL     1       2.136  -1.498  11.940  1.00  0.00     0.001 CG0
ATOM     17  G   UNL     1       1.392  -2.856  11.859  1.00  0.00     0.000 G0
ENDBRANCH  15  16
ENDBRANCH   1  15
TORSDOF 0
ENDMDL
MODEL 2
REMARK VINA RESULT:    -3.827      1.593      3.060
REMARK INTER + INTRA:          -4.057
REMARK INTER:                  -4.700
REMARK INTRA:                   0.642
REMARK UNBOUND:                 0.664
REMARK SMILES C=C1[C@@H]2CC[C@H]3[C@@H]2C(C)(C)CCC[C@@]13C
REMARK SMILES IDX 14 1 6 2 7 3 3 4 2 5 1 6 4 7 5 8 15 9 8 10 9 11 10 12 11 13
REMARK SMILES IDX 13 15 12 16
REMARK H PARENT
REMARK Flexibility Score: 80.00
ROOT
ATOM      1  C   UNL     1       1.750  -1.074  14.556  1.00  0.00    -0.008 C 
ATOM      2  C   UNL     1       1.553  -0.829  13.015  1.00  0.00     0.003 C 
ATOM      3  C   UNL     1       1.133  -2.213  12.492  1.00  0.00     0.006 C 
ATOM      4  C   UNL     1       2.370  -2.911  13.059  1.00  0.00     0.019 C 
ATOM      5  C   UNL     1       2.342  -2.462  14.494  1.00  0.00    -0.068 C 
ATOM      6  C   UNL     1       2.844  -3.160  15.522  1.00  0.00     0.009 C 
ATOM      7  C   UNL     1       3.509  -2.118  12.388  1.00  0.00     0.008 C 
ATOM      8  C   UNL     1       2.924  -0.691  12.297  1.00  0.00     0.005 C 
ATOM      9  C   UNL     1       2.748  -0.082  15.209  1.00  0.00     0.016 C 
ENDROOT
BRANCH   3  10
ATOM     10  C   UNL     1      -0.304  -2.780  12.881  1.00  0.00    -0.032 C 
ATOM     11  C   UNL     1      -0.286  -4.006  13.837  1.00  0.00     0.011 C 
ATOM     12  C   UNL     1      -0.957  -3.316  11.575  1.00  0.00     0.011 C 
BRANCH  10  13
ATOM     13  C   UNL     1      -1.275  -1.678  13.420  1.00  0.00     0.007 CG0
ATOM     14  G   UNL     1      -0.855  -0.751  14.590  1.00  0.00     0.000 G0
ENDBRANCH  10  13
ENDBRANCH   3  10
BRANCH   1  15
ATOM     15  C   UNL     1       0.411  -1.078  15.373  1.00  0.00     0.011 C 
BRANCH  15  16
ATOM     16  C   UNL     1      -0.875  -0.753  14.601  1.00  0.00     0.001 CG0
ATOM     17  G   UNL     1      -1.292  -1.667  13.419  1.00  0.00     0.000 G0
ENDBRANCH  15  16
ENDBRANCH   1  15
TORSDOF 0
ENDMDL
MODEL 3
REMARK VINA RESULT:    -3.584      2.677      4.648
REMARK INTER + INTRA:          -3.758
REMARK INTER:                  -4.419
REMARK INTRA:                   0.661
REMARK UNBOUND:                 0.664
REMARK SMILES C=C1[C@@H]2CC[C@H]3[C@@H]2C(C)(C)CCC[C@@]13C
REMARK SMILES IDX 14 1 6 2 7 3 3 4 2 5 1 6 4 7 5 8 15 9 8 10 9 11 10 12 11 13
REMARK SMILES IDX 13 15 12 16
REMARK H PARENT
REMARK Flexibility Score: 80.00
ROOT
ATOM      1  C   UNL     1       0.802  -1.451  15.758  1.00  0.00    -0.008 C 
ATOM      2  C   UNL     1       0.853  -3.018  15.629  1.00  0.00     0.003 C 
ATOM      3  C   UNL     1       2.240  -3.369  16.193  1.00  0.00     0.006 C 
ATOM      4  C   UNL     1       2.977  -2.444  15.224  1.00  0.00     0.019 C 
ATOM      5  C   UNL     1       2.245  -1.146  15.425  1.00  0.00    -0.068 C 
ATOM      6  C   UNL     1       2.781   0.069  15.250  1.00  0.00     0.009 C 
ATOM      7  C   UNL     1       2.511  -2.988  13.860  1.00  0.00     0.008 C 
ATOM      8  C   UNL     1       1.064  -3.445  14.150  1.00  0.00     0.005 C 
ATOM      9  C   UNL     1      -0.148  -0.784  14.729  1.00  0.00     0.016 C 
ENDROOT
BRANCH   3  10
ATOM     10  C   UNL     1       2.502  -3.199  17.755  1.00  0.00    -0.032 C 
ATOM     11  C   UNL     1       3.497  -2.063  18.129  1.00  0.00     0.011 C 
ATOM     12  C   UNL     1       3.196  -4.500  18.250  1.00  0.00     0.011 C 
BRANCH  10  13
ATOM     13  C   UNL     1       1.186  -3.075  18.590  1.00  0.00     0.007 CG0
ATOM     14  G   UNL     1       0.112  -2.017  18.228  1.00  0.00     0.000 G0
ENDBRANCH  10  13
ENDBRANCH   3  10
BRANCH   1  15
ATOM     15  C   UNL     1       0.447  -0.945  17.199  1.00  0.00     0.011 C 
BRANCH  15  16
ATOM     16  C   UNL     1       0.121  -2.014  18.250  1.00  0.00     0.001 CG0
ATOM     17  G   UNL     1       1.192  -3.083  18.590  1.00  0.00     0.000 G0
ENDBRANCH  15  16
ENDBRANCH   1  15
TORSDOF 0
ENDMDL
MODEL 4
REMARK VINA RESULT:    -3.579     15.499     17.467
REMARK INTER + INTRA:          -3.752
REMARK INTER:                  -4.410
REMARK INTRA:                   0.659
REMARK UNBOUND:                 0.664
REMARK SMILES C=C1[C@@H]2CC[C@H]3[C@@H]2C(C)(C)CCC[C@@]13C
REMARK SMILES IDX 14 1 6 2 7 3 3 4 2 5 1 6 4 7 5 8 15 9 8 10 9 11 10 12 11 13
REMARK SMILES IDX 13 15 12 16
REMARK H PARENT
REMARK Flexibility Score: 80.00
ROOT
ATOM      1  C   UNL     1      12.485   1.135  26.945  1.00  0.00    -0.008 C 
ATOM      2  C   UNL     1      11.085   0.774  26.327  1.00  0.00     0.003 C 
ATOM      3  C   UNL     1      10.858  -0.672  26.795  1.00  0.00     0.006 C 
ATOM      4  C   UNL     1      12.172  -1.176  26.196  1.00  0.00     0.019 C 
ATOM      5  C   UNL     1      13.164  -0.204  26.775  1.00  0.00    -0.068 C 
ATOM      6  C   UNL     1      14.453  -0.479  27.013  1.00  0.00     0.009 C 
ATOM      7  C   UNL     1      12.008  -0.784  24.715  1.00  0.00     0.008 C 
ATOM      8  C   UNL     1      11.202   0.531  24.796  1.00  0.00     0.005 C 
ATOM      9  C   UNL     1      13.239   2.234  26.150  1.00  0.00     0.016 C 
ENDROOT
BRANCH   3  10
ATOM     10  C   UNL     1      10.573  -0.947  28.339  1.00  0.00    -0.032 C 
ATOM     11  C   UNL     1      11.711  -1.694  29.090  1.00  0.00     0.011 C 
ATOM     12  C   UNL     1       9.356  -1.912  28.417  1.00  0.00     0.011 C 
BRANCH  10  13
ATOM     13  C   UNL     1      10.147   0.337  29.123  1.00  0.00     0.007 CG0
ATOM     14  G   UNL     1      11.033   1.610  29.107  1.00  0.00     0.000 G0
ENDBRANCH  10  13
ENDBRANCH   3  10
BRANCH   1  15
ATOM     15  C   UNL     1      12.424   1.537  28.460  1.00  0.00     0.011 C 
BRANCH  15  16
ATOM     16  C   UNL     1      11.033   1.620  29.101  1.00  0.00     0.001 CG0
ATOM     17  G   UNL     1      10.141   0.351  29.124  1.00  0.00     0.000 G0
ENDBRANCH  15  16
ENDBRANCH   1  15
TORSDOF 0
ENDMDL
MODEL 5
REMARK VINA RESULT:    -3.323      6.464      8.782
REMARK INTER + INTRA:          -3.436
REMARK INTER:                  -4.102
REMARK INTRA:                   0.666
REMARK UNBOUND:                 0.664
REMARK SMILES C=C1[C@@H]2CC[C@H]3[C@@H]2C(C)(C)CCC[C@@]13C
REMARK SMILES IDX 14 1 6 2 7 3 3 4 2 5 1 6 4 7 5 8 15 9 8 10 9 11 10 12 11 13
REMARK SMILES IDX 13 15 12 16
REMARK H PARENT
REMARK Flexibility Score: 80.00
ROOT
ATOM      1  C   UNL     1       1.287  -4.957  20.598  1.00  0.00    -0.008 C 
ATOM      2  C   UNL     1       2.719  -5.178  19.985  1.00  0.00     0.003 C 
ATOM      3  C   UNL     1       3.614  -4.283  20.856  1.00  0.00     0.006 C 
ATOM      4  C   UNL     1       2.791  -3.023  20.581  1.00  0.00     0.019 C 
ATOM      5  C   UNL     1       1.402  -3.486  20.925  1.00  0.00    -0.068 C 
ATOM      6  C   UNL     1       0.420  -2.690  21.366  1.00  0.00     0.009 C 
ATOM      7  C   UNL     1       2.845  -2.948  19.043  1.00  0.00     0.008 C 
ATOM      8  C   UNL     1       2.860  -4.435  18.627  1.00  0.00     0.005 C 
ATOM      9  C   UNL     1       0.142  -5.202  19.581  1.00  0.00     0.016 C 
ENDROOT
BRANCH   3  10
ATOM     10  C   UNL     1       3.880  -4.700  22.371  1.00  0.00    -0.032 C 
ATOM     11  C   UNL     1       3.229  -3.766  23.430  1.00  0.00     0.011 C 
ATOM     12  C   UNL     1       5.409  -4.566  22.623  1.00  0.00     0.011 C 
BRANCH  10  13
ATOM     13  C   UNL     1       3.531  -6.195  22.667  1.00  0.00     0.007 CG0
ATOM     14  G   UNL     1       2.124  -6.762  22.345  1.00  0.00     0.000 G0
ENDBRANCH  10  13
ENDBRANCH   3  10
BRANCH   1  15
ATOM     15  C   UNL     1       1.018  -5.794  21.897  1.00  0.00     0.011 C 
BRANCH  15  16
ATOM     16  C   UNL     1       2.120  -6.765  22.339  1.00  0.00     0.001 CG0
ATOM     17  G   UNL     1       3.530  -6.203  22.661  1.00  0.00     0.000 G0
ENDBRANCH  15  16
ENDBRANCH   1  15
TORSDOF 0
ENDMDL
MODEL 6
REMARK VINA RESULT:    -3.296      8.063      9.728
REMARK INTER + INTRA:          -3.403
REMARK INTER:                  -4.067
REMARK INTRA:                   0.664
REMARK UNBOUND:                 0.664
REMARK SMILES C=C1[C@@H]2CC[C@H]3[C@@H]2C(C)(C)CCC[C@@]13C
REMARK SMILES IDX 14 1 6 2 7 3 3 4 2 5 1 6 4 7 5 8 15 9 8 10 9 11 10 12 11 13
REMARK SMILES IDX 13 15 12 16
REMARK H PARENT
REMARK Flexibility Score: 80.00
ROOT
ATOM      1  C   UNL     1       1.363  -5.566  23.349  1.00  0.00    -0.008 C 
ATOM      2  C   UNL     1       1.758  -6.509  22.154  1.00  0.00     0.003 C 
ATOM      3  C   UNL     1       2.443  -5.552  21.166  1.00  0.00     0.006 C 
ATOM      4  C   UNL     1       1.244  -4.604  21.099  1.00  0.00     0.019 C 
ATOM      5  C   UNL     1       0.988  -4.335  22.557  1.00  0.00    -0.068 C 
ATOM      6  C   UNL     1       0.438  -3.214  23.041  1.00  0.00     0.009 C 
ATOM      7  C   UNL     1       0.122  -5.555  20.639  1.00  0.00     0.008 C 
ATOM      8  C   UNL     1       0.507  -6.890  21.314  1.00  0.00     0.005 C 
ATOM      9  C   UNL     1       0.147  -6.084  24.160  1.00  0.00     0.016 C 
ENDROOT
BRANCH   3  10
ATOM     10  C   UNL     1       3.869  -4.948  21.541  1.00  0.00    -0.032 C 
ATOM     11  C   UNL     1       3.876  -3.420  21.828  1.00  0.00     0.011 C 
ATOM     12  C   UNL     1       4.781  -5.112  20.291  1.00  0.00     0.011 C 
BRANCH  10  13
ATOM     13  C   UNL     1       4.584  -5.728  22.692  1.00  0.00     0.007 CG0
ATOM     14  G   UNL     1       3.878  -5.957  24.054  1.00  0.00     0.000 G0
ENDBRANCH  10  13
ENDBRANCH   3  10
BRANCH   1  15
ATOM     15  C   UNL     1       2.548  -5.255  24.329  1.00  0.00     0.011 C 
BRANCH  15  16
ATOM     16  C   UNL     1       3.880  -5.964  24.054  1.00  0.00     0.001 CG0
ATOM     17  G   UNL     1       4.588  -5.731  22.694  1.00  0.00     0.000 G0
ENDBRANCH  15  16
ENDBRANCH   1  15
TORSDOF 0
ENDMDL
MODEL 7
REMARK VINA RESULT:    -3.264      6.652      8.945
REMARK INTER + INTRA:          -3.363
REMARK INTER:                  -4.032
REMARK INTRA:                   0.669
REMARK UNBOUND:                 0.664
REMARK SMILES C=C1[C@@H]2CC[C@H]3[C@@H]2C(C)(C)CCC[C@@]13C
REMARK SMILES IDX 14 1 6 2 7 3 3 4 2 5 1 6 4 7 5 8 15 9 8 10 9 11 10 12 11 13
REMARK SMILES IDX 13 15 12 16
REMARK H PARENT
REMARK Flexibility Score: 80.00
ROOT
ATOM      1  C   UNL     1       3.042  -4.458  23.199  1.00  0.00    -0.008 C 
ATOM      2  C   UNL     1       3.468  -3.382  22.134  1.00  0.00     0.003 C 
ATOM      3  C   UNL     1       2.763  -3.859  20.854  1.00  0.00     0.006 C 
ATOM      4  C   UNL     1       3.393  -5.252  20.908  1.00  0.00     0.019 C 
ATOM      5  C   UNL     1       3.063  -5.681  22.311  1.00  0.00    -0.068 C 
ATOM      6  C   UNL     1       2.902  -6.952  22.703  1.00  0.00     0.009 C 
ATOM      7  C   UNL     1       4.896  -4.912  20.911  1.00  0.00     0.008 C 
ATOM      8  C   UNL     1       4.947  -3.587  21.703  1.00  0.00     0.005 C 
ATOM      9  C   UNL     1       4.061  -4.608  24.359  1.00  0.00     0.016 C 
ENDROOT
BRANCH   3  10
ATOM     10  C   UNL     1       1.177  -3.746  20.760  1.00  0.00    -0.032 C 
ATOM     11  C   UNL     1       0.424  -5.107  20.760  1.00  0.00     0.011 C 
ATOM     12  C   UNL     1       0.841  -3.117  19.377  1.00  0.00     0.011 C 
BRANCH  10  13
ATOM     13  C   UNL     1       0.564  -2.779  21.826  1.00  0.00     0.007 CG0
ATOM     14  G   UNL     1       0.862  -2.969  23.336  1.00  0.00     0.000 G0
ENDBRANCH  10  13
ENDBRANCH   3  10
BRANCH   1  15
ATOM     15  C   UNL     1       1.608  -4.229  23.792  1.00  0.00     0.011 C 
BRANCH  15  16
ATOM     16  C   UNL     1       0.862  -2.967  23.340  1.00  0.00     0.001 CG0
ATOM     17  G   UNL     1       0.569  -2.770  21.830  1.00  0.00     0.000 G0
ENDBRANCH  15  16
ENDBRANCH   1  15
TORSDOF 0
ENDMDL
MODEL 8
REMARK VINA RESULT:    -3.245      5.046      7.218
REMARK INTER + INTRA:          -3.340
REMARK INTER:                  -4.001
REMARK INTRA:                   0.661
REMARK UNBOUND:                 0.664
REMARK SMILES C=C1[C@@H]2CC[C@H]3[C@@H]2C(C)(C)CCC[C@@]13C
REMARK SMILES IDX 14 1 6 2 7 3 3 4 2 5 1 6 4 7 5 8 15 9 8 10 9 11 10 12 11 13
REMARK SMILES IDX 13 15 12 16
REMARK H PARENT
REMARK Flexibility Score: 80.00
ROOT
ATOM      1  C   UNL     1       1.181  -3.800  21.828  1.00  0.00    -0.008 C 
ATOM      2  C   UNL     1       2.469  -3.077  21.288  1.00  0.00     0.003 C 
ATOM      3  C   UNL     1       2.749  -3.806  19.964  1.00  0.00     0.006 C 
ATOM      4  C   UNL     1       2.800  -5.186  20.621  1.00  0.00     0.019 C 
ATOM      5  C   UNL     1       1.505  -5.208  21.384  1.00  0.00    -0.068 C 
ATOM      6  C   UNL     1       0.813  -6.315  21.684  1.00  0.00     0.009 C 
ATOM      7  C   UNL     1       3.910  -4.989  21.672  1.00  0.00     0.008 C 
ATOM      8  C   UNL     1       3.726  -3.513  22.090  1.00  0.00     0.005 C 
ATOM      9  C   UNL     1       1.044  -3.732  23.372  1.00  0.00     0.016 C 
ENDROOT
BRANCH   3  10
ATOM     10  C   UNL     1       1.757  -3.585  18.737  1.00  0.00    -0.032 C 
ATOM     11  C   UNL     1       0.910  -4.830  18.350  1.00  0.00     0.011 C 
ATOM     12  C   UNL     1       2.633  -3.305  17.482  1.00  0.00     0.011 C 
BRANCH  10  13
ATOM     13  C   UNL     1       0.842  -2.328  18.905  1.00  0.00     0.007 CG0
ATOM     14  G   UNL     1      -0.040  -2.149  20.168  1.00  0.00     0.000 G0
ENDBRANCH  10  13
ENDBRANCH   3  10
BRANCH   1  15
ATOM     15  C   UNL     1      -0.150  -3.303  21.165  1.00  0.00     0.011 C 
BRANCH  15  16
ATOM     16  C   UNL     1      -0.039  -2.140  20.170  1.00  0.00     0.001 CG0
ATOM     17  G   UNL     1       0.839  -2.318  18.904  1.00  0.00     0.000 G0
ENDBRANCH  15  16
ENDBRANCH   1  15
TORSDOF 0
ENDMDL
MODEL 9
REMARK VINA RESULT:    -3.217      5.695      7.717
REMARK INTER + INTRA:          -3.305
REMARK INTER:                  -3.977
REMARK INTRA:                   0.672
REMARK UNBOUND:                 0.664
REMARK SMILES C=C1[C@@H]2CC[C@H]3[C@@H]2C(C)(C)CCC[C@@]13C
REMARK SMILES IDX 14 1 6 2 7 3 3 4 2 5 1 6 4 7 5 8 15 9 8 10 9 11 10 12 11 13
REMARK SMILES IDX 13 15 12 16
REMARK H PARENT
REMARK Flexibility Score: 80.00
ROOT
ATOM      1  C   UNL     1       2.931  -4.407  22.360  1.00  0.00    -0.008 C 
ATOM      2  C   UNL     1       2.710  -5.631  21.396  1.00  0.00     0.003 C 
ATOM      3  C   UNL     1       1.601  -5.137  20.453  1.00  0.00     0.006 C 
ATOM      4  C   UNL     1       0.638  -4.811  21.595  1.00  0.00     0.019 C 
ATOM      5  C   UNL     1       1.496  -3.948  22.479  1.00  0.00    -0.068 C 
ATOM      6  C   UNL     1       1.033  -2.991  23.294  1.00  0.00     0.009 C 
ATOM      7  C   UNL     1       0.529  -6.173  22.308  1.00  0.00     0.008 C 
ATOM      8  C   UNL     1       1.941  -6.772  22.118  1.00  0.00     0.005 C 
ATOM      9  C   UNL     1       3.490  -4.816  23.747  1.00  0.00     0.016 C 
ENDROOT
BRANCH   3  10
ATOM     10  C   UNL     1       1.941  -3.994  19.396  1.00  0.00    -0.032 C 
ATOM     11  C   UNL     1       1.250  -2.628  19.667  1.00  0.00     0.011 C 
ATOM     12  C   UNL     1       1.370  -4.452  18.023  1.00  0.00     0.011 C 
BRANCH  10  13
ATOM     13  C   UNL     1       3.477  -3.799  19.173  1.00  0.00     0.007 CG0
ATOM     14  G   UNL     1       4.425  -3.525  20.369  1.00  0.00     0.000 G0
ENDBRANCH  10  13
ENDBRANCH   3  10
BRANCH   1  15
ATOM     15  C   UNL     1       3.827  -3.274  21.749  1.00  0.00     0.011 C 
BRANCH  15  16
ATOM     16  C   UNL     1       4.426  -3.534  20.361  1.00  0.00     0.001 CG0
ATOM     17  G   UNL     1       3.470  -3.793  19.168  1.00  0.00     0.000 G0
ENDBRANCH  15  16
ENDBRANCH   1  15
TORSDOF 0
ENDMDL
