MODEL 1
REMARK VINA RESULT:    -4.847      0.000      0.000
REMARK INTER + INTRA:          -6.827
REMARK INTER:                  -6.547
REMARK INTRA:                  -0.280
REMARK UNBOUND:                -0.280
REMARK SMILES [NH3+]CCCC[C@@H]([NH3+])C(=O)[O-]
REMARK SMILES IDX 4 1 3 2 2 3 1 4 5 8 6 9 7 10 8 14 9 15 10 16
REMARK H PARENT 1 5 1 6 1 7 7 11 7 12 7 13
REMARK Flexibility Score: inf
ROOT
ATOM      1  C   UNL     1      19.310  -4.834  14.786  1.00  0.00     0.012 C 
ENDROOT
BRANCH   1   2
ATOM      2  C   UNL     1      18.478  -3.842  15.606  1.00  0.00     0.061 C 
BRANCH   2   3
ATOM      3  C   UNL     1      18.842  -3.913  17.095  1.00  0.00     0.258 C 
BRANCH   3   4
ATOM      4  N   UNL     1      19.205  -5.277  17.479  1.00  0.00    -0.358 N 
ATOM      5  H   UNL     1      19.241  -5.340  18.522  1.00  0.00     0.344 HD
ATOM      6  H   UNL     1      18.491  -5.953  17.124  1.00  0.00     0.344 HD
ATOM      7  H   UNL     1      20.148  -5.520  17.093  1.00  0.00     0.344 HD
ENDBRANCH   3   4
ENDBRANCH   2   3
ENDBRANCH   1   2
BRANCH   1   8
ATOM      8  C   UNL     1      20.694  -4.249  14.457  1.00  0.00     0.072 C 
BRANCH   8   9
ATOM      9  C   UNL     1      21.878  -5.013  15.096  1.00  0.00     0.227 C 
BRANCH   9  10
ATOM     10  N   UNL     1      22.803  -5.545  14.086  1.00  0.00    -0.350 N 
ATOM     11  H   UNL     1      23.757  -5.140  14.229  1.00  0.00     0.345 HD
ATOM     12  H   UNL     1      22.862  -6.588  14.132  1.00  0.00     0.345 HD
ATOM     13  H   UNL     1      22.472  -5.272  13.132  1.00  0.00     0.345 HD
ENDBRANCH   9  10
BRANCH   9  14
ATOM     14  C   UNL     1      22.598  -4.166  16.116  1.00  0.00     0.099 C 
ATOM     15  O   UNL     1      23.666  -4.566  16.651  1.00  0.00    -0.544 OA
ATOM     16  O   UNL     1      22.106  -2.905  16.432  1.00  0.00    -0.544 OA
ENDBRANCH   9  14
ENDBRANCH   8   9
ENDBRANCH   1   8
TORSDOF 7
ENDMDL
MODEL 2
REMARK VINA RESULT:    -4.845      0.308      1.059
REMARK INTER + INTRA:          -6.824
REMARK INTER:                  -6.439
REMARK INTRA:                  -0.385
REMARK UNBOUND:                -0.280
REMARK SMILES [NH3+]CCCC[C@@H]([NH3+])C(=O)[O-]
REMARK SMILES IDX 4 1 3 2 2 3 1 4 5 8 6 9 7 10 8 14 9 15 10 16
REMARK H PARENT 1 5 1 6 1 7 7 11 7 12 7 13
REMARK Flexibility Score: inf
ROOT
ATOM      1  C   UNL     1      19.488  -5.070  14.910  1.00  0.00     0.012 C 
ENDROOT
BRANCH   1   2
ATOM      2  C   UNL     1      18.671  -3.911  15.492  1.00  0.00     0.061 C 
BRANCH   2   3
ATOM      3  C   UNL     1      18.722  -3.915  17.026  1.00  0.00     0.258 C 
BRANCH   3   4
ATOM      4  N   UNL     1      19.422  -5.098  17.523  1.00  0.00    -0.358 N 
ATOM      5  H   UNL     1      19.923  -4.853  18.407  1.00  0.00     0.344 HD
ATOM      6  H   UNL     1      18.738  -5.864  17.722  1.00  0.00     0.344 HD
ATOM      7  H   UNL     1      20.123  -5.425  16.816  1.00  0.00     0.344 HD
ENDBRANCH   3   4
ENDBRANCH   2   3
ENDBRANCH   1   2
BRANCH   1   8
ATOM      8  C   UNL     1      20.836  -4.571  14.363  1.00  0.00     0.072 C 
BRANCH   8   9
ATOM      9  C   UNL     1      22.073  -5.245  15.004  1.00  0.00     0.227 C 
BRANCH   9  10
ATOM     10  N   UNL     1      23.066  -5.649  13.998  1.00  0.00    -0.350 N 
ATOM     11  H   UNL     1      22.584  -5.910  13.107  1.00  0.00     0.345 HD
ATOM     12  H   UNL     1      23.750  -4.883  13.806  1.00  0.00     0.345 HD
ATOM     13  H   UNL     1      23.590  -6.486  14.342  1.00  0.00     0.345 HD
ENDBRANCH   9  10
BRANCH   9  14
ATOM     14  C   UNL     1      22.688  -4.375  16.072  1.00  0.00     0.099 C 
ATOM     15  O   UNL     1      22.076  -3.369  16.518  1.00  0.00    -0.544 OA
ATOM     16  O   UNL     1      23.924  -4.715  16.607  1.00  0.00    -0.544 OA
ENDBRANCH   9  14
ENDBRANCH   8   9
ENDBRANCH   1   8
TORSDOF 7
ENDMDL
MODEL 3
REMARK VINA RESULT:    -4.778      2.734      3.669
REMARK INTER + INTRA:          -6.733
REMARK INTER:                  -6.243
REMARK INTRA:                  -0.490
REMARK UNBOUND:                -0.280
REMARK SMILES [NH3+]CCCC[C@@H]([NH3+])C(=O)[O-]
REMARK SMILES IDX 4 1 3 2 2 3 1 4 5 8 6 9 7 10 8 14 9 15 10 16
REMARK H PARENT 1 5 1 6 1 7 7 11 7 12 7 13
REMARK Flexibility Score: inf
ROOT
ATOM      1  C   UNL     1      19.155  -4.311  17.044  1.00  0.00     0.012 C 
ENDROOT
BRANCH   1   2
ATOM      2  C   UNL     1      18.979  -3.558  15.720  1.00  0.00     0.061 C 
BRANCH   2   3
ATOM      3  C   UNL     1      20.326  -3.047  15.192  1.00  0.00     0.258 C 
BRANCH   3   4
ATOM      4  N   UNL     1      20.588  -3.557  13.847  1.00  0.00    -0.358 N 
ATOM      5  H   UNL     1      19.930  -4.344  13.645  1.00  0.00     0.344 HD
ATOM      6  H   UNL     1      20.439  -2.801  13.140  1.00  0.00     0.344 HD
ATOM      7  H   UNL     1      21.571  -3.913  13.782  1.00  0.00     0.344 HD
ENDBRANCH   3   4
ENDBRANCH   2   3
ENDBRANCH   1   2
BRANCH   1   8
ATOM      8  C   UNL     1      20.534  -4.988  17.111  1.00  0.00     0.072 C 
BRANCH   8   9
ATOM      9  C   UNL     1      20.488  -6.534  17.072  1.00  0.00     0.227 C 
BRANCH   9  10
ATOM     10  N   UNL     1      19.303  -7.070  17.756  1.00  0.00    -0.350 N 
ATOM     11  H   UNL     1      19.533  -7.989  18.199  1.00  0.00     0.345 HD
ATOM     12  H   UNL     1      18.954  -6.413  18.490  1.00  0.00     0.345 HD
ATOM     13  H   UNL     1      18.539  -7.226  17.059  1.00  0.00     0.345 HD
ENDBRANCH   9  10
BRANCH   9  14
ATOM     14  C   UNL     1      20.597  -7.056  15.660  1.00  0.00     0.099 C 
ATOM     15  O   UNL     1      21.103  -6.352  14.747  1.00  0.00    -0.544 OA
ATOM     16  O   UNL     1      20.179  -8.350  15.372  1.00  0.00    -0.544 OA
ENDBRANCH   9  14
ENDBRANCH   8   9
ENDBRANCH   1   8
TORSDOF 7
ENDMDL
MODEL 4
REMARK VINA RESULT:    -4.707      1.837      2.036
REMARK INTER + INTRA:          -6.637
REMARK INTER:                  -6.329
REMARK INTRA:                  -0.308
REMARK UNBOUND:                -0.280
REMARK SMILES [NH3+]CCCC[C@@H]([NH3+])C(=O)[O-]
REMARK SMILES IDX 4 1 3 2 2 3 1 4 5 8 6 9 7 10 8 14 9 15 10 16
REMARK H PARENT 1 5 1 6 1 7 7 11 7 12 7 13
REMARK Flexibility Score: inf
ROOT
ATOM      1  C   UNL     1      19.571  -3.857  14.321  1.00  0.00     0.012 C 
ENDROOT
BRANCH   1   2
ATOM      2  C   UNL     1      18.531  -3.835  15.447  1.00  0.00     0.061 C 
BRANCH   2   3
ATOM      3  C   UNL     1      19.206  -3.724  16.821  1.00  0.00     0.258 C 
BRANCH   3   4
ATOM      4  N   UNL     1      19.067  -4.970  17.574  1.00  0.00    -0.358 N 
ATOM      5  H   UNL     1      18.748  -4.750  18.544  1.00  0.00     0.344 HD
ATOM      6  H   UNL     1      18.359  -5.590  17.117  1.00  0.00     0.344 HD
ATOM      7  H   UNL     1      19.989  -5.464  17.625  1.00  0.00     0.344 HD
ENDBRANCH   3   4
ENDBRANCH   2   3
ENDBRANCH   1   2
BRANCH   1   8
ATOM      8  C   UNL     1      20.974  -4.157  14.876  1.00  0.00     0.072 C 
BRANCH   8   9
ATOM      9  C   UNL     1      21.471  -5.597  14.607  1.00  0.00     0.227 C 
BRANCH   9  10
ATOM     10  N   UNL     1      22.886  -5.628  14.211  1.00  0.00    -0.350 N 
ATOM     11  H   UNL     1      23.422  -4.910  14.751  1.00  0.00     0.345 HD
ATOM     12  H   UNL     1      23.310  -6.569  14.376  1.00  0.00     0.345 HD
ATOM     13  H   UNL     1      22.969  -5.399  13.194  1.00  0.00     0.345 HD
ENDBRANCH   9  10
BRANCH   9  14
ATOM     14  C   UNL     1      21.204  -6.504  15.782  1.00  0.00     0.099 C 
ATOM     15  O   UNL     1      21.892  -6.421  16.833  1.00  0.00    -0.544 OA
ATOM     16  O   UNL     1      20.151  -7.410  15.725  1.00  0.00    -0.544 OA
ENDBRANCH   9  14
ENDBRANCH   8   9
ENDBRANCH   1   8
TORSDOF 7
ENDMDL
MODEL 5
REMARK VINA RESULT:    -4.672      1.715      2.434
REMARK INTER + INTRA:          -6.591
REMARK INTER:                  -6.115
REMARK INTRA:                  -0.475
REMARK UNBOUND:                -0.280
REMARK SMILES [NH3+]CCCC[C@@H]([NH3+])C(=O)[O-]
REMARK SMILES IDX 4 1 3 2 2 3 1 4 5 8 6 9 7 10 8 14 9 15 10 16
REMARK H PARENT 1 5 1 6 1 7 7 11 7 12 7 13
REMARK Flexibility Score: inf
ROOT
ATOM      1  C   UNL     1      19.339  -3.635  16.413  1.00  0.00     0.012 C 
ENDROOT
BRANCH   1   2
ATOM      2  C   UNL     1      18.591  -4.128  15.169  1.00  0.00     0.061 C 
BRANCH   2   3
ATOM      3  C   UNL     1      18.692  -5.653  15.032  1.00  0.00     0.258 C 
BRANCH   3   4
ATOM      4  N   UNL     1      19.840  -6.029  14.209  1.00  0.00    -0.358 N 
ATOM      5  H   UNL     1      20.699  -6.043  14.805  1.00  0.00     0.344 HD
ATOM      6  H   UNL     1      19.695  -6.982  13.803  1.00  0.00     0.344 HD
ATOM      7  H   UNL     1      19.975  -5.333  13.439  1.00  0.00     0.344 HD
ENDBRANCH   3   4
ENDBRANCH   2   3
ENDBRANCH   1   2
BRANCH   1   8
ATOM      8  C   UNL     1      20.799  -3.289  16.074  1.00  0.00     0.072 C 
BRANCH   8   9
ATOM      9  C   UNL     1      21.846  -4.192  16.767  1.00  0.00     0.227 C 
BRANCH   9  10
ATOM     10  N   UNL     1      21.218  -5.265  17.552  1.00  0.00    -0.350 N 
ATOM     11  H   UNL     1      20.715  -4.857  18.373  1.00  0.00     0.345 HD
ATOM     12  H   UNL     1      20.543  -5.817  16.976  1.00  0.00     0.345 HD
ATOM     13  H   UNL     1      21.957  -5.912  17.911  1.00  0.00     0.345 HD
ENDBRANCH   9  10
BRANCH   9  14
ATOM     14  C   UNL     1      22.846  -4.740  15.780  1.00  0.00     0.099 C 
ATOM     15  O   UNL     1      22.486  -5.107  14.630  1.00  0.00    -0.544 OA
ATOM     16  O   UNL     1      24.192  -4.795  16.124  1.00  0.00    -0.544 OA
ENDBRANCH   9  14
ENDBRANCH   8   9
ENDBRANCH   1   8
TORSDOF 7
ENDMDL
MODEL 6
REMARK VINA RESULT:    -4.659      2.389      3.438
REMARK INTER + INTRA:          -6.572
REMARK INTER:                  -6.050
REMARK INTRA:                  -0.523
REMARK UNBOUND:                -0.280
REMARK SMILES [NH3+]CCCC[C@@H]([NH3+])C(=O)[O-]
REMARK SMILES IDX 4 1 3 2 2 3 1 4 5 8 6 9 7 10 8 14 9 15 10 16
REMARK H PARENT 1 5 1 6 1 7 7 11 7 12 7 13
REMARK Flexibility Score: inf
ROOT
ATOM      1  C   UNL     1      22.153  -5.233  15.814  1.00  0.00     0.012 C 
ENDROOT
BRANCH   1   2
ATOM      2  C   UNL     1      21.730  -6.310  16.821  1.00  0.00     0.061 C 
BRANCH   2   3
ATOM      3  C   UNL     1      20.389  -6.942  16.423  1.00  0.00     0.258 C 
BRANCH   3   4
ATOM      4  N   UNL     1      19.466  -6.966  17.556  1.00  0.00    -0.358 N 
ATOM      5  H   UNL     1      19.484  -7.917  17.992  1.00  0.00     0.344 HD
ATOM      6  H   UNL     1      19.756  -6.261  18.272  1.00  0.00     0.344 HD
ATOM      7  H   UNL     1      18.492  -6.762  17.231  1.00  0.00     0.344 HD
ENDBRANCH   3   4
ENDBRANCH   2   3
ENDBRANCH   1   2
BRANCH   1   8
ATOM      8  C   UNL     1      21.530  -3.873  16.172  1.00  0.00     0.072 C 
BRANCH   8   9
ATOM      9  C   UNL     1      20.429  -3.400  15.195  1.00  0.00     0.227 C 
BRANCH   9  10
ATOM     10  N   UNL     1      20.563  -4.018  13.868  1.00  0.00    -0.350 N 
ATOM     11  H   UNL     1      21.571  -4.048  13.590  1.00  0.00     0.345 HD
ATOM     12  H   UNL     1      20.175  -4.988  13.857  1.00  0.00     0.345 HD
ATOM     13  H   UNL     1      20.047  -3.444  13.162  1.00  0.00     0.345 HD
ENDBRANCH   9  10
BRANCH   9  14
ATOM     14  C   UNL     1      19.050  -3.612  15.769  1.00  0.00     0.099 C 
ATOM     15  O   UNL     1      18.035  -3.631  15.023  1.00  0.00    -0.544 OA
ATOM     16  O   UNL     1      18.900  -3.839  17.131  1.00  0.00    -0.544 OA
ENDBRANCH   9  14
ENDBRANCH   8   9
ENDBRANCH   1   8
TORSDOF 7
ENDMDL
MODEL 7
REMARK VINA RESULT:    -4.534      3.002      3.607
REMARK INTER + INTRA:          -6.404
REMARK INTER:                  -5.821
REMARK INTRA:                  -0.583
REMARK UNBOUND:                -0.280
REMARK SMILES [NH3+]CCCC[C@@H]([NH3+])C(=O)[O-]
REMARK SMILES IDX 4 1 3 2 2 3 1 4 5 8 6 9 7 10 8 14 9 15 10 16
REMARK H PARENT 1 5 1 6 1 7 7 11 7 12 7 13
REMARK Flexibility Score: inf
ROOT
ATOM      1  C   UNL     1      21.469  -4.496  14.994  1.00  0.00     0.012 C 
ENDROOT
BRANCH   1   2
ATOM      2  C   UNL     1      20.275  -3.790  14.341  1.00  0.00     0.061 C 
BRANCH   2   3
ATOM      3  C   UNL     1      19.266  -3.320  15.397  1.00  0.00     0.258 C 
BRANCH   3   4
ATOM      4  N   UNL     1      17.928  -3.832  15.107  1.00  0.00    -0.358 N 
ATOM      5  H   UNL     1      17.224  -3.086  15.309  1.00  0.00     0.344 HD
ATOM      6  H   UNL     1      17.856  -4.101  14.098  1.00  0.00     0.344 HD
ATOM      7  H   UNL     1      17.722  -4.663  15.710  1.00  0.00     0.344 HD
ENDBRANCH   3   4
ENDBRANCH   2   3
ENDBRANCH   1   2
BRANCH   1   8
ATOM      8  C   UNL     1      21.238  -6.015  15.060  1.00  0.00     0.072 C 
BRANCH   8   9
ATOM      9  C   UNL     1      20.859  -6.543  16.464  1.00  0.00     0.227 C 
BRANCH   9  10
ATOM     10  N   UNL     1      21.150  -5.563  17.520  1.00  0.00    -0.350 N 
ATOM     11  H   UNL     1      20.279  -5.351  18.058  1.00  0.00     0.345 HD
ATOM     12  H   UNL     1      21.883  -5.914  18.177  1.00  0.00     0.345 HD
ATOM     13  H   UNL     1      21.490  -4.673  17.086  1.00  0.00     0.345 HD
ENDBRANCH   9  10
BRANCH   9  14
ATOM     14  C   UNL     1      19.423  -7.001  16.515  1.00  0.00     0.099 C 
ATOM     15  O   UNL     1      18.638  -6.779  15.555  1.00  0.00    -0.544 OA
ATOM     16  O   UNL     1      18.970  -7.723  17.613  1.00  0.00    -0.544 OA
ENDBRANCH   9  14
ENDBRANCH   8   9
ENDBRANCH   1   8
TORSDOF 7
ENDMDL
MODEL 8
REMARK VINA RESULT:    -4.522      1.808      2.225
REMARK INTER + INTRA:          -6.388
REMARK INTER:                  -5.837
REMARK INTRA:                  -0.551
REMARK UNBOUND:                -0.280
REMARK SMILES [NH3+]CCCC[C@@H]([NH3+])C(=O)[O-]
REMARK SMILES IDX 4 1 3 2 2 3 1 4 5 8 6 9 7 10 8 14 9 15 10 16
REMARK H PARENT 1 5 1 6 1 7 7 11 7 12 7 13
REMARK Flexibility Score: inf
ROOT
ATOM      1  C   UNL     1      18.715  -4.578  15.270  1.00  0.00     0.012 C 
ENDROOT
BRANCH   1   2
ATOM      2  C   UNL     1      18.789  -6.110  15.294  1.00  0.00     0.061 C 
BRANCH   2   3
ATOM      3  C   UNL     1      19.303  -6.617  16.648  1.00  0.00     0.258 C 
BRANCH   3   4
ATOM      4  N   UNL     1      19.388  -5.525  17.617  1.00  0.00    -0.358 N 
ATOM      5  H   UNL     1      18.590  -4.867  17.462  1.00  0.00     0.344 HD
ATOM      6  H   UNL     1      19.329  -5.903  18.591  1.00  0.00     0.344 HD
ATOM      7  H   UNL     1      20.286  -5.003  17.493  1.00  0.00     0.344 HD
ENDBRANCH   3   4
ENDBRANCH   2   3
ENDBRANCH   1   2
BRANCH   1   8
ATOM      8  C   UNL     1      19.755  -3.995  14.298  1.00  0.00     0.072 C 
BRANCH   8   9
ATOM      9  C   UNL     1      20.945  -3.286  14.987  1.00  0.00     0.227 C 
BRANCH   9  10
ATOM     10  N   UNL     1      20.501  -2.331  16.013  1.00  0.00    -0.350 N 
ATOM     11  H   UNL     1      20.410  -2.816  16.935  1.00  0.00     0.345 HD
ATOM     12  H   UNL     1      21.169  -1.533  16.109  1.00  0.00     0.345 HD
ATOM     13  H   UNL     1      19.562  -1.950  15.751  1.00  0.00     0.345 HD
ENDBRANCH   9  10
BRANCH   9  14
ATOM     14  C   UNL     1      21.934  -4.278  15.545  1.00  0.00     0.099 C 
ATOM     15  O   UNL     1      22.176  -4.326  16.780  1.00  0.00    -0.544 OA
ATOM     16  O   UNL     1      22.550  -5.188  14.693  1.00  0.00    -0.544 OA
ENDBRANCH   9  14
ENDBRANCH   8   9
ENDBRANCH   1   8
TORSDOF 7
ENDMDL
MODEL 9
REMARK VINA RESULT:    -4.496      2.998      3.588
REMARK INTER + INTRA:          -6.352
REMARK INTER:                  -5.773
REMARK INTRA:                  -0.579
REMARK UNBOUND:                -0.280
REMARK SMILES [NH3+]CCCC[C@@H]([NH3+])C(=O)[O-]
REMARK SMILES IDX 4 1 3 2 2 3 1 4 5 8 6 9 7 10 8 14 9 15 10 16
REMARK H PARENT 1 5 1 6 1 7 7 11 7 12 7 13
REMARK Flexibility Score: inf
ROOT
ATOM      1  C   UNL     1      19.780  -3.444  14.977  1.00  0.00     0.012 C 
ENDROOT
BRANCH   1   2
ATOM      2  C   UNL     1      20.632  -2.976  16.163  1.00  0.00     0.061 C 
BRANCH   2   3
ATOM      3  C   UNL     1      21.977  -3.714  16.202  1.00  0.00     0.258 C 
BRANCH   3   4
ATOM      4  N   UNL     1      21.952  -4.796  17.184  1.00  0.00    -0.358 N 
ATOM      5  H   UNL     1      22.634  -5.535  16.898  1.00  0.00     0.344 HD
ATOM      6  H   UNL     1      22.223  -4.433  18.127  1.00  0.00     0.344 HD
ATOM      7  H   UNL     1      20.995  -5.219  17.229  1.00  0.00     0.344 HD
ENDBRANCH   3   4
ENDBRANCH   2   3
ENDBRANCH   1   2
BRANCH   1   8
ATOM      8  C   UNL     1      18.710  -4.450  15.434  1.00  0.00     0.072 C 
BRANCH   8   9
ATOM      9  C   UNL     1      18.974  -5.907  14.986  1.00  0.00     0.227 C 
BRANCH   9  10
ATOM     10  N   UNL     1      20.171  -6.018  14.141  1.00  0.00    -0.350 N 
ATOM     11  H   UNL     1      20.958  -5.476  14.567  1.00  0.00     0.345 HD
ATOM     12  H   UNL     1      20.466  -7.014  14.022  1.00  0.00     0.345 HD
ATOM     13  H   UNL     1      19.970  -5.615  13.197  1.00  0.00     0.345 HD
ENDBRANCH   9  10
BRANCH   9  14
ATOM     14  C   UNL     1      19.037  -6.847  16.164  1.00  0.00     0.099 C 
ATOM     15  O   UNL     1      19.623  -6.511  17.228  1.00  0.00    -0.544 OA
ATOM     16  O   UNL     1      18.399  -8.079  16.096  1.00  0.00    -0.544 OA
ENDBRANCH   9  14
ENDBRANCH   8   9
ENDBRANCH   1   8
TORSDOF 7
ENDMDL
