MODEL 1
REMARK VINA RESULT:    -3.292      0.000      0.000
REMARK INTER + INTRA:          -5.194
REMARK INTER:                  -5.024
REMARK INTRA:                  -0.169
REMARK UNBOUND:                -0.169
REMARK SMILES CC1=CCC[C@H](C)C(=O)C[C@@H](C(C)C)C(=O)C1
REMARK SMILES IDX 8 1 9 2 6 3 7 4 5 5 4 6 3 7 2 8 1 9 10 11 11 12 15 13 16 14
REMARK SMILES IDX 17 15 12 17 13 18 14 19
REMARK H PARENT
REMARK Flexibility Score: 70.00
ROOT
ATOM      1  C   UNL     1    -119.753 -98.302   0.437  1.00  0.00     0.136 C 
ATOM      2  O   UNL     1    -120.402 -97.354   0.858  1.00  0.00    -0.299 OA
ENDROOT
BRANCH   1   3
ATOM      3  C   UNL     1    -118.302 -98.111   0.031  1.00  0.00     0.053 C 
ATOM      4  C   UNL     1    -118.094 -96.842  -0.811  1.00  0.00     0.016 C 
BRANCH   3   5
ATOM      5  C   UNL     1    -117.363 -98.146   1.253  1.00  0.00     0.015 C 
BRANCH   5   6
ATOM      6  C   UNL     1    -116.469 -99.403   1.320  1.00  0.00     0.028 C 
BRANCH   6   7
ATOM      7  C   UNL     1    -116.704-100.303   0.133  1.00  0.00    -0.028 C 
ATOM      8  C   UNL     1    -117.465-101.424   0.154  1.00  0.00    -0.070 CG0
ATOM      9  C   UNL     1    -117.631-102.189  -1.134  1.00  0.00     0.039 C 
ATOM     10  G   UNL     1    -118.146-101.944   1.411  1.00  0.00     0.000 G0
ENDBRANCH   6   7
ENDBRANCH   5   6
ENDBRANCH   3   5
ENDBRANCH   1   3
BRANCH   1  11
ATOM     11  C   UNL     1    -120.416 -99.655   0.331  1.00  0.00     0.087 C 
BRANCH  11  12
ATOM     12  C   UNL     1    -120.317-100.458   1.655  1.00  0.00     0.066 C 
BRANCH  12  13
ATOM     13  C   UNL     1    -119.659-101.801   1.383  1.00  0.00     0.140 C 
ATOM     14  O   UNL     1    -120.359-102.793   1.223  1.00  0.00    -0.299 OA
BRANCH  13  15
ATOM     15  C   UNL     1    -118.157-101.943   1.419  1.00  0.00     0.106 CG0
ATOM     16  G   UNL     1    -117.491-101.419   0.155  1.00  0.00     0.000 G0
ENDBRANCH  13  15
ENDBRANCH  12  13
BRANCH  12  17
ATOM     17  C   UNL     1    -121.706-100.657   2.345  1.00  0.00    -0.006 C 
ATOM     18  C   UNL     1    -121.710-100.069   3.768  1.00  0.00     0.008 C 
ATOM     19  C   UNL     1    -122.856-100.018   1.544  1.00  0.00     0.008 C 
ENDBRANCH  12  17
ENDBRANCH  11  12
ENDBRANCH   1  11
TORSDOF 1
ENDMDL
MODEL 2
REMARK VINA RESULT:    -3.251      2.492      5.285
REMARK INTER + INTRA:          -5.131
REMARK INTER:                  -4.992
REMARK INTRA:                  -0.139
REMARK UNBOUND:                -0.169
REMARK SMILES CC1=CCC[C@H](C)C(=O)C[C@@H](C(C)C)C(=O)C1
REMARK SMILES IDX 8 1 9 2 6 3 7 4 5 5 4 6 3 7 2 8 1 9 10 11 11 12 15 13 16 14
REMARK SMILES IDX 17 15 12 17 13 18 14 19
REMARK H PARENT
REMARK Flexibility Score: 70.00
ROOT
ATOM      1  C   UNL     1    -121.403 -99.928   2.890  1.00  0.00     0.136 C 
ATOM      2  O   UNL     1    -120.938 -98.816   2.680  1.00  0.00    -0.299 OA
ENDROOT
BRANCH   1   3
ATOM      3  C   UNL     1    -122.626-100.089   3.776  1.00  0.00     0.053 C 
ATOM      4  C   UNL     1    -122.511 -99.286   5.080  1.00  0.00     0.016 C 
BRANCH   3   5
ATOM      5  C   UNL     1    -123.924 -99.756   3.012  1.00  0.00     0.015 C 
BRANCH   5   6
ATOM      6  C   UNL     1    -124.542-100.961   2.273  1.00  0.00     0.028 C 
BRANCH   6   7
ATOM      7  C   UNL     1    -124.531-100.748   0.779  1.00  0.00    -0.028 C 
ATOM      8  C   UNL     1    -123.710-101.391  -0.085  1.00  0.00    -0.070 CG0
ATOM      9  C   UNL     1    -123.858-101.092  -1.555  1.00  0.00     0.039 C 
ATOM     10  G   UNL     1    -122.648-102.386   0.359  1.00  0.00     0.000 G0
ENDBRANCH   6   7
ENDBRANCH   5   6
ENDBRANCH   3   5
ENDBRANCH   1   3
BRANCH   1  11
ATOM     11  C   UNL     1    -120.742-101.129   2.256  1.00  0.00     0.087 C 
BRANCH  11  12
ATOM     12  C   UNL     1    -120.500-100.928   0.736  1.00  0.00     0.066 C 
BRANCH  12  13
ATOM     13  C   UNL     1    -121.261-101.989  -0.042  1.00  0.00     0.140 C 
ATOM     14  O   UNL     1    -120.772-102.453  -1.064  1.00  0.00    -0.299 OA
BRANCH  13  15
ATOM     15  C   UNL     1    -122.655-102.395   0.370  1.00  0.00     0.106 CG0
ATOM     16  G   UNL     1    -123.710-101.395  -0.077  1.00  0.00     0.000 G0
ENDBRANCH  13  15
ENDBRANCH  12  13
BRANCH  12  17
ATOM     17  C   UNL     1    -118.984-100.952   0.359  1.00  0.00    -0.006 C 
ATOM     18  C   UNL     1    -118.348 -99.558   0.520  1.00  0.00     0.008 C 
ATOM     19  C   UNL     1    -118.184-101.959   1.205  1.00  0.00     0.008 C 
ENDBRANCH  12  17
ENDBRANCH  11  12
ENDBRANCH   1  11
TORSDOF 1
ENDMDL
MODEL 3
REMARK VINA RESULT:    -2.946      3.145      5.135
REMARK INTER + INTRA:          -4.666
REMARK INTER:                  -4.618
REMARK INTRA:                  -0.048
REMARK UNBOUND:                -0.169
REMARK SMILES CC1=CCC[C@H](C)C(=O)C[C@@H](C(C)C)C(=O)C1
REMARK SMILES IDX 8 1 9 2 6 3 7 4 5 5 4 6 3 7 2 8 1 9 10 11 11 12 15 13 16 14
REMARK SMILES IDX 17 15 12 17 13 18 14 19
REMARK H PARENT
REMARK Flexibility Score: 70.00
ROOT
ATOM      1  C   UNL     1    -123.997 -99.768   4.216  1.00  0.00     0.136 C 
ATOM      2  O   UNL     1    -124.624-100.113   5.208  1.00  0.00    -0.299 OA
ENDROOT
BRANCH   1   3
ATOM      3  C   UNL     1    -122.500 -99.528   4.307  1.00  0.00     0.053 C 
ATOM      4  C   UNL     1    -122.125 -98.621   5.489  1.00  0.00     0.016 C 
BRANCH   3   5
ATOM      5  C   UNL     1    -121.715-100.855   4.333  1.00  0.00     0.015 C 
BRANCH   5   6
ATOM      6  C   UNL     1    -121.060-101.221   2.985  1.00  0.00     0.028 C 
BRANCH   6   7
ATOM      7  C   UNL     1    -120.462-100.006   2.321  1.00  0.00    -0.028 C 
ATOM      8  C   UNL     1    -120.897 -99.473   1.154  1.00  0.00    -0.070 CG0
ATOM      9  C   UNL     1    -120.214 -98.228   0.647  1.00  0.00     0.039 C 
ATOM     10  G   UNL     1    -122.028-100.076   0.333  1.00  0.00     0.000 G0
ENDBRANCH   6   7
ENDBRANCH   5   6
ENDBRANCH   3   5
ENDBRANCH   1   3
BRANCH   1  11
ATOM     11  C   UNL     1    -124.734 -99.586   2.910  1.00  0.00     0.087 C 
BRANCH  11  12
ATOM     12  C   UNL     1    -124.169-100.499   1.790  1.00  0.00     0.066 C 
BRANCH  12  13
ATOM     13  C   UNL     1    -123.396 -99.653   0.791  1.00  0.00     0.140 C 
ATOM     14  O   UNL     1    -123.928 -98.669   0.296  1.00  0.00    -0.299 OA
BRANCH  13  15
ATOM     15  C   UNL     1    -122.025-100.077   0.322  1.00  0.00     0.106 CG0
ATOM     16  G   UNL     1    -120.908 -99.453   1.145  1.00  0.00     0.000 G0
ENDBRANCH  13  15
ENDBRANCH  12  13
BRANCH  12  17
ATOM     17  C   UNL     1    -125.281-101.324   1.066  1.00  0.00    -0.006 C 
ATOM     18  C   UNL     1    -125.134-102.830   1.354  1.00  0.00     0.008 C 
ATOM     19  C   UNL     1    -126.699-100.881   1.472  1.00  0.00     0.008 C 
ENDBRANCH  12  17
ENDBRANCH  11  12
ENDBRANCH   1  11
TORSDOF 1
ENDMDL
MODEL 4
REMARK VINA RESULT:    -2.773      7.590      9.874
REMARK INTER + INTRA:          -4.401
REMARK INTER:                  -4.235
REMARK INTRA:                  -0.166
REMARK UNBOUND:                -0.169
REMARK SMILES CC1=CCC[C@H](C)C(=O)C[C@@H](C(C)C)C(=O)C1
REMARK SMILES IDX 8 1 9 2 6 3 7 4 5 5 4 6 3 7 2 8 1 9 10 11 11 12 15 13 16 14
REMARK SMILES IDX 17 15 12 17 13 18 14 19
REMARK H PARENT
REMARK Flexibility Score: 70.00
ROOT
ATOM      1  C   UNL     1    -115.199 -95.304   6.245  1.00  0.00     0.136 C 
ATOM      2  O   UNL     1    -115.583 -96.430   6.532  1.00  0.00    -0.299 OA
ENDROOT
BRANCH   1   3
ATOM      3  C   UNL     1    -113.900 -94.771   6.824  1.00  0.00     0.053 C 
ATOM      4  C   UNL     1    -113.835 -94.929   8.352  1.00  0.00     0.016 C 
BRANCH   3   5
ATOM      5  C   UNL     1    -112.674 -95.398   6.132  1.00  0.00     0.015 C 
BRANCH   5   6
ATOM      6  C   UNL     1    -111.901 -94.420   5.222  1.00  0.00     0.028 C 
BRANCH   6   7
ATOM      7  C   UNL     1    -112.020 -93.002   5.721  1.00  0.00    -0.028 C 
ATOM      8  C   UNL     1    -112.731 -92.026   5.107  1.00  0.00    -0.070 CG0
ATOM      9  C   UNL     1    -112.781 -90.669   5.762  1.00  0.00     0.039 C 
ATOM     10  G   UNL     1    -113.467 -92.234   3.792  1.00  0.00     0.000 G0
ENDBRANCH   6   7
ENDBRANCH   5   6
ENDBRANCH   3   5
ENDBRANCH   1   3
BRANCH   1  11
ATOM     11  C   UNL     1    -116.035 -94.462   5.311  1.00  0.00     0.087 C 
BRANCH  11  12
ATOM     12  C   UNL     1    -115.286 -94.134   3.993  1.00  0.00     0.066 C 
BRANCH  12  13
ATOM     13  C   UNL     1    -114.921 -92.658   3.972  1.00  0.00     0.140 C 
ATOM     14  O   UNL     1    -115.808 -91.818   4.028  1.00  0.00    -0.299 OA
BRANCH  13  15
ATOM     15  C   UNL     1    -113.489 -92.223   3.774  1.00  0.00     0.106 CG0
ATOM     16  G   UNL     1    -112.746 -92.044   5.089  1.00  0.00     0.000 G0
ENDBRANCH  13  15
ENDBRANCH  12  13
BRANCH  12  17
ATOM     17  C   UNL     1    -116.110 -94.513   2.720  1.00  0.00    -0.006 C 
ATOM     18  C   UNL     1    -115.351 -94.139   1.433  1.00  0.00     0.008 C 
ATOM     19  C   UNL     1    -116.455 -96.013   2.670  1.00  0.00     0.008 C 
ENDBRANCH  12  17
ENDBRANCH  11  12
ENDBRANCH   1  11
TORSDOF 1
ENDMDL
MODEL 5
REMARK VINA RESULT:    -2.517      3.579      5.605
REMARK INTER + INTRA:          -4.011
REMARK INTER:                  -3.902
REMARK INTRA:                  -0.109
REMARK UNBOUND:                -0.169
REMARK SMILES CC1=CCC[C@H](C)C(=O)C[C@@H](C(C)C)C(=O)C1
REMARK SMILES IDX 8 1 9 2 6 3 7 4 5 5 4 6 3 7 2 8 1 9 10 11 11 12 15 13 16 14
REMARK SMILES IDX 17 15 12 17 13 18 14 19
REMARK H PARENT
REMARK Flexibility Score: 70.00
ROOT
ATOM      1  C   UNL     1    -125.244 -99.448   3.075  1.00  0.00     0.136 C 
ATOM      2  O   UNL     1    -125.337 -98.394   3.689  1.00  0.00    -0.299 OA
ENDROOT
BRANCH   1   3
ATOM      3  C   UNL     1    -126.247 -99.787   1.986  1.00  0.00     0.053 C 
ATOM      4  C   UNL     1    -127.090 -98.571   1.571  1.00  0.00     0.016 C 
BRANCH   3   5
ATOM      5  C   UNL     1    -125.562-100.449   0.773  1.00  0.00     0.015 C 
BRANCH   5   6
ATOM      6  C   UNL     1    -124.651 -99.496  -0.028  1.00  0.00     0.028 C 
BRANCH   6   7
ATOM      7  C   UNL     1    -123.527-100.249  -0.696  1.00  0.00    -0.028 C 
ATOM      8  C   UNL     1    -122.250-100.287  -0.246  1.00  0.00    -0.070 CG0
ATOM      9  C   UNL     1    -121.256-101.123  -1.011  1.00  0.00     0.039 C 
ATOM     10  G   UNL     1    -121.777 -99.522   0.981  1.00  0.00     0.000 G0
ENDBRANCH   6   7
ENDBRANCH   5   6
ENDBRANCH   3   5
ENDBRANCH   1   3
BRANCH   1  11
ATOM     11  C   UNL     1    -124.122-100.399   3.419  1.00  0.00     0.087 C 
BRANCH  11  12
ATOM     12  C   UNL     1    -122.737 -99.699   3.400  1.00  0.00     0.066 C 
BRANCH  12  13
ATOM     13  C   UNL     1    -121.899-100.264   2.265  1.00  0.00     0.140 C 
ATOM     14  O   UNL     1    -121.273-101.301   2.438  1.00  0.00    -0.299 OA
BRANCH  13  15
ATOM     15  C   UNL     1    -121.746 -99.505   0.970  1.00  0.00     0.106 CG0
ATOM     16  G   UNL     1    -122.249-100.292  -0.231  1.00  0.00     0.000 G0
ENDBRANCH  13  15
ENDBRANCH  12  13
BRANCH  12  17
ATOM     17  C   UNL     1    -121.978 -99.828   4.760  1.00  0.00    -0.006 C 
ATOM     18  C   UNL     1    -122.094 -98.534   5.588  1.00  0.00     0.008 C 
ATOM     19  C   UNL     1    -122.492-101.004   5.611  1.00  0.00     0.008 C 
ENDBRANCH  12  17
ENDBRANCH  11  12
ENDBRANCH   1  11
TORSDOF 1
ENDMDL
MODEL 6
REMARK VINA RESULT:    -2.465      3.400      4.861
REMARK INTER + INTRA:          -3.931
REMARK INTER:                  -4.265
REMARK INTRA:                   0.333
REMARK UNBOUND:                -0.169
REMARK SMILES CC1=CCC[C@H](C)C(=O)C[C@@H](C(C)C)C(=O)C1
REMARK SMILES IDX 8 1 9 2 6 3 7 4 5 5 4 6 3 7 2 8 1 9 10 11 11 12 15 13 16 14
REMARK SMILES IDX 17 15 12 17 13 18 14 19
REMARK H PARENT
REMARK Flexibility Score: 70.00
ROOT
ATOM      1  C   UNL     1    -123.987-100.061   3.147  1.00  0.00     0.136 C 
ATOM      2  O   UNL     1    -125.083-100.167   3.681  1.00  0.00    -0.299 OA
ENDROOT
BRANCH   1   3
ATOM      3  C   UNL     1    -122.769 -99.689   3.975  1.00  0.00     0.053 C 
ATOM      4  C   UNL     1    -122.612-100.583   5.216  1.00  0.00     0.016 C 
BRANCH   3   5
ATOM      5  C   UNL     1    -121.487 -99.672   3.118  1.00  0.00     0.015 C 
BRANCH   5   6
ATOM      6  C   UNL     1    -120.973-101.075   2.732  1.00  0.00     0.028 C 
BRANCH   6   7
ATOM      7  C   UNL     1    -120.514-101.112   1.296  1.00  0.00    -0.028 C 
ATOM      8  C   UNL     1    -121.068-101.881   0.328  1.00  0.00    -0.070 CG0
ATOM      9  C   UNL     1    -120.515-101.767  -1.069  1.00  0.00     0.039 C 
ATOM     10  G   UNL     1    -122.208-102.855   0.590  1.00  0.00     0.000 G0
ENDBRANCH   6   7
ENDBRANCH   5   6
ENDBRANCH   3   5
ENDBRANCH   1   3
BRANCH   1  11
ATOM     11  C   UNL     1    -123.870-100.304   1.661  1.00  0.00     0.087 C 
BRANCH  11  12
ATOM     12  C   UNL     1    -124.472-101.672   1.245  1.00  0.00     0.066 C 
BRANCH  12  13
ATOM     13  C   UNL     1    -123.574-102.325   0.207  1.00  0.00     0.140 C 
ATOM     14  O   UNL     1    -123.994-102.500  -0.929  1.00  0.00    -0.299 OA
BRANCH  13  15
ATOM     15  C   UNL     1    -122.215-102.857   0.591  1.00  0.00     0.106 CG0
ATOM     16  G   UNL     1    -121.101-101.852   0.336  1.00  0.00     0.000 G0
ENDBRANCH  13  15
ENDBRANCH  12  13
BRANCH  12  17
ATOM     17  C   UNL     1    -125.934-101.548   0.705  1.00  0.00    -0.006 C 
ATOM     18  C   UNL     1    -126.945-102.166   1.689  1.00  0.00     0.008 C 
ATOM     19  C   UNL     1    -126.338-100.087   0.436  1.00  0.00     0.008 C 
ENDBRANCH  12  17
ENDBRANCH  11  12
ENDBRANCH   1  11
TORSDOF 1
ENDMDL
MODEL 7
REMARK VINA RESULT:    -2.390      4.618      7.380
REMARK INTER + INTRA:          -3.817
REMARK INTER:                  -3.738
REMARK INTRA:                  -0.079
REMARK UNBOUND:                -0.169
REMARK SMILES CC1=CCC[C@H](C)C(=O)C[C@@H](C(C)C)C(=O)C1
REMARK SMILES IDX 8 1 9 2 6 3 7 4 5 5 4 6 3 7 2 8 1 9 10 11 11 12 15 13 16 14
REMARK SMILES IDX 17 15 12 17 13 18 14 19
REMARK H PARENT
REMARK Flexibility Score: 70.00
ROOT
ATOM      1  C   UNL     1    -123.229-100.315   1.613  1.00  0.00     0.136 C 
ATOM      2  O   UNL     1    -123.180 -99.359   0.851  1.00  0.00    -0.299 OA
ENDROOT
BRANCH   1   3
ATOM      3  C   UNL     1    -122.139-100.516   2.652  1.00  0.00     0.053 C 
ATOM      4  C   UNL     1    -120.957 -99.555   2.452  1.00  0.00     0.016 C 
BRANCH   3   5
ATOM      5  C   UNL     1    -122.704-100.438   4.085  1.00  0.00     0.015 C 
BRANCH   5   6
ATOM      6  C   UNL     1    -123.749 -99.320   4.286  1.00  0.00     0.028 C 
BRANCH   6   7
ATOM      7  C   UNL     1    -124.818 -99.742   5.262  1.00  0.00    -0.028 C 
ATOM      8  C   UNL     1    -126.130 -99.883   4.954  1.00  0.00    -0.070 CG0
ATOM      9  C   UNL     1    -127.064-100.355   6.040  1.00  0.00     0.039 C 
ATOM     10  G   UNL     1    -126.700 -99.582   3.576  1.00  0.00     0.000 G0
ENDBRANCH   6   7
ENDBRANCH   5   6
ENDBRANCH   3   5
ENDBRANCH   1   3
BRANCH   1  11
ATOM     11  C   UNL     1    -124.383-101.282   1.502  1.00  0.00     0.087 C 
BRANCH  11  12
ATOM     12  C   UNL     1    -125.741-100.553   1.324  1.00  0.00     0.066 C 
BRANCH  12  13
ATOM     13  C   UNL     1    -126.572-100.717   2.585  1.00  0.00     0.140 C 
ATOM     14  O   UNL     1    -127.198-101.754   2.764  1.00  0.00    -0.299 OA
BRANCH  13  15
ATOM     15  C   UNL     1    -126.722 -99.576   3.562  1.00  0.00     0.106 CG0
ATOM     16  G   UNL     1    -126.148 -99.902   4.933  1.00  0.00     0.000 G0
ENDBRANCH  13  15
ENDBRANCH  12  13
BRANCH  12  17
ATOM     17  C   UNL     1    -126.535-101.054   0.074  1.00  0.00    -0.006 C 
ATOM     18  C   UNL     1    -126.679 -99.938  -0.978  1.00  0.00     0.008 C 
ATOM     19  C   UNL     1    -125.874-102.276  -0.591  1.00  0.00     0.008 C 
ENDBRANCH  12  17
ENDBRANCH  11  12
ENDBRANCH   1  11
TORSDOF 1
ENDMDL
MODEL 8
REMARK VINA RESULT:    -2.355      1.651      3.968
REMARK INTER + INTRA:          -3.763
REMARK INTER:                  -4.248
REMARK INTRA:                   0.485
REMARK UNBOUND:                -0.169
REMARK SMILES CC1=CCC[C@H](C)C(=O)C[C@@H](C(C)C)C(=O)C1
REMARK SMILES IDX 8 1 9 2 6 3 7 4 5 5 4 6 3 7 2 8 1 9 10 11 11 12 15 13 16 14
REMARK SMILES IDX 17 15 12 17 13 18 14 19
REMARK H PARENT
REMARK Flexibility Score: 70.00
ROOT
ATOM      1  C   UNL     1    -120.917 -99.532   1.350  1.00  0.00     0.136 C 
ATOM      2  O   UNL     1    -121.858 -98.981   0.795  1.00  0.00    -0.299 OA
ENDROOT
BRANCH   1   3
ATOM      3  C   UNL     1    -120.894-101.044   1.490  1.00  0.00     0.053 C 
ATOM      4  C   UNL     1    -122.284-101.669   1.293  1.00  0.00     0.016 C 
BRANCH   3   5
ATOM      5  C   UNL     1    -119.843-101.681   0.558  1.00  0.00     0.015 C 
BRANCH   5   6
ATOM      6  C   UNL     1    -118.492-101.971   1.244  1.00  0.00     0.028 C 
BRANCH   6   7
ATOM      7  C   UNL     1    -117.336-101.639   0.334  1.00  0.00    -0.028 C 
ATOM      8  C   UNL     1    -116.701-100.443   0.298  1.00  0.00    -0.070 CG0
ATOM      9  C   UNL     1    -115.534-100.290  -0.643  1.00  0.00     0.039 C 
ATOM     10  G   UNL     1    -117.117 -99.254   1.152  1.00  0.00     0.000 G0
ENDBRANCH   6   7
ENDBRANCH   5   6
ENDBRANCH   3   5
ENDBRANCH   1   3
BRANCH   1  11
ATOM     11  C   UNL     1    -119.789 -98.686   1.891  1.00  0.00     0.087 C 
BRANCH  11  12
ATOM     12  C   UNL     1    -119.227 -97.710   0.823  1.00  0.00     0.066 C 
BRANCH  12  13
ATOM     13  C   UNL     1    -117.859 -98.192   0.368  1.00  0.00     0.140 C 
ATOM     14  O   UNL     1    -117.398 -97.783  -0.690  1.00  0.00    -0.299 OA
BRANCH  13  15
ATOM     15  C   UNL     1    -117.116 -99.247   1.150  1.00  0.00     0.106 CG0
ATOM     16  G   UNL     1    -116.709-100.433   0.288  1.00  0.00     0.000 G0
ENDBRANCH  13  15
ENDBRANCH  12  13
BRANCH  12  17
ATOM     17  C   UNL     1    -119.148 -96.236   1.335  1.00  0.00    -0.006 C 
ATOM     18  C   UNL     1    -117.762 -95.927   1.931  1.00  0.00     0.008 C 
ATOM     19  C   UNL     1    -119.444 -95.212   0.223  1.00  0.00     0.008 C 
ENDBRANCH  12  17
ENDBRANCH  11  12
ENDBRANCH   1  11
TORSDOF 1
ENDMDL
MODEL 9
REMARK VINA RESULT:    -2.343      2.120      3.030
REMARK INTER + INTRA:          -3.745
REMARK INTER:                  -3.415
REMARK INTRA:                  -0.330
REMARK UNBOUND:                -0.169
REMARK SMILES CC1=CCC[C@H](C)C(=O)C[C@@H](C(C)C)C(=O)C1
REMARK SMILES IDX 8 1 9 2 6 3 7 4 5 5 4 6 3 7 2 8 1 9 10 11 11 12 15 13 16 14
REMARK SMILES IDX 17 15 12 17 13 18 14 19
REMARK H PARENT
REMARK Flexibility Score: 70.00
ROOT
ATOM      1  C   UNL     1    -118.978 -97.200   0.761  1.00  0.00     0.136 C 
ATOM      2  O   UNL     1    -119.790 -97.308   1.670  1.00  0.00    -0.299 OA
ENDROOT
BRANCH   1   3
ATOM      3  C   UNL     1    -117.969 -96.065   0.772  1.00  0.00     0.053 C 
ATOM      4  C   UNL     1    -118.643 -94.685   0.723  1.00  0.00     0.016 C 
BRANCH   3   5
ATOM      5  C   UNL     1    -116.997 -96.184   1.962  1.00  0.00     0.015 C 
BRANCH   5   6
ATOM      6  C   UNL     1    -116.145 -97.472   1.948  1.00  0.00     0.028 C 
BRANCH   6   7
ATOM      7  C   UNL     1    -115.337 -97.577   0.679  1.00  0.00    -0.028 C 
ATOM      8  C   UNL     1    -115.296 -98.669  -0.121  1.00  0.00    -0.070 CG0
ATOM      9  C   UNL     1    -114.468 -98.594  -1.379  1.00  0.00     0.039 C 
ATOM     10  G   UNL     1    -116.035 -99.961   0.196  1.00  0.00     0.000 G0
ENDBRANCH   6   7
ENDBRANCH   5   6
ENDBRANCH   3   5
ENDBRANCH   1   3
BRANCH   1  11
ATOM     11  C   UNL     1    -118.998 -98.209  -0.363  1.00  0.00     0.087 C 
BRANCH  11  12
ATOM     12  C   UNL     1    -118.638 -99.636   0.127  1.00  0.00     0.066 C 
BRANCH  12  13
ATOM     13  C   UNL     1    -117.348-100.088  -0.538  1.00  0.00     0.140 C 
ATOM     14  O   UNL     1    -117.395-100.639  -1.630  1.00  0.00    -0.299 OA
BRANCH  13  15
ATOM     15  C   UNL     1    -116.027 -99.964   0.181  1.00  0.00     0.106 CG0
ATOM     16  G   UNL     1    -115.304 -98.666  -0.146  1.00  0.00     0.000 G0
ENDBRANCH  13  15
ENDBRANCH  12  13
BRANCH  12  17
ATOM     17  C   UNL     1    -119.781-100.670  -0.131  1.00  0.00    -0.006 C 
ATOM     18  C   UNL     1    -119.942-101.632   1.061  1.00  0.00     0.008 C 
ATOM     19  C   UNL     1    -121.136 -99.990  -0.403  1.00  0.00     0.008 C 
ENDBRANCH  12  17
ENDBRANCH  11  12
ENDBRANCH   1  11
TORSDOF 1
ENDMDL
