MODEL 1
REMARK VINA RESULT:    -3.513      0.000      0.000
REMARK INTER + INTRA:          -8.931
REMARK INTER:                  -6.491
REMARK INTRA:                  -2.439
REMARK UNBOUND:                -2.439
REMARK SMILES CCCCCCCCCCCCCCCCO
REMARK SMILES IDX 9 1 8 2 7 3 6 4 5 5 4 6 3 7 2 8 1 9 10 10 11 11 12 12 13 13
REMARK SMILES IDX 14 14 15 15 16 16 17 17
REMARK H PARENT 17 18
REMARK Flexibility Score: inf
ROOT
ATOM      1  C   UNL     1     107.879 106.430 104.498  1.00  0.00     0.000 C 
ENDROOT
BRANCH   1   2
ATOM      2  C   UNL     1     108.471 107.144 103.274  1.00  0.00    -0.000 C 
BRANCH   2   3
ATOM      3  C   UNL     1     107.402 107.546 102.245  1.00  0.00    -0.000 C 
BRANCH   3   4
ATOM      4  C   UNL     1     106.020 107.759 102.881  1.00  0.00    -0.000 C 
BRANCH   4   5
ATOM      5  C   UNL     1     104.935 107.005 102.102  1.00  0.00    -0.000 C 
BRANCH   5   6
ATOM      6  C   UNL     1     104.201 105.957 102.957  1.00  0.00    -0.000 C 
BRANCH   6   7
ATOM      7  C   UNL     1     105.005 104.657 103.167  1.00  0.00    -0.000 C 
BRANCH   7   8
ATOM      8  C   UNL     1     105.705 104.194 101.881  1.00  0.00    -0.003 C 
ATOM      9  C   UNL     1     107.103 103.657 102.178  1.00  0.00     0.004 C 
ENDBRANCH   7   8
ENDBRANCH   6   7
ENDBRANCH   5   6
ENDBRANCH   4   5
ENDBRANCH   3   4
ENDBRANCH   2   3
ENDBRANCH   1   2
BRANCH   1  10
ATOM     10  C   UNL     1     108.349 107.090 105.799  1.00  0.00     0.000 C 
BRANCH  10  11
ATOM     11  C   UNL     1     107.184 107.262 106.781  1.00  0.00     0.000 C 
BRANCH  11  12
ATOM     12  C   UNL     1     105.989 106.391 106.376  1.00  0.00     0.000 C 
BRANCH  12  13
ATOM     13  C   UNL     1     104.683 107.198 106.410  1.00  0.00     0.000 C 
BRANCH  13  14
ATOM     14  C   UNL     1     104.899 108.689 106.105  1.00  0.00     0.002 C 
BRANCH  14  15
ATOM     15  C   UNL     1     104.446 109.599 107.258  1.00  0.00     0.028 C 
BRANCH  15  16
ATOM     16  C   UNL     1     103.644 108.824 108.310  1.00  0.00     0.156 C 
BRANCH  16  17
ATOM     17  O   UNL     1     102.273 109.103 108.203  1.00  0.00    -0.396 OA
ATOM     18  H   UNL     1     102.178 110.089 108.269  1.00  0.00     0.210 HD
ENDBRANCH  16  17
ENDBRANCH  15  16
ENDBRANCH  14  15
ENDBRANCH  13  14
ENDBRANCH  12  13
ENDBRANCH  11  12
ENDBRANCH  10  11
ENDBRANCH   1  10
TORSDOF 15
ENDMDL
MODEL 2
REMARK VINA RESULT:    -3.360      1.340      2.923
REMARK INTER + INTRA:          -8.648
REMARK INTER:                  -6.590
REMARK INTRA:                  -2.057
REMARK UNBOUND:                -2.439
REMARK SMILES CCCCCCCCCCCCCCCCO
REMARK SMILES IDX 9 1 8 2 7 3 6 4 5 5 4 6 3 7 2 8 1 9 10 10 11 11 12 12 13 13
REMARK SMILES IDX 14 14 15 15 16 16 17 17
REMARK H PARENT 17 18
REMARK Flexibility Score: inf
ROOT
ATOM      1  C   UNL     1     107.333 106.005 102.269  1.00  0.00     0.000 C 
ENDROOT
BRANCH   1   2
ATOM      2  C   UNL     1     107.521 104.486 102.147  1.00  0.00    -0.000 C 
BRANCH   2   3
ATOM      3  C   UNL     1     106.188 103.720 102.160  1.00  0.00    -0.000 C 
BRANCH   3   4
ATOM      4  C   UNL     1     104.982 104.627 101.875  1.00  0.00    -0.000 C 
BRANCH   4   5
ATOM      5  C   UNL     1     103.926 104.500 102.982  1.00  0.00    -0.000 C 
BRANCH   5   6
ATOM      6  C   UNL     1     104.517 104.651 104.395  1.00  0.00    -0.000 C 
BRANCH   6   7
ATOM      7  C   UNL     1     103.555 105.319 105.399  1.00  0.00    -0.000 C 
BRANCH   7   8
ATOM      8  C   UNL     1     103.810 104.859 106.842  1.00  0.00    -0.003 C 
ATOM      9  C   UNL     1     105.236 104.344 107.012  1.00  0.00     0.004 C 
ENDBRANCH   7   8
ENDBRANCH   6   7
ENDBRANCH   5   6
ENDBRANCH   4   5
ENDBRANCH   3   4
ENDBRANCH   2   3
ENDBRANCH   1   2
BRANCH   1  10
ATOM     10  C   UNL     1     108.073 106.554 103.494  1.00  0.00     0.000 C 
BRANCH  10  11
ATOM     11  C   UNL     1     107.134 107.383 104.379  1.00  0.00     0.000 C 
BRANCH  11  12
ATOM     12  C   UNL     1     105.868 107.786 103.612  1.00  0.00     0.000 C 
BRANCH  12  13
ATOM     13  C   UNL     1     104.898 108.555 104.520  1.00  0.00     0.000 C 
BRANCH  13  14
ATOM     14  C   UNL     1     105.235 108.406 106.012  1.00  0.00     0.002 C 
BRANCH  14  15
ATOM     15  C   UNL     1     104.407 109.347 106.902  1.00  0.00     0.028 C 
BRANCH  15  16
ATOM     16  C   UNL     1     103.703 108.585 108.030  1.00  0.00     0.156 C 
BRANCH  16  17
ATOM     17  O   UNL     1     102.421 109.104 108.263  1.00  0.00    -0.396 OA
ATOM     18  H   UNL     1     102.059 108.625 109.054  1.00  0.00     0.210 HD
ENDBRANCH  16  17
ENDBRANCH  15  16
ENDBRANCH  14  15
ENDBRANCH  13  14
ENDBRANCH  12  13
ENDBRANCH  11  12
ENDBRANCH  10  11
ENDBRANCH   1  10
TORSDOF 15
ENDMDL
MODEL 3
REMARK VINA RESULT:    -3.327      2.972      4.464
REMARK INTER + INTRA:          -8.586
REMARK INTER:                  -6.533
REMARK INTRA:                  -2.053
REMARK UNBOUND:                -2.439
REMARK SMILES CCCCCCCCCCCCCCCCO
REMARK SMILES IDX 9 1 8 2 7 3 6 4 5 5 4 6 3 7 2 8 1 9 10 10 11 11 12 12 13 13
REMARK SMILES IDX 14 14 15 15 16 16 17 17
REMARK H PARENT 17 18
REMARK Flexibility Score: inf
ROOT
ATOM      1  C   UNL     1     108.503 107.150 103.457  1.00  0.00     0.000 C 
ENDROOT
BRANCH   1   2
ATOM      2  C   UNL     1     107.987 106.407 102.216  1.00  0.00    -0.000 C 
BRANCH   2   3
ATOM      3  C   UNL     1     107.535 104.971 102.528  1.00  0.00    -0.000 C 
BRANCH   3   4
ATOM      4  C   UNL     1     106.114 104.676 102.026  1.00  0.00    -0.000 C 
BRANCH   4   5
ATOM      5  C   UNL     1     105.128 104.576 103.198  1.00  0.00    -0.000 C 
BRANCH   5   6
ATOM      6  C   UNL     1     104.225 105.815 103.330  1.00  0.00    -0.000 C 
BRANCH   6   7
ATOM      7  C   UNL     1     104.245 106.730 102.087  1.00  0.00    -0.000 C 
BRANCH   7   8
ATOM      8  C   UNL     1     104.564 108.189 102.445  1.00  0.00    -0.003 C 
ATOM      9  C   UNL     1     104.777 108.354 103.947  1.00  0.00     0.004 C 
ENDBRANCH   7   8
ENDBRANCH   6   7
ENDBRANCH   5   6
ENDBRANCH   4   5
ENDBRANCH   3   4
ENDBRANCH   2   3
ENDBRANCH   1   2
BRANCH   1  10
ATOM     10  C   UNL     1     107.642 106.832 104.685  1.00  0.00     0.000 C 
BRANCH  10  11
ATOM     11  C   UNL     1     108.481 106.861 105.968  1.00  0.00     0.000 C 
BRANCH  11  12
ATOM     12  C   UNL     1     107.821 106.030 107.076  1.00  0.00     0.000 C 
BRANCH  12  13
ATOM     13  C   UNL     1     106.692 105.158 106.511  1.00  0.00     0.000 C 
BRANCH  13  14
ATOM     14  C   UNL     1     107.147 103.722 106.204  1.00  0.00     0.002 C 
BRANCH  14  15
ATOM     15  C   UNL     1     107.865 103.064 107.393  1.00  0.00     0.028 C 
BRANCH  15  16
ATOM     16  C   UNL     1     107.795 101.535 107.321  1.00  0.00     0.156 C 
BRANCH  16  17
ATOM     17  O   UNL     1     106.687 101.049 108.030  1.00  0.00    -0.396 OA
ATOM     18  H   UNL     1     106.316 100.296 107.499  1.00  0.00     0.210 HD
ENDBRANCH  16  17
ENDBRANCH  15  16
ENDBRANCH  14  15
ENDBRANCH  13  14
ENDBRANCH  12  13
ENDBRANCH  11  12
ENDBRANCH  10  11
ENDBRANCH   1  10
TORSDOF 15
ENDMDL
MODEL 4
REMARK VINA RESULT:    -3.302      2.920      4.646
REMARK INTER + INTRA:          -8.541
REMARK INTER:                  -6.057
REMARK INTRA:                  -2.484
REMARK UNBOUND:                -2.439
REMARK SMILES CCCCCCCCCCCCCCCCO
REMARK SMILES IDX 9 1 8 2 7 3 6 4 5 5 4 6 3 7 2 8 1 9 10 10 11 11 12 12 13 13
REMARK SMILES IDX 14 14 15 15 16 16 17 17
REMARK H PARENT 17 18
REMARK Flexibility Score: inf
ROOT
ATOM      1  C   UNL     1     108.012 106.344 102.525  1.00  0.00     0.000 C 
ENDROOT
BRANCH   1   2
ATOM      2  C   UNL     1     107.246 105.168 101.901  1.00  0.00    -0.000 C 
BRANCH   2   3
ATOM      3  C   UNL     1     105.726 105.396 101.875  1.00  0.00    -0.000 C 
BRANCH   3   4
ATOM      4  C   UNL     1     104.968 104.435 102.803  1.00  0.00    -0.000 C 
BRANCH   4   5
ATOM      5  C   UNL     1     103.735 105.118 103.411  1.00  0.00    -0.000 C 
BRANCH   5   6
ATOM      6  C   UNL     1     104.021 105.765 104.777  1.00  0.00    -0.000 C 
BRANCH   6   7
ATOM      7  C   UNL     1     103.628 104.875 105.976  1.00  0.00    -0.000 C 
BRANCH   7   8
ATOM      8  C   UNL     1     103.869 105.575 107.322  1.00  0.00    -0.003 C 
ATOM      9  C   UNL     1     104.389 106.996 107.119  1.00  0.00     0.004 C 
ENDBRANCH   7   8
ENDBRANCH   6   7
ENDBRANCH   5   6
ENDBRANCH   4   5
ENDBRANCH   3   4
ENDBRANCH   2   3
ENDBRANCH   1   2
BRANCH   1  10
ATOM     10  C   UNL     1     107.047 107.425 103.025  1.00  0.00     0.000 C 
BRANCH  10  11
ATOM     11  C   UNL     1     107.079 107.527 104.554  1.00  0.00     0.000 C 
BRANCH  11  12
ATOM     12  C   UNL     1     108.188 106.646 105.143  1.00  0.00     0.000 C 
BRANCH  12  13
ATOM     13  C   UNL     1     107.616 105.648 106.160  1.00  0.00     0.000 C 
BRANCH  13  14
ATOM     14  C   UNL     1     107.263 104.292 105.528  1.00  0.00     0.002 C 
BRANCH  14  15
ATOM     15  C   UNL     1     107.028 103.194 106.579  1.00  0.00     0.028 C 
BRANCH  15  16
ATOM     16  C   UNL     1     107.843 103.446 107.852  1.00  0.00     0.156 C 
BRANCH  16  17
ATOM     17  O   UNL     1     109.113 102.855 107.761  1.00  0.00    -0.396 OA
ATOM     18  H   UNL     1     109.748 103.476 108.203  1.00  0.00     0.210 HD
ENDBRANCH  16  17
ENDBRANCH  15  16
ENDBRANCH  14  15
ENDBRANCH  13  14
ENDBRANCH  12  13
ENDBRANCH  11  12
ENDBRANCH  10  11
ENDBRANCH   1  10
TORSDOF 15
ENDMDL
MODEL 5
REMARK VINA RESULT:    -3.219      2.254      4.472
REMARK INTER + INTRA:          -8.387
REMARK INTER:                  -6.331
REMARK INTRA:                  -2.056
REMARK UNBOUND:                -2.439
REMARK SMILES CCCCCCCCCCCCCCCCO
REMARK SMILES IDX 9 1 8 2 7 3 6 4 5 5 4 6 3 7 2 8 1 9 10 10 11 11 12 12 13 13
REMARK SMILES IDX 14 14 15 15 16 16 17 17
REMARK H PARENT 17 18
REMARK Flexibility Score: inf
ROOT
ATOM      1  C   UNL     1     106.959 107.430 101.966  1.00  0.00     0.000 C 
ENDROOT
BRANCH   1   2
ATOM      2  C   UNL     1     108.083 107.526 103.009  1.00  0.00    -0.000 C 
BRANCH   2   3
ATOM      3  C   UNL     1     107.997 106.425 104.077  1.00  0.00    -0.000 C 
BRANCH   3   4
ATOM      4  C   UNL     1     108.399 106.923 105.474  1.00  0.00    -0.000 C 
BRANCH   4   5
ATOM      5  C   UNL     1     107.164 107.338 106.285  1.00  0.00    -0.000 C 
BRANCH   5   6
ATOM      6  C   UNL     1     106.981 106.505 107.566  1.00  0.00    -0.000 C 
BRANCH   6   7
ATOM      7  C   UNL     1     108.132 105.510 107.827  1.00  0.00    -0.000 C 
BRANCH   7   8
ATOM      8  C   UNL     1     107.643 104.055 107.866  1.00  0.00    -0.003 C 
ATOM      9  C   UNL     1     107.255 103.566 106.474  1.00  0.00     0.004 C 
ENDBRANCH   7   8
ENDBRANCH   6   7
ENDBRANCH   5   6
ENDBRANCH   4   5
ENDBRANCH   3   4
ENDBRANCH   2   3
ENDBRANCH   1   2
BRANCH   1  10
ATOM     10  C   UNL     1     105.632 107.941 102.540  1.00  0.00     0.000 C 
BRANCH  10  11
ATOM     11  C   UNL     1     104.442 107.195 101.924  1.00  0.00     0.000 C 
BRANCH  11  12
ATOM     12  C   UNL     1     104.672 105.679 101.943  1.00  0.00     0.000 C 
BRANCH  12  13
ATOM     13  C   UNL     1     103.824 105.008 103.033  1.00  0.00     0.000 C 
BRANCH  13  14
ATOM     14  C   UNL     1     104.605 104.781 104.337  1.00  0.00     0.002 C 
BRANCH  14  15
ATOM     15  C   UNL     1     104.067 105.626 105.503  1.00  0.00     0.028 C 
BRANCH  15  16
ATOM     16  C   UNL     1     103.288 104.772 106.509  1.00  0.00     0.156 C 
BRANCH  16  17
ATOM     17  O   UNL     1     101.967 104.571 106.082  1.00  0.00    -0.396 OA
ATOM     18  H   UNL     1     101.419 105.280 106.508  1.00  0.00     0.210 HD
ENDBRANCH  16  17
ENDBRANCH  15  16
ENDBRANCH  14  15
ENDBRANCH  13  14
ENDBRANCH  12  13
ENDBRANCH  11  12
ENDBRANCH  10  11
ENDBRANCH   1  10
TORSDOF 15
ENDMDL
MODEL 6
REMARK VINA RESULT:    -3.188      2.443      4.991
REMARK INTER + INTRA:          -8.330
REMARK INTER:                  -6.373
REMARK INTRA:                  -1.957
REMARK UNBOUND:                -2.439
REMARK SMILES CCCCCCCCCCCCCCCCO
REMARK SMILES IDX 9 1 8 2 7 3 6 4 5 5 4 6 3 7 2 8 1 9 10 10 11 11 12 12 13 13
REMARK SMILES IDX 14 14 15 15 16 16 17 17
REMARK H PARENT 17 18
REMARK Flexibility Score: inf
ROOT
ATOM      1  C   UNL     1     104.595 104.463 102.575  1.00  0.00     0.000 C 
ENDROOT
BRANCH   1   2
ATOM      2  C   UNL     1     104.000 105.861 102.796  1.00  0.00    -0.000 C 
BRANCH   2   3
ATOM      3  C   UNL     1     104.624 106.924 101.877  1.00  0.00    -0.000 C 
BRANCH   3   4
ATOM      4  C   UNL     1     104.783 108.286 102.569  1.00  0.00    -0.000 C 
BRANCH   4   5
ATOM      5  C   UNL     1     105.658 108.165 103.824  1.00  0.00    -0.000 C 
BRANCH   5   6
ATOM      6  C   UNL     1     104.939 108.625 105.104  1.00  0.00    -0.000 C 
BRANCH   6   7
ATOM      7  C   UNL     1     104.690 107.486 106.115  1.00  0.00    -0.000 C 
BRANCH   7   8
ATOM      8  C   UNL     1     104.367 108.017 107.520  1.00  0.00    -0.003 C 
ATOM      9  C   UNL     1     104.614 109.520 107.610  1.00  0.00     0.004 C 
ENDBRANCH   7   8
ENDBRANCH   6   7
ENDBRANCH   5   6
ENDBRANCH   4   5
ENDBRANCH   3   4
ENDBRANCH   2   3
ENDBRANCH   1   2
BRANCH   1  10
ATOM     10  C   UNL     1     106.080 104.549 102.204  1.00  0.00     0.000 C 
BRANCH  10  11
ATOM     11  C   UNL     1     106.963 104.015 103.338  1.00  0.00     0.000 C 
BRANCH  11  12
ATOM     12  C   UNL     1     107.328 105.131 104.325  1.00  0.00     0.000 C 
BRANCH  12  13
ATOM     13  C   UNL     1     107.056 104.695 105.773  1.00  0.00     0.000 C 
BRANCH  13  14
ATOM     14  C   UNL     1     107.801 105.559 106.802  1.00  0.00     0.002 C 
BRANCH  14  15
ATOM     15  C   UNL     1     108.289 106.892 106.213  1.00  0.00     0.028 C 
BRANCH  15  16
ATOM     16  C   UNL     1     109.435 107.490 107.036  1.00  0.00     0.156 C 
BRANCH  16  17
ATOM     17  O   UNL     1     110.596 107.620 106.260  1.00  0.00    -0.396 OA
ATOM     18  H   UNL     1     110.337 107.416 105.324  1.00  0.00     0.210 HD
ENDBRANCH  16  17
ENDBRANCH  15  16
ENDBRANCH  14  15
ENDBRANCH  13  14
ENDBRANCH  12  13
ENDBRANCH  11  12
ENDBRANCH  10  11
ENDBRANCH   1  10
TORSDOF 15
ENDMDL
MODEL 7
REMARK VINA RESULT:    -3.186      2.128      4.699
REMARK INTER + INTRA:          -8.327
REMARK INTER:                  -6.097
REMARK INTRA:                  -2.230
REMARK UNBOUND:                -2.439
REMARK SMILES CCCCCCCCCCCCCCCCO
REMARK SMILES IDX 9 1 8 2 7 3 6 4 5 5 4 6 3 7 2 8 1 9 10 10 11 11 12 12 13 13
REMARK SMILES IDX 14 14 15 15 16 16 17 17
REMARK H PARENT 17 18
REMARK Flexibility Score: inf
ROOT
ATOM      1  C   UNL     1     104.669 104.330 102.568  1.00  0.00     0.000 C 
ENDROOT
BRANCH   1   2
ATOM      2  C   UNL     1     103.902 105.636 102.824  1.00  0.00    -0.000 C 
BRANCH   2   3
ATOM      3  C   UNL     1     104.503 106.834 102.071  1.00  0.00    -0.000 C 
BRANCH   3   4
ATOM      4  C   UNL     1     104.556 108.106 102.930  1.00  0.00    -0.000 C 
BRANCH   4   5
ATOM      5  C   UNL     1     105.630 107.989 104.020  1.00  0.00    -0.000 C 
BRANCH   5   6
ATOM      6  C   UNL     1     105.071 108.190 105.439  1.00  0.00    -0.000 C 
BRANCH   6   7
ATOM      7  C   UNL     1     106.097 107.901 106.555  1.00  0.00    -0.000 C 
BRANCH   7   8
ATOM      8  C   UNL     1     105.463 107.950 107.953  1.00  0.00    -0.003 C 
ATOM      9  C   UNL     1     104.003 108.389 107.881  1.00  0.00     0.004 C 
ENDBRANCH   7   8
ENDBRANCH   6   7
ENDBRANCH   5   6
ENDBRANCH   4   5
ENDBRANCH   3   4
ENDBRANCH   2   3
ENDBRANCH   1   2
BRANCH   1  10
ATOM     10  C   UNL     1     106.177 104.588 102.471  1.00  0.00     0.000 C 
BRANCH  10  11
ATOM     11  C   UNL     1     106.937 103.829 103.566  1.00  0.00     0.000 C 
BRANCH  11  12
ATOM     12  C   UNL     1     107.097 104.691 104.824  1.00  0.00     0.000 C 
BRANCH  12  13
ATOM     13  C   UNL     1     107.056 103.825 106.092  1.00  0.00     0.000 C 
BRANCH  13  14
ATOM     14  C   UNL     1     105.954 104.258 107.071  1.00  0.00     0.002 C 
BRANCH  14  15
ATOM     15  C   UNL     1     104.626 104.574 106.364  1.00  0.00     0.028 C 
BRANCH  15  16
ATOM     16  C   UNL     1     103.464 104.667 107.358  1.00  0.00     0.156 C 
BRANCH  16  17
ATOM     17  O   UNL     1     102.763 103.453 107.427  1.00  0.00    -0.396 OA
ATOM     18  H   UNL     1     101.892 103.602 106.976  1.00  0.00     0.210 HD
ENDBRANCH  16  17
ENDBRANCH  15  16
ENDBRANCH  14  15
ENDBRANCH  13  14
ENDBRANCH  12  13
ENDBRANCH  11  12
ENDBRANCH  10  11
ENDBRANCH   1  10
TORSDOF 15
ENDMDL
MODEL 8
REMARK VINA RESULT:    -3.150      2.742      5.171
REMARK INTER + INTRA:          -8.260
REMARK INTER:                  -5.978
REMARK INTRA:                  -2.282
REMARK UNBOUND:                -2.439
REMARK SMILES CCCCCCCCCCCCCCCCO
REMARK SMILES IDX 9 1 8 2 7 3 6 4 5 5 4 6 3 7 2 8 1 9 10 10 11 11 12 12 13 13
REMARK SMILES IDX 14 14 15 15 16 16 17 17
REMARK H PARENT 17 18
REMARK Flexibility Score: inf
ROOT
ATOM      1  C   UNL     1     104.467 107.141 102.728  1.00  0.00     0.000 C 
ENDROOT
BRANCH   1   2
ATOM      2  C   UNL     1     105.709 108.013 102.965  1.00  0.00    -0.000 C 
BRANCH   2   3
ATOM      3  C   UNL     1     106.861 107.679 102.004  1.00  0.00    -0.000 C 
BRANCH   3   4
ATOM      4  C   UNL     1     108.191 107.442 102.734  1.00  0.00    -0.000 C 
BRANCH   4   5
ATOM      5  C   UNL     1     107.972 106.650 104.031  1.00  0.00    -0.000 C 
BRANCH   5   6
ATOM      6  C   UNL     1     108.887 107.112 105.178  1.00  0.00    -0.000 C 
BRANCH   6   7
ATOM      7  C   UNL     1     108.161 107.243 106.534  1.00  0.00    -0.000 C 
BRANCH   7   8
ATOM      8  C   UNL     1     106.666 107.550 106.364  1.00  0.00    -0.003 C 
ATOM      9  C   UNL     1     105.923 107.418 107.690  1.00  0.00     0.004 C 
ENDBRANCH   7   8
ENDBRANCH   6   7
ENDBRANCH   5   6
ENDBRANCH   4   5
ENDBRANCH   3   4
ENDBRANCH   2   3
ENDBRANCH   1   2
BRANCH   1  10
ATOM     10  C   UNL     1     104.842 105.825 102.038  1.00  0.00     0.000 C 
BRANCH  10  11
ATOM     11  C   UNL     1     104.893 104.670 103.045  1.00  0.00     0.000 C 
BRANCH  11  12
ATOM     12  C   UNL     1     104.148 105.032 104.336  1.00  0.00     0.000 C 
BRANCH  12  13
ATOM     13  C   UNL     1     104.901 104.513 105.570  1.00  0.00     0.000 C 
BRANCH  13  14
ATOM     14  C   UNL     1     106.317 104.018 105.236  1.00  0.00     0.002 C 
BRANCH  14  15
ATOM     15  C   UNL     1     107.130 103.661 106.491  1.00  0.00     0.028 C 
BRANCH  15  16
ATOM     16  C   UNL     1     107.401 102.156 106.581  1.00  0.00     0.156 C 
BRANCH  16  17
ATOM     17  O   UNL     1     106.921 101.629 107.789  1.00  0.00    -0.396 OA
ATOM     18  H   UNL     1     107.612 101.819 108.476  1.00  0.00     0.210 HD
ENDBRANCH  16  17
ENDBRANCH  15  16
ENDBRANCH  14  15
ENDBRANCH  13  14
ENDBRANCH  12  13
ENDBRANCH  11  12
ENDBRANCH  10  11
ENDBRANCH   1  10
TORSDOF 15
ENDMDL
MODEL 9
REMARK VINA RESULT:    -3.101      2.112      2.568
REMARK INTER + INTRA:          -8.170
REMARK INTER:                  -6.017
REMARK INTRA:                  -2.152
REMARK UNBOUND:                -2.439
REMARK SMILES CCCCCCCCCCCCCCCCO
REMARK SMILES IDX 9 1 8 2 7 3 6 4 5 5 4 6 3 7 2 8 1 9 10 10 11 11 12 12 13 13
REMARK SMILES IDX 14 14 15 15 16 16 17 17
REMARK H PARENT 17 18
REMARK Flexibility Score: inf
ROOT
ATOM      1  C   UNL     1     107.845 106.412 104.876  1.00  0.00     0.000 C 
ENDROOT
BRANCH   1   2
ATOM      2  C   UNL     1     108.580 107.199 103.780  1.00  0.00    -0.000 C 
BRANCH   2   3
ATOM      3  C   UNL     1     107.790 107.263 102.463  1.00  0.00    -0.000 C 
BRANCH   3   4
ATOM      4  C   UNL     1     106.338 107.720 102.666  1.00  0.00    -0.000 C 
BRANCH   4   5
ATOM      5  C   UNL     1     105.356 106.726 102.030  1.00  0.00    -0.000 C 
BRANCH   5   6
ATOM      6  C   UNL     1     104.593 105.887 103.070  1.00  0.00    -0.000 C 
BRANCH   6   7
ATOM      7  C   UNL     1     105.136 104.450 103.223  1.00  0.00    -0.000 C 
BRANCH   7   8
ATOM      8  C   UNL     1     106.031 104.039 102.045  1.00  0.00    -0.003 C 
ATOM      9  C   UNL     1     107.374 103.504 102.535  1.00  0.00     0.004 C 
ENDBRANCH   7   8
ENDBRANCH   6   7
ENDBRANCH   5   6
ENDBRANCH   4   5
ENDBRANCH   3   4
ENDBRANCH   2   3
ENDBRANCH   1   2
BRANCH   1  10
ATOM     10  C   UNL     1     107.576 107.295 106.100  1.00  0.00     0.000 C 
BRANCH  10  11
ATOM     11  C   UNL     1     106.075 107.371 106.404  1.00  0.00     0.000 C 
BRANCH  11  12
ATOM     12  C   UNL     1     105.802 107.124 107.893  1.00  0.00     0.000 C 
BRANCH  12  13
ATOM     13  C   UNL     1     104.786 105.988 108.084  1.00  0.00     0.000 C 
BRANCH  13  14
ATOM     14  C   UNL     1     104.725 105.037 106.879  1.00  0.00     0.002 C 
BRANCH  14  15
ATOM     15  C   UNL     1     103.287 104.770 106.408  1.00  0.00     0.028 C 
BRANCH  15  16
ATOM     16  C   UNL     1     102.407 104.241 107.546  1.00  0.00     0.156 C 
BRANCH  16  17
ATOM     17  O   UNL     1     102.735 102.913 107.858  1.00  0.00    -0.396 OA
ATOM     18  H   UNL     1     102.065 102.603 108.522  1.00  0.00     0.210 HD
ENDBRANCH  16  17
ENDBRANCH  15  16
ENDBRANCH  14  15
ENDBRANCH  13  14
ENDBRANCH  12  13
ENDBRANCH  11  12
ENDBRANCH  10  11
ENDBRANCH   1  10
TORSDOF 15
ENDMDL
