MODEL 1
REMARK VINA RESULT:    -3.713      0.000      0.000
REMARK INTER + INTRA:          -4.675
REMARK INTER:                  -4.581
REMARK INTRA:                  -0.094
REMARK UNBOUND:                -0.094
REMARK SMILES CCCCC=CC(C)=O
REMARK SMILES IDX 4 1 3 2 2 3 1 4 5 5 6 6 7 7 9 8 8 9
REMARK H PARENT
REMARK Flexibility Score: inf
ROOT
ATOM      1  C   UNL     1      14.580  61.311  20.392  1.00  0.00     0.027 C 
ENDROOT
BRANCH   1   2
ATOM      2  C   UNL     1      13.262  62.085  20.544  1.00  0.00     0.004 C 
BRANCH   2   3
ATOM      3  C   UNL     1      12.311  61.867  19.356  1.00  0.00    -0.003 C 
ATOM      4  C   UNL     1      11.723  63.173  18.822  1.00  0.00     0.004 C 
ENDBRANCH   2   3
ENDBRANCH   1   2
BRANCH   1   5
ATOM      5  C   UNL     1      15.694  61.989  21.135  1.00  0.00    -0.023 C 
ATOM      6  C   UNL     1      16.413  61.342  22.059  1.00  0.00     0.042 C 
BRANCH   6   7
ATOM      7  C   UNL     1      17.522  61.984  22.790  1.00  0.00     0.152 C 
ATOM      8  O   UNL     1      17.408  63.161  23.231  1.00  0.00    -0.295 OA
ATOM      9  C   UNL     1      18.793  61.232  23.016  1.00  0.00     0.093 C 
ENDBRANCH   6   7
ENDBRANCH   1   5
TORSDOF 4
ENDMDL
MODEL 2
REMARK VINA RESULT:    -3.676     15.990     17.544
REMARK INTER + INTRA:          -4.630
REMARK INTER:                  -4.452
REMARK INTRA:                  -0.177
REMARK UNBOUND:                -0.094
REMARK SMILES CCCCC=CC(C)=O
REMARK SMILES IDX 4 1 3 2 2 3 1 4 5 5 6 6 7 7 9 8 8 9
REMARK H PARENT
REMARK Flexibility Score: inf
ROOT
ATOM      1  C   UNL     1      17.982  52.271  34.323  1.00  0.00     0.027 C 
ENDROOT
BRANCH   1   2
ATOM      2  C   UNL     1      18.885  53.344  34.950  1.00  0.00     0.004 C 
BRANCH   2   3
ATOM      3  C   UNL     1      19.503  54.280  33.899  1.00  0.00    -0.003 C 
ATOM      4  C   UNL     1      20.806  53.735  33.315  1.00  0.00     0.004 C 
ENDBRANCH   2   3
ENDBRANCH   1   2
BRANCH   1   5
ATOM      5  C   UNL     1      16.754  52.042  35.155  1.00  0.00    -0.023 C 
ATOM      6  C   UNL     1      16.343  52.941  36.057  1.00  0.00     0.042 C 
BRANCH   6   7
ATOM      7  C   UNL     1      15.132  52.743  36.875  1.00  0.00     0.152 C 
ATOM      8  O   UNL     1      14.283  53.668  37.006  1.00  0.00    -0.295 OA
ATOM      9  C   UNL     1      14.902  51.431  37.552  1.00  0.00     0.093 C 
ENDBRANCH   6   7
ENDBRANCH   1   5
TORSDOF 4
ENDMDL
MODEL 3
REMARK VINA RESULT:    -3.642      2.547      5.514
REMARK INTER + INTRA:          -4.587
REMARK INTER:                  -4.376
REMARK INTRA:                  -0.211
REMARK UNBOUND:                -0.094
REMARK SMILES CCCCC=CC(C)=O
REMARK SMILES IDX 4 1 3 2 2 3 1 4 5 5 6 6 7 7 9 8 8 9
REMARK H PARENT
REMARK Flexibility Score: inf
ROOT
ATOM      1  C   UNL     1      16.092  61.776  21.490  1.00  0.00     0.027 C 
ENDROOT
BRANCH   1   2
ATOM      2  C   UNL     1      16.676  60.499  20.869  1.00  0.00     0.004 C 
BRANCH   2   3
ATOM      3  C   UNL     1      17.893  59.971  21.644  1.00  0.00    -0.003 C 
ATOM      4  C   UNL     1      18.361  60.931  22.738  1.00  0.00     0.004 C 
ENDBRANCH   2   3
ENDBRANCH   1   2
BRANCH   1   5
ATOM      5  C   UNL     1      14.663  61.976  21.074  1.00  0.00    -0.023 C 
ATOM      6  C   UNL     1      14.006  61.053  20.363  1.00  0.00     0.042 C 
BRANCH   6   7
ATOM      7  C   UNL     1      12.598  61.223  19.957  1.00  0.00     0.152 C 
ATOM      8  O   UNL     1      11.725  60.373  20.285  1.00  0.00    -0.295 OA
ATOM      9  C   UNL     1      12.199  62.417  19.152  1.00  0.00     0.093 C 
ENDBRANCH   6   7
ENDBRANCH   1   5
TORSDOF 4
ENDMDL
MODEL 4
REMARK VINA RESULT:    -3.634      2.908      3.751
REMARK INTER + INTRA:          -4.577
REMARK INTER:                  -4.295
REMARK INTRA:                  -0.283
REMARK UNBOUND:                -0.094
REMARK SMILES CCCCC=CC(C)=O
REMARK SMILES IDX 4 1 3 2 2 3 1 4 5 5 6 6 7 7 9 8 8 9
REMARK H PARENT
REMARK Flexibility Score: inf
ROOT
ATOM      1  C   UNL     1      13.742  61.211  20.405  1.00  0.00     0.027 C 
ENDROOT
BRANCH   1   2
ATOM      2  C   UNL     1      12.345  61.194  19.767  1.00  0.00     0.004 C 
BRANCH   2   3
ATOM      3  C   UNL     1      12.254  62.094  18.525  1.00  0.00    -0.003 C 
ATOM      4  C   UNL     1      11.438  63.363  18.771  1.00  0.00     0.004 C 
ENDBRANCH   2   3
ENDBRANCH   1   2
BRANCH   1   5
ATOM      5  C   UNL     1      13.745  62.000  21.682  1.00  0.00    -0.023 C 
ATOM      6  C   UNL     1      12.629  62.176  22.398  1.00  0.00     0.042 C 
BRANCH   6   7
ATOM      7  C   UNL     1      12.613  62.935  23.663  1.00  0.00     0.152 C 
ATOM      8  O   UNL     1      13.374  62.615  24.617  1.00  0.00    -0.295 OA
ATOM      9  C   UNL     1      11.688  64.099  23.816  1.00  0.00     0.093 C 
ENDBRANCH   6   7
ENDBRANCH   1   5
TORSDOF 4
ENDMDL
MODEL 5
REMARK VINA RESULT:    -3.617      1.811      2.133
REMARK INTER + INTRA:          -4.557
REMARK INTER:                  -4.430
REMARK INTRA:                  -0.126
REMARK UNBOUND:                -0.094
REMARK SMILES CCCCC=CC(C)=O
REMARK SMILES IDX 4 1 3 2 2 3 1 4 5 5 6 6 7 7 9 8 8 9
REMARK H PARENT
REMARK Flexibility Score: inf
ROOT
ATOM      1  C   UNL     1      13.745  61.931  20.675  1.00  0.00     0.027 C 
ENDROOT
BRANCH   1   2
ATOM      2  C   UNL     1      12.463  61.424  19.998  1.00  0.00     0.004 C 
BRANCH   2   3
ATOM      3  C   UNL     1      12.226  62.074  18.626  1.00  0.00    -0.003 C 
ATOM      4  C   UNL     1      11.468  63.399  18.722  1.00  0.00     0.004 C 
ENDBRANCH   2   3
ENDBRANCH   1   2
BRANCH   1   5
ATOM      5  C   UNL     1      14.844  60.912  20.586  1.00  0.00    -0.023 C 
ATOM      6  C   UNL     1      15.837  60.874  21.482  1.00  0.00     0.042 C 
BRANCH   6   7
ATOM      7  C   UNL     1      16.918  59.873  21.421  1.00  0.00     0.152 C 
ATOM      8  O   UNL     1      18.129  60.229  21.438  1.00  0.00    -0.295 OA
ATOM      9  C   UNL     1      16.578  58.420  21.344  1.00  0.00     0.093 C 
ENDBRANCH   6   7
ENDBRANCH   1   5
TORSDOF 4
ENDMDL
MODEL 6
REMARK VINA RESULT:    -3.485     15.534     16.997
REMARK INTER + INTRA:          -4.393
REMARK INTER:                  -4.190
REMARK INTRA:                  -0.203
REMARK UNBOUND:                -0.094
REMARK SMILES CCCCC=CC(C)=O
REMARK SMILES IDX 4 1 3 2 2 3 1 4 5 5 6 6 7 7 9 8 8 9
REMARK H PARENT
REMARK Flexibility Score: inf
ROOT
ATOM      1  C   UNL     1      16.716  51.986  35.482  1.00  0.00     0.027 C 
ENDROOT
BRANCH   1   2
ATOM      2  C   UNL     1      15.819  53.045  36.141  1.00  0.00     0.004 C 
BRANCH   2   3
ATOM      3  C   UNL     1      15.230  52.567  37.477  1.00  0.00    -0.003 C 
ATOM      4  C   UNL     1      14.831  51.092  37.456  1.00  0.00     0.004 C 
ENDBRANCH   2   3
ENDBRANCH   1   2
BRANCH   1   5
ATOM      5  C   UNL     1      17.799  52.627  34.664  1.00  0.00    -0.023 C 
ATOM      6  C   UNL     1      18.163  53.899  34.860  1.00  0.00     0.042 C 
BRANCH   6   7
ATOM      7  C   UNL     1      19.235  54.544  34.078  1.00  0.00     0.152 C 
ATOM      8  O   UNL     1      19.264  55.797  33.934  1.00  0.00    -0.295 OA
ATOM      9  C   UNL     1      20.302  53.706  33.452  1.00  0.00     0.093 C 
ENDBRANCH   6   7
ENDBRANCH   1   5
TORSDOF 4
ENDMDL
MODEL 7
REMARK VINA RESULT:    -3.484     12.198     12.892
REMARK INTER + INTRA:          -4.393
REMARK INTER:                  -4.208
REMARK INTRA:                  -0.185
REMARK UNBOUND:                -0.094
REMARK SMILES CCCCC=CC(C)=O
REMARK SMILES IDX 4 1 3 2 2 3 1 4 5 5 6 6 7 7 9 8 8 9
REMARK H PARENT
REMARK Flexibility Score: inf
ROOT
ATOM      1  C   UNL     1      12.644  51.284  20.404  1.00  0.00     0.027 C 
ENDROOT
BRANCH   1   2
ATOM      2  C   UNL     1      11.981  51.276  19.018  1.00  0.00     0.004 C 
BRANCH   2   3
ATOM      3  C   UNL     1      11.844  52.687  18.424  1.00  0.00    -0.003 C 
ATOM      4  C   UNL     1      11.696  53.769  19.493  1.00  0.00     0.004 C 
ENDBRANCH   2   3
ENDBRANCH   1   2
BRANCH   1   5
ATOM      5  C   UNL     1      11.974  50.311  21.330  1.00  0.00    -0.023 C 
ATOM      6  C   UNL     1      11.742  49.045  20.967  1.00  0.00     0.042 C 
BRANCH   6   7
ATOM      7  C   UNL     1      11.099  48.069  21.866  1.00  0.00     0.152 C 
ATOM      8  O   UNL     1      10.115  48.403  22.582  1.00  0.00    -0.295 OA
ATOM      9  C   UNL     1      11.614  46.668  21.929  1.00  0.00     0.093 C 
ENDBRANCH   6   7
ENDBRANCH   1   5
TORSDOF 4
ENDMDL
MODEL 8
REMARK VINA RESULT:    -3.384     13.387     14.347
REMARK INTER + INTRA:          -4.269
REMARK INTER:                  -4.023
REMARK INTRA:                  -0.246
REMARK UNBOUND:                -0.094
REMARK SMILES CCCCC=CC(C)=O
REMARK SMILES IDX 4 1 3 2 2 3 1 4 5 5 6 6 7 7 9 8 8 9
REMARK H PARENT
REMARK Flexibility Score: inf
ROOT
ATOM      1  C   UNL     1      10.575  47.916  22.371  1.00  0.00     0.027 C 
ENDROOT
BRANCH   1   2
ATOM      2  C   UNL     1      11.489  46.794  21.858  1.00  0.00     0.004 C 
BRANCH   2   3
ATOM      3  C   UNL     1      12.314  46.147  22.982  1.00  0.00    -0.003 C 
ATOM      4  C   UNL     1      11.837  46.555  24.376  1.00  0.00     0.004 C 
ENDBRANCH   2   3
ENDBRANCH   1   2
BRANCH   1   5
ATOM      5  C   UNL     1      10.996  49.250  21.826  1.00  0.00    -0.023 C 
ATOM      6  C   UNL     1      11.841  49.348  20.793  1.00  0.00     0.042 C 
BRANCH   6   7
ATOM      7  C   UNL     1      12.257  50.647  20.232  1.00  0.00     0.152 C 
ATOM      8  O   UNL     1      13.118  51.358  20.820  1.00  0.00    -0.295 OA
ATOM      9  C   UNL     1      11.655  51.127  18.951  1.00  0.00     0.093 C 
ENDBRANCH   6   7
ENDBRANCH   1   5
TORSDOF 4
ENDMDL
MODEL 9
REMARK VINA RESULT:    -3.376     15.059     16.983
REMARK INTER + INTRA:          -4.259
REMARK INTER:                  -4.081
REMARK INTRA:                  -0.178
REMARK UNBOUND:                -0.094
REMARK SMILES CCCCC=CC(C)=O
REMARK SMILES IDX 4 1 3 2 2 3 1 4 5 5 6 6 7 7 9 8 8 9
REMARK H PARENT
REMARK Flexibility Score: inf
ROOT
ATOM      1  C   UNL     1      16.937  52.103  35.196  1.00  0.00     0.027 C 
ENDROOT
BRANCH   1   2
ATOM      2  C   UNL     1      15.466  51.930  35.602  1.00  0.00     0.004 C 
BRANCH   2   3
ATOM      3  C   UNL     1      15.218  52.277  37.078  1.00  0.00    -0.003 C 
ATOM      4  C   UNL     1      14.785  51.067  37.907  1.00  0.00     0.004 C 
ENDBRANCH   2   3
ENDBRANCH   1   2
BRANCH   1   5
ATOM      5  C   UNL     1      17.416  53.498  35.475  1.00  0.00    -0.023 C 
ATOM      6  C   UNL     1      17.154  54.508  34.638  1.00  0.00     0.042 C 
BRANCH   6   7
ATOM      7  C   UNL     1      17.602  55.888  34.900  1.00  0.00     0.152 C 
ATOM      8  O   UNL     1      17.012  56.607  35.753  1.00  0.00    -0.295 OA
ATOM      9  C   UNL     1      18.770  56.442  34.151  1.00  0.00     0.093 C 
ENDBRANCH   6   7
ENDBRANCH   1   5
TORSDOF 4
ENDMDL
