MODEL 1
REMARK VINA RESULT:    -5.018      0.000      0.000
REMARK INTER + INTRA:          -7.416
REMARK INTER:                  -6.778
REMARK INTRA:                  -0.639
REMARK UNBOUND:                -0.639
REMARK SMILES C=C[C@@](C)(CCC=C(C)C)OC(C)=O
REMARK SMILES IDX 3 1 4 2 5 3 6 4 7 5 9 6 8 7 10 8 2 9 1 10 11 11 12 12 14 13
REMARK SMILES IDX 13 14
REMARK H PARENT
REMARK Flexibility Score: inf
ROOT
ATOM      1  C   UNL     1      94.247 -60.949 102.765  1.00  0.00     0.127 C 
ATOM      2  C   UNL     1      92.967 -61.703 103.186  1.00  0.00     0.061 C 
ENDROOT
BRANCH   1   3
ATOM      3  C   UNL     1      94.772 -60.088 103.942  1.00  0.00     0.057 C 
BRANCH   3   4
ATOM      4  C   UNL     1      95.507 -60.901 105.023  1.00  0.00     0.032 C 
BRANCH   4   5
ATOM      5  C   UNL     1      96.859 -60.299 105.317  1.00  0.00    -0.028 C 
ATOM      6  C   UNL     1      99.275 -60.280 105.765  1.00  0.00     0.039 C 
ATOM      7  C   UNL     1      98.002 -61.012 105.428  1.00  0.00    -0.080 C 
ATOM      8  C   UNL     1      98.038 -62.507 105.205  1.00  0.00     0.039 C 
ENDBRANCH   4   5
ENDBRANCH   3   4
ENDBRANCH   1   3
BRANCH   1   9
ATOM      9  C   UNL     1      95.324 -61.953 102.382  1.00  0.00     0.013 C 
ATOM     10  C   UNL     1      95.037 -63.222 102.067  1.00  0.00     0.008 C 
ENDBRANCH   1   9
BRANCH   1  11
ATOM     11  O   UNL     1      93.961 -60.077 101.659  1.00  0.00    -0.455 OA
BRANCH  11  12
ATOM     12  C   UNL     1      92.697 -59.566 101.331  1.00  0.00     0.303 C 
ATOM     13  O   UNL     1      92.157 -58.665 102.028  1.00  0.00    -0.253 OA
ATOM     14  C   UNL     1      91.957 -60.144 100.174  1.00  0.00     0.139 C 
ENDBRANCH  11  12
ENDBRANCH   1  11
TORSDOF 6
ENDMDL
MODEL 2
REMARK VINA RESULT:    -4.898      1.443      2.716
REMARK INTER + INTRA:          -7.255
REMARK INTER:                  -6.681
REMARK INTRA:                  -0.573
REMARK UNBOUND:                -0.639
REMARK SMILES C=C[C@@](C)(CCC=C(C)C)OC(C)=O
REMARK SMILES IDX 3 1 4 2 5 3 6 4 7 5 9 6 8 7 10 8 2 9 1 10 11 11 12 12 14 13
REMARK SMILES IDX 13 14
REMARK H PARENT
REMARK Flexibility Score: inf
ROOT
ATOM      1  C   UNL     1      93.920 -60.864 102.754  1.00  0.00     0.127 C 
ATOM      2  C   UNL     1      94.848 -61.950 102.167  1.00  0.00     0.061 C 
ENDROOT
BRANCH   1   3
ATOM      3  C   UNL     1      94.635 -60.114 103.907  1.00  0.00     0.057 C 
BRANCH   3   4
ATOM      4  C   UNL     1      95.498 -61.028 104.796  1.00  0.00     0.032 C 
BRANCH   4   5
ATOM      5  C   UNL     1      96.818 -60.372 105.115  1.00  0.00    -0.028 C 
ATOM      6  C   UNL     1      99.174 -60.251 105.803  1.00  0.00     0.039 C 
ATOM      7  C   UNL     1      97.935 -61.043 105.475  1.00  0.00    -0.080 C 
ATOM      8  C   UNL     1      97.976 -62.552 105.539  1.00  0.00     0.039 C 
ENDBRANCH   4   5
ENDBRANCH   3   4
ENDBRANCH   1   3
BRANCH   1   9
ATOM      9  C   UNL     1      93.566 -59.858 101.670  1.00  0.00     0.013 C 
ATOM     10  C   UNL     1      92.544 -59.003 101.795  1.00  0.00     0.008 C 
ENDBRANCH   1   9
BRANCH   1  11
ATOM     11  O   UNL     1      92.728 -61.471 103.281  1.00  0.00    -0.455 OA
BRANCH  11  12
ATOM     12  C   UNL     1      92.256 -62.751 102.959  1.00  0.00     0.303 C 
ATOM     13  O   UNL     1      91.671 -62.975 101.865  1.00  0.00    -0.253 OA
ATOM     14  C   UNL     1      92.397 -63.850 103.956  1.00  0.00     0.139 C 
ENDBRANCH  11  12
ENDBRANCH   1  11
TORSDOF 6
ENDMDL
MODEL 3
REMARK VINA RESULT:    -4.895      2.490      5.917
REMARK INTER + INTRA:          -7.251
REMARK INTER:                  -6.619
REMARK INTRA:                  -0.632
REMARK UNBOUND:                -0.639
REMARK SMILES C=C[C@@](C)(CCC=C(C)C)OC(C)=O
REMARK SMILES IDX 3 1 4 2 5 3 6 4 7 5 9 6 8 7 10 8 2 9 1 10 11 11 12 12 14 13
REMARK SMILES IDX 13 14
REMARK H PARENT
REMARK Flexibility Score: inf
ROOT
ATOM      1  C   UNL     1      95.910 -61.756 104.578  1.00  0.00     0.127 C 
ATOM      2  C   UNL     1      95.289 -62.939 105.352  1.00  0.00     0.061 C 
ENDROOT
BRANCH   1   3
ATOM      3  C   UNL     1      95.377 -61.729 103.122  1.00  0.00     0.057 C 
BRANCH   3   4
ATOM      4  C   UNL     1      93.880 -62.071 103.007  1.00  0.00     0.032 C 
BRANCH   4   5
ATOM      5  C   UNL     1      93.304 -61.524 101.724  1.00  0.00    -0.028 C 
ATOM      6  C   UNL     1      92.117 -59.932 100.278  1.00  0.00     0.039 C 
ATOM      7  C   UNL     1      92.678 -60.331 101.618  1.00  0.00    -0.080 C 
ATOM      8  C   UNL     1      92.545 -59.390 102.793  1.00  0.00     0.039 C 
ENDBRANCH   4   5
ENDBRANCH   3   4
ENDBRANCH   1   3
BRANCH   1   9
ATOM      9  C   UNL     1      95.529 -60.450 105.257  1.00  0.00     0.013 C 
ATOM     10  C   UNL     1      95.577 -59.273 104.619  1.00  0.00     0.008 C 
ENDBRANCH   1   9
BRANCH   1  11
ATOM     11  O   UNL     1      97.340 -61.897 104.532  1.00  0.00    -0.455 OA
BRANCH  11  12
ATOM     12  C   UNL     1      98.213 -61.694 105.611  1.00  0.00     0.303 C 
ATOM     13  O   UNL     1      98.330 -62.553 106.525  1.00  0.00    -0.253 OA
ATOM     14  C   UNL     1      98.967 -60.412 105.704  1.00  0.00     0.139 C 
ENDBRANCH  11  12
ENDBRANCH   1  11
TORSDOF 6
ENDMDL
MODEL 4
REMARK VINA RESULT:    -4.827      1.089      1.579
REMARK INTER + INTRA:          -7.159
REMARK INTER:                  -6.760
REMARK INTRA:                  -0.399
REMARK UNBOUND:                -0.639
REMARK SMILES C=C[C@@](C)(CCC=C(C)C)OC(C)=O
REMARK SMILES IDX 3 1 4 2 5 3 6 4 7 5 9 6 8 7 10 8 2 9 1 10 11 11 12 12 14 13
REMARK SMILES IDX 13 14
REMARK H PARENT
REMARK Flexibility Score: inf
ROOT
ATOM      1  C   UNL     1      93.989 -62.307 102.719  1.00  0.00     0.127 C 
ATOM      2  C   UNL     1      92.522 -62.751 102.909  1.00  0.00     0.061 C 
ENDROOT
BRANCH   1   3
ATOM      3  C   UNL     1      94.740 -62.346 104.075  1.00  0.00     0.057 C 
BRANCH   3   4
ATOM      4  C   UNL     1      95.263 -60.972 104.530  1.00  0.00     0.032 C 
BRANCH   4   5
ATOM      5  C   UNL     1      96.684 -61.079 105.027  1.00  0.00    -0.028 C 
ATOM      6  C   UNL     1      98.871 -60.277 105.808  1.00  0.00     0.039 C 
ATOM      7  C   UNL     1      97.454 -60.021 105.364  1.00  0.00    -0.080 C 
ATOM      8  C   UNL     1      96.930 -58.604 105.324  1.00  0.00     0.039 C 
ENDBRANCH   4   5
ENDBRANCH   3   4
ENDBRANCH   1   3
BRANCH   1   9
ATOM      9  C   UNL     1      94.685 -63.253 101.753  1.00  0.00     0.013 C 
ATOM     10  C   UNL     1      95.218 -64.415 102.151  1.00  0.00     0.008 C 
ENDBRANCH   1   9
BRANCH   1  11
ATOM     11  O   UNL     1      94.033 -60.961 102.217  1.00  0.00    -0.455 OA
BRANCH  11  12
ATOM     12  C   UNL     1      92.916 -60.154 101.953  1.00  0.00     0.303 C 
ATOM     13  O   UNL     1      92.368 -59.479 102.866  1.00  0.00    -0.253 OA
ATOM     14  C   UNL     1      92.335 -60.145 100.581  1.00  0.00     0.139 C 
ENDBRANCH  11  12
ENDBRANCH   1  11
TORSDOF 6
ENDMDL
MODEL 5
REMARK VINA RESULT:    -4.798      1.453      2.209
REMARK INTER + INTRA:          -7.120
REMARK INTER:                  -6.495
REMARK INTRA:                  -0.625
REMARK UNBOUND:                -0.639
REMARK SMILES C=C[C@@](C)(CCC=C(C)C)OC(C)=O
REMARK SMILES IDX 3 1 4 2 5 3 6 4 7 5 9 6 8 7 10 8 2 9 1 10 11 11 12 12 14 13
REMARK SMILES IDX 13 14
REMARK H PARENT
REMARK Flexibility Score: inf
ROOT
ATOM      1  C   UNL     1      94.974 -62.830 102.772  1.00  0.00     0.127 C 
ATOM      2  C   UNL     1      93.966 -63.129 103.902  1.00  0.00     0.061 C 
ENDROOT
BRANCH   1   3
ATOM      3  C   UNL     1      96.400 -62.659 103.357  1.00  0.00     0.057 C 
BRANCH   3   4
ATOM      4  C   UNL     1      96.416 -62.380 104.870  1.00  0.00     0.032 C 
BRANCH   4   5
ATOM      5  C   UNL     1      97.780 -61.910 105.312  1.00  0.00    -0.028 C 
ATOM      6  C   UNL     1      99.525 -60.290 105.920  1.00  0.00     0.039 C 
ATOM      7  C   UNL     1      98.110 -60.616 105.516  1.00  0.00    -0.080 C 
ATOM      8  C   UNL     1      97.101 -59.500 105.370  1.00  0.00     0.039 C 
ENDBRANCH   4   5
ENDBRANCH   3   4
ENDBRANCH   1   3
BRANCH   1   9
ATOM      9  C   UNL     1      94.991 -63.990 101.788  1.00  0.00     0.013 C 
ATOM     10  C   UNL     1      93.913 -64.335 101.073  1.00  0.00     0.008 C 
ENDBRANCH   1   9
BRANCH   1  11
ATOM     11  O   UNL     1      94.612 -61.611 102.101  1.00  0.00    -0.455 OA
BRANCH  11  12
ATOM     12  C   UNL     1      93.624 -60.712 102.525  1.00  0.00     0.303 C 
ATOM     13  O   UNL     1      92.431 -60.819 102.131  1.00  0.00    -0.253 OA
ATOM     14  C   UNL     1      94.007 -59.574 103.409  1.00  0.00     0.139 C 
ENDBRANCH  11  12
ENDBRANCH   1  11
TORSDOF 6
ENDMDL
MODEL 6
REMARK VINA RESULT:    -4.795      2.250      5.243
REMARK INTER + INTRA:          -7.116
REMARK INTER:                  -6.574
REMARK INTRA:                  -0.542
REMARK UNBOUND:                -0.639
REMARK SMILES C=C[C@@](C)(CCC=C(C)C)OC(C)=O
REMARK SMILES IDX 3 1 4 2 5 3 6 4 7 5 9 6 8 7 10 8 2 9 1 10 11 11 12 12 14 13
REMARK SMILES IDX 13 14
REMARK H PARENT
REMARK Flexibility Score: inf
ROOT
ATOM      1  C   UNL     1      95.340 -62.137 104.020  1.00  0.00     0.127 C 
ATOM      2  C   UNL     1      96.746 -62.741 103.814  1.00  0.00     0.061 C 
ENDROOT
BRANCH   1   3
ATOM      3  C   UNL     1      94.851 -61.462 102.712  1.00  0.00     0.057 C 
BRANCH   3   4
ATOM      4  C   UNL     1      93.323 -61.502 102.531  1.00  0.00     0.032 C 
BRANCH   4   5
ATOM      5  C   UNL     1      92.760 -60.106 102.423  1.00  0.00    -0.028 C 
ATOM      6  C   UNL     1      91.712 -58.171 101.332  1.00  0.00     0.039 C 
ATOM      7  C   UNL     1      92.196 -59.598 101.305  1.00  0.00    -0.080 C 
ATOM      8  C   UNL     1      92.024 -60.420 100.050  1.00  0.00     0.039 C 
ENDBRANCH   4   5
ENDBRANCH   3   4
ENDBRANCH   1   3
BRANCH   1   9
ATOM      9  C   UNL     1      94.362 -63.241 104.389  1.00  0.00     0.013 C 
ATOM     10  C   UNL     1      94.708 -64.534 104.377  1.00  0.00     0.008 C 
ENDBRANCH   1   9
BRANCH   1  11
ATOM     11  O   UNL     1      95.381 -61.139 105.054  1.00  0.00    -0.455 OA
BRANCH  11  12
ATOM     12  C   UNL     1      96.053 -59.911 104.974  1.00  0.00     0.303 C 
ATOM     13  O   UNL     1      97.274 -59.815 105.270  1.00  0.00    -0.253 OA
ATOM     14  C   UNL     1      95.291 -58.689 104.590  1.00  0.00     0.139 C 
ENDBRANCH  11  12
ENDBRANCH   1  11
TORSDOF 6
ENDMDL
MODEL 7
REMARK VINA RESULT:    -4.781      1.629      2.045
REMARK INTER + INTRA:          -7.096
REMARK INTER:                  -6.529
REMARK INTRA:                  -0.567
REMARK UNBOUND:                -0.639
REMARK SMILES C=C[C@@](C)(CCC=C(C)C)OC(C)=O
REMARK SMILES IDX 3 1 4 2 5 3 6 4 7 5 9 6 8 7 10 8 2 9 1 10 11 11 12 12 14 13
REMARK SMILES IDX 13 14
REMARK H PARENT
REMARK Flexibility Score: inf
ROOT
ATOM      1  C   UNL     1      94.453 -62.207 103.130  1.00  0.00     0.127 C 
ATOM      2  C   UNL     1      92.968 -62.627 103.089  1.00  0.00     0.061 C 
ENDROOT
BRANCH   1   3
ATOM      3  C   UNL     1      95.014 -62.362 104.567  1.00  0.00     0.057 C 
BRANCH   3   4
ATOM      4  C   UNL     1      96.494 -62.782 104.610  1.00  0.00     0.032 C 
BRANCH   4   5
ATOM      5  C   UNL     1      97.383 -61.585 104.841  1.00  0.00    -0.028 C 
ATOM      6  C   UNL     1      99.131 -60.245 105.932  1.00  0.00     0.039 C 
ATOM      7  C   UNL     1      98.345 -61.523 105.789  1.00  0.00    -0.080 C 
ATOM      8  C   UNL     1      98.661 -62.697 106.687  1.00  0.00     0.039 C 
ENDBRANCH   4   5
ENDBRANCH   3   4
ENDBRANCH   1   3
BRANCH   1   9
ATOM      9  C   UNL     1      95.259 -63.099 102.198  1.00  0.00     0.013 C 
ATOM     10  C   UNL     1      94.698 -64.096 101.502  1.00  0.00     0.008 C 
ENDBRANCH   1   9
BRANCH   1  11
ATOM     11  O   UNL     1      94.584 -60.830 102.741  1.00  0.00    -0.455 OA
BRANCH  11  12
ATOM     12  C   UNL     1      94.014 -59.737 103.409  1.00  0.00     0.303 C 
ATOM     13  O   UNL     1      92.815 -59.402 103.208  1.00  0.00    -0.253 OA
ATOM     14  C   UNL     1      94.860 -58.924 104.327  1.00  0.00     0.139 C 
ENDBRANCH  11  12
ENDBRANCH   1  11
TORSDOF 6
ENDMDL
MODEL 8
REMARK VINA RESULT:    -4.620      2.203      4.906
REMARK INTER + INTRA:          -6.879
REMARK INTER:                  -6.170
REMARK INTRA:                  -0.709
REMARK UNBOUND:                -0.639
REMARK SMILES C=C[C@@](C)(CCC=C(C)C)OC(C)=O
REMARK SMILES IDX 3 1 4 2 5 3 6 4 7 5 9 6 8 7 10 8 2 9 1 10 11 11 12 12 14 13
REMARK SMILES IDX 13 14
REMARK H PARENT
REMARK Flexibility Score: inf
ROOT
ATOM      1  C   UNL     1      93.785 -60.469 102.594  1.00  0.00     0.127 C 
ATOM      2  C   UNL     1      94.974 -61.454 102.576  1.00  0.00     0.061 C 
ENDROOT
BRANCH   1   3
ATOM      3  C   UNL     1      92.476 -61.218 102.955  1.00  0.00     0.057 C 
BRANCH   3   4
ATOM      4  C   UNL     1      92.595 -62.749 102.860  1.00  0.00     0.032 C 
BRANCH   4   5
ATOM      5  C   UNL     1      91.889 -63.265 101.630  1.00  0.00    -0.028 C 
ATOM      6  C   UNL     1      91.642 -64.486  99.512  1.00  0.00     0.039 C 
ATOM      7  C   UNL     1      92.456 -64.081 100.714  1.00  0.00    -0.080 C 
ATOM      8  C   UNL     1      93.864 -64.607 100.871  1.00  0.00     0.039 C 
ENDBRANCH   4   5
ENDBRANCH   3   4
ENDBRANCH   1   3
BRANCH   1   9
ATOM      9  C   UNL     1      94.032 -59.395 103.642  1.00  0.00     0.013 C 
ATOM     10  C   UNL     1      95.106 -59.410 104.440  1.00  0.00     0.008 C 
ENDBRANCH   1   9
BRANCH   1  11
ATOM     11  O   UNL     1      93.621 -59.873 101.296  1.00  0.00    -0.455 OA
BRANCH  11  12
ATOM     12  C   UNL     1      92.395 -59.549 100.698  1.00  0.00     0.303 C 
ATOM     13  O   UNL     1      91.886 -60.288  99.813  1.00  0.00    -0.253 OA
ATOM     14  C   UNL     1      91.716 -58.277 101.075  1.00  0.00     0.139 C 
ENDBRANCH  11  12
ENDBRANCH   1  11
TORSDOF 6
ENDMDL
MODEL 9
REMARK VINA RESULT:    -4.603      2.523      5.697
REMARK INTER + INTRA:          -6.856
REMARK INTER:                  -6.152
REMARK INTRA:                  -0.704
REMARK UNBOUND:                -0.639
REMARK SMILES C=C[C@@](C)(CCC=C(C)C)OC(C)=O
REMARK SMILES IDX 3 1 4 2 5 3 6 4 7 5 9 6 8 7 10 8 2 9 1 10 11 11 12 12 14 13
REMARK SMILES IDX 13 14
REMARK H PARENT
REMARK Flexibility Score: inf
ROOT
ATOM      1  C   UNL     1      96.226 -61.754 104.644  1.00  0.00     0.127 C 
ATOM      2  C   UNL     1      96.104 -60.274 105.068  1.00  0.00     0.061 C 
ENDROOT
BRANCH   1   3
ATOM      3  C   UNL     1      95.658 -61.950 103.215  1.00  0.00     0.057 C 
BRANCH   3   4
ATOM      4  C   UNL     1      94.125 -61.845 103.140  1.00  0.00     0.032 C 
BRANCH   4   5
ATOM      5  C   UNL     1      93.703 -61.023 101.947  1.00  0.00    -0.028 C 
ATOM      6  C   UNL     1      92.782 -59.084 100.749  1.00  0.00     0.039 C 
ATOM      7  C   UNL     1      93.198 -59.771 102.025  1.00  0.00    -0.080 C 
ATOM      8  C   UNL     1      93.059 -59.045 103.342  1.00  0.00     0.039 C 
ENDBRANCH   4   5
ENDBRANCH   3   4
ENDBRANCH   1   3
BRANCH   1   9
ATOM      9  C   UNL     1      97.691 -62.162 104.643  1.00  0.00     0.013 C 
ATOM     10  C   UNL     1      98.618 -61.498 105.345  1.00  0.00     0.008 C 
ENDBRANCH   1   9
BRANCH   1  11
ATOM     11  O   UNL     1      95.477 -62.586 105.545  1.00  0.00    -0.455 OA
BRANCH  11  12
ATOM     12  C   UNL     1      95.752 -63.931 105.831  1.00  0.00     0.303 C 
ATOM     13  O   UNL     1      95.474 -64.843 105.007  1.00  0.00    -0.253 OA
ATOM     14  C   UNL     1      96.328 -64.289 107.158  1.00  0.00     0.139 C 
ENDBRANCH  11  12
ENDBRANCH   1  11
TORSDOF 6
ENDMDL
