MODEL 1
REMARK VINA RESULT:    -3.237      0.000      0.000
REMARK INTER + INTRA:          -4.325
REMARK INTER:                  -4.183
REMARK INTRA:                  -0.142
REMARK UNBOUND:                -0.142
REMARK SMILES CCCCCCC(=O)[O-]
REMARK SMILES IDX 5 1 6 2 7 3 8 4 9 5 4 6 3 7 2 8 1 9
REMARK H PARENT
REMARK Flexibility Score: inf
ROOT
ATOM      1  C   UNL     1      57.851  29.275  50.262  1.00  0.00     0.006 C 
ENDROOT
BRANCH   1   2
ATOM      2  C   UNL     1      58.766  29.135  49.038  1.00  0.00     0.053 C 
BRANCH   2   3
ATOM      3  C   UNL     1      59.912  28.224  49.345  1.00  0.00     0.041 C 
ATOM      4  O   UNL     1      61.045  28.699  49.615  1.00  0.00    -0.550 OA
ATOM      5  O   UNL     1      59.739  26.847  49.283  1.00  0.00    -0.550 OA
ENDBRANCH   2   3
ENDBRANCH   1   2
BRANCH   1   6
ATOM      6  C   UNL     1      56.724  28.227  50.270  1.00  0.00     0.000 C 
BRANCH   6   7
ATOM      7  C   UNL     1      55.329  28.834  50.539  1.00  0.00    -0.000 C 
BRANCH   7   8
ATOM      8  C   UNL     1      54.175  28.000  49.957  1.00  0.00    -0.003 C 
ATOM      9  C   UNL     1      54.598  26.579  49.587  1.00  0.00     0.004 C 
ENDBRANCH   7   8
ENDBRANCH   6   7
ENDBRANCH   1   6
TORSDOF 5
ENDMDL
MODEL 2
REMARK VINA RESULT:    -3.219     12.909     14.188
REMARK INTER + INTRA:          -4.303
REMARK INTER:                  -4.089
REMARK INTRA:                  -0.214
REMARK UNBOUND:                -0.142
REMARK SMILES CCCCCCC(=O)[O-]
REMARK SMILES IDX 5 1 6 2 7 3 8 4 9 5 4 6 3 7 2 8 1 9
REMARK H PARENT
REMARK Flexibility Score: inf
ROOT
ATOM      1  C   UNL     1      61.625  33.135  60.280  1.00  0.00     0.006 C 
ENDROOT
BRANCH   1   2
ATOM      2  C   UNL     1      62.461  31.911  60.677  1.00  0.00     0.053 C 
BRANCH   2   3
ATOM      3  C   UNL     1      61.706  31.054  61.643  1.00  0.00     0.041 C 
ATOM      4  O   UNL     1      62.178  29.947  62.013  1.00  0.00    -0.550 OA
ATOM      5  O   UNL     1      60.455  31.455  62.096  1.00  0.00    -0.550 OA
ENDBRANCH   2   3
ENDBRANCH   1   2
BRANCH   1   6
ATOM      6  C   UNL     1      62.291  34.457  60.701  1.00  0.00     0.000 C 
BRANCH   6   7
ATOM      7  C   UNL     1      63.772  34.290  61.109  1.00  0.00    -0.000 C 
BRANCH   7   8
ATOM      8  C   UNL     1      64.359  35.531  61.803  1.00  0.00    -0.003 C 
ATOM      9  C   UNL     1      63.468  36.764  61.668  1.00  0.00     0.004 C 
ENDBRANCH   7   8
ENDBRANCH   6   7
ENDBRANCH   1   6
TORSDOF 5
ENDMDL
MODEL 3
REMARK VINA RESULT:    -3.219      0.649      1.157
REMARK INTER + INTRA:          -4.302
REMARK INTER:                  -4.153
REMARK INTRA:                  -0.149
REMARK UNBOUND:                -0.142
REMARK SMILES CCCCCCC(=O)[O-]
REMARK SMILES IDX 5 1 6 2 7 3 8 4 9 5 4 6 3 7 2 8 1 9
REMARK H PARENT
REMARK Flexibility Score: inf
ROOT
ATOM      1  C   UNL     1      56.979  28.216  50.153  1.00  0.00     0.006 C 
ENDROOT
BRANCH   1   2
ATOM      2  C   UNL     1      58.053  29.252  49.794  1.00  0.00     0.053 C 
BRANCH   2   3
ATOM      3  C   UNL     1      59.369  28.579  49.563  1.00  0.00     0.041 C 
ATOM      4  O   UNL     1      60.443  29.217  49.720  1.00  0.00    -0.550 OA
ATOM      5  O   UNL     1      59.409  27.261  49.128  1.00  0.00    -0.550 OA
ENDBRANCH   2   3
ENDBRANCH   1   2
BRANCH   1   6
ATOM      6  C   UNL     1      55.631  28.873  50.503  1.00  0.00     0.000 C 
BRANCH   6   7
ATOM      7  C   UNL     1      54.412  28.030  50.068  1.00  0.00    -0.000 C 
BRANCH   7   8
ATOM      8  C   UNL     1      54.769  26.580  49.698  1.00  0.00    -0.003 C 
ATOM      9  C   UNL     1      53.613  25.835  49.034  1.00  0.00     0.004 C 
ENDBRANCH   7   8
ENDBRANCH   6   7
ENDBRANCH   1   6
TORSDOF 5
ENDMDL
MODEL 4
REMARK VINA RESULT:    -3.208     12.481     13.733
REMARK INTER + INTRA:          -4.287
REMARK INTER:                  -4.127
REMARK INTRA:                  -0.161
REMARK UNBOUND:                -0.142
REMARK SMILES CCCCCCC(=O)[O-]
REMARK SMILES IDX 5 1 6 2 7 3 8 4 9 5 4 6 3 7 2 8 1 9
REMARK H PARENT
REMARK Flexibility Score: inf
ROOT
ATOM      1  C   UNL     1      60.993  31.910  60.423  1.00  0.00     0.006 C 
ENDROOT
BRANCH   1   2
ATOM      2  C   UNL     1      61.041  31.160  61.761  1.00  0.00     0.053 C 
BRANCH   2   3
ATOM      3  C   UNL     1      62.163  30.172  61.766  1.00  0.00     0.041 C 
ATOM      4  O   UNL     1      61.921  28.937  61.778  1.00  0.00    -0.550 OA
ATOM      5  O   UNL     1      63.479  30.616  61.807  1.00  0.00    -0.550 OA
ENDBRANCH   2   3
ENDBRANCH   1   2
BRANCH   1   6
ATOM      6  C   UNL     1      61.226  33.422  60.593  1.00  0.00     0.000 C 
BRANCH   6   7
ATOM      7  C   UNL     1      62.721  33.807  60.631  1.00  0.00    -0.000 C 
BRANCH   7   8
ATOM      8  C   UNL     1      62.966  35.272  61.032  1.00  0.00    -0.003 C 
ATOM      9  C   UNL     1      64.297  35.475  61.754  1.00  0.00     0.004 C 
ENDBRANCH   7   8
ENDBRANCH   6   7
ENDBRANCH   1   6
TORSDOF 5
ENDMDL
MODEL 5
REMARK VINA RESULT:    -3.036      3.399      4.886
REMARK INTER + INTRA:          -4.066
REMARK INTER:                  -3.820
REMARK INTRA:                  -0.246
REMARK UNBOUND:                -0.142
REMARK SMILES CCCCCCC(=O)[O-]
REMARK SMILES IDX 5 1 6 2 7 3 8 4 9 5 4 6 3 7 2 8 1 9
REMARK H PARENT
REMARK Flexibility Score: inf
ROOT
ATOM      1  C   UNL     1      55.904  28.046  50.574  1.00  0.00     0.006 C 
ENDROOT
BRANCH   1   2
ATOM      2  C   UNL     1      55.655  26.744  49.800  1.00  0.00     0.053 C 
BRANCH   2   3
ATOM      3  C   UNL     1      54.196  26.576  49.517  1.00  0.00     0.041 C 
ATOM      4  O   UNL     1      53.446  27.584  49.431  1.00  0.00    -0.550 OA
ATOM      5  O   UNL     1      53.654  25.302  49.396  1.00  0.00    -0.550 OA
ENDBRANCH   2   3
ENDBRANCH   1   2
BRANCH   1   6
ATOM      6  C   UNL     1      57.401  28.292  50.833  1.00  0.00     0.000 C 
BRANCH   6   7
ATOM      7  C   UNL     1      58.048  29.245  49.803  1.00  0.00    -0.000 C 
BRANCH   7   8
ATOM      8  C   UNL     1      59.281  28.646  49.105  1.00  0.00    -0.003 C 
ATOM      9  C   UNL     1      59.407  27.138  49.314  1.00  0.00     0.004 C 
ENDBRANCH   7   8
ENDBRANCH   6   7
ENDBRANCH   1   6
TORSDOF 5
ENDMDL
MODEL 6
REMARK VINA RESULT:    -3.029     12.851     13.802
REMARK INTER + INTRA:          -4.057
REMARK INTER:                  -3.895
REMARK INTRA:                  -0.162
REMARK UNBOUND:                -0.142
REMARK SMILES CCCCCCC(=O)[O-]
REMARK SMILES IDX 5 1 6 2 7 3 8 4 9 5 4 6 3 7 2 8 1 9
REMARK H PARENT
REMARK Flexibility Score: inf
ROOT
ATOM      1  C   UNL     1      62.064  34.495  60.117  1.00  0.00     0.006 C 
ENDROOT
BRANCH   1   2
ATOM      2  C   UNL     1      62.561  35.579  61.084  1.00  0.00     0.053 C 
BRANCH   2   3
ATOM      3  C   UNL     1      64.056  35.615  61.104  1.00  0.00     0.041 C 
ATOM      4  O   UNL     1      64.672  35.759  62.192  1.00  0.00    -0.550 OA
ATOM      5  O   UNL     1      64.768  35.540  59.914  1.00  0.00    -0.550 OA
ENDBRANCH   2   3
ENDBRANCH   1   2
BRANCH   1   6
ATOM      6  C   UNL     1      62.156  33.084  60.725  1.00  0.00     0.000 C 
BRANCH   6   7
ATOM      7  C   UNL     1      60.788  32.374  60.826  1.00  0.00    -0.000 C 
BRANCH   7   8
ATOM      8  C   UNL     1      60.786  31.184  61.801  1.00  0.00    -0.003 C 
ATOM      9  C   UNL     1      62.120  30.442  61.835  1.00  0.00     0.004 C 
ENDBRANCH   7   8
ENDBRANCH   6   7
ENDBRANCH   1   6
TORSDOF 5
ENDMDL
MODEL 7
REMARK VINA RESULT:    -3.023      3.323      5.158
REMARK INTER + INTRA:          -4.048
REMARK INTER:                  -3.866
REMARK INTRA:                  -0.182
REMARK UNBOUND:                -0.142
REMARK SMILES CCCCCCC(=O)[O-]
REMARK SMILES IDX 5 1 6 2 7 3 8 4 9 5 4 6 3 7 2 8 1 9
REMARK H PARENT
REMARK Flexibility Score: inf
ROOT
ATOM      1  C   UNL     1      56.682  26.310  50.011  1.00  0.00     0.006 C 
ENDROOT
BRANCH   1   2
ATOM      2  C   UNL     1      55.446  27.003  50.602  1.00  0.00     0.053 C 
BRANCH   2   3
ATOM      3  C   UNL     1      54.293  26.911  49.653  1.00  0.00     0.041 C 
ATOM      4  O   UNL     1      54.125  25.876  48.957  1.00  0.00    -0.550 OA
ATOM      5  O   UNL     1      53.431  27.990  49.502  1.00  0.00    -0.550 OA
ENDBRANCH   2   3
ENDBRANCH   1   2
BRANCH   1   6
ATOM      6  C   UNL     1      57.995  26.955  50.489  1.00  0.00     0.000 C 
BRANCH   6   7
ATOM      7  C   UNL     1      59.132  26.867  49.447  1.00  0.00    -0.000 C 
BRANCH   7   8
ATOM      8  C   UNL     1      59.779  28.226  49.129  1.00  0.00    -0.003 C 
ATOM      9  C   UNL     1      58.764  29.366  49.068  1.00  0.00     0.004 C 
ENDBRANCH   7   8
ENDBRANCH   6   7
ENDBRANCH   1   6
TORSDOF 5
ENDMDL
MODEL 8
REMARK VINA RESULT:    -2.976     13.030     14.275
REMARK INTER + INTRA:          -3.988
REMARK INTER:                  -3.798
REMARK INTRA:                  -0.190
REMARK UNBOUND:                -0.142
REMARK SMILES CCCCCCC(=O)[O-]
REMARK SMILES IDX 5 1 6 2 7 3 8 4 9 5 4 6 3 7 2 8 1 9
REMARK H PARENT
REMARK Flexibility Score: inf
ROOT
ATOM      1  C   UNL     1      63.536  32.751  60.672  1.00  0.00     0.006 C 
ENDROOT
BRANCH   1   2
ATOM      2  C   UNL     1      62.030  32.456  60.634  1.00  0.00     0.053 C 
BRANCH   2   3
ATOM      3  C   UNL     1      61.705  31.290  61.514  1.00  0.00     0.041 C 
ATOM      4  O   UNL     1      62.613  30.499  61.879  1.00  0.00    -0.550 OA
ATOM      5  O   UNL     1      60.389  31.051  61.890  1.00  0.00    -0.550 OA
ENDBRANCH   2   3
ENDBRANCH   1   2
BRANCH   1   6
ATOM      6  C   UNL     1      63.834  34.204  61.083  1.00  0.00     0.000 C 
BRANCH   6   7
ATOM      7  C   UNL     1      62.701  35.187  60.713  1.00  0.00    -0.000 C 
BRANCH   7   8
ATOM      8  C   UNL     1      62.762  36.513  61.490  1.00  0.00    -0.003 C 
ATOM      9  C   UNL     1      64.173  36.861  61.961  1.00  0.00     0.004 C 
ENDBRANCH   7   8
ENDBRANCH   6   7
ENDBRANCH   1   6
TORSDOF 5
ENDMDL
MODEL 9
REMARK VINA RESULT:    -2.951     12.510     13.342
REMARK INTER + INTRA:          -3.956
REMARK INTER:                  -3.651
REMARK INTRA:                  -0.305
REMARK UNBOUND:                -0.142
REMARK SMILES CCCCCCC(=O)[O-]
REMARK SMILES IDX 5 1 6 2 7 3 8 4 9 5 4 6 3 7 2 8 1 9
REMARK H PARENT
REMARK Flexibility Score: inf
ROOT
ATOM      1  C   UNL     1      61.640  32.938  60.065  1.00  0.00     0.006 C 
ENDROOT
BRANCH   1   2
ATOM      2  C   UNL     1      62.225  34.247  60.613  1.00  0.00     0.053 C 
BRANCH   2   3
ATOM      3  C   UNL     1      63.651  34.051  61.021  1.00  0.00     0.041 C 
ATOM      4  O   UNL     1      64.268  33.006  60.689  1.00  0.00    -0.550 OA
ATOM      5  O   UNL     1      64.284  35.003  61.811  1.00  0.00    -0.550 OA
ENDBRANCH   2   3
ENDBRANCH   1   2
BRANCH   1   6
ATOM      6  C   UNL     1      60.801  32.190  61.116  1.00  0.00     0.000 C 
BRANCH   6   7
ATOM      7  C   UNL     1      61.049  30.665  61.120  1.00  0.00    -0.000 C 
BRANCH   7   8
ATOM      8  C   UNL     1      62.312  30.252  61.896  1.00  0.00    -0.003 C 
ATOM      9  C   UNL     1      63.223  29.323  61.096  1.00  0.00     0.004 C 
ENDBRANCH   7   8
ENDBRANCH   6   7
ENDBRANCH   1   6
TORSDOF 5
ENDMDL
