MODEL 1
REMARK VINA RESULT:    -4.297      0.000      0.000
REMARK INTER + INTRA:          -5.679
REMARK INTER:                  -5.554
REMARK INTRA:                  -0.126
REMARK UNBOUND:                -0.126
REMARK SMILES CCCCCCC(=O)[O-]
REMARK SMILES IDX 5 1 6 2 7 3 8 4 9 5 4 6 3 7 2 8 1 9
REMARK H PARENT
REMARK Flexibility Score: inf
ROOT
ATOM      1  C   UNL     1      -4.735 -15.120  11.658  1.00  0.00     0.006 C 
ENDROOT
BRANCH   1   2
ATOM      2  C   UNL     1      -6.258 -15.073  11.459  1.00  0.00     0.053 C 
BRANCH   2   3
ATOM      3  C   UNL     1      -6.631 -14.689  10.060  1.00  0.00     0.041 C 
ATOM      4  O   UNL     1      -7.613 -13.929   9.853  1.00  0.00    -0.550 OA
ATOM      5  O   UNL     1      -5.874 -15.144   8.988  1.00  0.00    -0.550 OA
ENDBRANCH   2   3
ENDBRANCH   1   2
BRANCH   1   6
ATOM      6  C   UNL     1      -4.293 -15.493  13.085  1.00  0.00     0.000 C 
BRANCH   6   7
ATOM      7  C   UNL     1      -4.190 -14.275  14.014  1.00  0.00    -0.000 C 
BRANCH   7   8
ATOM      8  C   UNL     1      -2.728 -13.982  14.374  1.00  0.00    -0.003 C 
ATOM      9  C   UNL     1      -1.794 -15.040  13.793  1.00  0.00     0.004 C 
ENDBRANCH   7   8
ENDBRANCH   6   7
ENDBRANCH   1   6
TORSDOF 5
ENDMDL
MODEL 2
REMARK VINA RESULT:    -4.270     13.674     14.315
REMARK INTER + INTRA:          -5.644
REMARK INTER:                  -5.472
REMARK INTRA:                  -0.172
REMARK UNBOUND:                -0.126
REMARK SMILES CCCCCCC(=O)[O-]
REMARK SMILES IDX 5 1 6 2 7 3 8 4 9 5 4 6 3 7 2 8 1 9
REMARK H PARENT
REMARK Flexibility Score: inf
ROOT
ATOM      1  C   UNL     1     -12.626  -3.666  16.447  1.00  0.00     0.006 C 
ENDROOT
BRANCH   1   2
ATOM      2  C   UNL     1     -12.709  -3.508  14.920  1.00  0.00     0.053 C 
BRANCH   2   3
ATOM      3  C   UNL     1     -13.934  -2.755  14.498  1.00  0.00     0.041 C 
ATOM      4  O   UNL     1     -15.074  -3.153  14.851  1.00  0.00    -0.550 OA
ATOM      5  O   UNL     1     -13.813  -1.595  13.743  1.00  0.00    -0.550 OA
ENDBRANCH   2   3
ENDBRANCH   1   2
BRANCH   1   6
ATOM      6  C   UNL     1     -11.343  -3.092  17.075  1.00  0.00     0.000 C 
BRANCH   6   7
ATOM      7  C   UNL     1     -10.116  -3.245  16.165  1.00  0.00    -0.000 C 
BRANCH   7   8
ATOM      8  C   UNL     1      -8.831  -3.366  16.993  1.00  0.00    -0.003 C 
ATOM      9  C   UNL     1      -9.054  -2.900  18.430  1.00  0.00     0.004 C 
ENDBRANCH   7   8
ENDBRANCH   6   7
ENDBRANCH   1   6
TORSDOF 5
ENDMDL
MODEL 3
REMARK VINA RESULT:    -4.241     11.924     12.655
REMARK INTER + INTRA:          -5.606
REMARK INTER:                  -5.305
REMARK INTRA:                  -0.302
REMARK UNBOUND:                -0.126
REMARK SMILES CCCCCCC(=O)[O-]
REMARK SMILES IDX 5 1 6 2 7 3 8 4 9 5 4 6 3 7 2 8 1 9
REMARK H PARENT
REMARK Flexibility Score: inf
ROOT
ATOM      1  C   UNL     1     -11.204  -4.042  15.610  1.00  0.00     0.006 C 
ENDROOT
BRANCH   1   2
ATOM      2  C   UNL     1     -11.548  -5.537  15.508  1.00  0.00     0.053 C 
BRANCH   2   3
ATOM      3  C   UNL     1     -10.320  -6.393  15.436  1.00  0.00     0.041 C 
ATOM      4  O   UNL     1      -9.348  -6.171  16.204  1.00  0.00    -0.550 OA
ATOM      5  O   UNL     1     -10.265  -7.458  14.545  1.00  0.00    -0.550 OA
ENDBRANCH   2   3
ENDBRANCH   1   2
BRANCH   1   6
ATOM      6  C   UNL     1     -11.879  -3.315  16.787  1.00  0.00     0.000 C 
BRANCH   6   7
ATOM      7  C   UNL     1     -10.880  -2.549  17.665  1.00  0.00    -0.000 C 
BRANCH   7   8
ATOM      8  C   UNL     1      -9.438  -2.818  17.217  1.00  0.00    -0.003 C 
ATOM      9  C   UNL     1      -8.536  -3.119  18.411  1.00  0.00     0.004 C 
ENDBRANCH   7   8
ENDBRANCH   6   7
ENDBRANCH   1   6
TORSDOF 5
ENDMDL
MODEL 4
REMARK VINA RESULT:    -4.115     16.496     17.336
REMARK INTER + INTRA:          -5.443
REMARK INTER:                  -5.283
REMARK INTRA:                  -0.160
REMARK UNBOUND:                -0.126
REMARK SMILES CCCCCCC(=O)[O-]
REMARK SMILES IDX 5 1 6 2 7 3 8 4 9 5 4 6 3 7 2 8 1 9
REMARK H PARENT
REMARK Flexibility Score: inf
ROOT
ATOM      1  C   UNL     1     -18.682 -10.155  20.383  1.00  0.00     0.006 C 
ENDROOT
BRANCH   1   2
ATOM      2  C   UNL     1     -20.156 -10.526  20.610  1.00  0.00     0.053 C 
BRANCH   2   3
ATOM      3  C   UNL     1     -20.356 -12.009  20.697  1.00  0.00     0.041 C 
ATOM      4  O   UNL     1     -20.124 -12.616  21.775  1.00  0.00    -0.550 OA
ATOM      5  O   UNL     1     -20.832 -12.712  19.598  1.00  0.00    -0.550 OA
ENDBRANCH   2   3
ENDBRANCH   1   2
BRANCH   1   6
ATOM      6  C   UNL     1     -17.909  -9.809  21.670  1.00  0.00     0.000 C 
BRANCH   6   7
ATOM      7  C   UNL     1     -16.457  -9.391  21.397  1.00  0.00    -0.000 C 
BRANCH   7   8
ATOM      8  C   UNL     1     -15.889  -8.586  22.573  1.00  0.00    -0.003 C 
ATOM      9  C   UNL     1     -16.935  -8.395  23.668  1.00  0.00     0.004 C 
ENDBRANCH   7   8
ENDBRANCH   6   7
ENDBRANCH   1   6
TORSDOF 5
ENDMDL
MODEL 5
REMARK VINA RESULT:    -4.064     10.218     11.544
REMARK INTER + INTRA:          -5.378
REMARK INTER:                  -5.106
REMARK INTRA:                  -0.272
REMARK UNBOUND:                -0.126
REMARK SMILES CCCCCCC(=O)[O-]
REMARK SMILES IDX 5 1 6 2 7 3 8 4 9 5 4 6 3 7 2 8 1 9
REMARK H PARENT
REMARK Flexibility Score: inf
ROOT
ATOM      1  C   UNL     1      -8.908  -6.006  11.408  1.00  0.00     0.006 C 
ENDROOT
BRANCH   1   2
ATOM      2  C   UNL     1      -8.675  -5.183  12.685  1.00  0.00     0.053 C 
BRANCH   2   3
ATOM      3  C   UNL     1      -7.328  -4.527  12.694  1.00  0.00     0.041 C 
ATOM      4  O   UNL     1      -6.283  -5.229  12.720  1.00  0.00    -0.550 OA
ATOM      5  O   UNL     1      -7.226  -3.143  12.639  1.00  0.00    -0.550 OA
ENDBRANCH   2   3
ENDBRANCH   1   2
BRANCH   1   6
ATOM      6  C   UNL     1     -10.176  -5.618  10.626  1.00  0.00     0.000 C 
BRANCH   6   7
ATOM      7  C   UNL     1     -11.207  -4.881  11.493  1.00  0.00    -0.000 C 
BRANCH   7   8
ATOM      8  C   UNL     1     -12.482  -5.718  11.658  1.00  0.00    -0.003 C 
ATOM      9  C   UNL     1     -12.421  -6.572  12.922  1.00  0.00     0.004 C 
ENDBRANCH   7   8
ENDBRANCH   6   7
ENDBRANCH   1   6
TORSDOF 5
ENDMDL
MODEL 6
REMARK VINA RESULT:    -4.057      3.259      5.069
REMARK INTER + INTRA:          -5.369
REMARK INTER:                  -5.238
REMARK INTRA:                  -0.132
REMARK UNBOUND:                -0.126
REMARK SMILES CCCCCCC(=O)[O-]
REMARK SMILES IDX 5 1 6 2 7 3 8 4 9 5 4 6 3 7 2 8 1 9
REMARK H PARENT
REMARK Flexibility Score: inf
ROOT
ATOM      1  C   UNL     1      -4.844 -14.607  13.207  1.00  0.00     0.006 C 
ENDROOT
BRANCH   1   2
ATOM      2  C   UNL     1      -3.862 -15.562  13.903  1.00  0.00     0.053 C 
BRANCH   2   3
ATOM      3  C   UNL     1      -2.490 -14.971  14.023  1.00  0.00     0.041 C 
ATOM      4  O   UNL     1      -2.348 -13.762  14.343  1.00  0.00    -0.550 OA
ATOM      5  O   UNL     1      -1.369 -15.765  13.816  1.00  0.00    -0.550 OA
ENDBRANCH   2   3
ENDBRANCH   1   2
BRANCH   1   6
ATOM      6  C   UNL     1      -5.252 -15.041  11.787  1.00  0.00     0.000 C 
BRANCH   6   7
ATOM      7  C   UNL     1      -6.672 -14.593  11.414  1.00  0.00    -0.000 C 
BRANCH   7   8
ATOM      8  C   UNL     1      -7.000 -14.961   9.962  1.00  0.00    -0.003 C 
ATOM      9  C   UNL     1      -5.729 -15.092   9.126  1.00  0.00     0.004 C 
ENDBRANCH   7   8
ENDBRANCH   6   7
ENDBRANCH   1   6
TORSDOF 5
ENDMDL
MODEL 7
REMARK VINA RESULT:    -4.035     12.815     13.873
REMARK INTER + INTRA:          -5.340
REMARK INTER:                  -4.948
REMARK INTRA:                  -0.392
REMARK UNBOUND:                -0.126
REMARK SMILES CCCCCCC(=O)[O-]
REMARK SMILES IDX 5 1 6 2 7 3 8 4 9 5 4 6 3 7 2 8 1 9
REMARK H PARENT
REMARK Flexibility Score: inf
ROOT
ATOM      1  C   UNL     1      -9.046  -4.953  16.234  1.00  0.00     0.006 C 
ENDROOT
BRANCH   1   2
ATOM      2  C   UNL     1      -8.525  -3.515  16.391  1.00  0.00     0.053 C 
BRANCH   2   3
ATOM      3  C   UNL     1      -8.928  -2.911  17.701  1.00  0.00     0.041 C 
ATOM      4  O   UNL     1      -8.224  -3.100  18.728  1.00  0.00    -0.550 OA
ATOM      5  O   UNL     1     -10.060  -2.110  17.781  1.00  0.00    -0.550 OA
ENDBRANCH   2   3
ENDBRANCH   1   2
BRANCH   1   6
ATOM      6  C   UNL     1     -10.501  -5.051  15.740  1.00  0.00     0.000 C 
BRANCH   6   7
ATOM      7  C   UNL     1     -10.853  -3.967  14.711  1.00  0.00    -0.000 C 
BRANCH   7   8
ATOM      8  C   UNL     1     -12.229  -3.357  15.007  1.00  0.00    -0.003 C 
ATOM      9  C   UNL     1     -12.725  -3.761  16.393  1.00  0.00     0.004 C 
ENDBRANCH   7   8
ENDBRANCH   6   7
ENDBRANCH   1   6
TORSDOF 5
ENDMDL
MODEL 8
REMARK VINA RESULT:    -4.033     13.701     14.780
REMARK INTER + INTRA:          -5.337
REMARK INTER:                  -5.163
REMARK INTRA:                  -0.174
REMARK UNBOUND:                -0.126
REMARK SMILES CCCCCCC(=O)[O-]
REMARK SMILES IDX 5 1 6 2 7 3 8 4 9 5 4 6 3 7 2 8 1 9
REMARK H PARENT
REMARK Flexibility Score: inf
ROOT
ATOM      1  C   UNL     1     -10.991  -3.344  16.372  1.00  0.00     0.006 C 
ENDROOT
BRANCH   1   2
ATOM      2  C   UNL     1     -10.357  -2.589  17.551  1.00  0.00     0.053 C 
BRANCH   2   3
ATOM      3  C   UNL     1      -8.903  -2.910  17.710  1.00  0.00     0.041 C 
ATOM      4  O   UNL     1      -8.387  -2.961  18.857  1.00  0.00    -0.550 OA
ATOM      5  O   UNL     1      -8.125  -3.188  16.593  1.00  0.00    -0.550 OA
ENDBRANCH   2   3
ENDBRANCH   1   2
BRANCH   1   6
ATOM      6  C   UNL     1     -12.492  -3.643  16.543  1.00  0.00     0.000 C 
BRANCH   6   7
ATOM      7  C   UNL     1     -13.300  -3.373  15.266  1.00  0.00    -0.000 C 
BRANCH   7   8
ATOM      8  C   UNL     1     -12.409  -2.780  14.168  1.00  0.00    -0.003 C 
ATOM      9  C   UNL     1     -13.212  -1.885  13.228  1.00  0.00     0.004 C 
ENDBRANCH   7   8
ENDBRANCH   6   7
ENDBRANCH   1   6
TORSDOF 5
ENDMDL
MODEL 9
REMARK VINA RESULT:    -4.009     12.640     13.356
REMARK INTER + INTRA:          -5.306
REMARK INTER:                  -4.995
REMARK INTRA:                  -0.311
REMARK UNBOUND:                -0.126
REMARK SMILES CCCCCCC(=O)[O-]
REMARK SMILES IDX 5 1 6 2 7 3 8 4 9 5 4 6 3 7 2 8 1 9
REMARK H PARENT
REMARK Flexibility Score: inf
ROOT
ATOM      1  C   UNL     1     -11.371  -4.655  16.055  1.00  0.00     0.006 C 
ENDROOT
BRANCH   1   2
ATOM      2  C   UNL     1     -11.722  -4.888  14.577  1.00  0.00     0.053 C 
BRANCH   2   3
ATOM      3  C   UNL     1     -11.236  -3.775  13.701  1.00  0.00     0.041 C 
ATOM      4  O   UNL     1     -10.007  -3.646  13.464  1.00  0.00    -0.550 OA
ATOM      5  O   UNL     1     -12.145  -2.900  13.118  1.00  0.00    -0.550 OA
ENDBRANCH   2   3
ENDBRANCH   1   2
BRANCH   1   6
ATOM      6  C   UNL     1     -11.983  -3.377  16.658  1.00  0.00     0.000 C 
BRANCH   6   7
ATOM      7  C   UNL     1     -11.022  -2.650  17.610  1.00  0.00    -0.000 C 
BRANCH   7   8
ATOM      8  C   UNL     1      -9.563  -2.965  17.260  1.00  0.00    -0.003 C 
ATOM      9  C   UNL     1      -8.690  -2.997  18.513  1.00  0.00     0.004 C 
ENDBRANCH   7   8
ENDBRANCH   6   7
ENDBRANCH   1   6
TORSDOF 5
ENDMDL
