MODEL 1
REMARK VINA RESULT:    -4.269      0.000      0.000
REMARK INTER + INTRA:          -6.765
REMARK INTER:                  -5.891
REMARK INTRA:                  -0.874
REMARK UNBOUND:                -0.874
REMARK SMILES CC[C@H](CC[C@@H](C)[C@H]1CC[C@H]2[C@H]3CC=C4C[C@@H](O)CC[C@]4(C)[C@H]3CC[C@]12C)C(C)C
REMARK SMILES IDX 5 1 4 2 3 3 2 4 1 5 28 6 29 7 30 8 6 9 7 10 8 11 9 12 26 13
REMARK SMILES IDX 10 14 11 15 25 16 27 17 12 18 24 19 23 20 13 21 21 22 14 23
REMARK SMILES IDX 15 24 20 25 22 26 16 27 19 28 17 29 18 30
REMARK H PARENT 18 31
REMARK Flexibility Score: inf
ROOT
ATOM      1  C   UNL     1      -8.456  31.806  36.807  1.00  0.00     0.004 C 
ENDROOT
BRANCH   1   2
ATOM      2  C   UNL     1      -7.930  33.122  36.180  1.00  0.00     0.004 C 
BRANCH   2   3
ATOM      3  C   UNL     1      -9.028  34.223  36.098  1.00  0.00    -0.009 C 
BRANCH   3   4
ATOM      4  C   UNL     1      -8.846  35.261  37.254  1.00  0.00     0.000 C 
ATOM      5  C   UNL     1      -8.871  34.600  38.631  1.00  0.00     0.004 C 
ENDBRANCH   3   4
BRANCH   3   6
ATOM      6  C   UNL     1      -9.060  34.943  34.703  1.00  0.00    -0.014 C 
ATOM      7  C   UNL     1      -8.801  36.460  34.798  1.00  0.00     0.007 C 
ATOM      8  C   UNL     1      -8.020  34.337  33.738  1.00  0.00     0.007 C 
ENDBRANCH   3   6
ENDBRANCH   2   3
ENDBRANCH   1   2
BRANCH   1   9
ATOM      9  C   UNL     1      -7.970  30.490  36.121  1.00  0.00    -0.011 C 
ATOM     10  C   UNL     1      -7.298  30.766  34.763  1.00  0.00     0.008 C 
BRANCH   9  11
ATOM     11  C   UNL     1      -7.100  29.513  36.996  1.00  0.00    -0.002 C 
ATOM     12  C   UNL     1      -6.576  30.035  38.363  1.00  0.00     0.005 C 
ATOM     13  C   UNL     1      -7.706  28.120  37.338  1.00  0.00    -0.026 C 
ATOM     14  C   UNL     1      -6.327  28.791  39.242  1.00  0.00     0.005 C 
ATOM     15  C   UNL     1      -6.618  27.623  38.311  1.00  0.00    -0.001 C 
ATOM     16  C   UNL     1      -7.771  27.118  36.160  1.00  0.00     0.007 C 
ATOM     17  C   UNL     1      -9.124  28.297  37.967  1.00  0.00     0.012 C 
ATOM     18  C   UNL     1      -6.758  26.186  38.865  1.00  0.00     0.000 C 
ATOM     19  C   UNL     1      -7.971  25.657  36.652  1.00  0.00     0.005 C 
ATOM     20  C   UNL     1      -6.882  25.191  37.677  1.00  0.00     0.003 C 
ATOM     21  C   UNL     1      -7.879  25.961  39.885  1.00  0.00     0.031 C 
ATOM     22  C   UNL     1      -6.966  23.672  38.175  1.00  0.00    -0.008 C 
ATOM     23  C   UNL     1      -7.811  24.564  40.406  1.00  0.00    -0.027 C 
ATOM     24  C   UNL     1      -7.451  23.518  39.634  1.00  0.00    -0.065 C 
ATOM     25  C   UNL     1      -5.522  23.076  38.120  1.00  0.00     0.014 C 
ATOM     26  C   UNL     1      -7.888  22.826  37.255  1.00  0.00     0.016 C 
ATOM     27  C   UNL     1      -7.338  22.151  40.281  1.00  0.00     0.063 C 
ATOM     28  C   UNL     1      -5.382  21.679  38.754  1.00  0.00     0.033 C 
ATOM     29  C   UNL     1      -5.885  21.659  40.202  1.00  0.00     0.118 C 
BRANCH  29  30
ATOM     30  O   UNL     1      -5.795  20.351  40.702  1.00  0.00    -0.393 OA
ATOM     31  H   UNL     1      -6.613  19.873  40.403  1.00  0.00     0.210 HD
ENDBRANCH  29  30
ENDBRANCH   9  11
ENDBRANCH   1   9
TORSDOF 7
ENDMDL
MODEL 2
REMARK VINA RESULT:    -3.066      1.351      2.328
REMARK INTER + INTRA:          -5.105
REMARK INTER:                  -5.306
REMARK INTRA:                   0.201
REMARK UNBOUND:                -0.874
REMARK SMILES CC[C@H](CC[C@@H](C)[C@H]1CC[C@H]2[C@H]3CC=C4C[C@@H](O)CC[C@]4(C)[C@H]3CC[C@]12C)C(C)C
REMARK SMILES IDX 5 1 4 2 3 3 2 4 1 5 28 6 29 7 30 8 6 9 7 10 8 11 9 12 26 13
REMARK SMILES IDX 10 14 11 15 25 16 27 17 12 18 24 19 23 20 13 21 21 22 14 23
REMARK SMILES IDX 15 24 20 25 22 26 16 27 19 28 17 29 18 30
REMARK H PARENT 18 31
REMARK Flexibility Score: inf
ROOT
ATOM      1  C   UNL     1      -8.057  31.401  35.708  1.00  0.00     0.004 C 
ENDROOT
BRANCH   1   2
ATOM      2  C   UNL     1      -6.907  32.149  34.986  1.00  0.00     0.004 C 
BRANCH   2   3
ATOM      3  C   UNL     1      -7.309  33.591  34.558  1.00  0.00    -0.009 C 
BRANCH   3   4
ATOM      4  C   UNL     1      -7.592  33.644  33.020  1.00  0.00     0.000 C 
ATOM      5  C   UNL     1      -6.463  34.331  32.251  1.00  0.00     0.004 C 
ENDBRANCH   3   4
BRANCH   3   6
ATOM      6  C   UNL     1      -8.535  34.144  35.368  1.00  0.00    -0.014 C 
ATOM      7  C   UNL     1      -8.186  34.496  36.829  1.00  0.00     0.007 C 
ATOM      8  C   UNL     1      -9.125  35.402  34.698  1.00  0.00     0.007 C 
ENDBRANCH   3   6
ENDBRANCH   2   3
ENDBRANCH   1   2
BRANCH   1   9
ATOM      9  C   UNL     1      -7.811  31.082  37.216  1.00  0.00    -0.011 C 
ATOM     10  C   UNL     1      -9.122  31.075  38.023  1.00  0.00     0.008 C 
BRANCH   9  11
ATOM     11  C   UNL     1      -6.941  29.810  37.538  1.00  0.00    -0.002 C 
ATOM     12  C   UNL     1      -6.200  29.764  38.903  1.00  0.00     0.005 C 
ATOM     13  C   UNL     1      -7.638  28.420  37.447  1.00  0.00    -0.026 C 
ATOM     14  C   UNL     1      -5.970  28.272  39.228  1.00  0.00     0.005 C 
ATOM     15  C   UNL     1      -6.492  27.546  37.998  1.00  0.00    -0.001 C 
ATOM     16  C   UNL     1      -7.950  27.928  36.014  1.00  0.00     0.007 C 
ATOM     17  C   UNL     1      -8.940  28.420  38.308  1.00  0.00     0.012 C 
ATOM     18  C   UNL     1      -6.706  26.016  38.014  1.00  0.00     0.000 C 
ATOM     19  C   UNL     1      -8.234  26.400  35.973  1.00  0.00     0.005 C 
ATOM     20  C   UNL     1      -7.078  25.536  36.583  1.00  0.00     0.003 C 
ATOM     21  C   UNL     1      -7.707  25.483  39.046  1.00  0.00     0.031 C 
ATOM     22  C   UNL     1      -7.252  23.946  36.510  1.00  0.00    -0.008 C 
ATOM     23  C   UNL     1      -7.716  23.992  39.014  1.00  0.00    -0.027 C 
ATOM     24  C   UNL     1      -7.564  23.289  37.873  1.00  0.00    -0.065 C 
ATOM     25  C   UNL     1      -5.894  23.344  36.024  1.00  0.00     0.014 C 
ATOM     26  C   UNL     1      -8.364  23.546  35.501  1.00  0.00     0.016 C 
ATOM     27  C   UNL     1      -7.509  21.775  37.961  1.00  0.00     0.063 C 
ATOM     28  C   UNL     1      -5.818  21.807  36.085  1.00  0.00     0.033 C 
ATOM     29  C   UNL     1      -6.135  21.278  37.490  1.00  0.00     0.118 C 
BRANCH  29  30
ATOM     30  O   UNL     1      -6.116  19.875  37.467  1.00  0.00    -0.393 OA
ATOM     31  H   UNL     1      -5.709  19.581  38.324  1.00  0.00     0.210 HD
ENDBRANCH  29  30
ENDBRANCH   9  11
ENDBRANCH   1   9
TORSDOF 7
ENDMDL
MODEL 3
REMARK VINA RESULT:    -2.374      3.150      9.292
REMARK INTER + INTRA:          -4.150
REMARK INTER:                  -4.744
REMARK INTRA:                   0.593
REMARK UNBOUND:                -0.874
REMARK SMILES CC[C@H](CC[C@@H](C)[C@H]1CC[C@H]2[C@H]3CC=C4C[C@@H](O)CC[C@]4(C)[C@H]3CC[C@]12C)C(C)C
REMARK SMILES IDX 5 1 4 2 3 3 2 4 1 5 28 6 29 7 30 8 6 9 7 10 8 11 9 12 26 13
REMARK SMILES IDX 10 14 11 15 25 16 27 17 12 18 24 19 23 20 13 21 21 22 14 23
REMARK SMILES IDX 15 24 20 25 22 26 16 27 19 28 17 29 18 30
REMARK H PARENT 18 31
REMARK Flexibility Score: inf
ROOT
ATOM      1  C   UNL     1      -6.740  23.300  35.658  1.00  0.00     0.004 C 
ENDROOT
BRANCH   1   2
ATOM      2  C   UNL     1      -6.157  21.981  36.227  1.00  0.00     0.004 C 
BRANCH   2   3
ATOM      3  C   UNL     1      -5.469  22.181  37.609  1.00  0.00    -0.009 C 
BRANCH   3   4
ATOM      4  C   UNL     1      -6.410  22.969  38.578  1.00  0.00     0.000 C 
ATOM      5  C   UNL     1      -5.662  24.053  39.354  1.00  0.00     0.004 C 
ENDBRANCH   3   4
BRANCH   3   6
ATOM      6  C   UNL     1      -5.008  20.827  38.258  1.00  0.00    -0.014 C 
ATOM      7  C   UNL     1      -4.091  19.996  37.338  1.00  0.00     0.007 C 
ATOM      8  C   UNL     1      -4.264  21.071  39.586  1.00  0.00     0.007 C 
ENDBRANCH   3   6
ENDBRANCH   2   3
ENDBRANCH   1   2
BRANCH   1   9
ATOM      9  C   UNL     1      -8.278  23.494  35.845  1.00  0.00    -0.011 C 
ATOM     10  C   UNL     1      -8.955  22.221  36.387  1.00  0.00     0.008 C 
BRANCH   9  11
ATOM     11  C   UNL     1      -8.739  24.767  36.648  1.00  0.00    -0.002 C 
ATOM     12  C   UNL     1      -8.918  24.631  38.185  1.00  0.00     0.005 C 
ATOM     13  C   UNL     1      -7.892  26.065  36.487  1.00  0.00    -0.026 C 
ATOM     14  C   UNL     1      -8.754  26.048  38.775  1.00  0.00     0.005 C 
ATOM     15  C   UNL     1      -8.593  26.936  37.550  1.00  0.00    -0.001 C 
ATOM     16  C   UNL     1      -8.037  26.786  35.125  1.00  0.00     0.007 C 
ATOM     17  C   UNL     1      -6.389  25.757  36.772  1.00  0.00     0.012 C 
ATOM     18  C   UNL     1      -8.126  28.402  37.692  1.00  0.00     0.000 C 
ATOM     19  C   UNL     1      -7.527  28.253  35.188  1.00  0.00     0.005 C 
ATOM     20  C   UNL     1      -8.218  29.104  36.308  1.00  0.00     0.003 C 
ATOM     21  C   UNL     1      -6.745  28.614  38.321  1.00  0.00     0.031 C 
ATOM     22  C   UNL     1      -7.809  30.650  36.392  1.00  0.00    -0.008 C 
ATOM     23  C   UNL     1      -6.490  30.074  38.494  1.00  0.00    -0.027 C 
ATOM     24  C   UNL     1      -6.919  30.996  37.606  1.00  0.00    -0.065 C 
ATOM     25  C   UNL     1      -9.125  31.478  36.553  1.00  0.00     0.014 C 
ATOM     26  C   UNL     1      -7.085  31.113  35.099  1.00  0.00     0.016 C 
ATOM     27  C   UNL     1      -6.675  32.461  37.915  1.00  0.00     0.063 C 
ATOM     28  C   UNL     1      -8.907  32.974  36.848  1.00  0.00     0.033 C 
ATOM     29  C   UNL     1      -8.019  33.185  38.081  1.00  0.00     0.118 C 
BRANCH  29  30
ATOM     30  O   UNL     1      -7.802  34.560  38.260  1.00  0.00    -0.393 OA
ATOM     31  H   UNL     1      -7.036  34.808  37.678  1.00  0.00     0.210 HD
ENDBRANCH  29  30
ENDBRANCH   9  11
ENDBRANCH   1   9
TORSDOF 7
ENDMDL
MODEL 4
REMARK VINA RESULT:    -2.300      1.284      2.098
REMARK INTER + INTRA:          -4.049
REMARK INTER:                  -3.711
REMARK INTRA:                  -0.337
REMARK UNBOUND:                -0.874
REMARK SMILES CC[C@H](CC[C@@H](C)[C@H]1CC[C@H]2[C@H]3CC=C4C[C@@H](O)CC[C@]4(C)[C@H]3CC[C@]12C)C(C)C
REMARK SMILES IDX 5 1 4 2 3 3 2 4 1 5 28 6 29 7 30 8 6 9 7 10 8 11 9 12 26 13
REMARK SMILES IDX 10 14 11 15 25 16 27 17 12 18 24 19 23 20 13 21 21 22 14 23
REMARK SMILES IDX 15 24 20 25 22 26 16 27 19 28 17 29 18 30
REMARK H PARENT 18 31
REMARK Flexibility Score: inf
ROOT
ATOM      1  C   UNL     1      -8.789  31.148  36.710  1.00  0.00     0.004 C 
ENDROOT
BRANCH   1   2
ATOM      2  C   UNL     1      -8.954  32.684  36.833  1.00  0.00     0.004 C 
BRANCH   2   3
ATOM      3  C   UNL     1      -8.174  33.458  35.730  1.00  0.00    -0.009 C 
BRANCH   3   4
ATOM      4  C   UNL     1      -7.853  32.514  34.525  1.00  0.00     0.000 C 
ATOM      5  C   UNL     1      -6.349  32.309  34.338  1.00  0.00     0.004 C 
ENDBRANCH   3   4
BRANCH   3   6
ATOM      6  C   UNL     1      -8.930  34.745  35.243  1.00  0.00    -0.014 C 
ATOM      7  C   UNL     1      -8.776  35.939  36.207  1.00  0.00     0.007 C 
ATOM      8  C   UNL     1      -8.439  35.185  33.849  1.00  0.00     0.007 C 
ENDBRANCH   3   6
ENDBRANCH   2   3
ENDBRANCH   1   2
BRANCH   1   9
ATOM      9  C   UNL     1      -7.473  30.561  37.311  1.00  0.00    -0.011 C 
ATOM     10  C   UNL     1      -6.493  31.668  37.740  1.00  0.00     0.008 C 
BRANCH   9  11
ATOM     11  C   UNL     1      -7.633  29.476  38.442  1.00  0.00    -0.002 C 
ATOM     12  C   UNL     1      -8.876  29.572  39.369  1.00  0.00     0.005 C 
ATOM     13  C   UNL     1      -7.605  27.979  38.011  1.00  0.00    -0.026 C 
ATOM     14  C   UNL     1      -9.125  28.152  39.919  1.00  0.00     0.005 C 
ATOM     15  C   UNL     1      -7.963  27.339  39.369  1.00  0.00    -0.001 C 
ATOM     16  C   UNL     1      -6.219  27.436  37.591  1.00  0.00     0.007 C 
ATOM     17  C   UNL     1      -8.644  27.734  36.872  1.00  0.00     0.012 C 
ATOM     18  C   UNL     1      -7.969  25.795  39.449  1.00  0.00     0.000 C 
ATOM     19  C   UNL     1      -6.178  25.882  37.595  1.00  0.00     0.005 C 
ATOM     20  C   UNL     1      -6.593  25.253  38.969  1.00  0.00     0.003 C 
ATOM     21  C   UNL     1      -9.118  25.084  38.727  1.00  0.00     0.031 C 
ATOM     22  C   UNL     1      -6.503  23.659  39.087  1.00  0.00    -0.008 C 
ATOM     23  C   UNL     1      -9.048  23.618  38.993  1.00  0.00    -0.027 C 
ATOM     24  C   UNL     1      -7.878  22.955  39.106  1.00  0.00    -0.065 C 
ATOM     25  C   UNL     1      -5.811  23.324  40.448  1.00  0.00     0.014 C 
ATOM     26  C   UNL     1      -5.654  23.055  37.935  1.00  0.00     0.016 C 
ATOM     27  C   UNL     1      -7.917  21.480  39.455  1.00  0.00     0.063 C 
ATOM     28  C   UNL     1      -5.819  21.829  40.818  1.00  0.00     0.033 C 
ATOM     29  C   UNL     1      -7.240  21.251  40.814  1.00  0.00     0.118 C 
BRANCH  29  30
ATOM     30  O   UNL     1      -7.177  19.877  41.093  1.00  0.00    -0.393 OA
ATOM     31  H   UNL     1      -6.914  19.425  40.248  1.00  0.00     0.210 HD
ENDBRANCH  29  30
ENDBRANCH   9  11
ENDBRANCH   1   9
TORSDOF 7
ENDMDL
MODEL 5
REMARK VINA RESULT:    -2.269      1.417      2.925
REMARK INTER + INTRA:          -4.005
REMARK INTER:                  -3.745
REMARK INTRA:                  -0.259
REMARK UNBOUND:                -0.874
REMARK SMILES CC[C@H](CC[C@@H](C)[C@H]1CC[C@H]2[C@H]3CC=C4C[C@@H](O)CC[C@]4(C)[C@H]3CC[C@]12C)C(C)C
REMARK SMILES IDX 5 1 4 2 3 3 2 4 1 5 28 6 29 7 30 8 6 9 7 10 8 11 9 12 26 13
REMARK SMILES IDX 10 14 11 15 25 16 27 17 12 18 24 19 23 20 13 21 21 22 14 23
REMARK SMILES IDX 15 24 20 25 22 26 16 27 19 28 17 29 18 30
REMARK H PARENT 18 31
REMARK Flexibility Score: inf
ROOT
ATOM      1  C   UNL     1      -9.124  33.432  35.849  1.00  0.00     0.004 C 
ENDROOT
BRANCH   1   2
ATOM      2  C   UNL     1      -8.123  34.369  35.126  1.00  0.00     0.004 C 
BRANCH   2   3
ATOM      3  C   UNL     1      -8.836  35.466  34.282  1.00  0.00    -0.009 C 
BRANCH   3   4
ATOM      4  C   UNL     1      -8.592  36.879  34.907  1.00  0.00     0.000 C 
ATOM      5  C   UNL     1      -9.058  36.954  36.361  1.00  0.00     0.004 C 
ENDBRANCH   3   4
BRANCH   3   6
ATOM      6  C   UNL     1      -8.406  35.444  32.772  1.00  0.00    -0.014 C 
ATOM      7  C   UNL     1      -7.965  36.826  32.247  1.00  0.00     0.007 C 
ATOM      8  C   UNL     1      -7.251  34.449  32.535  1.00  0.00     0.007 C 
ENDBRANCH   3   6
ENDBRANCH   2   3
ENDBRANCH   1   2
BRANCH   1   9
ATOM      9  C   UNL     1      -8.499  32.459  36.898  1.00  0.00    -0.011 C 
ATOM     10  C   UNL     1      -9.120  32.645  38.295  1.00  0.00     0.008 C 
BRANCH   9  11
ATOM     11  C   UNL     1      -8.438  30.936  36.503  1.00  0.00    -0.002 C 
ATOM     12  C   UNL     1      -7.639  30.548  35.229  1.00  0.00     0.005 C 
ATOM     13  C   UNL     1      -7.928  29.934  37.581  1.00  0.00    -0.026 C 
ATOM     14  C   UNL     1      -7.219  29.073  35.405  1.00  0.00     0.005 C 
ATOM     15  C   UNL     1      -7.879  28.660  36.712  1.00  0.00    -0.001 C 
ATOM     16  C   UNL     1      -8.905  29.663  38.750  1.00  0.00     0.007 C 
ATOM     17  C   UNL     1      -6.548  30.408  38.137  1.00  0.00     0.012 C 
ATOM     18  C   UNL     1      -7.492  27.336  37.409  1.00  0.00     0.000 C 
ATOM     19  C   UNL     1      -8.533  28.371  39.530  1.00  0.00     0.005 C 
ATOM     20  C   UNL     1      -8.440  27.100  38.619  1.00  0.00     0.003 C 
ATOM     21  C   UNL     1      -6.026  27.195  37.830  1.00  0.00     0.031 C 
ATOM     22  C   UNL     1      -8.140  25.709  39.353  1.00  0.00    -0.008 C 
ATOM     23  C   UNL     1      -5.789  25.828  38.380  1.00  0.00    -0.027 C 
ATOM     24  C   UNL     1      -6.713  25.170  39.110  1.00  0.00    -0.065 C 
ATOM     25  C   UNL     1      -9.125  24.645  38.769  1.00  0.00     0.014 C 
ATOM     26  C   UNL     1      -8.375  25.817  40.884  1.00  0.00     0.016 C 
ATOM     27  C   UNL     1      -6.402  23.753  39.555  1.00  0.00     0.063 C 
ATOM     28  C   UNL     1      -8.844  23.199  39.220  1.00  0.00     0.033 C 
ATOM     29  C   UNL     1      -7.401  22.778  38.914  1.00  0.00     0.118 C 
BRANCH  29  30
ATOM     30  O   UNL     1      -7.187  21.482  39.406  1.00  0.00    -0.393 OA
ATOM     31  H   UNL     1      -6.261  21.461  39.767  1.00  0.00     0.210 HD
ENDBRANCH  29  30
ENDBRANCH   9  11
ENDBRANCH   1   9
TORSDOF 7
ENDMDL
MODEL 6
REMARK VINA RESULT:    -2.127      3.206      9.586
REMARK INTER + INTRA:          -3.809
REMARK INTER:                  -3.495
REMARK INTRA:                  -0.314
REMARK UNBOUND:                -0.874
REMARK SMILES CC[C@H](CC[C@@H](C)[C@H]1CC[C@H]2[C@H]3CC=C4C[C@@H](O)CC[C@]4(C)[C@H]3CC[C@]12C)C(C)C
REMARK SMILES IDX 5 1 4 2 3 3 2 4 1 5 28 6 29 7 30 8 6 9 7 10 8 11 9 12 26 13
REMARK SMILES IDX 10 14 11 15 25 16 27 17 12 18 24 19 23 20 13 21 21 22 14 23
REMARK SMILES IDX 15 24 20 25 22 26 16 27 19 28 17 29 18 30
REMARK H PARENT 18 31
REMARK Flexibility Score: inf
ROOT
ATOM      1  C   UNL     1      -6.044  23.071  37.842  1.00  0.00     0.004 C 
ENDROOT
BRANCH   1   2
ATOM      2  C   UNL     1      -5.600  21.643  37.434  1.00  0.00     0.004 C 
BRANCH   2   3
ATOM      3  C   UNL     1      -6.312  21.143  36.142  1.00  0.00    -0.009 C 
BRANCH   3   4
ATOM      4  C   UNL     1      -5.519  19.953  35.508  1.00  0.00     0.000 C 
ATOM      5  C   UNL     1      -4.013  20.214  35.481  1.00  0.00     0.004 C 
ENDBRANCH   3   4
BRANCH   3   6
ATOM      6  C   UNL     1      -7.810  20.744  36.392  1.00  0.00    -0.014 C 
ATOM      7  C   UNL     1      -8.410  19.899  35.249  1.00  0.00     0.007 C 
ATOM      8  C   UNL     1      -7.965  19.953  37.707  1.00  0.00     0.007 C 
ENDBRANCH   3   6
ENDBRANCH   2   3
ENDBRANCH   1   2
BRANCH   1   9
ATOM      9  C   UNL     1      -6.738  23.189  39.235  1.00  0.00    -0.011 C 
ATOM     10  C   UNL     1      -5.939  22.469  40.338  1.00  0.00     0.008 C 
BRANCH   9  11
ATOM     11  C   UNL     1      -7.164  24.633  39.694  1.00  0.00    -0.002 C 
ATOM     12  C   UNL     1      -6.758  25.090  41.123  1.00  0.00     0.005 C 
ATOM     13  C   UNL     1      -6.745  25.829  38.788  1.00  0.00    -0.026 C 
ATOM     14  C   UNL     1      -6.722  26.633  41.098  1.00  0.00     0.005 C 
ATOM     15  C   UNL     1      -7.206  26.986  39.699  1.00  0.00    -0.001 C 
ATOM     16  C   UNL     1      -7.516  25.951  37.453  1.00  0.00     0.007 C 
ATOM     17  C   UNL     1      -5.209  25.776  38.516  1.00  0.00     0.012 C 
ATOM     18  C   UNL     1      -7.063  28.424  39.152  1.00  0.00     0.000 C 
ATOM     19  C   UNL     1      -7.363  27.363  36.821  1.00  0.00     0.005 C 
ATOM     20  C   UNL     1      -7.790  28.525  37.781  1.00  0.00     0.003 C 
ATOM     21  C   UNL     1      -5.636  28.973  39.054  1.00  0.00     0.031 C 
ATOM     22  C   UNL     1      -7.739  30.009  37.184  1.00  0.00    -0.008 C 
ATOM     23  C   UNL     1      -5.674  30.400  38.622  1.00  0.00    -0.027 C 
ATOM     24  C   UNL     1      -6.583  30.868  37.742  1.00  0.00    -0.065 C 
ATOM     25  C   UNL     1      -9.066  30.728  37.590  1.00  0.00     0.014 C 
ATOM     26  C   UNL     1      -7.639  29.990  35.634  1.00  0.00     0.016 C 
ATOM     27  C   UNL     1      -6.584  32.352  37.429  1.00  0.00     0.063 C 
ATOM     28  C   UNL     1      -9.103  32.234  37.267  1.00  0.00     0.033 C 
ATOM     29  C   UNL     1      -7.911  32.976  37.885  1.00  0.00     0.118 C 
BRANCH  29  30
ATOM     30  O   UNL     1      -7.963  34.325  37.502  1.00  0.00    -0.393 OA
ATOM     31  H   UNL     1      -7.624  34.855  38.271  1.00  0.00     0.210 HD
ENDBRANCH  29  30
ENDBRANCH   9  11
ENDBRANCH   1   9
TORSDOF 7
ENDMDL
MODEL 7
REMARK VINA RESULT:    -1.554      3.411      9.278
REMARK INTER + INTRA:          -3.019
REMARK INTER:                  -3.342
REMARK INTRA:                   0.324
REMARK UNBOUND:                -0.874
REMARK SMILES CC[C@H](CC[C@@H](C)[C@H]1CC[C@H]2[C@H]3CC=C4C[C@@H](O)CC[C@]4(C)[C@H]3CC[C@]12C)C(C)C
REMARK SMILES IDX 5 1 4 2 3 3 2 4 1 5 28 6 29 7 30 8 6 9 7 10 8 11 9 12 26 13
REMARK SMILES IDX 10 14 11 15 25 16 27 17 12 18 24 19 23 20 13 21 21 22 14 23
REMARK SMILES IDX 15 24 20 25 22 26 16 27 19 28 17 29 18 30
REMARK H PARENT 18 31
REMARK Flexibility Score: inf
ROOT
ATOM      1  C   UNL     1      -5.697  20.363  36.632  1.00  0.00     0.004 C 
ENDROOT
BRANCH   1   2
ATOM      2  C   UNL     1      -5.834  19.962  38.123  1.00  0.00     0.004 C 
BRANCH   2   3
ATOM      3  C   UNL     1      -5.971  21.196  39.062  1.00  0.00    -0.009 C 
BRANCH   3   4
ATOM      4  C   UNL     1      -6.892  20.855  40.280  1.00  0.00     0.000 C 
ATOM      5  C   UNL     1      -8.170  21.693  40.287  1.00  0.00     0.004 C 
ENDBRANCH   3   4
BRANCH   3   6
ATOM      6  C   UNL     1      -4.583  21.744  39.550  1.00  0.00    -0.014 C 
ATOM      7  C   UNL     1      -4.701  23.030  40.393  1.00  0.00     0.007 C 
ATOM      8  C   UNL     1      -3.830  20.689  40.386  1.00  0.00     0.007 C 
ENDBRANCH   3   6
ENDBRANCH   2   3
ENDBRANCH   1   2
BRANCH   1   9
ATOM      9  C   UNL     1      -6.889  21.179  36.041  1.00  0.00    -0.011 C 
ATOM     10  C   UNL     1      -8.162  21.038  36.896  1.00  0.00     0.008 C 
BRANCH   9  11
ATOM     11  C   UNL     1      -6.609  22.687  35.685  1.00  0.00    -0.002 C 
ATOM     12  C   UNL     1      -6.811  23.134  34.211  1.00  0.00     0.005 C 
ATOM     13  C   UNL     1      -7.364  23.772  36.509  1.00  0.00    -0.026 C 
ATOM     14  C   UNL     1      -7.083  24.653  34.246  1.00  0.00     0.005 C 
ATOM     15  C   UNL     1      -6.923  25.018  35.714  1.00  0.00    -0.001 C 
ATOM     16  C   UNL     1      -6.878  23.954  37.967  1.00  0.00     0.007 C 
ATOM     17  C   UNL     1      -8.898  23.484  36.489  1.00  0.00     0.012 C 
ATOM     18  C   UNL     1      -7.380  26.398  36.240  1.00  0.00     0.000 C 
ATOM     19  C   UNL     1      -7.356  25.303  38.574  1.00  0.00     0.005 C 
ATOM     20  C   UNL     1      -6.940  26.551  37.724  1.00  0.00     0.003 C 
ATOM     21  C   UNL     1      -8.867  26.727  36.075  1.00  0.00     0.031 C 
ATOM     22  C   UNL     1      -7.324  27.987  38.318  1.00  0.00    -0.008 C 
ATOM     23  C   UNL     1      -9.125  28.127  36.522  1.00  0.00    -0.027 C 
ATOM     24  C   UNL     1      -8.475  28.689  37.562  1.00  0.00    -0.065 C 
ATOM     25  C   UNL     1      -6.069  28.908  38.174  1.00  0.00     0.014 C 
ATOM     26  C   UNL     1      -7.703  27.893  39.821  1.00  0.00     0.016 C 
ATOM     27  C   UNL     1      -8.755  30.144  37.886  1.00  0.00     0.063 C 
ATOM     28  C   UNL     1      -6.320  30.389  38.515  1.00  0.00     0.033 C 
ATOM     29  C   UNL     1      -7.476  30.972  37.693  1.00  0.00     0.118 C 
BRANCH  29  30
ATOM     30  O   UNL     1      -7.700  32.298  38.094  1.00  0.00    -0.393 OA
ATOM     31  H   UNL     1      -6.821  32.666  38.373  1.00  0.00     0.210 HD
ENDBRANCH  29  30
ENDBRANCH   9  11
ENDBRANCH   1   9
TORSDOF 7
ENDMDL
MODEL 8
REMARK VINA RESULT:    -1.419      3.359      9.081
REMARK INTER + INTRA:          -2.833
REMARK INTER:                  -2.291
REMARK INTRA:                  -0.542
REMARK UNBOUND:                -0.874
REMARK SMILES CC[C@H](CC[C@@H](C)[C@H]1CC[C@H]2[C@H]3CC=C4C[C@@H](O)CC[C@]4(C)[C@H]3CC[C@]12C)C(C)C
REMARK SMILES IDX 5 1 4 2 3 3 2 4 1 5 28 6 29 7 30 8 6 9 7 10 8 11 9 12 26 13
REMARK SMILES IDX 10 14 11 15 25 16 27 17 12 18 24 19 23 20 13 21 21 22 14 23
REMARK SMILES IDX 15 24 20 25 22 26 16 27 19 28 17 29 18 30
REMARK H PARENT 18 31
REMARK Flexibility Score: inf
ROOT
ATOM      1  C   UNL     1      -5.350  21.759  37.587  1.00  0.00     0.004 C 
ENDROOT
BRANCH   1   2
ATOM      2  C   UNL     1      -5.898  20.414  37.045  1.00  0.00     0.004 C 
BRANCH   2   3
ATOM      3  C   UNL     1      -7.272  20.574  36.331  1.00  0.00    -0.009 C 
BRANCH   3   4
ATOM      4  C   UNL     1      -8.409  19.921  37.184  1.00  0.00     0.000 C 
ATOM      5  C   UNL     1      -8.198  20.133  38.684  1.00  0.00     0.004 C 
ENDBRANCH   3   4
BRANCH   3   6
ATOM      6  C   UNL     1      -7.613  22.071  36.001  1.00  0.00    -0.014 C 
ATOM      7  C   UNL     1      -7.183  22.491  34.581  1.00  0.00     0.007 C 
ATOM      8  C   UNL     1      -9.124  22.343  36.147  1.00  0.00     0.007 C 
ENDBRANCH   3   6
ENDBRANCH   2   3
ENDBRANCH   1   2
BRANCH   1   9
ATOM      9  C   UNL     1      -5.522  21.988  39.122  1.00  0.00    -0.011 C 
ATOM     10  C   UNL     1      -4.188  21.842  39.878  1.00  0.00     0.008 C 
BRANCH   9  11
ATOM     11  C   UNL     1      -6.284  23.294  39.563  1.00  0.00    -0.002 C 
ATOM     12  C   UNL     1      -6.234  23.691  41.064  1.00  0.00     0.005 C 
ATOM     13  C   UNL     1      -5.936  24.616  38.817  1.00  0.00    -0.026 C 
ATOM     14  C   UNL     1      -6.481  25.213  41.125  1.00  0.00     0.005 C 
ATOM     15  C   UNL     1      -6.760  25.595  39.679  1.00  0.00    -0.001 C 
ATOM     16  C   UNL     1      -6.462  24.717  37.366  1.00  0.00     0.007 C 
ATOM     17  C   UNL     1      -4.393  24.851  38.844  1.00  0.00     0.012 C 
ATOM     18  C   UNL     1      -6.789  27.078  39.244  1.00  0.00     0.000 C 
ATOM     19  C   UNL     1      -6.460  26.182  36.848  1.00  0.00     0.005 C 
ATOM     20  C   UNL     1      -7.262  27.167  37.765  1.00  0.00     0.003 C 
ATOM     21  C   UNL     1      -5.493  27.869  39.451  1.00  0.00     0.031 C 
ATOM     22  C   UNL     1      -7.379  28.683  37.264  1.00  0.00    -0.008 C 
ATOM     23  C   UNL     1      -5.716  29.300  39.093  1.00  0.00    -0.027 C 
ATOM     24  C   UNL     1      -6.521  29.678  38.079  1.00  0.00    -0.065 C 
ATOM     25  C   UNL     1      -8.867  29.127  37.443  1.00  0.00     0.014 C 
ATOM     26  C   UNL     1      -6.998  28.813  35.765  1.00  0.00     0.016 C 
ATOM     27  C   UNL     1      -6.740  31.161  37.847  1.00  0.00     0.063 C 
ATOM     28  C   UNL     1      -9.121  30.626  37.196  1.00  0.00     0.033 C 
ATOM     29  C   UNL     1      -8.220  31.507  38.069  1.00  0.00     0.118 C 
BRANCH  29  30
ATOM     30  O   UNL     1      -8.449  32.854  37.752  1.00  0.00    -0.393 OA
ATOM     31  H   UNL     1      -8.635  33.322  38.609  1.00  0.00     0.210 HD
ENDBRANCH  29  30
ENDBRANCH   9  11
ENDBRANCH   1   9
TORSDOF 7
ENDMDL
