MODEL 1
REMARK VINA RESULT:    -3.647      0.000      0.000
REMARK INTER + INTRA:          -6.182
REMARK INTER:                  -5.672
REMARK INTRA:                  -0.509
REMARK UNBOUND:                -0.509
REMARK SMILES C[C@@]12C[C@@]3(O)O[C@@H](O1)[C@]1(COC(=O)c4ccccc4)[C@H]3C[C@@]12O[C@@H]1O[C@@H](CO)[C@H](O)[C@H](O)[C@@H]1O
REMARK SMILES IDX 1 1 2 2 3 3 4 4 20 5 21 6 22 7 9 8 7 9 8 10 6 11 23 12 24 13
REMARK SMILES IDX 33 14 25 15 31 16 26 17 29 18 34 19 32 21 27 23 28 24 30 26
REMARK SMILES IDX 5 28 10 30 11 31 12 32 13 33 14 34 15 35 19 36 16 37 18 38
REMARK SMILES IDX 17 39
REMARK H PARENT 34 20 32 22 28 25 30 27 5 29
REMARK Flexibility Score: inf
ROOT
ATOM      1  C   UNL     1     142.136 155.065 123.222  1.00  0.00     0.046 C 
ATOM      2  C   UNL     1     142.088 154.335 121.882  1.00  0.00     0.104 C 
ATOM      3  C   UNL     1     143.454 154.473 121.110  1.00  0.00     0.104 C 
ATOM      4  C   UNL     1     143.179 153.748 119.749  1.00  0.00     0.175 C 
ATOM      5  C   UNL     1     141.840 154.255 119.121  1.00  0.00     0.070 C 
ATOM      6  C   UNL     1     141.367 155.594 119.721  1.00  0.00     0.050 C 
ATOM      7  C   UNL     1     140.892 154.764 120.945  1.00  0.00     0.115 C 
ATOM      8  C   UNL     1     140.877 153.522 120.051  1.00  0.00     0.096 C 
ATOM      9  C   UNL     1     141.691 152.455 120.765  1.00  0.00     0.267 C 
ATOM     10  O   UNL     1     141.904 152.947 122.078  1.00  0.00    -0.342 OA
ATOM     11  O   UNL     1     142.932 152.395 120.082  1.00  0.00    -0.320 OA
ENDROOT
BRANCH   7  12
ATOM     12  O   UNL     1     139.664 155.000 121.640  1.00  0.00    -0.339 OA
BRANCH  12  13
ATOM     13  C   UNL     1     138.760 155.880 120.988  1.00  0.00     0.282 C 
ATOM     14  C   UNL     1     137.322 155.664 121.502  1.00  0.00     0.202 C 
ATOM     15  O   UNL     1     139.158 157.239 121.102  1.00  0.00    -0.341 OA
ATOM     16  C   UNL     1     137.154 156.196 122.936  1.00  0.00     0.179 C 
ATOM     17  C   UNL     1     139.110 157.700 122.444  1.00  0.00     0.178 C 
ATOM     18  C   UNL     1     137.671 157.640 123.005  1.00  0.00     0.177 C 
BRANCH  14  19
ATOM     19  O   UNL     1     136.996 154.300 121.436  1.00  0.00    -0.385 OA
ATOM     20  H   UNL     1     136.490 154.167 120.591  1.00  0.00     0.211 HD
ENDBRANCH  14  19
BRANCH  16  21
ATOM     21  O   UNL     1     137.859 155.392 123.851  1.00  0.00    -0.387 OA
ATOM     22  H   UNL     1     138.820 155.622 123.757  1.00  0.00     0.211 HD
ENDBRANCH  16  21
BRANCH  17  23
ATOM     23  C   UNL     1     139.675 159.125 122.486  1.00  0.00     0.191 C 
BRANCH  23  24
ATOM     24  O   UNL     1     141.068 159.094 122.642  1.00  0.00    -0.394 OA
ATOM     25  H   UNL     1     141.257 159.538 123.509  1.00  0.00     0.210 HD
ENDBRANCH  23  24
ENDBRANCH  17  23
BRANCH  18  26
ATOM     26  O   UNL     1     137.654 158.092 124.335  1.00  0.00    -0.387 OA
ATOM     27  H   UNL     1     138.061 157.373 124.887  1.00  0.00     0.211 HD
ENDBRANCH  18  26
ENDBRANCH  12  13
ENDBRANCH   7  12
BRANCH   4  28
ATOM     28  O   UNL     1     144.267 153.875 118.875  1.00  0.00    -0.365 OA
ATOM     29  H   UNL     1     144.033 154.592 118.230  1.00  0.00     0.214 HD
ENDBRANCH   4  28
BRANCH   8  30
ATOM     30  C   UNL     1     139.546 153.034 119.440  1.00  0.00     0.249 C 
BRANCH  30  31
ATOM     31  O   UNL     1     139.437 151.616 119.484  1.00  0.00    -0.461 OA
BRANCH  31  32
ATOM     32  C   UNL     1     138.734 150.941 120.487  1.00  0.00     0.338 C 
ATOM     33  O   UNL     1     138.167 151.592 121.408  1.00  0.00    -0.246 OA
BRANCH  32  34
ATOM     34  C   UNL     1     138.645 149.465 120.459  1.00  0.00     0.060 A 
ATOM     35  C   UNL     1     139.577 148.703 119.728  1.00  0.00     0.015 A 
ATOM     36  C   UNL     1     137.631 148.801 121.172  1.00  0.00     0.015 A 
ATOM     37  C   UNL     1     139.493 147.307 119.714  1.00  0.00     0.001 A 
ATOM     38  C   UNL     1     137.552 147.405 121.154  1.00  0.00     0.001 A 
ATOM     39  C   UNL     1     138.482 146.659 120.426  1.00  0.00     0.000 A 
ENDBRANCH  32  34
ENDBRANCH  31  32
ENDBRANCH  30  31
ENDBRANCH   8  30
TORSDOF 12
ENDMDL
MODEL 2
REMARK VINA RESULT:    -3.492      1.995      6.723
REMARK INTER + INTRA:          -5.940
REMARK INTER:                  -6.946
REMARK INTRA:                   1.006
REMARK UNBOUND:                -0.509
REMARK SMILES C[C@@]12C[C@@]3(O)O[C@@H](O1)[C@]1(COC(=O)c4ccccc4)[C@H]3C[C@@]12O[C@@H]1O[C@@H](CO)[C@H](O)[C@H](O)[C@@H]1O
REMARK SMILES IDX 1 1 2 2 3 3 4 4 20 5 21 6 22 7 9 8 7 9 8 10 6 11 23 12 24 13
REMARK SMILES IDX 33 14 25 15 31 16 26 17 29 18 34 19 32 21 27 23 28 24 30 26
REMARK SMILES IDX 5 28 10 30 11 31 12 32 13 33 14 34 15 35 19 36 16 37 18 38
REMARK SMILES IDX 17 39
REMARK H PARENT 34 20 32 22 28 25 30 27 5 29
REMARK Flexibility Score: inf
ROOT
ATOM      1  C   UNL     1     142.825 153.040 120.559  1.00  0.00     0.046 C 
ATOM      2  C   UNL     1     141.915 154.252 120.378  1.00  0.00     0.104 C 
ATOM      3  C   UNL     1     142.390 155.457 121.274  1.00  0.00     0.104 C 
ATOM      4  C   UNL     1     141.299 156.552 121.020  1.00  0.00     0.175 C 
ATOM      5  C   UNL     1     139.868 155.943 121.177  1.00  0.00     0.070 C 
ATOM      6  C   UNL     1     139.867 154.606 121.945  1.00  0.00     0.050 C 
ATOM      7  C   UNL     1     140.383 153.964 120.628  1.00  0.00     0.115 C 
ATOM      8  C   UNL     1     139.822 155.166 119.864  1.00  0.00     0.096 C 
ATOM      9  C   UNL     1     140.951 155.705 119.001  1.00  0.00     0.267 C 
ATOM     10  O   UNL     1     141.974 154.725 119.047  1.00  0.00    -0.342 OA
ATOM     11  O   UNL     1     141.403 156.883 119.648  1.00  0.00    -0.320 OA
ENDROOT
BRANCH   7  12
ATOM     12  O   UNL     1     139.941 152.697 120.132  1.00  0.00    -0.339 OA
BRANCH  12  13
ATOM     13  C   UNL     1     139.760 151.692 121.119  1.00  0.00     0.282 C 
ATOM     14  C   UNL     1     138.282 151.612 121.551  1.00  0.00     0.202 C 
ATOM     15  O   UNL     1     140.249 150.427 120.691  1.00  0.00    -0.341 OA
ATOM     16  C   UNL     1     137.406 150.997 120.445  1.00  0.00     0.179 C 
ATOM     17  C   UNL     1     139.510 149.909 119.597  1.00  0.00     0.178 C 
ATOM     18  C   UNL     1     138.031 149.674 119.980  1.00  0.00     0.177 C 
BRANCH  14  19
ATOM     19  O   UNL     1     137.821 152.892 121.898  1.00  0.00    -0.385 OA
ATOM     20  H   UNL     1     137.706 153.395 121.049  1.00  0.00     0.211 HD
ENDBRANCH  14  19
BRANCH  16  21
ATOM     21  O   UNL     1     137.289 151.880 119.356  1.00  0.00    -0.387 OA
ATOM     22  H   UNL     1     137.679 151.419 118.567  1.00  0.00     0.211 HD
ENDBRANCH  16  21
BRANCH  17  23
ATOM     23  C   UNL     1     140.185 148.615 119.127  1.00  0.00     0.191 C 
BRANCH  23  24
ATOM     24  O   UNL     1     141.576 148.707 119.276  1.00  0.00    -0.394 OA
ATOM     25  H   UNL     1     141.730 149.352 120.015  1.00  0.00     0.210 HD
ENDBRANCH  23  24
ENDBRANCH  17  23
BRANCH  18  26
ATOM     26  O   UNL     1     137.321 149.172 118.877  1.00  0.00    -0.387 OA
ATOM     27  H   UNL     1     137.692 148.271 118.684  1.00  0.00     0.211 HD
ENDBRANCH  18  26
ENDBRANCH  12  13
ENDBRANCH   7  12
BRANCH   4  28
ATOM     28  O   UNL     1     141.501 157.673 121.838  1.00  0.00    -0.365 OA
ATOM     29  H   UNL     1     141.614 157.333 122.764  1.00  0.00     0.214 HD
ENDBRANCH   4  28
BRANCH   8  30
ATOM     30  C   UNL     1     138.453 155.055 119.161  1.00  0.00     0.249 C 
BRANCH  30  31
ATOM     31  O   UNL     1     137.390 155.467 120.013  1.00  0.00    -0.461 OA
BRANCH  31  32
ATOM     32  C   UNL     1     137.112 156.812 120.280  1.00  0.00     0.338 C 
ATOM     33  O   UNL     1     136.925 157.619 119.327  1.00  0.00    -0.246 OA
BRANCH  32  34
ATOM     34  C   UNL     1     137.026 157.282 121.679  1.00  0.00     0.060 A 
ATOM     35  C   UNL     1     136.963 156.362 122.743  1.00  0.00     0.015 A 
ATOM     36  C   UNL     1     137.017 158.658 121.966  1.00  0.00     0.015 A 
ATOM     37  C   UNL     1     136.892 156.814 124.065  1.00  0.00     0.001 A 
ATOM     38  C   UNL     1     136.946 159.105 123.290  1.00  0.00     0.001 A 
ATOM     39  C   UNL     1     136.884 158.183 124.338  1.00  0.00     0.000 A 
ENDBRANCH  32  34
ENDBRANCH  31  32
ENDBRANCH  30  31
ENDBRANCH   8  30
TORSDOF 12
ENDMDL
MODEL 3
REMARK VINA RESULT:    -2.662      1.356      2.015
REMARK INTER + INTRA:          -4.651
REMARK INTER:                  -5.352
REMARK INTRA:                   0.702
REMARK UNBOUND:                -0.509
REMARK SMILES C[C@@]12C[C@@]3(O)O[C@@H](O1)[C@]1(COC(=O)c4ccccc4)[C@H]3C[C@@]12O[C@@H]1O[C@@H](CO)[C@H](O)[C@H](O)[C@@H]1O
REMARK SMILES IDX 1 1 2 2 3 3 4 4 20 5 21 6 22 7 9 8 7 9 8 10 6 11 23 12 24 13
REMARK SMILES IDX 33 14 25 15 31 16 26 17 29 18 34 19 32 21 27 23 28 24 30 26
REMARK SMILES IDX 5 28 10 30 11 31 12 32 13 33 14 34 15 35 19 36 16 37 18 38
REMARK SMILES IDX 17 39
REMARK H PARENT 34 20 32 22 28 25 30 27 5 29
REMARK Flexibility Score: inf
ROOT
ATOM      1  C   UNL     1     141.952 155.546 122.777  1.00  0.00     0.046 C 
ATOM      2  C   UNL     1     141.987 154.587 121.590  1.00  0.00     0.104 C 
ATOM      3  C   UNL     1     143.404 154.584 120.904  1.00  0.00     0.104 C 
ATOM      4  C   UNL     1     143.215 153.625 119.680  1.00  0.00     0.175 C 
ATOM      5  C   UNL     1     141.929 154.011 118.878  1.00  0.00     0.070 C 
ATOM      6  C   UNL     1     141.432 155.436 119.193  1.00  0.00     0.050 C 
ATOM      7  C   UNL     1     140.864 154.840 120.510  1.00  0.00     0.115 C 
ATOM      8  C   UNL     1     140.895 153.457 119.855  1.00  0.00     0.096 C 
ATOM      9  C   UNL     1     141.645 152.536 120.805  1.00  0.00     0.267 C 
ATOM     10  O   UNL     1     141.773 153.256 122.019  1.00  0.00    -0.342 OA
ATOM     11  O   UNL     1     142.929 152.354 120.232  1.00  0.00    -0.320 OA
ENDROOT
BRANCH   7  12
ATOM     12  O   UNL     1     139.594 155.197 121.064  1.00  0.00    -0.339 OA
BRANCH  12  13
ATOM     13  C   UNL     1     138.973 156.328 120.472  1.00  0.00     0.282 C 
ATOM     14  C   UNL     1     137.700 156.721 121.249  1.00  0.00     0.202 C 
ATOM     15  O   UNL     1     139.868 157.425 120.344  1.00  0.00    -0.341 OA
ATOM     16  C   UNL     1     138.046 157.346 122.612  1.00  0.00     0.179 C 
ATOM     17  C   UNL     1     140.275 157.933 121.605  1.00  0.00     0.178 C 
ATOM     18  C   UNL     1     139.070 158.471 122.409  1.00  0.00     0.177 C 
BRANCH  14  19
ATOM     19  O   UNL     1     136.879 155.593 121.412  1.00  0.00    -0.385 OA
ATOM     20  H   UNL     1     137.267 155.061 122.155  1.00  0.00     0.211 HD
ENDBRANCH  14  19
BRANCH  16  21
ATOM     21  O   UNL     1     138.570 156.375 123.485  1.00  0.00    -0.387 OA
ATOM     22  H   UNL     1     138.783 156.837 124.338  1.00  0.00     0.211 HD
ENDBRANCH  16  21
BRANCH  17  23
ATOM     23  C   UNL     1     141.330 159.021 121.370  1.00  0.00     0.191 C 
BRANCH  23  24
ATOM     24  O   UNL     1     142.369 158.905 122.304  1.00  0.00    -0.394 OA
ATOM     25  H   UNL     1     142.230 159.637 122.961  1.00  0.00     0.210 HD
ENDBRANCH  23  24
ENDBRANCH  17  23
BRANCH  18  26
ATOM     26  O   UNL     1     139.500 158.957 123.655  1.00  0.00    -0.387 OA
ATOM     27  H   UNL     1     138.977 158.474 124.347  1.00  0.00     0.211 HD
ENDBRANCH  18  26
ENDBRANCH  12  13
ENDBRANCH   7  12
BRANCH   4  28
ATOM     28  O   UNL     1     144.362 153.593 118.875  1.00  0.00    -0.365 OA
ATOM     29  H   UNL     1     144.096 153.171 118.016  1.00  0.00     0.214 HD
ENDBRANCH   4  28
BRANCH   8  30
ATOM     30  C   UNL     1     139.603 152.867 119.251  1.00  0.00     0.249 C 
BRANCH  30  31
ATOM     31  O   UNL     1     139.748 151.483 118.950  1.00  0.00    -0.461 OA
BRANCH  31  32
ATOM     32  C   UNL     1     138.976 150.491 119.561  1.00  0.00     0.338 C 
ATOM     33  O   UNL     1     138.886 149.347 119.034  1.00  0.00    -0.246 OA
BRANCH  32  34
ATOM     34  C   UNL     1     138.276 150.780 120.831  1.00  0.00     0.060 A 
ATOM     35  C   UNL     1     137.920 152.100 121.170  1.00  0.00     0.015 A 
ATOM     36  C   UNL     1     137.947 149.737 121.714  1.00  0.00     0.015 A 
ATOM     37  C   UNL     1     137.250 152.365 122.369  1.00  0.00     0.001 A 
ATOM     38  C   UNL     1     137.276 150.007 122.910  1.00  0.00     0.001 A 
ATOM     39  C   UNL     1     136.928 151.320 123.238  1.00  0.00     0.000 A 
ENDBRANCH  32  34
ENDBRANCH  31  32
ENDBRANCH  30  31
ENDBRANCH   8  30
TORSDOF 12
ENDMDL
MODEL 4
REMARK VINA RESULT:    -2.327      2.235      5.649
REMARK INTER + INTRA:          -4.129
REMARK INTER:                  -4.849
REMARK INTRA:                   0.720
REMARK UNBOUND:                -0.509
REMARK SMILES C[C@@]12C[C@@]3(O)O[C@@H](O1)[C@]1(COC(=O)c4ccccc4)[C@H]3C[C@@]12O[C@@H]1O[C@@H](CO)[C@H](O)[C@H](O)[C@@H]1O
REMARK SMILES IDX 1 1 2 2 3 3 4 4 20 5 21 6 22 7 9 8 7 9 8 10 6 11 23 12 24 13
REMARK SMILES IDX 33 14 25 15 31 16 26 17 29 18 34 19 32 21 27 23 28 24 30 26
REMARK SMILES IDX 5 28 10 30 11 31 12 32 13 33 14 34 15 35 19 36 16 37 18 38
REMARK SMILES IDX 17 39
REMARK H PARENT 34 20 32 22 28 25 30 27 5 29
REMARK Flexibility Score: inf
ROOT
ATOM      1  C   UNL     1     137.547 152.326 122.822  1.00  0.00     0.046 C 
ATOM      2  C   UNL     1     138.316 152.233 121.506  1.00  0.00     0.104 C 
ATOM      3  C   UNL     1     139.044 150.844 121.371  1.00  0.00     0.104 C 
ATOM      4  C   UNL     1     139.834 150.976 120.024  1.00  0.00     0.175 C 
ATOM      5  C   UNL     1     140.637 152.317 119.992  1.00  0.00     0.070 C 
ATOM      6  C   UNL     1     140.818 152.941 121.390  1.00  0.00     0.050 C 
ATOM      7  C   UNL     1     139.342 153.408 121.263  1.00  0.00     0.115 C 
ATOM      8  C   UNL     1     139.464 153.263 119.745  1.00  0.00     0.096 C 
ATOM      9  C   UNL     1     138.299 152.398 119.290  1.00  0.00     0.267 C 
ATOM     10  O   UNL     1     137.429 152.304 120.406  1.00  0.00    -0.342 OA
ATOM     11  O   UNL     1     138.850 151.120 119.018  1.00  0.00    -0.320 OA
ENDROOT
BRANCH   7  12
ATOM     12  O   UNL     1     138.872 154.690 121.692  1.00  0.00    -0.339 OA
BRANCH  12  13
ATOM     13  C   UNL     1     137.460 154.830 121.741  1.00  0.00     0.282 C 
ATOM     14  C   UNL     1     137.030 155.568 123.026  1.00  0.00     0.202 C 
ATOM     15  O   UNL     1     136.943 155.462 120.577  1.00  0.00    -0.341 OA
ATOM     16  C   UNL     1     137.399 157.060 122.966  1.00  0.00     0.179 C 
ATOM     17  C   UNL     1     137.375 156.809 120.463  1.00  0.00     0.178 C 
ATOM     18  C   UNL     1     136.876 157.660 121.653  1.00  0.00     0.177 C 
BRANCH  14  19
ATOM     19  O   UNL     1     137.618 154.953 124.143  1.00  0.00    -0.385 OA
ATOM     20  H   UNL     1     137.561 155.604 124.891  1.00  0.00     0.211 HD
ENDBRANCH  14  19
BRANCH  16  21
ATOM     21  O   UNL     1     138.793 157.231 123.048  1.00  0.00    -0.387 OA
ATOM     22  H   UNL     1     139.194 156.323 123.081  1.00  0.00     0.211 HD
ENDBRANCH  16  21
BRANCH  17  23
ATOM     23  C   UNL     1     136.876 157.364 119.123  1.00  0.00     0.191 C 
BRANCH  23  24
ATOM     24  O   UNL     1     137.368 158.660 118.918  1.00  0.00    -0.394 OA
ATOM     25  H   UNL     1     138.225 158.711 119.415  1.00  0.00     0.210 HD
ENDBRANCH  23  24
ENDBRANCH  17  23
BRANCH  18  26
ATOM     26  O   UNL     1     137.326 158.984 121.520  1.00  0.00    -0.387 OA
ATOM     27  H   UNL     1     136.861 159.366 120.730  1.00  0.00     0.211 HD
ENDBRANCH  18  26
ENDBRANCH  12  13
ENDBRANCH   7  12
BRANCH   4  28
ATOM     28  O   UNL     1     140.645 149.856 119.797  1.00  0.00    -0.365 OA
ATOM     29  H   UNL     1     140.292 149.127 120.370  1.00  0.00     0.214 HD
ENDBRANCH   4  28
BRANCH   8  30
ATOM     30  C   UNL     1     139.737 154.508 118.875  1.00  0.00     0.249 C 
BRANCH  30  31
ATOM     31  O   UNL     1     140.874 155.230 119.334  1.00  0.00    -0.461 OA
BRANCH  31  32
ATOM     32  C   UNL     1     140.839 156.600 119.615  1.00  0.00     0.338 C 
ATOM     33  O   UNL     1     140.132 157.371 118.908  1.00  0.00    -0.246 OA
BRANCH  32  34
ATOM     34  C   UNL     1     141.619 157.139 120.749  1.00  0.00     0.060 A 
ATOM     35  C   UNL     1     141.556 158.506 121.080  1.00  0.00     0.015 A 
ATOM     36  C   UNL     1     142.430 156.287 121.521  1.00  0.00     0.015 A 
ATOM     37  C   UNL     1     142.290 159.007 122.160  1.00  0.00     0.001 A 
ATOM     38  C   UNL     1     143.161 156.794 122.600  1.00  0.00     0.001 A 
ATOM     39  C   UNL     1     143.092 158.152 122.919  1.00  0.00     0.000 A 
ENDBRANCH  32  34
ENDBRANCH  31  32
ENDBRANCH  30  31
ENDBRANCH   8  30
TORSDOF 12
ENDMDL
MODEL 5
REMARK VINA RESULT:    -1.898      1.773      2.350
REMARK INTER + INTRA:          -3.461
REMARK INTER:                  -2.754
REMARK INTRA:                  -0.707
REMARK UNBOUND:                -0.509
REMARK SMILES C[C@@]12C[C@@]3(O)O[C@@H](O1)[C@]1(COC(=O)c4ccccc4)[C@H]3C[C@@]12O[C@@H]1O[C@@H](CO)[C@H](O)[C@H](O)[C@@H]1O
REMARK SMILES IDX 1 1 2 2 3 3 4 4 20 5 21 6 22 7 9 8 7 9 8 10 6 11 23 12 24 13
REMARK SMILES IDX 33 14 25 15 31 16 26 17 29 18 34 19 32 21 27 23 28 24 30 26
REMARK SMILES IDX 5 28 10 30 11 31 12 32 13 33 14 34 15 35 19 36 16 37 18 38
REMARK SMILES IDX 17 39
REMARK H PARENT 34 20 32 22 28 25 30 27 5 29
REMARK Flexibility Score: inf
ROOT
ATOM      1  C   UNL     1     142.318 154.241 121.608  1.00  0.00     0.046 C 
ATOM      2  C   UNL     1     141.344 153.162 121.141  1.00  0.00     0.104 C 
ATOM      3  C   UNL     1     142.069 152.093 120.241  1.00  0.00     0.104 C 
ATOM      4  C   UNL     1     140.908 151.140 119.798  1.00  0.00     0.175 C 
ATOM      5  C   UNL     1     139.699 151.969 119.253  1.00  0.00     0.070 C 
ATOM      6  C   UNL     1     140.086 153.414 118.876  1.00  0.00     0.050 C 
ATOM      7  C   UNL     1     140.063 153.712 120.400  1.00  0.00     0.115 C 
ATOM      8  C   UNL     1     139.172 152.482 120.591  1.00  0.00     0.096 C 
ATOM      9  C   UNL     1     139.823 151.630 121.669  1.00  0.00     0.267 C 
ATOM     10  O   UNL     1     140.832 152.442 122.245  1.00  0.00    -0.342 OA
ATOM     11  O   UNL     1     140.429 150.543 120.988  1.00  0.00    -0.320 OA
ENDROOT
BRANCH   7  12
ATOM     12  O   UNL     1     139.532 154.913 120.969  1.00  0.00    -0.339 OA
BRANCH  12  13
ATOM     13  C   UNL     1     139.419 156.008 120.072  1.00  0.00     0.282 C 
ATOM     14  C   UNL     1     138.108 156.782 120.318  1.00  0.00     0.202 C 
ATOM     15  O   UNL     1     140.551 156.865 120.129  1.00  0.00    -0.341 OA
ATOM     16  C   UNL     1     138.165 157.577 121.634  1.00  0.00     0.179 C 
ATOM     17  C   UNL     1     140.667 157.517 121.385  1.00  0.00     0.178 C 
ATOM     18  C   UNL     1     139.446 158.423 121.661  1.00  0.00     0.177 C 
BRANCH  14  19
ATOM     19  O   UNL     1     137.025 155.887 120.323  1.00  0.00    -0.385 OA
ATOM     20  H   UNL     1     137.363 155.031 120.695  1.00  0.00     0.211 HD
ENDBRANCH  14  19
BRANCH  16  21
ATOM     21  O   UNL     1     138.142 156.709 122.742  1.00  0.00    -0.387 OA
ATOM     22  H   UNL     1     137.208 156.385 122.836  1.00  0.00     0.211 HD
ENDBRANCH  16  21
BRANCH  17  23
ATOM     23  C   UNL     1     141.978 158.314 121.396  1.00  0.00     0.191 C 
BRANCH  23  24
ATOM     24  O   UNL     1     142.817 157.861 122.423  1.00  0.00    -0.394 OA
ATOM     25  H   UNL     1     143.743 157.933 122.073  1.00  0.00     0.210 HD
ENDBRANCH  23  24
ENDBRANCH  17  23
BRANCH  18  26
ATOM     26  O   UNL     1     139.582 159.046 122.913  1.00  0.00    -0.387 OA
ATOM     27  H   UNL     1     140.254 159.768 122.801  1.00  0.00     0.211 HD
ENDBRANCH  18  26
ENDBRANCH  12  13
ENDBRANCH   7  12
BRANCH   4  28
ATOM     28  O   UNL     1     141.358 150.178 118.883  1.00  0.00    -0.365 OA
ATOM     29  H   UNL     1     142.095 150.598 118.368  1.00  0.00     0.214 HD
ENDBRANCH   4  28
BRANCH   8  30
ATOM     30  C   UNL     1     137.644 152.656 120.724  1.00  0.00     0.249 C 
BRANCH  30  31
ATOM     31  O   UNL     1     136.953 151.438 120.469  1.00  0.00    -0.461 OA
BRANCH  31  32
ATOM     32  C   UNL     1     136.998 150.345 121.341  1.00  0.00     0.338 C 
ATOM     33  O   UNL     1     136.875 150.525 122.584  1.00  0.00    -0.246 OA
BRANCH  32  34
ATOM     34  C   UNL     1     137.175 148.980 120.802  1.00  0.00     0.060 A 
ATOM     35  C   UNL     1     136.904 147.851 121.599  1.00  0.00     0.015 A 
ATOM     36  C   UNL     1     137.607 148.791 119.477  1.00  0.00     0.015 A 
ATOM     37  C   UNL     1     137.065 146.564 121.079  1.00  0.00     0.001 A 
ATOM     38  C   UNL     1     137.766 147.501 118.962  1.00  0.00     0.001 A 
ATOM     39  C   UNL     1     137.495 146.388 119.762  1.00  0.00     0.000 A 
ENDBRANCH  32  34
ENDBRANCH  31  32
ENDBRANCH  30  31
ENDBRANCH   8  30
TORSDOF 12
ENDMDL
MODEL 6
REMARK VINA RESULT:    -1.755      1.753      5.441
REMARK INTER + INTRA:          -3.239
REMARK INTER:                  -5.894
REMARK INTRA:                   2.654
REMARK UNBOUND:                -0.509
REMARK SMILES C[C@@]12C[C@@]3(O)O[C@@H](O1)[C@]1(COC(=O)c4ccccc4)[C@H]3C[C@@]12O[C@@H]1O[C@@H](CO)[C@H](O)[C@H](O)[C@@H]1O
REMARK SMILES IDX 1 1 2 2 3 3 4 4 20 5 21 6 22 7 9 8 7 9 8 10 6 11 23 12 24 13
REMARK SMILES IDX 33 14 25 15 31 16 26 17 29 18 34 19 32 21 27 23 28 24 30 26
REMARK SMILES IDX 5 28 10 30 11 31 12 32 13 33 14 34 15 35 19 36 16 37 18 38
REMARK SMILES IDX 17 39
REMARK H PARENT 34 20 32 22 28 25 30 27 5 29
REMARK Flexibility Score: inf
ROOT
ATOM      1  C   UNL     1     141.934 156.755 121.827  1.00  0.00     0.046 C 
ATOM      2  C   UNL     1     140.456 156.626 121.467  1.00  0.00     0.104 C 
ATOM      3  C   UNL     1     139.592 157.706 122.220  1.00  0.00     0.104 C 
ATOM      4  C   UNL     1     138.124 157.358 121.797  1.00  0.00     0.175 C 
ATOM      5  C   UNL     1     137.850 155.830 121.982  1.00  0.00     0.070 C 
ATOM      6  C   UNL     1     138.874 155.146 122.910  1.00  0.00     0.050 C 
ATOM      7  C   UNL     1     139.848 155.188 121.701  1.00  0.00     0.115 C 
ATOM      8  C   UNL     1     138.637 155.325 120.775  1.00  0.00     0.096 C 
ATOM      9  C   UNL     1     138.894 156.533 119.889  1.00  0.00     0.267 C 
ATOM     10  O   UNL     1     140.255 156.876 120.090  1.00  0.00    -0.342 OA
ATOM     11  O   UNL     1     138.071 157.568 120.399  1.00  0.00    -0.320 OA
ENDROOT
BRANCH   7  12
ATOM     12  O   UNL     1     140.733 154.118 121.352  1.00  0.00    -0.339 OA
BRANCH  12  13
ATOM     13  C   UNL     1     140.784 153.803 119.969  1.00  0.00     0.282 C 
ATOM     14  C   UNL     1     142.223 153.939 119.432  1.00  0.00     0.202 C 
ATOM     15  O   UNL     1     140.241 152.519 119.691  1.00  0.00    -0.341 OA
ATOM     16  C   UNL     1     143.125 152.805 119.951  1.00  0.00     0.179 C 
ATOM     17  C   UNL     1     141.012 151.476 120.265  1.00  0.00     0.178 C 
ATOM     18  C   UNL     1     142.445 151.454 119.686  1.00  0.00     0.177 C 
BRANCH  14  19
ATOM     19  O   UNL     1     142.745 155.193 119.789  1.00  0.00    -0.385 OA
ATOM     20  H   UNL     1     142.805 155.726 118.953  1.00  0.00     0.211 HD
ENDBRANCH  14  19
BRANCH  16  21
ATOM     21  O   UNL     1     143.368 152.955 121.329  1.00  0.00    -0.387 OA
ATOM     22  H   UNL     1     142.656 153.548 121.685  1.00  0.00     0.211 HD
ENDBRANCH  16  21
BRANCH  17  23
ATOM     23  C   UNL     1     140.284 150.148 120.023  1.00  0.00     0.191 C 
BRANCH  23  24
ATOM     24  O   UNL     1     141.183 149.174 119.566  1.00  0.00    -0.394 OA
ATOM     25  H   UNL     1     141.107 149.173 118.576  1.00  0.00     0.210 HD
ENDBRANCH  23  24
ENDBRANCH  17  23
BRANCH  18  26
ATOM     26  O   UNL     1     143.188 150.420 120.278  1.00  0.00    -0.387 OA
ATOM     27  H   UNL     1     142.573 149.941 120.893  1.00  0.00     0.211 HD
ENDBRANCH  18  26
ENDBRANCH  12  13
ENDBRANCH   7  12
BRANCH   4  28
ATOM     28  O   UNL     1     137.195 158.159 122.475  1.00  0.00    -0.365 OA
ATOM     29  H   UNL     1     136.522 157.544 122.869  1.00  0.00     0.214 HD
ENDBRANCH   4  28
BRANCH   8  30
ATOM     30  C   UNL     1     138.085 154.081 120.048  1.00  0.00     0.249 C 
BRANCH  30  31
ATOM     31  O   UNL     1     136.902 153.591 120.668  1.00  0.00    -0.461 OA
BRANCH  31  32
ATOM     32  C   UNL     1     136.899 152.487 121.528  1.00  0.00     0.338 C 
ATOM     33  O   UNL     1     136.889 152.661 122.778  1.00  0.00    -0.246 OA
BRANCH  32  34
ATOM     34  C   UNL     1     136.895 151.119 120.968  1.00  0.00     0.060 A 
ATOM     35  C   UNL     1     136.920 150.912 119.575  1.00  0.00     0.015 A 
ATOM     36  C   UNL     1     136.875 150.002 121.822  1.00  0.00     0.015 A 
ATOM     37  C   UNL     1     136.926 149.615 119.053  1.00  0.00     0.001 A 
ATOM     38  C   UNL     1     136.881 148.707 121.294  1.00  0.00     0.001 A 
ATOM     39  C   UNL     1     136.906 148.514 119.911  1.00  0.00     0.000 A 
ENDBRANCH  32  34
ENDBRANCH  31  32
ENDBRANCH  30  31
ENDBRANCH   8  30
TORSDOF 12
ENDMDL
MODEL 7
REMARK VINA RESULT:    -1.558      2.019      5.366
REMARK INTER + INTRA:          -2.932
REMARK INTER:                  -3.268
REMARK INTRA:                   0.336
REMARK UNBOUND:                -0.509
REMARK SMILES C[C@@]12C[C@@]3(O)O[C@@H](O1)[C@]1(COC(=O)c4ccccc4)[C@H]3C[C@@]12O[C@@H]1O[C@@H](CO)[C@H](O)[C@H](O)[C@@H]1O
REMARK SMILES IDX 1 1 2 2 3 3 4 4 20 5 21 6 22 7 9 8 7 9 8 10 6 11 23 12 24 13
REMARK SMILES IDX 33 14 25 15 31 16 26 17 29 18 34 19 32 21 27 23 28 24 30 26
REMARK SMILES IDX 5 28 10 30 11 31 12 32 13 33 14 34 15 35 19 36 16 37 18 38
REMARK SMILES IDX 17 39
REMARK H PARENT 34 20 32 22 28 25 30 27 5 29
REMARK Flexibility Score: inf
ROOT
ATOM      1  C   UNL     1     138.463 154.994 123.690  1.00  0.00     0.046 C 
ATOM      2  C   UNL     1     139.199 155.689 122.546  1.00  0.00     0.104 C 
ATOM      3  C   UNL     1     138.948 157.243 122.572  1.00  0.00     0.104 C 
ATOM      4  C   UNL     1     139.698 157.755 121.295  1.00  0.00     0.175 C 
ATOM      5  C   UNL     1     139.306 156.893 120.051  1.00  0.00     0.070 C 
ATOM      6  C   UNL     1     138.009 156.087 120.265  1.00  0.00     0.050 C 
ATOM      7  C   UNL     1     138.873 155.113 121.113  1.00  0.00     0.115 C 
ATOM      8  C   UNL     1     140.115 155.644 120.392  1.00  0.00     0.096 C 
ATOM      9  C   UNL     1     141.108 156.052 121.469  1.00  0.00     0.267 C 
ATOM     10  O   UNL     1     140.597 155.529 122.683  1.00  0.00    -0.342 OA
ATOM     11  O   UNL     1     141.066 157.469 121.516  1.00  0.00    -0.320 OA
ENDROOT
BRANCH   7  12
ATOM     12  O   UNL     1     138.739 153.689 121.074  1.00  0.00    -0.339 OA
BRANCH  12  13
ATOM     13  C   UNL     1     137.406 153.205 121.147  1.00  0.00     0.282 C 
ATOM     14  C   UNL     1     136.875 152.854 119.743  1.00  0.00     0.202 C 
ATOM     15  O   UNL     1     137.283 152.108 122.043  1.00  0.00    -0.341 OA
ATOM     16  C   UNL     1     137.543 151.582 119.193  1.00  0.00     0.179 C 
ATOM     17  C   UNL     1     137.992 150.965 121.590  1.00  0.00     0.178 C 
ATOM     18  C   UNL     1     137.438 150.462 120.238  1.00  0.00     0.177 C 
BRANCH  14  19
ATOM     19  O   UNL     1     137.080 153.940 118.875  1.00  0.00    -0.385 OA
ATOM     20  H   UNL     1     136.940 153.599 117.953  1.00  0.00     0.211 HD
ENDBRANCH  14  19
BRANCH  16  21
ATOM     21  O   UNL     1     138.894 151.823 118.884  1.00  0.00    -0.387 OA
ATOM     22  H   UNL     1     138.918 152.210 117.970  1.00  0.00     0.211 HD
ENDBRANCH  16  21
BRANCH  17  23
ATOM     23  C   UNL     1     137.908 149.883 122.674  1.00  0.00     0.191 C 
BRANCH  23  24
ATOM     24  O   UNL     1     137.098 150.315 123.733  1.00  0.00    -0.394 OA
ATOM     25  H   UNL     1     136.341 150.806 123.318  1.00  0.00     0.210 HD
ENDBRANCH  23  24
ENDBRANCH  17  23
BRANCH  18  26
ATOM     26  O   UNL     1     138.164 149.338 119.809  1.00  0.00    -0.387 OA
ATOM     27  H   UNL     1     138.535 148.909 120.623  1.00  0.00     0.211 HD
ENDBRANCH  18  26
ENDBRANCH  12  13
ENDBRANCH   7  12
BRANCH   4  28
ATOM     28  O   UNL     1     139.483 159.125 121.092  1.00  0.00    -0.365 OA
ATOM     29  H   UNL     1     139.357 159.530 121.989  1.00  0.00     0.214 HD
ENDBRANCH   4  28
BRANCH   8  30
ATOM     30  C   UNL     1     140.714 154.851 119.212  1.00  0.00     0.249 C 
BRANCH  30  31
ATOM     31  O   UNL     1     142.134 154.940 119.186  1.00  0.00    -0.461 OA
BRANCH  31  32
ATOM     32  C   UNL     1     142.964 153.945 119.714  1.00  0.00     0.338 C 
ATOM     33  O   UNL     1     144.144 154.227 120.063  1.00  0.00    -0.246 OA
BRANCH  32  34
ATOM     34  C   UNL     1     142.452 152.568 119.874  1.00  0.00     0.060 A 
ATOM     35  C   UNL     1     142.886 151.535 119.019  1.00  0.00     0.015 A 
ATOM     36  C   UNL     1     141.529 152.267 120.892  1.00  0.00     0.015 A 
ATOM     37  C   UNL     1     142.404 150.233 119.183  1.00  0.00     0.001 A 
ATOM     38  C   UNL     1     141.051 150.962 121.051  1.00  0.00     0.001 A 
ATOM     39  C   UNL     1     141.488 149.947 120.198  1.00  0.00     0.000 A 
ENDBRANCH  32  34
ENDBRANCH  31  32
ENDBRANCH  30  31
ENDBRANCH   8  30
TORSDOF 12
ENDMDL
MODEL 8
REMARK VINA RESULT:    -1.463      1.953      5.907
REMARK INTER + INTRA:          -2.785
REMARK INTER:                  -3.256
REMARK INTRA:                   0.471
REMARK UNBOUND:                -0.509
REMARK SMILES C[C@@]12C[C@@]3(O)O[C@@H](O1)[C@]1(COC(=O)c4ccccc4)[C@H]3C[C@@]12O[C@@H]1O[C@@H](CO)[C@H](O)[C@H](O)[C@@H]1O
REMARK SMILES IDX 1 1 2 2 3 3 4 4 20 5 21 6 22 7 9 8 7 9 8 10 6 11 23 12 24 13
REMARK SMILES IDX 33 14 25 15 31 16 26 17 29 18 34 19 32 21 27 23 28 24 30 26
REMARK SMILES IDX 5 28 10 30 11 31 12 32 13 33 14 34 15 35 19 36 16 37 18 38
REMARK SMILES IDX 17 39
REMARK H PARENT 34 20 32 22 28 25 30 27 5 29
REMARK Flexibility Score: inf
ROOT
ATOM      1  C   UNL     1     141.618 151.248 120.425  1.00  0.00     0.046 C 
ATOM      2  C   UNL     1     140.102 151.147 120.578  1.00  0.00     0.104 C 
ATOM      3  C   UNL     1     139.529 149.928 119.763  1.00  0.00     0.104 C 
ATOM      4  C   UNL     1     137.981 150.046 119.971  1.00  0.00     0.175 C 
ATOM      5  C   UNL     1     137.502 151.507 119.687  1.00  0.00     0.070 C 
ATOM      6  C   UNL     1     138.525 152.326 118.875  1.00  0.00     0.050 C 
ATOM      7  C   UNL     1     139.318 152.465 120.204  1.00  0.00     0.115 C 
ATOM      8  C   UNL     1     138.026 152.157 120.965  1.00  0.00     0.096 C 
ATOM      9  C   UNL     1     138.342 151.024 121.929  1.00  0.00     0.267 C 
ATOM     10  O   UNL     1     139.754 150.898 121.926  1.00  0.00    -0.342 OA
ATOM     11  O   UNL     1     137.768 149.860 121.358  1.00  0.00    -0.320 OA
ENDROOT
BRANCH   7  12
ATOM     12  O   UNL     1     139.968 153.669 120.621  1.00  0.00    -0.339 OA
BRANCH  12  13
ATOM     13  C   UNL     1     140.547 154.437 119.576  1.00  0.00     0.282 C 
ATOM     14  C   UNL     1     139.979 155.870 119.573  1.00  0.00     0.202 C 
ATOM     15  O   UNL     1     141.967 154.436 119.634  1.00  0.00    -0.341 OA
ATOM     16  C   UNL     1     140.509 156.685 120.766  1.00  0.00     0.179 C 
ATOM     17  C   UNL     1     142.456 155.093 120.793  1.00  0.00     0.178 C 
ATOM     18  C   UNL     1     142.040 156.581 120.812  1.00  0.00     0.177 C 
BRANCH  14  19
ATOM     19  O   UNL     1     138.575 155.823 119.586  1.00  0.00    -0.385 OA
ATOM     20  H   UNL     1     138.268 156.208 118.724  1.00  0.00     0.211 HD
ENDBRANCH  14  19
BRANCH  16  21
ATOM     21  O   UNL     1     139.961 156.213 121.973  1.00  0.00    -0.387 OA
ATOM     22  H   UNL     1     139.634 155.291 121.801  1.00  0.00     0.211 HD
ENDBRANCH  16  21
BRANCH  17  23
ATOM     23  C   UNL     1     143.981 154.931 120.834  1.00  0.00     0.191 C 
BRANCH  23  24
ATOM     24  O   UNL     1     144.372 153.803 120.099  1.00  0.00    -0.394 OA
ATOM     25  H   UNL     1     144.055 153.957 119.171  1.00  0.00     0.210 HD
ENDBRANCH  23  24
ENDBRANCH  17  23
BRANCH  18  26
ATOM     26  O   UNL     1     142.527 157.203 121.974  1.00  0.00    -0.387 OA
ATOM     27  H   UNL     1     141.746 157.616 122.426  1.00  0.00     0.211 HD
ENDBRANCH  18  26
ENDBRANCH  12  13
ENDBRANCH   7  12
BRANCH   4  28
ATOM     28  O   UNL     1     137.290 149.093 119.210  1.00  0.00    -0.365 OA
ATOM     29  H   UNL     1     137.976 148.557 118.733  1.00  0.00     0.214 HD
ENDBRANCH   4  28
BRANCH   8  30
ATOM     30  C   UNL     1     137.192 153.311 121.558  1.00  0.00     0.249 C 
BRANCH  30  31
ATOM     31  O   UNL     1     136.875 153.081 122.927  1.00  0.00    -0.461 OA
BRANCH  31  32
ATOM     32  C   UNL     1     137.032 154.059 123.915  1.00  0.00     0.338 C 
ATOM     33  O   UNL     1     137.229 153.718 125.114  1.00  0.00    -0.246 OA
BRANCH  32  34
ATOM     34  C   UNL     1     136.981 155.490 123.548  1.00  0.00     0.060 A 
ATOM     35  C   UNL     1     136.913 156.485 124.543  1.00  0.00     0.015 A 
ATOM     36  C   UNL     1     137.011 155.878 122.197  1.00  0.00     0.015 A 
ATOM     37  C   UNL     1     136.875 157.837 124.189  1.00  0.00     0.001 A 
ATOM     38  C   UNL     1     136.973 157.232 121.849  1.00  0.00     0.001 A 
ATOM     39  C   UNL     1     136.905 158.211 122.843  1.00  0.00     0.000 A 
ENDBRANCH  32  34
ENDBRANCH  31  32
ENDBRANCH  30  31
ENDBRANCH   8  30
TORSDOF 12
ENDMDL
MODEL 9
REMARK VINA RESULT:    -1.331      2.510      6.274
REMARK INTER + INTRA:          -2.580
REMARK INTER:                  -3.591
REMARK INTRA:                   1.011
REMARK UNBOUND:                -0.509
REMARK SMILES C[C@@]12C[C@@]3(O)O[C@@H](O1)[C@]1(COC(=O)c4ccccc4)[C@H]3C[C@@]12O[C@@H]1O[C@@H](CO)[C@H](O)[C@H](O)[C@@H]1O
REMARK SMILES IDX 1 1 2 2 3 3 4 4 20 5 21 6 22 7 9 8 7 9 8 10 6 11 23 12 24 13
REMARK SMILES IDX 33 14 25 15 31 16 26 17 29 18 34 19 32 21 27 23 28 24 30 26
REMARK SMILES IDX 5 28 10 30 11 31 12 32 13 33 14 34 15 35 19 36 16 37 18 38
REMARK SMILES IDX 17 39
REMARK H PARENT 34 20 32 22 28 25 30 27 5 29
REMARK Flexibility Score: inf
ROOT
ATOM      1  C   UNL     1     141.324 153.904 119.858  1.00  0.00     0.046 C 
ATOM      2  C   UNL     1     139.872 153.563 120.183  1.00  0.00     0.104 C 
ATOM      3  C   UNL     1     139.344 152.397 119.266  1.00  0.00     0.104 C 
ATOM      4  C   UNL     1     137.840 152.257 119.683  1.00  0.00     0.175 C 
ATOM      5  C   UNL     1     137.144 153.657 119.693  1.00  0.00     0.070 C 
ATOM      6  C   UNL     1     137.927 154.721 118.898  1.00  0.00     0.050 C 
ATOM      7  C   UNL     1     138.881 154.790 120.122  1.00  0.00     0.115 C 
ATOM      8  C   UNL     1     137.763 154.194 120.981  1.00  0.00     0.096 C 
ATOM      9  C   UNL     1     138.357 152.998 121.708  1.00  0.00     0.267 C 
ATOM     10  O   UNL     1     139.759 153.082 121.508  1.00  0.00    -0.342 OA
ATOM     11  O   UNL     1     137.857 151.852 121.039  1.00  0.00    -0.320 OA
ENDROOT
BRANCH   7  12
ATOM     12  O   UNL     1     139.429 156.007 120.637  1.00  0.00    -0.339 OA
BRANCH  12  13
ATOM     13  C   UNL     1     140.415 156.620 119.820  1.00  0.00     0.282 C 
ATOM     14  C   UNL     1     140.189 158.144 119.743  1.00  0.00     0.202 C 
ATOM     15  O   UNL     1     141.734 156.307 120.245  1.00  0.00    -0.341 OA
ATOM     16  C   UNL     1     140.546 158.831 121.073  1.00  0.00     0.179 C 
ATOM     17  C   UNL     1     142.027 156.848 121.524  1.00  0.00     0.178 C 
ATOM     18  C   UNL     1     141.951 158.391 121.510  1.00  0.00     0.177 C 
BRANCH  14  19
ATOM     19  O   UNL     1     138.856 158.407 119.388  1.00  0.00    -0.385 OA
ATOM     20  H   UNL     1     138.847 158.566 118.408  1.00  0.00     0.211 HD
ENDBRANCH  14  19
BRANCH  16  21
ATOM     21  O   UNL     1     139.610 158.500 122.070  1.00  0.00    -0.387 OA
ATOM     22  H   UNL     1     138.891 159.183 122.030  1.00  0.00     0.211 HD
ENDBRANCH  16  21
BRANCH  17  23
ATOM     23  C   UNL     1     143.415 156.354 121.951  1.00  0.00     0.191 C 
BRANCH  23  24
ATOM     24  O   UNL     1     143.389 155.914 123.282  1.00  0.00    -0.394 OA
ATOM     25  H   UNL     1     144.324 155.976 123.610  1.00  0.00     0.210 HD
ENDBRANCH  23  24
ENDBRANCH  17  23
BRANCH  18  26
ATOM     26  O   UNL     1     142.235 158.899 122.789  1.00  0.00    -0.387 OA
ATOM     27  H   UNL     1     142.827 159.685 122.660  1.00  0.00     0.211 HD
ENDBRANCH  18  26
ENDBRANCH  12  13
ENDBRANCH   7  12
BRANCH   4  28
ATOM     28  O   UNL     1     137.171 151.327 118.875  1.00  0.00    -0.365 OA
ATOM     29  H   UNL     1     137.445 150.426 119.190  1.00  0.00     0.214 HD
ENDBRANCH   4  28
BRANCH   8  30
ATOM     30  C   UNL     1     136.886 155.121 121.849  1.00  0.00     0.249 C 
BRANCH  30  31
ATOM     31  O   UNL     1     137.660 155.824 122.814  1.00  0.00    -0.461 OA
BRANCH  31  32
ATOM     32  C   UNL     1     137.333 157.111 123.256  1.00  0.00     0.338 C 
ATOM     33  O   UNL     1     137.139 158.035 122.418  1.00  0.00    -0.246 OA
BRANCH  32  34
ATOM     34  C   UNL     1     137.200 157.380 124.703  1.00  0.00     0.060 A 
ATOM     35  C   UNL     1     137.011 158.693 125.176  1.00  0.00     0.015 A 
ATOM     36  C   UNL     1     137.252 156.323 125.629  1.00  0.00     0.015 A 
ATOM     37  C   UNL     1     136.877 158.938 126.546  1.00  0.00     0.001 A 
ATOM     38  C   UNL     1     137.116 156.574 126.999  1.00  0.00     0.001 A 
ATOM     39  C   UNL     1     136.930 157.881 127.456  1.00  0.00     0.000 A 
ENDBRANCH  32  34
ENDBRANCH  31  32
ENDBRANCH  30  31
ENDBRANCH   8  30
TORSDOF 12
ENDMDL
