MODEL 1
REMARK VINA RESULT:    10.761      0.000      0.000
REMARK INTER + INTRA:          27.275
REMARK INTER:                  28.376
REMARK INTRA:                  -1.101
REMARK UNBOUND:                -1.101
REMARK SMILES CCCCCCCCCCCCCCCCCCCCCCCCCCCCCC(=O)[O-]
REMARK SMILES IDX 16 1 17 2 18 3 19 4 20 5 21 6 22 7 23 8 24 9 25 10 26 11
REMARK SMILES IDX 27 12 28 13 29 14 30 15 31 16 32 17 15 18 14 19 13 20 12 21
REMARK SMILES IDX 11 22 10 23 9 24 8 25 7 26 6 27 5 28 4 29 3 30 2 31 1 32
REMARK H PARENT
REMARK Flexibility Score: inf
ROOT
ATOM      1  C   UNL     1      36.115 106.455 266.145  1.00  0.00     0.000 C 
ENDROOT
BRANCH   1   2
ATOM      2  C   UNL     1      34.879 107.364 266.099  1.00  0.00     0.000 C 
BRANCH   2   3
ATOM      3  C   UNL     1      35.161 108.778 266.653  1.00  0.00     0.000 C 
BRANCH   3   4
ATOM      4  C   UNL     1      35.030 108.904 268.184  1.00  0.00     0.000 C 
BRANCH   4   5
ATOM      5  C   UNL     1      35.126 107.587 268.978  1.00  0.00     0.000 C 
BRANCH   5   6
ATOM      6  C   UNL     1      36.132 107.595 270.145  1.00  0.00     0.000 C 
BRANCH   6   7
ATOM      7  C   UNL     1      36.860 106.255 270.327  1.00  0.00     0.000 C 
BRANCH   7   8
ATOM      8  C   UNL     1      38.238 106.464 270.972  1.00  0.00     0.000 C 
BRANCH   8   9
ATOM      9  C   UNL     1      38.260 105.936 272.414  1.00  0.00     0.000 C 
BRANCH   9  10
ATOM     10  C   UNL     1      38.394 104.402 272.489  1.00  0.00     0.000 C 
BRANCH  10  11
ATOM     11  C   UNL     1      38.922 103.856 273.829  1.00  0.00     0.000 C 
BRANCH  11  12
ATOM     12  C   UNL     1      39.929 102.708 273.653  1.00  0.00     0.000 C 
BRANCH  12  13
ATOM     13  C   UNL     1      41.158 103.126 272.818  1.00  0.00     0.006 C 
BRANCH  13  14
ATOM     14  C   UNL     1      42.099 104.097 273.548  1.00  0.00     0.053 C 
BRANCH  14  15
ATOM     15  C   UNL     1      43.529 103.658 273.501  1.00  0.00     0.041 C 
ATOM     16  O   UNL     1      43.866 102.538 273.967  1.00  0.00    -0.550 OA
ATOM     17  O   UNL     1      44.500 104.497 272.965  1.00  0.00    -0.550 OA
ENDBRANCH  14  15
ENDBRANCH  13  14
ENDBRANCH  12  13
ENDBRANCH  11  12
ENDBRANCH  10  11
ENDBRANCH   9  10
ENDBRANCH   8   9
ENDBRANCH   7   8
ENDBRANCH   6   7
ENDBRANCH   5   6
ENDBRANCH   4   5
ENDBRANCH   3   4
ENDBRANCH   2   3
ENDBRANCH   1   2
BRANCH   1  18
ATOM     18  C   UNL     1      35.756 105.032 266.604  1.00  0.00     0.000 C 
BRANCH  18  19
ATOM     19  C   UNL     1      34.875 104.284 265.585  1.00  0.00     0.000 C 
BRANCH  19  20
ATOM     20  C   UNL     1      35.629 103.528 264.469  1.00  0.00     0.000 C 
BRANCH  20  21
ATOM     21  C   UNL     1      35.215 103.922 263.036  1.00  0.00     0.000 C 
BRANCH  21  22
ATOM     22  C   UNL     1      34.947 105.429 262.867  1.00  0.00     0.000 C 
BRANCH  22  23
ATOM     23  C   UNL     1      36.002 106.132 261.995  1.00  0.00     0.000 C 
BRANCH  23  24
ATOM     24  C   UNL     1      36.746 107.275 262.722  1.00  0.00    -0.000 C 
BRANCH  24  25
ATOM     25  C   UNL     1      38.133 106.830 263.230  1.00  0.00    -0.000 C 
BRANCH  25  26
ATOM     26  C   UNL     1      39.172 106.709 262.102  1.00  0.00    -0.000 C 
BRANCH  26  27
ATOM     27  C   UNL     1      38.752 105.780 260.943  1.00  0.00    -0.000 C 
BRANCH  27  28
ATOM     28  C   UNL     1      38.548 106.514 259.602  1.00  0.00    -0.000 C 
BRANCH  28  29
ATOM     29  C   UNL     1      38.215 105.601 258.405  1.00  0.00    -0.000 C 
BRANCH  29  30
ATOM     30  C   UNL     1      36.763 105.706 257.891  1.00  0.00    -0.000 C 
BRANCH  30  31
ATOM     31  C   UNL     1      36.183 107.131 257.875  1.00  0.00    -0.003 C 
ATOM     32  C   UNL     1      35.950 107.700 259.274  1.00  0.00     0.004 C 
ENDBRANCH  30  31
ENDBRANCH  29  30
ENDBRANCH  28  29
ENDBRANCH  27  28
ENDBRANCH  26  27
ENDBRANCH  25  26
ENDBRANCH  24  25
ENDBRANCH  23  24
ENDBRANCH  22  23
ENDBRANCH  21  22
ENDBRANCH  20  21
ENDBRANCH  19  20
ENDBRANCH  18  19
ENDBRANCH   1  18
TORSDOF 28
ENDMDL
MODEL 2
REMARK VINA RESULT:    11.251      3.164     10.150
REMARK INTER + INTRA:          28.568
REMARK INTER:                  26.170
REMARK INTRA:                   2.398
REMARK UNBOUND:                -1.101
REMARK SMILES CCCCCCCCCCCCCCCCCCCCCCCCCCCCCC(=O)[O-]
REMARK SMILES IDX 16 1 17 2 18 3 19 4 20 5 21 6 22 7 23 8 24 9 25 10 26 11
REMARK SMILES IDX 27 12 28 13 29 14 30 15 31 16 32 17 15 18 14 19 13 20 12 21
REMARK SMILES IDX 11 22 10 23 9 24 8 25 7 26 6 27 5 28 4 29 3 30 2 31 1 32
REMARK H PARENT
REMARK Flexibility Score: inf
ROOT
ATOM      1  C   UNL     1      37.529 103.756 266.467  1.00  0.00     0.000 C 
ENDROOT
BRANCH   1   2
ATOM      2  C   UNL     1      37.706 103.437 264.976  1.00  0.00     0.000 C 
BRANCH   2   3
ATOM      3  C   UNL     1      36.375 103.491 264.195  1.00  0.00     0.000 C 
BRANCH   3   4
ATOM      4  C   UNL     1      36.122 104.817 263.451  1.00  0.00     0.000 C 
BRANCH   4   5
ATOM      5  C   UNL     1      35.128 104.750 262.275  1.00  0.00     0.000 C 
BRANCH   5   6
ATOM      6  C   UNL     1      35.767 104.744 260.873  1.00  0.00     0.000 C 
BRANCH   6   7
ATOM      7  C   UNL     1      36.362 106.101 260.472  1.00  0.00     0.000 C 
BRANCH   7   8
ATOM      8  C   UNL     1      35.941 106.483 259.045  1.00  0.00     0.000 C 
BRANCH   8   9
ATOM      9  C   UNL     1      37.028 106.108 258.028  1.00  0.00     0.000 C 
BRANCH   9  10
ATOM     10  C   UNL     1      38.408 105.886 258.679  1.00  0.00     0.000 C 
BRANCH  10  11
ATOM     11  C   UNL     1      38.522 106.348 260.144  1.00  0.00     0.000 C 
BRANCH  11  12
ATOM     12  C   UNL     1      39.687 105.679 260.893  1.00  0.00     0.000 C 
BRANCH  12  13
ATOM     13  C   UNL     1      40.541 106.695 261.680  1.00  0.00     0.006 C 
BRANCH  13  14
ATOM     14  C   UNL     1      39.727 107.850 262.284  1.00  0.00     0.053 C 
BRANCH  14  15
ATOM     15  C   UNL     1      38.604 107.371 263.150  1.00  0.00     0.041 C 
ATOM     16  O   UNL     1      38.826 106.999 264.332  1.00  0.00    -0.550 OA
ATOM     17  O   UNL     1      37.309 107.312 262.645  1.00  0.00    -0.550 OA
ENDBRANCH  14  15
ENDBRANCH  13  14
ENDBRANCH  12  13
ENDBRANCH  11  12
ENDBRANCH  10  11
ENDBRANCH   9  10
ENDBRANCH   8   9
ENDBRANCH   7   8
ENDBRANCH   6   7
ENDBRANCH   5   6
ENDBRANCH   4   5
ENDBRANCH   3   4
ENDBRANCH   2   3
ENDBRANCH   1   2
BRANCH   1  18
ATOM     18  C   UNL     1      36.191 103.225 267.008  1.00  0.00     0.000 C 
BRANCH  18  19
ATOM     19  C   UNL     1      35.114 104.321 267.106  1.00  0.00     0.000 C 
BRANCH  19  20
ATOM     20  C   UNL     1      35.631 105.756 267.342  1.00  0.00     0.000 C 
BRANCH  20  21
ATOM     21  C   UNL     1      34.878 106.848 266.554  1.00  0.00     0.000 C 
BRANCH  21  22
ATOM     22  C   UNL     1      35.807 107.779 265.755  1.00  0.00     0.000 C 
BRANCH  22  23
ATOM     23  C   UNL     1      36.127 109.089 266.498  1.00  0.00     0.000 C 
BRANCH  23  24
ATOM     24  C   UNL     1      34.895 109.741 267.165  1.00  0.00    -0.000 C 
BRANCH  24  25
ATOM     25  C   UNL     1      34.926 109.596 268.701  1.00  0.00    -0.000 C 
BRANCH  25  26
ATOM     26  C   UNL     1      35.034 108.132 269.161  1.00  0.00    -0.000 C 
BRANCH  26  27
ATOM     27  C   UNL     1      35.830 107.931 270.469  1.00  0.00    -0.000 C 
BRANCH  27  28
ATOM     28  C   UNL     1      36.929 106.852 270.366  1.00  0.00    -0.000 C 
BRANCH  28  29
ATOM     29  C   UNL     1      37.032 105.912 271.584  1.00  0.00    -0.000 C 
BRANCH  29  30
ATOM     30  C   UNL     1      38.438 105.328 271.839  1.00  0.00    -0.000 C 
BRANCH  30  31
ATOM     31  C   UNL     1      38.583 104.538 273.151  1.00  0.00    -0.003 C 
ATOM     32  C   UNL     1      39.746 103.547 273.130  1.00  0.00     0.004 C 
ENDBRANCH  30  31
ENDBRANCH  29  30
ENDBRANCH  28  29
ENDBRANCH  27  28
ENDBRANCH  26  27
ENDBRANCH  25  26
ENDBRANCH  24  25
ENDBRANCH  23  24
ENDBRANCH  22  23
ENDBRANCH  21  22
ENDBRANCH  20  21
ENDBRANCH  19  20
ENDBRANCH  18  19
ENDBRANCH   1  18
TORSDOF 28
ENDMDL
MODEL 3
REMARK VINA RESULT:    11.316      2.967     11.315
REMARK INTER + INTRA:          28.737
REMARK INTER:                  26.814
REMARK INTRA:                   1.923
REMARK UNBOUND:                -1.101
REMARK SMILES CCCCCCCCCCCCCCCCCCCCCCCCCCCCCC(=O)[O-]
REMARK SMILES IDX 16 1 17 2 18 3 19 4 20 5 21 6 22 7 23 8 24 9 25 10 26 11
REMARK SMILES IDX 27 12 28 13 29 14 30 15 31 16 32 17 15 18 14 19 13 20 12 21
REMARK SMILES IDX 11 22 10 23 9 24 8 25 7 26 6 27 5 28 4 29 3 30 2 31 1 32
REMARK H PARENT
REMARK Flexibility Score: inf
ROOT
ATOM      1  C   UNL     1      35.450 109.121 266.831  1.00  0.00     0.000 C 
ENDROOT
BRANCH   1   2
ATOM      2  C   UNL     1      34.875 108.603 265.505  1.00  0.00     0.000 C 
BRANCH   2   3
ATOM      3  C   UNL     1      35.804 107.582 264.812  1.00  0.00     0.000 C 
BRANCH   3   4
ATOM      4  C   UNL     1      35.420 106.107 265.044  1.00  0.00     0.000 C 
BRANCH   4   5
ATOM      5  C   UNL     1      35.716 105.144 263.877  1.00  0.00     0.000 C 
BRANCH   5   6
ATOM      6  C   UNL     1      35.098 105.543 262.524  1.00  0.00     0.000 C 
BRANCH   6   7
ATOM      7  C   UNL     1      35.959 105.132 261.320  1.00  0.00     0.000 C 
BRANCH   7   8
ATOM      8  C   UNL     1      36.315 106.353 260.459  1.00  0.00     0.000 C 
BRANCH   8   9
ATOM      9  C   UNL     1      36.027 106.087 258.975  1.00  0.00     0.000 C 
BRANCH   9  10
ATOM     10  C   UNL     1      37.282 106.214 258.088  1.00  0.00     0.000 C 
BRANCH  10  11
ATOM     11  C   UNL     1      38.477 105.342 258.516  1.00  0.00     0.000 C 
BRANCH  11  12
ATOM     12  C   UNL     1      38.761 105.414 260.026  1.00  0.00     0.000 C 
BRANCH  12  13
ATOM     13  C   UNL     1      38.975 106.861 260.516  1.00  0.00     0.006 C 
BRANCH  13  14
ATOM     14  C   UNL     1      38.463 107.112 261.943  1.00  0.00     0.053 C 
BRANCH  14  15
ATOM     15  C   UNL     1      39.526 106.922 262.979  1.00  0.00     0.041 C 
ATOM     16  O   UNL     1      40.741 106.913 262.649  1.00  0.00    -0.550 OA
ATOM     17  O   UNL     1      39.177 106.729 264.311  1.00  0.00    -0.550 OA
ENDBRANCH  14  15
ENDBRANCH  13  14
ENDBRANCH  12  13
ENDBRANCH  11  12
ENDBRANCH  10  11
ENDBRANCH   9  10
ENDBRANCH   8   9
ENDBRANCH   7   8
ENDBRANCH   6   7
ENDBRANCH   5   6
ENDBRANCH   4   5
ENDBRANCH   3   4
ENDBRANCH   2   3
ENDBRANCH   1   2
BRANCH   1  18
ATOM     18  C   UNL     1      34.899 108.338 268.034  1.00  0.00     0.000 C 
BRANCH  18  19
ATOM     19  C   UNL     1      35.430 106.893 268.095  1.00  0.00     0.000 C 
BRANCH  19  20
ATOM     20  C   UNL     1      35.231 106.158 269.439  1.00  0.00     0.000 C 
BRANCH  20  21
ATOM     21  C   UNL     1      35.478 107.027 270.688  1.00  0.00     0.000 C 
BRANCH  21  22
ATOM     22  C   UNL     1      36.867 107.692 270.708  1.00  0.00     0.000 C 
BRANCH  22  23
ATOM     23  C   UNL     1      38.016 106.677 270.853  1.00  0.00     0.000 C 
BRANCH  23  24
ATOM     24  C   UNL     1      38.084 106.012 272.245  1.00  0.00    -0.000 C 
BRANCH  24  25
ATOM     25  C   UNL     1      38.328 104.492 272.148  1.00  0.00    -0.000 C 
BRANCH  25  26
ATOM     26  C   UNL     1      38.641 103.848 273.510  1.00  0.00    -0.000 C 
BRANCH  26  27
ATOM     27  C   UNL     1      40.081 104.088 274.014  1.00  0.00    -0.000 C 
BRANCH  27  28
ATOM     28  C   UNL     1      41.169 103.522 273.078  1.00  0.00    -0.000 C 
BRANCH  28  29
ATOM     29  C   UNL     1      42.525 103.240 273.753  1.00  0.00    -0.000 C 
BRANCH  29  30
ATOM     30  C   UNL     1      43.740 103.919 273.084  1.00  0.00    -0.000 C 
BRANCH  30  31
ATOM     31  C   UNL     1      45.094 103.629 273.754  1.00  0.00    -0.003 C 
ATOM     32  C   UNL     1      44.956 103.015 275.147  1.00  0.00     0.004 C 
ENDBRANCH  30  31
ENDBRANCH  29  30
ENDBRANCH  28  29
ENDBRANCH  27  28
ENDBRANCH  26  27
ENDBRANCH  25  26
ENDBRANCH  24  25
ENDBRANCH  23  24
ENDBRANCH  22  23
ENDBRANCH  21  22
ENDBRANCH  20  21
ENDBRANCH  19  20
ENDBRANCH  18  19
ENDBRANCH   1  18
TORSDOF 28
ENDMDL
MODEL 4
REMARK VINA RESULT:    11.479      1.323      2.848
REMARK INTER + INTRA:          29.168
REMARK INTER:                  29.946
REMARK INTRA:                  -0.778
REMARK UNBOUND:                -1.101
REMARK SMILES CCCCCCCCCCCCCCCCCCCCCCCCCCCCCC(=O)[O-]
REMARK SMILES IDX 16 1 17 2 18 3 19 4 20 5 21 6 22 7 23 8 24 9 25 10 26 11
REMARK SMILES IDX 27 12 28 13 29 14 30 15 31 16 32 17 15 18 14 19 13 20 12 21
REMARK SMILES IDX 11 22 10 23 9 24 8 25 7 26 6 27 5 28 4 29 3 30 2 31 1 32
REMARK H PARENT
REMARK Flexibility Score: inf
ROOT
ATOM      1  C   UNL     1      36.009 108.010 267.051  1.00  0.00     0.000 C 
ENDROOT
BRANCH   1   2
ATOM      2  C   UNL     1      34.875 107.738 268.049  1.00  0.00     0.000 C 
BRANCH   2   3
ATOM      3  C   UNL     1      35.015 106.370 268.750  1.00  0.00     0.000 C 
BRANCH   3   4
ATOM      4  C   UNL     1      35.315 106.452 270.261  1.00  0.00     0.000 C 
BRANCH   4   5
ATOM      5  C   UNL     1      36.110 107.689 270.723  1.00  0.00     0.000 C 
BRANCH   5   6
ATOM      6  C   UNL     1      37.641 107.571 270.596  1.00  0.00     0.000 C 
BRANCH   6   7
ATOM      7  C   UNL     1      38.291 106.830 271.774  1.00  0.00     0.000 C 
BRANCH   7   8
ATOM      8  C   UNL     1      38.562 105.361 271.414  1.00  0.00     0.000 C 
BRANCH   8   9
ATOM      9  C   UNL     1      38.320 104.443 272.620  1.00  0.00     0.000 C 
BRANCH   9  10
ATOM     10  C   UNL     1      39.586 104.224 273.472  1.00  0.00     0.000 C 
BRANCH  10  11
ATOM     11  C   UNL     1      40.114 102.777 273.501  1.00  0.00     0.000 C 
BRANCH  11  12
ATOM     12  C   UNL     1      41.618 102.694 273.806  1.00  0.00     0.000 C 
BRANCH  12  13
ATOM     13  C   UNL     1      42.194 101.286 273.552  1.00  0.00     0.006 C 
BRANCH  13  14
ATOM     14  C   UNL     1      43.433 100.962 274.403  1.00  0.00     0.053 C 
BRANCH  14  15
ATOM     15  C   UNL     1      44.260 102.173 274.700  1.00  0.00     0.041 C 
ATOM     16  O   UNL     1      44.579 102.968 273.778  1.00  0.00    -0.550 OA
ATOM     17  O   UNL     1      44.703 102.415 275.996  1.00  0.00    -0.550 OA
ENDBRANCH  14  15
ENDBRANCH  13  14
ENDBRANCH  12  13
ENDBRANCH  11  12
ENDBRANCH  10  11
ENDBRANCH   9  10
ENDBRANCH   8   9
ENDBRANCH   7   8
ENDBRANCH   6   7
ENDBRANCH   5   6
ENDBRANCH   4   5
ENDBRANCH   3   4
ENDBRANCH   2   3
ENDBRANCH   1   2
BRANCH   1  18
ATOM     18  C   UNL     1      35.498 108.731 265.792  1.00  0.00     0.000 C 
BRANCH  18  19
ATOM     19  C   UNL     1      34.925 107.760 264.743  1.00  0.00     0.000 C 
BRANCH  19  20
ATOM     20  C   UNL     1      34.875 106.273 265.157  1.00  0.00     0.000 C 
BRANCH  20  21
ATOM     21  C   UNL     1      35.909 105.374 264.448  1.00  0.00     0.000 C 
BRANCH  21  22
ATOM     22  C   UNL     1      35.324 104.039 263.952  1.00  0.00     0.000 C 
BRANCH  22  23
ATOM     23  C   UNL     1      35.318 103.921 262.417  1.00  0.00     0.000 C 
BRANCH  23  24
ATOM     24  C   UNL     1      35.671 105.239 261.692  1.00  0.00    -0.000 C 
BRANCH  24  25
ATOM     25  C   UNL     1      36.417 104.986 260.365  1.00  0.00    -0.000 C 
BRANCH  25  26
ATOM     26  C   UNL     1      36.195 106.104 259.332  1.00  0.00    -0.000 C 
BRANCH  26  27
ATOM     27  C   UNL     1      37.465 106.526 258.562  1.00  0.00    -0.000 C 
BRANCH  27  28
ATOM     28  C   UNL     1      38.688 106.770 259.470  1.00  0.00    -0.000 C 
BRANCH  28  29
ATOM     29  C   UNL     1      38.985 105.642 260.479  1.00  0.00    -0.000 C 
BRANCH  29  30
ATOM     30  C   UNL     1      39.738 106.087 261.751  1.00  0.00    -0.000 C 
BRANCH  30  31
ATOM     31  C   UNL     1      39.364 107.487 262.268  1.00  0.00    -0.003 C 
ATOM     32  C   UNL     1      38.125 107.485 263.163  1.00  0.00     0.004 C 
ENDBRANCH  30  31
ENDBRANCH  29  30
ENDBRANCH  28  29
ENDBRANCH  27  28
ENDBRANCH  26  27
ENDBRANCH  25  26
ENDBRANCH  24  25
ENDBRANCH  23  24
ENDBRANCH  22  23
ENDBRANCH  21  22
ENDBRANCH  20  21
ENDBRANCH  19  20
ENDBRANCH  18  19
ENDBRANCH   1  18
TORSDOF 28
ENDMDL
MODEL 5
REMARK VINA RESULT:    11.529      1.168      2.630
REMARK INTER + INTRA:          29.301
REMARK INTER:                  28.325
REMARK INTRA:                   0.976
REMARK UNBOUND:                -1.101
REMARK SMILES CCCCCCCCCCCCCCCCCCCCCCCCCCCCCC(=O)[O-]
REMARK SMILES IDX 16 1 17 2 18 3 19 4 20 5 21 6 22 7 23 8 24 9 25 10 26 11
REMARK SMILES IDX 27 12 28 13 29 14 30 15 31 16 32 17 15 18 14 19 13 20 12 21
REMARK SMILES IDX 11 22 10 23 9 24 8 25 7 26 6 27 5 28 4 29 3 30 2 31 1 32
REMARK H PARENT
REMARK Flexibility Score: inf
ROOT
ATOM      1  C   UNL     1      35.467 105.694 266.066  1.00  0.00     0.000 C 
ENDROOT
BRANCH   1   2
ATOM      2  C   UNL     1      34.884 104.633 267.009  1.00  0.00     0.000 C 
BRANCH   2   3
ATOM      3  C   UNL     1      34.922 105.069 268.490  1.00  0.00     0.000 C 
BRANCH   3   4
ATOM      4  C   UNL     1      35.088 106.587 268.708  1.00  0.00     0.000 C 
BRANCH   4   5
ATOM      5  C   UNL     1      35.574 107.017 270.106  1.00  0.00     0.000 C 
BRANCH   5   6
ATOM      6  C   UNL     1      36.801 106.254 270.639  1.00  0.00     0.000 C 
BRANCH   6   7
ATOM      7  C   UNL     1      37.906 107.179 271.172  1.00  0.00     0.000 C 
BRANCH   7   8
ATOM      8  C   UNL     1      38.987 106.372 271.908  1.00  0.00     0.000 C 
BRANCH   8   9
ATOM      9  C   UNL     1      38.560 104.908 272.086  1.00  0.00     0.000 C 
BRANCH   9  10
ATOM     10  C   UNL     1      38.574 104.455 273.560  1.00  0.00     0.000 C 
BRANCH  10  11
ATOM     11  C   UNL     1      39.648 103.409 273.913  1.00  0.00     0.000 C 
BRANCH  11  12
ATOM     12  C   UNL     1      40.588 103.095 272.737  1.00  0.00     0.000 C 
BRANCH  12  13
ATOM     13  C   UNL     1      42.069 103.357 273.081  1.00  0.00     0.006 C 
BRANCH  13  14
ATOM     14  C   UNL     1      42.804 102.122 273.625  1.00  0.00     0.053 C 
BRANCH  14  15
ATOM     15  C   UNL     1      44.079 102.473 274.327  1.00  0.00     0.041 C 
ATOM     16  O   UNL     1      44.417 101.862 275.375  1.00  0.00    -0.550 OA
ATOM     17  O   UNL     1      44.886 103.495 273.839  1.00  0.00    -0.550 OA
ENDBRANCH  14  15
ENDBRANCH  13  14
ENDBRANCH  12  13
ENDBRANCH  11  12
ENDBRANCH  10  11
ENDBRANCH   9  10
ENDBRANCH   8   9
ENDBRANCH   7   8
ENDBRANCH   6   7
ENDBRANCH   5   6
ENDBRANCH   4   5
ENDBRANCH   3   4
ENDBRANCH   2   3
ENDBRANCH   1   2
BRANCH   1  18
ATOM     18  C   UNL     1      34.948 107.102 266.403  1.00  0.00     0.000 C 
BRANCH  18  19
ATOM     19  C   UNL     1      34.929 108.036 265.179  1.00  0.00     0.000 C 
BRANCH  19  20
ATOM     20  C   UNL     1      35.100 107.352 263.805  1.00  0.00     0.000 C 
BRANCH  20  21
ATOM     21  C   UNL     1      36.510 106.784 263.542  1.00  0.00     0.000 C 
BRANCH  21  22
ATOM     22  C   UNL     1      37.642 107.768 263.890  1.00  0.00     0.000 C 
BRANCH  22  23
ATOM     23  C   UNL     1      39.042 107.196 263.603  1.00  0.00     0.000 C 
BRANCH  23  24
ATOM     24  C   UNL     1      39.463 107.303 262.120  1.00  0.00    -0.000 C 
BRANCH  24  25
ATOM     25  C   UNL     1      39.789 105.923 261.511  1.00  0.00    -0.000 C 
BRANCH  25  26
ATOM     26  C   UNL     1      38.931 105.597 260.276  1.00  0.00    -0.000 C 
BRANCH  26  27
ATOM     27  C   UNL     1      38.223 106.817 259.650  1.00  0.00    -0.000 C 
BRANCH  27  28
ATOM     28  C   UNL     1      36.999 106.449 258.786  1.00  0.00    -0.000 C 
BRANCH  28  29
ATOM     29  C   UNL     1      35.842 105.776 259.550  1.00  0.00    -0.000 C 
BRANCH  29  30
ATOM     30  C   UNL     1      36.146 105.439 261.026  1.00  0.00    -0.000 C 
BRANCH  30  31
ATOM     31  C   UNL     1      35.739 104.020 261.463  1.00  0.00    -0.003 C 
ATOM     32  C   UNL     1      35.084 103.982 262.843  1.00  0.00     0.004 C 
ENDBRANCH  30  31
ENDBRANCH  29  30
ENDBRANCH  28  29
ENDBRANCH  27  28
ENDBRANCH  26  27
ENDBRANCH  25  26
ENDBRANCH  24  25
ENDBRANCH  23  24
ENDBRANCH  22  23
ENDBRANCH  21  22
ENDBRANCH  20  21
ENDBRANCH  19  20
ENDBRANCH  18  19
ENDBRANCH   1  18
TORSDOF 28
ENDMDL
MODEL 6
REMARK VINA RESULT:    12.130      3.499     10.339
REMARK INTER + INTRA:          30.884
REMARK INTER:                  25.026
REMARK INTRA:                   5.858
REMARK UNBOUND:                -1.101
REMARK SMILES CCCCCCCCCCCCCCCCCCCCCCCCCCCCCC(=O)[O-]
REMARK SMILES IDX 16 1 17 2 18 3 19 4 20 5 21 6 22 7 23 8 24 9 25 10 26 11
REMARK SMILES IDX 27 12 28 13 29 14 30 15 31 16 32 17 15 18 14 19 13 20 12 21
REMARK SMILES IDX 11 22 10 23 9 24 8 25 7 26 6 27 5 28 4 29 3 30 2 31 1 32
REMARK H PARENT
REMARK Flexibility Score: inf
ROOT
ATOM      1  C   UNL     1      36.702 104.395 265.668  1.00  0.00     0.000 C 
ENDROOT
BRANCH   1   2
ATOM      2  C   UNL     1      36.809 103.662 264.324  1.00  0.00     0.000 C 
BRANCH   2   3
ATOM      3  C   UNL     1      35.505 103.740 263.499  1.00  0.00     0.000 C 
BRANCH   3   4
ATOM      4  C   UNL     1      35.710 103.709 261.971  1.00  0.00     0.000 C 
BRANCH   4   5
ATOM      5  C   UNL     1      36.345 104.970 261.353  1.00  0.00     0.000 C 
BRANCH   5   6
ATOM      6  C   UNL     1      37.308 104.712 260.178  1.00  0.00     0.000 C 
BRANCH   6   7
ATOM      7  C   UNL     1      37.453 105.916 259.237  1.00  0.00     0.000 C 
BRANCH   7   8
ATOM      8  C   UNL     1      36.697 107.135 259.787  1.00  0.00     0.000 C 
BRANCH   8   9
ATOM      9  C   UNL     1      36.825 107.223 261.315  1.00  0.00     0.000 C 
BRANCH   9  10
ATOM     10  C   UNL     1      35.461 107.255 262.031  1.00  0.00     0.000 C 
BRANCH  10  11
ATOM     11  C   UNL     1      35.518 107.590 263.534  1.00  0.00     0.000 C 
BRANCH  11  12
ATOM     12  C   UNL     1      36.916 107.386 264.140  1.00  0.00     0.000 C 
BRANCH  12  13
ATOM     13  C   UNL     1      38.045 107.692 263.134  1.00  0.00     0.006 C 
BRANCH  13  14
ATOM     14  C   UNL     1      39.245 106.738 263.245  1.00  0.00     0.053 C 
BRANCH  14  15
ATOM     15  C   UNL     1      40.169 106.834 262.071  1.00  0.00     0.041 C 
ATOM     16  O   UNL     1      40.442 107.955 261.568  1.00  0.00    -0.550 OA
ATOM     17  O   UNL     1      40.711 105.682 261.513  1.00  0.00    -0.550 OA
ENDBRANCH  14  15
ENDBRANCH  13  14
ENDBRANCH  12  13
ENDBRANCH  11  12
ENDBRANCH  10  11
ENDBRANCH   9  10
ENDBRANCH   8   9
ENDBRANCH   7   8
ENDBRANCH   6   7
ENDBRANCH   5   6
ENDBRANCH   4   5
ENDBRANCH   3   4
ENDBRANCH   2   3
ENDBRANCH   1   2
BRANCH   1  18
ATOM     18  C   UNL     1      35.339 105.088 265.832  1.00  0.00     0.000 C 
BRANCH  18  19
ATOM     19  C   UNL     1      34.907 105.207 267.305  1.00  0.00     0.000 C 
BRANCH  19  20
ATOM     20  C   UNL     1      34.886 106.636 267.888  1.00  0.00     0.000 C 
BRANCH  20  21
ATOM     21  C   UNL     1      34.877 107.760 266.832  1.00  0.00     0.000 C 
BRANCH  21  22
ATOM     22  C   UNL     1      35.631 109.027 267.277  1.00  0.00     0.000 C 
BRANCH  22  23
ATOM     23  C   UNL     1      35.515 109.293 268.789  1.00  0.00     0.000 C 
BRANCH  23  24
ATOM     24  C   UNL     1      34.929 108.106 269.585  1.00  0.00    -0.000 C 
BRANCH  24  25
ATOM     25  C   UNL     1      36.015 107.086 269.987  1.00  0.00    -0.000 C 
BRANCH  25  26
ATOM     26  C   UNL     1      36.977 107.630 271.058  1.00  0.00    -0.000 C 
BRANCH  26  27
ATOM     27  C   UNL     1      38.299 106.843 271.187  1.00  0.00    -0.000 C 
BRANCH  27  28
ATOM     28  C   UNL     1      38.319 105.851 272.369  1.00  0.00    -0.000 C 
BRANCH  28  29
ATOM     29  C   UNL     1      39.264 104.647 272.191  1.00  0.00    -0.000 C 
BRANCH  29  30
ATOM     30  C   UNL     1      39.114 103.539 273.256  1.00  0.00    -0.000 C 
BRANCH  30  31
ATOM     31  C   UNL     1      38.066 103.826 274.346  1.00  0.00    -0.003 C 
ATOM     32  C   UNL     1      38.377 103.135 275.673  1.00  0.00     0.004 C 
ENDBRANCH  30  31
ENDBRANCH  29  30
ENDBRANCH  28  29
ENDBRANCH  27  28
ENDBRANCH  26  27
ENDBRANCH  25  26
ENDBRANCH  24  25
ENDBRANCH  23  24
ENDBRANCH  22  23
ENDBRANCH  21  22
ENDBRANCH  20  21
ENDBRANCH  19  20
ENDBRANCH  18  19
ENDBRANCH   1  18
TORSDOF 28
ENDMDL
MODEL 7
REMARK VINA RESULT:    12.195      4.314     11.965
REMARK INTER + INTRA:          31.056
REMARK INTER:                  30.234
REMARK INTRA:                   0.821
REMARK UNBOUND:                -1.101
REMARK SMILES CCCCCCCCCCCCCCCCCCCCCCCCCCCCCC(=O)[O-]
REMARK SMILES IDX 16 1 17 2 18 3 19 4 20 5 21 6 22 7 23 8 24 9 25 10 26 11
REMARK SMILES IDX 27 12 28 13 29 14 30 15 31 16 32 17 15 18 14 19 13 20 12 21
REMARK SMILES IDX 11 22 10 23 9 24 8 25 7 26 6 27 5 28 4 29 3 30 2 31 1 32
REMARK H PARENT
REMARK Flexibility Score: inf
ROOT
ATOM      1  C   UNL     1      35.595 107.435 266.763  1.00  0.00     0.000 C 
ENDROOT
BRANCH   1   2
ATOM      2  C   UNL     1      35.046 106.114 266.207  1.00  0.00     0.000 C 
BRANCH   2   3
ATOM      3  C   UNL     1      36.100 105.327 265.398  1.00  0.00     0.000 C 
BRANCH   3   4
ATOM      4  C   UNL     1      35.513 104.371 264.340  1.00  0.00     0.000 C 
BRANCH   4   5
ATOM      5  C   UNL     1      35.187 105.002 262.971  1.00  0.00     0.000 C 
BRANCH   5   6
ATOM      6  C   UNL     1      36.227 106.010 262.448  1.00  0.00     0.000 C 
BRANCH   6   7
ATOM      7  C   UNL     1      36.483 107.175 263.415  1.00  0.00     0.000 C 
BRANCH   7   8
ATOM      8  C   UNL     1      37.958 107.217 263.843  1.00  0.00     0.000 C 
BRANCH   8   9
ATOM      9  C   UNL     1      38.861 107.633 262.673  1.00  0.00     0.000 C 
BRANCH   9  10
ATOM     10  C   UNL     1      39.287 106.442 261.791  1.00  0.00     0.000 C 
BRANCH  10  11
ATOM     11  C   UNL     1      38.808 106.507 260.328  1.00  0.00     0.000 C 
BRANCH  11  12
ATOM     12  C   UNL     1      38.562 105.118 259.716  1.00  0.00     0.000 C 
BRANCH  12  13
ATOM     13  C   UNL     1      37.978 105.198 258.290  1.00  0.00     0.006 C 
BRANCH  13  14
ATOM     14  C   UNL     1      37.532 106.611 257.884  1.00  0.00     0.053 C 
BRANCH  14  15
ATOM     15  C   UNL     1      36.353 107.092 258.671  1.00  0.00     0.041 C 
ATOM     16  O   UNL     1      35.660 106.281 259.339  1.00  0.00    -0.550 OA
ATOM     17  O   UNL     1      36.001 108.438 258.650  1.00  0.00    -0.550 OA
ENDBRANCH  14  15
ENDBRANCH  13  14
ENDBRANCH  12  13
ENDBRANCH  11  12
ENDBRANCH  10  11
ENDBRANCH   9  10
ENDBRANCH   8   9
ENDBRANCH   7   8
ENDBRANCH   6   7
ENDBRANCH   5   6
ENDBRANCH   4   5
ENDBRANCH   3   4
ENDBRANCH   2   3
ENDBRANCH   1   2
BRANCH   1  18
ATOM     18  C   UNL     1      35.038 107.736 268.165  1.00  0.00     0.000 C 
BRANCH  18  19
ATOM     19  C   UNL     1      35.115 106.520 269.107  1.00  0.00     0.000 C 
BRANCH  19  20
ATOM     20  C   UNL     1      35.351 106.839 270.600  1.00  0.00     0.000 C 
BRANCH  20  21
ATOM     21  C   UNL     1      36.637 107.639 270.890  1.00  0.00     0.000 C 
BRANCH  21  22
ATOM     22  C   UNL     1      37.924 106.908 270.464  1.00  0.00     0.000 C 
BRANCH  22  23
ATOM     23  C   UNL     1      38.534 106.060 271.595  1.00  0.00     0.000 C 
BRANCH  23  24
ATOM     24  C   UNL     1      37.515 105.132 272.294  1.00  0.00    -0.000 C 
BRANCH  24  25
ATOM     25  C   UNL     1      38.183 103.862 272.858  1.00  0.00    -0.000 C 
BRANCH  25  26
ATOM     26  C   UNL     1      39.612 104.115 273.371  1.00  0.00    -0.000 C 
BRANCH  26  27
ATOM     27  C   UNL     1      40.587 102.938 273.153  1.00  0.00    -0.000 C 
BRANCH  27  28
ATOM     28  C   UNL     1      42.019 103.379 272.784  1.00  0.00    -0.000 C 
BRANCH  28  29
ATOM     29  C   UNL     1      42.918 103.739 273.984  1.00  0.00    -0.000 C 
BRANCH  29  30
ATOM     30  C   UNL     1      44.405 103.965 273.639  1.00  0.00    -0.000 C 
BRANCH  30  31
ATOM     31  C   UNL     1      45.398 103.507 274.721  1.00  0.00    -0.003 C 
ATOM     32  C   UNL     1      44.752 102.639 275.800  1.00  0.00     0.004 C 
ENDBRANCH  30  31
ENDBRANCH  29  30
ENDBRANCH  28  29
ENDBRANCH  27  28
ENDBRANCH  26  27
ENDBRANCH  25  26
ENDBRANCH  24  25
ENDBRANCH  23  24
ENDBRANCH  22  23
ENDBRANCH  21  22
ENDBRANCH  20  21
ENDBRANCH  19  20
ENDBRANCH  18  19
ENDBRANCH   1  18
TORSDOF 28
ENDMDL
