MODEL 1
REMARK VINA RESULT:    -4.488      0.000      0.000
REMARK INTER + INTRA:          -7.315
REMARK INTER:                  -6.587
REMARK INTRA:                  -0.728
REMARK UNBOUND:                -0.728
REMARK SMILES O=C([O-])CCCCCCCC(=O)[O-]
REMARK SMILES IDX 7 1 6 2 5 3 4 4 2 5 1 6 3 7 8 8 9 9 10 10 11 11 12 12 13 13
REMARK H PARENT
REMARK Flexibility Score: inf
ROOT
ATOM      1  C   UNL     1      59.849  38.198  38.660  1.00  0.00     0.000 C 
ENDROOT
BRANCH   1   2
ATOM      2  C   UNL     1      61.216  38.815  38.339  1.00  0.00     0.000 C 
BRANCH   2   3
ATOM      3  C   UNL     1      61.101  39.857  37.221  1.00  0.00     0.006 C 
BRANCH   3   4
ATOM      4  C   UNL     1      62.103  39.569  36.098  1.00  0.00     0.053 C 
BRANCH   4   5
ATOM      5  C   UNL     1      61.465  38.740  35.028  1.00  0.00     0.041 C 
ATOM      6  O   UNL     1      60.857  39.295  34.075  1.00  0.00    -0.550 OA
ATOM      7  O   UNL     1      61.584  37.357  35.057  1.00  0.00    -0.550 OA
ENDBRANCH   4   5
ENDBRANCH   3   4
ENDBRANCH   2   3
ENDBRANCH   1   2
BRANCH   1   8
ATOM      8  C   UNL     1      58.740  38.858  37.833  1.00  0.00     0.000 C 
BRANCH   8   9
ATOM      9  C   UNL     1      57.767  37.810  37.280  1.00  0.00     0.006 C 
BRANCH   9  10
ATOM     10  C   UNL     1      58.060  37.510  35.807  1.00  0.00     0.053 C 
BRANCH  10  11
ATOM     11  C   UNL     1      57.094  38.232  34.922  1.00  0.00     0.041 C 
ATOM     12  O   UNL     1      57.488  39.183  34.196  1.00  0.00    -0.550 OA
ATOM     13  O   UNL     1      55.767  37.824  34.863  1.00  0.00    -0.550 OA
ENDBRANCH  10  11
ENDBRANCH   9  10
ENDBRANCH   8   9
ENDBRANCH   1   8
TORSDOF 8
ENDMDL
MODEL 2
REMARK VINA RESULT:    -4.438      2.372      4.472
REMARK INTER + INTRA:          -7.242
REMARK INTER:                  -6.362
REMARK INTRA:                  -0.880
REMARK UNBOUND:                -0.728
REMARK SMILES O=C([O-])CCCCCCCC(=O)[O-]
REMARK SMILES IDX 7 1 6 2 5 3 4 4 2 5 1 6 3 7 8 8 9 9 10 10 11 11 12 12 13 13
REMARK H PARENT
REMARK Flexibility Score: inf
ROOT
ATOM      1  C   UNL     1      57.904  40.015  35.029  1.00  0.00     0.000 C 
ENDROOT
BRANCH   1   2
ATOM      2  C   UNL     1      57.480  38.882  34.087  1.00  0.00     0.000 C 
BRANCH   2   3
ATOM      3  C   UNL     1      57.888  37.516  34.650  1.00  0.00     0.006 C 
BRANCH   3   4
ATOM      4  C   UNL     1      59.243  37.074  34.087  1.00  0.00     0.053 C 
BRANCH   4   5
ATOM      5  C   UNL     1      60.204  36.788  35.199  1.00  0.00     0.041 C 
ATOM      6  O   UNL     1      59.777  36.409  36.322  1.00  0.00    -0.550 OA
ATOM      7  O   UNL     1      61.570  36.892  34.980  1.00  0.00    -0.550 OA
ENDBRANCH   4   5
ENDBRANCH   3   4
ENDBRANCH   2   3
ENDBRANCH   1   2
BRANCH   1   8
ATOM      8  C   UNL     1      59.091  40.796  34.453  1.00  0.00     0.000 C 
BRANCH   8   9
ATOM      9  C   UNL     1      60.374  40.511  35.242  1.00  0.00     0.006 C 
BRANCH   9  10
ATOM     10  C   UNL     1      60.053  40.049  36.666  1.00  0.00     0.053 C 
BRANCH  10  11
ATOM     11  C   UNL     1      61.297  39.598  37.363  1.00  0.00     0.041 C 
ATOM     12  O   UNL     1      62.428  39.961  36.942  1.00  0.00    -0.550 OA
ATOM     13  O   UNL     1      61.208  38.817  38.509  1.00  0.00    -0.550 OA
ENDBRANCH  10  11
ENDBRANCH   9  10
ENDBRANCH   8   9
ENDBRANCH   1   8
TORSDOF 8
ENDMDL
MODEL 3
REMARK VINA RESULT:    -4.434      0.923      4.036
REMARK INTER + INTRA:          -7.235
REMARK INTER:                  -6.525
REMARK INTRA:                  -0.710
REMARK UNBOUND:                -0.728
REMARK SMILES O=C([O-])CCCCCCCC(=O)[O-]
REMARK SMILES IDX 7 1 6 2 5 3 4 4 2 5 1 6 3 7 8 8 9 9 10 10 11 11 12 12 13 13
REMARK H PARENT
REMARK Flexibility Score: inf
ROOT
ATOM      1  C   UNL     1      59.484  38.276  38.744  1.00  0.00     0.000 C 
ENDROOT
BRANCH   1   2
ATOM      2  C   UNL     1      58.406  38.811  37.794  1.00  0.00     0.000 C 
BRANCH   2   3
ATOM      3  C   UNL     1      57.701  37.665  37.061  1.00  0.00     0.006 C 
BRANCH   3   4
ATOM      4  C   UNL     1      58.150  37.590  35.598  1.00  0.00     0.053 C 
BRANCH   4   5
ATOM      5  C   UNL     1      57.113  38.190  34.701  1.00  0.00     0.041 C 
ATOM      6  O   UNL     1      57.428  39.101  33.890  1.00  0.00    -0.550 OA
ATOM      7  O   UNL     1      55.811  37.709  34.726  1.00  0.00    -0.550 OA
ENDBRANCH   4   5
ENDBRANCH   3   4
ENDBRANCH   2   3
ENDBRANCH   1   2
BRANCH   1   8
ATOM      8  C   UNL     1      60.868  38.317  38.086  1.00  0.00     0.000 C 
BRANCH   8   9
ATOM      9  C   UNL     1      61.176  39.715  37.537  1.00  0.00     0.006 C 
BRANCH   9  10
ATOM     10  C   UNL     1      61.958  39.629  36.222  1.00  0.00     0.053 C 
BRANCH  10  11
ATOM     11  C   UNL     1      61.115  40.099  35.080  1.00  0.00     0.041 C 
ATOM     12  O   UNL     1      61.425  39.796  33.897  1.00  0.00    -0.550 OA
ATOM     13  O   UNL     1      59.958  40.830  35.323  1.00  0.00    -0.550 OA
ENDBRANCH  10  11
ENDBRANCH   9  10
ENDBRANCH   8   9
ENDBRANCH   1   8
TORSDOF 8
ENDMDL
MODEL 4
REMARK VINA RESULT:    -4.425      2.396      4.854
REMARK INTER + INTRA:          -7.223
REMARK INTER:                  -6.451
REMARK INTRA:                  -0.772
REMARK UNBOUND:                -0.728
REMARK SMILES O=C([O-])CCCCCCCC(=O)[O-]
REMARK SMILES IDX 7 1 6 2 5 3 4 4 2 5 1 6 3 7 8 8 9 9 10 10 11 11 12 12 13 13
REMARK H PARENT
REMARK Flexibility Score: inf
ROOT
ATOM      1  C   UNL     1      59.897  36.823  36.637  1.00  0.00     0.000 C 
ENDROOT
BRANCH   1   2
ATOM      2  C   UNL     1      58.691  37.263  35.797  1.00  0.00     0.000 C 
BRANCH   2   3
ATOM      3  C   UNL     1      57.895  38.360  36.512  1.00  0.00     0.006 C 
BRANCH   3   4
ATOM      4  C   UNL     1      58.271  38.434  37.996  1.00  0.00     0.053 C 
BRANCH   4   5
ATOM      5  C   UNL     1      57.117  38.014  38.851  1.00  0.00     0.041 C 
ATOM      6  O   UNL     1      56.169  37.352  38.353  1.00  0.00    -0.550 OA
ATOM      7  O   UNL     1      57.113  38.311  40.207  1.00  0.00    -0.550 OA
ENDBRANCH   4   5
ENDBRANCH   3   4
ENDBRANCH   2   3
ENDBRANCH   1   2
BRANCH   1   8
ATOM      8  C   UNL     1      61.155  36.694  35.770  1.00  0.00     0.000 C 
BRANCH   8   9
ATOM      9  C   UNL     1      61.246  37.842  34.758  1.00  0.00     0.006 C 
BRANCH   9  10
ATOM     10  C   UNL     1      62.097  38.992  35.305  1.00  0.00     0.053 C 
BRANCH  10  11
ATOM     11  C   UNL     1      61.228  40.042  35.919  1.00  0.00     0.041 C 
ATOM     12  O   UNL     1      60.470  40.741  35.194  1.00  0.00    -0.550 OA
ATOM     13  O   UNL     1      61.216  40.217  37.297  1.00  0.00    -0.550 OA
ENDBRANCH  10  11
ENDBRANCH   9  10
ENDBRANCH   8   9
ENDBRANCH   1   8
TORSDOF 8
ENDMDL
MODEL 5
REMARK VINA RESULT:    -4.414      2.382      3.163
REMARK INTER + INTRA:          -7.206
REMARK INTER:                  -6.381
REMARK INTRA:                  -0.824
REMARK UNBOUND:                -0.728
REMARK SMILES O=C([O-])CCCCCCCC(=O)[O-]
REMARK SMILES IDX 7 1 6 2 5 3 4 4 2 5 1 6 3 7 8 8 9 9 10 10 11 11 12 12 13 13
REMARK H PARENT
REMARK Flexibility Score: inf
ROOT
ATOM      1  C   UNL     1      59.793  36.621  36.162  1.00  0.00     0.000 C 
ENDROOT
BRANCH   1   2
ATOM      2  C   UNL     1      61.224  36.856  35.664  1.00  0.00     0.000 C 
BRANCH   2   3
ATOM      3  C   UNL     1      61.290  38.071  34.732  1.00  0.00     0.006 C 
BRANCH   3   4
ATOM      4  C   UNL     1      62.133  39.192  35.349  1.00  0.00     0.053 C 
BRANCH   4   5
ATOM      5  C   UNL     1      61.287  40.062  36.225  1.00  0.00     0.041 C 
ATOM      6  O   UNL     1      60.350  40.741  35.727  1.00  0.00    -0.550 OA
ATOM      7  O   UNL     1      61.502  40.084  37.596  1.00  0.00    -0.550 OA
ENDBRANCH   4   5
ENDBRANCH   3   4
ENDBRANCH   2   3
ENDBRANCH   1   2
BRANCH   1   8
ATOM      8  C   UNL     1      58.786  37.451  35.358  1.00  0.00     0.000 C 
BRANCH   8   9
ATOM      9  C   UNL     1      57.839  38.219  36.287  1.00  0.00     0.006 C 
BRANCH   9  10
ATOM     10  C   UNL     1      58.312  38.142  37.742  1.00  0.00     0.053 C 
BRANCH  10  11
ATOM     11  C   UNL     1      57.144  38.008  38.666  1.00  0.00     0.041 C 
ATOM     12  O   UNL     1      56.110  37.391  38.296  1.00  0.00    -0.550 OA
ATOM     13  O   UNL     1      57.215  38.521  39.956  1.00  0.00    -0.550 OA
ENDBRANCH  10  11
ENDBRANCH   9  10
ENDBRANCH   8   9
ENDBRANCH   1   8
TORSDOF 8
ENDMDL
MODEL 6
REMARK VINA RESULT:    -4.398      1.852      2.523
REMARK INTER + INTRA:          -7.182
REMARK INTER:                  -6.465
REMARK INTRA:                  -0.717
REMARK UNBOUND:                -0.728
REMARK SMILES O=C([O-])CCCCCCCC(=O)[O-]
REMARK SMILES IDX 7 1 6 2 5 3 4 4 2 5 1 6 3 7 8 8 9 9 10 10 11 11 12 12 13 13
REMARK H PARENT
REMARK Flexibility Score: inf
ROOT
ATOM      1  C   UNL     1      60.228  36.786  35.015  1.00  0.00     0.000 C 
ENDROOT
BRANCH   1   2
ATOM      2  C   UNL     1      61.621  37.369  35.279  1.00  0.00     0.000 C 
BRANCH   2   3
ATOM      3  C   UNL     1      61.646  38.878  35.013  1.00  0.00     0.006 C 
BRANCH   3   4
ATOM      4  C   UNL     1      62.369  39.623  36.140  1.00  0.00     0.053 C 
BRANCH   4   5
ATOM      5  C   UNL     1      61.487  39.732  37.345  1.00  0.00     0.041 C 
ATOM      6  O   UNL     1      60.269  40.024  37.214  1.00  0.00    -0.550 OA
ATOM      7  O   UNL     1      62.000  39.463  38.607  1.00  0.00    -0.550 OA
ENDBRANCH   4   5
ENDBRANCH   3   4
ENDBRANCH   2   3
ENDBRANCH   1   2
BRANCH   1   8
ATOM      8  C   UNL     1      59.387  36.766  36.297  1.00  0.00     0.000 C 
BRANCH   8   9
ATOM      9  C   UNL     1      58.040  37.468  36.085  1.00  0.00     0.006 C 
BRANCH   9  10
ATOM     10  C   UNL     1      57.814  37.787  34.604  1.00  0.00     0.053 C 
BRANCH  10  11
ATOM     11  C   UNL     1      57.162  39.124  34.450  1.00  0.00     0.041 C 
ATOM     12  O   UNL     1      57.828  40.179  34.624  1.00  0.00    -0.550 OA
ATOM     13  O   UNL     1      55.829  39.208  34.066  1.00  0.00    -0.550 OA
ENDBRANCH  10  11
ENDBRANCH   9  10
ENDBRANCH   8   9
ENDBRANCH   1   8
TORSDOF 8
ENDMDL
MODEL 7
REMARK VINA RESULT:    -4.397     19.235     20.919
REMARK INTER + INTRA:          -7.181
REMARK INTER:                  -6.530
REMARK INTRA:                  -0.651
REMARK UNBOUND:                -0.728
REMARK SMILES O=C([O-])CCCCCCCC(=O)[O-]
REMARK SMILES IDX 7 1 6 2 5 3 4 4 2 5 1 6 3 7 8 8 9 9 10 10 11 11 12 12 13 13
REMARK H PARENT
REMARK Flexibility Score: inf
ROOT
ATOM      1  C   UNL     1      48.982  34.685  50.950  1.00  0.00     0.000 C 
ENDROOT
BRANCH   1   2
ATOM      2  C   UNL     1      48.383  35.976  50.380  1.00  0.00     0.000 C 
BRANCH   2   3
ATOM      3  C   UNL     1      46.998  36.251  50.976  1.00  0.00     0.006 C 
BRANCH   3   4
ATOM      4  C   UNL     1      45.901  36.074  49.920  1.00  0.00     0.053 C 
BRANCH   4   5
ATOM      5  C   UNL     1      44.627  36.714  50.376  1.00  0.00     0.041 C 
ATOM      6  O   UNL     1      43.617  36.720  49.625  1.00  0.00    -0.550 OA
ATOM      7  O   UNL     1      44.542  37.261  51.650  1.00  0.00    -0.550 OA
ENDBRANCH   4   5
ENDBRANCH   3   4
ENDBRANCH   2   3
ENDBRANCH   1   2
BRANCH   1   8
ATOM      8  C   UNL     1      48.894  34.667  52.481  1.00  0.00     0.000 C 
BRANCH   8   9
ATOM      9  C   UNL     1      48.623  33.250  53.000  1.00  0.00     0.006 C 
BRANCH   9  10
ATOM     10  C   UNL     1      47.446  33.239  53.980  1.00  0.00     0.053 C 
BRANCH  10  11
ATOM     11  C   UNL     1      46.169  33.556  53.268  1.00  0.00     0.041 C 
ATOM     12  O   UNL     1      45.415  34.470  53.695  1.00  0.00    -0.550 OA
ATOM     13  O   UNL     1      45.834  32.875  52.104  1.00  0.00    -0.550 OA
ENDBRANCH  10  11
ENDBRANCH   9  10
ENDBRANCH   8   9
ENDBRANCH   1   8
TORSDOF 8
ENDMDL
MODEL 8
REMARK VINA RESULT:    -4.290      3.429      4.160
REMARK INTER + INTRA:          -7.023
REMARK INTER:                  -6.611
REMARK INTRA:                  -0.413
REMARK UNBOUND:                -0.728
REMARK SMILES O=C([O-])CCCCCCCC(=O)[O-]
REMARK SMILES IDX 7 1 6 2 5 3 4 4 2 5 1 6 3 7 8 8 9 9 10 10 11 11 12 12 13 13
REMARK H PARENT
REMARK Flexibility Score: inf
ROOT
ATOM      1  C   UNL     1      58.249  38.464  38.343  1.00  0.00     0.000 C 
ENDROOT
BRANCH   1   2
ATOM      2  C   UNL     1      59.370  38.729  37.331  1.00  0.00     0.000 C 
BRANCH   2   3
ATOM      3  C   UNL     1      60.549  37.775  37.553  1.00  0.00     0.006 C 
BRANCH   3   4
ATOM      4  C   UNL     1      60.502  36.604  36.566  1.00  0.00     0.053 C 
BRANCH   4   5
ATOM      5  C   UNL     1      60.580  37.104  35.157  1.00  0.00     0.041 C 
ATOM      6  O   UNL     1      61.621  37.683  34.749  1.00  0.00    -0.550 OA
ATOM      7  O   UNL     1      59.524  36.886  34.283  1.00  0.00    -0.550 OA
ENDBRANCH   4   5
ENDBRANCH   3   4
ENDBRANCH   2   3
ENDBRANCH   1   2
BRANCH   1   8
ATOM      8  C   UNL     1      57.101  37.676  37.700  1.00  0.00     0.000 C 
BRANCH   8   9
ATOM      9  C   UNL     1      56.054  37.275  38.746  1.00  0.00     0.006 C 
BRANCH   9  10
ATOM     10  C   UNL     1      56.418  37.826  40.128  1.00  0.00     0.053 C 
BRANCH  10  11
ATOM     11  C   UNL     1      55.534  37.232  41.178  1.00  0.00     0.041 C 
ATOM     12  O   UNL     1      55.848  36.145  41.731  1.00  0.00    -0.550 OA
ATOM     13  O   UNL     1      54.387  37.903  41.583  1.00  0.00    -0.550 OA
ENDBRANCH  10  11
ENDBRANCH   9  10
ENDBRANCH   8   9
ENDBRANCH   1   8
TORSDOF 8
ENDMDL
MODEL 9
REMARK VINA RESULT:    -4.277      3.415      5.718
REMARK INTER + INTRA:          -7.005
REMARK INTER:                  -6.617
REMARK INTRA:                  -0.388
REMARK UNBOUND:                -0.728
REMARK SMILES O=C([O-])CCCCCCCC(=O)[O-]
REMARK SMILES IDX 7 1 6 2 5 3 4 4 2 5 1 6 3 7 8 8 9 9 10 10 11 11 12 12 13 13
REMARK H PARENT
REMARK Flexibility Score: inf
ROOT
ATOM      1  C   UNL     1      58.317  38.384  38.381  1.00  0.00     0.000 C 
ENDROOT
BRANCH   1   2
ATOM      2  C   UNL     1      57.137  37.673  37.707  1.00  0.00     0.000 C 
BRANCH   2   3
ATOM      3  C   UNL     1      56.063  37.297  38.734  1.00  0.00     0.006 C 
BRANCH   3   4
ATOM      4  C   UNL     1      56.379  37.902  40.106  1.00  0.00     0.053 C 
BRANCH   4   5
ATOM      5  C   UNL     1      55.447  37.360  41.144  1.00  0.00     0.041 C 
ATOM      6  O   UNL     1      54.457  38.040  41.523  1.00  0.00    -0.550 OA
ATOM      7  O   UNL     1      55.645  36.085  41.657  1.00  0.00    -0.550 OA
ENDBRANCH   4   5
ENDBRANCH   3   4
ENDBRANCH   2   3
ENDBRANCH   1   2
BRANCH   1   8
ATOM      8  C   UNL     1      59.383  38.777  37.352  1.00  0.00     0.000 C 
BRANCH   8   9
ATOM      9  C   UNL     1      60.603  37.852  37.441  1.00  0.00     0.006 C 
BRANCH   9  10
ATOM     10  C   UNL     1      60.428  36.622  36.547  1.00  0.00     0.053 C 
BRANCH  10  11
ATOM     11  C   UNL     1      60.537  37.002  35.105  1.00  0.00     0.041 C 
ATOM     12  O   UNL     1      61.634  37.408  34.637  1.00  0.00    -0.550 OA
ATOM     13  O   UNL     1      59.439  36.863  34.263  1.00  0.00    -0.550 OA
ENDBRANCH  10  11
ENDBRANCH   9  10
ENDBRANCH   8   9
ENDBRANCH   1   8
TORSDOF 8
ENDMDL
