MODEL 1
REMARK VINA RESULT:    -3.433      0.000      0.000
REMARK INTER + INTRA:          -4.777
REMARK INTER:                  -5.038
REMARK INTRA:                   0.261
REMARK UNBOUND:                 0.261
REMARK SMILES C=C1CC=CC(C)(C)CC=C(C)CCC1
REMARK SMILES IDX 2 1 1 2 15 3 14 4 13 5 11 6 12 7 10 8 3 10 4 11 5 12 6 13
REMARK SMILES IDX 7 14 8 15 9 16
REMARK H PARENT
REMARK Flexibility Score: 60.00
ROOT
ATOM      1  C   UNL     1       2.960  14.135  13.482  1.00  0.00    -0.074 C 
ATOM      2  C   UNL     1       4.153  14.247  12.872  1.00  0.00     0.008 C 
ENDROOT
BRANCH   1   3
ATOM      3  C   UNL     1       1.689  14.356  12.676  1.00  0.00     0.031 C 
BRANCH   3   4
ATOM      4  C   UNL     1       1.489  15.823  12.242  1.00  0.00     0.009 C 
BRANCH   4   5
ATOM      5  C   UNL     1       1.699  16.846  13.371  1.00  0.00     0.030 C 
BRANCH   5   6
ATOM      6  C   UNL     1       0.431  17.123  14.157  1.00  0.00    -0.077 C 
ATOM      7  C   UNL     1      -0.736  17.733  13.421  1.00  0.00     0.039 C 
ATOM      8  C   UNL     1       0.275  16.852  15.475  1.00  0.00    -0.027 CG0
ATOM      9  G   UNL     1       1.316  16.245  16.394  1.00  0.00     0.000 G0
ENDBRANCH   5   6
ENDBRANCH   4   5
ENDBRANCH   3   4
ENDBRANCH   1   3
BRANCH   1  10
ATOM     10  C   UNL     1       2.930  13.801  14.963  1.00  0.00     0.057 C 
BRANCH  10  11
ATOM     11  C   UNL     1       1.598  13.252  15.405  1.00  0.00    -0.026 C 
ATOM     12  C   UNL     1       0.760  13.738  16.348  1.00  0.00    -0.024 C 
BRANCH  12  13
ATOM     13  C   UNL     1       0.896  14.986  17.236  1.00  0.00    -0.014 C 
ATOM     14  C   UNL     1      -0.372  15.194  18.098  1.00  0.00     0.016 C 
ATOM     15  C   UNL     1       2.051  14.695  18.231  1.00  0.00     0.016 C 
BRANCH  13  16
ATOM     16  C   UNL     1       1.329  16.248  16.411  1.00  0.00     0.038 CG0
ATOM     17  G   UNL     1       0.284  16.825  15.477  1.00  0.00     0.000 G0
ENDBRANCH  13  16
ENDBRANCH  12  13
ENDBRANCH  10  11
ENDBRANCH   1  10
TORSDOF 0
ENDMDL
MODEL 2
REMARK VINA RESULT:    -3.350      1.011      3.710
REMARK INTER + INTRA:          -4.655
REMARK INTER:                  -5.080
REMARK INTRA:                   0.425
REMARK UNBOUND:                 0.261
REMARK SMILES C=C1CC=CC(C)(C)CC=C(C)CCC1
REMARK SMILES IDX 2 1 1 2 15 3 14 4 13 5 11 6 12 7 10 8 3 10 4 11 5 12 6 13
REMARK SMILES IDX 7 14 8 15 9 16
REMARK H PARENT
REMARK Flexibility Score: 60.00
ROOT
ATOM      1  C   UNL     1       3.232  14.149  13.353  1.00  0.00    -0.074 C 
ATOM      2  C   UNL     1       4.420  13.604  13.037  1.00  0.00     0.008 C 
ENDROOT
BRANCH   1   3
ATOM      3  C   UNL     1       2.288  13.391  14.275  1.00  0.00     0.031 C 
BRANCH   3   4
ATOM      4  C   UNL     1       2.482  13.738  15.765  1.00  0.00     0.009 C 
BRANCH   4   5
ATOM      5  C   UNL     1       1.203  14.217  16.471  1.00  0.00     0.030 C 
BRANCH   5   6
ATOM      6  C   UNL     1       1.224  15.702  16.784  1.00  0.00    -0.077 C 
ATOM      7  C   UNL     1       2.016  16.160  17.983  1.00  0.00     0.039 C 
ATOM      8  C   UNL     1       0.584  16.645  16.052  1.00  0.00    -0.027 CG0
ATOM      9  G   UNL     1      -0.262  16.401  14.818  1.00  0.00     0.000 G0
ENDBRANCH   5   6
ENDBRANCH   4   5
ENDBRANCH   3   4
ENDBRANCH   1   3
BRANCH   1  10
ATOM     10  C   UNL     1       2.873  15.503  12.765  1.00  0.00     0.057 C 
BRANCH  10  11
ATOM     11  C   UNL     1       1.549  15.489  12.047  1.00  0.00    -0.026 C 
ATOM     12  C   UNL     1       0.419  16.164  12.355  1.00  0.00    -0.024 C 
BRANCH  12  13
ATOM     13  C   UNL     1       0.144  17.149  13.504  1.00  0.00    -0.014 C 
ATOM     14  C   UNL     1       1.322  18.137  13.682  1.00  0.00     0.016 C 
ATOM     15  C   UNL     1      -1.074  18.005  13.069  1.00  0.00     0.016 C 
BRANCH  13  16
ATOM     16  C   UNL     1      -0.281  16.409  14.821  1.00  0.00     0.038 CG0
ATOM     17  G   UNL     1       0.591  16.655  16.035  1.00  0.00     0.000 G0
ENDBRANCH  13  16
ENDBRANCH  12  13
ENDBRANCH  10  11
ENDBRANCH   1  10
TORSDOF 0
ENDMDL
MODEL 3
REMARK VINA RESULT:    -3.341      1.387      4.243
REMARK INTER + INTRA:          -4.643
REMARK INTER:                  -5.201
REMARK INTRA:                   0.558
REMARK UNBOUND:                 0.261
REMARK SMILES C=C1CC=CC(C)(C)CC=C(C)CCC1
REMARK SMILES IDX 2 1 1 2 15 3 14 4 13 5 11 6 12 7 10 8 3 10 4 11 5 12 6 13
REMARK SMILES IDX 7 14 8 15 9 16
REMARK H PARENT
REMARK Flexibility Score: 60.00
ROOT
ATOM      1  C   UNL     1       0.425  13.878  17.468  1.00  0.00    -0.074 C 
ATOM      2  C   UNL     1       0.781  13.249  18.602  1.00  0.00     0.008 C 
ENDROOT
BRANCH   1   3
ATOM      3  C   UNL     1       0.295  13.074  16.183  1.00  0.00     0.031 C 
BRANCH   3   4
ATOM      4  C   UNL     1       1.655  12.691  15.563  1.00  0.00     0.009 C 
BRANCH   4   5
ATOM      5  C   UNL     1       1.689  12.764  14.028  1.00  0.00     0.030 C 
BRANCH   5   6
ATOM      6  C   UNL     1       2.502  13.938  13.513  1.00  0.00    -0.077 C 
ATOM      7  C   UNL     1       3.946  13.692  13.153  1.00  0.00     0.039 C 
ATOM      8  C   UNL     1       2.014  15.191  13.348  1.00  0.00    -0.027 CG0
ATOM      9  G   UNL     1       0.601  15.649  13.650  1.00  0.00     0.000 G0
ENDBRANCH   5   6
ENDBRANCH   4   5
ENDBRANCH   3   4
ENDBRANCH   1   3
BRANCH   1  10
ATOM     10  C   UNL     1       0.175  15.376  17.514  1.00  0.00     0.057 C 
BRANCH  10  11
ATOM     11  C   UNL     1       1.343  16.173  16.993  1.00  0.00    -0.026 C 
ATOM     12  C   UNL     1       1.470  16.794  15.800  1.00  0.00    -0.024 C 
BRANCH  12  13
ATOM     13  C   UNL     1       0.476  16.892  14.630  1.00  0.00    -0.014 C 
ATOM     14  C   UNL     1      -0.960  17.159  15.143  1.00  0.00     0.016 C 
ATOM     15  C   UNL     1       0.881  18.146  13.811  1.00  0.00     0.016 C 
BRANCH  13  16
ATOM     16  C   UNL     1       0.595  15.668  13.656  1.00  0.00     0.038 CG0
ATOM     17  G   UNL     1       2.000  15.179  13.369  1.00  0.00     0.000 G0
ENDBRANCH  13  16
ENDBRANCH  12  13
ENDBRANCH  10  11
ENDBRANCH   1  10
TORSDOF 0
ENDMDL
MODEL 4
REMARK VINA RESULT:    -3.321      1.509      3.603
REMARK INTER + INTRA:          -4.613
REMARK INTER:                  -4.968
REMARK INTRA:                   0.355
REMARK UNBOUND:                 0.261
REMARK SMILES C=C1CC=CC(C)(C)CC=C(C)CCC1
REMARK SMILES IDX 2 1 1 2 15 3 14 4 13 5 11 6 12 7 10 8 3 10 4 11 5 12 6 13
REMARK SMILES IDX 7 14 8 15 9 16
REMARK H PARENT
REMARK Flexibility Score: 60.00
ROOT
ATOM      1  C   UNL     1       1.103  16.160  17.097  1.00  0.00    -0.074 C 
ATOM      2  C   UNL     1       1.809  17.283  17.314  1.00  0.00     0.008 C 
ENDROOT
BRANCH   1   3
ATOM      3  C   UNL     1      -0.297  16.265  16.508  1.00  0.00     0.031 C 
BRANCH   3   4
ATOM      4  C   UNL     1      -0.472  17.474  15.566  1.00  0.00     0.009 C 
BRANCH   4   5
ATOM      5  C   UNL     1      -0.446  17.115  14.071  1.00  0.00     0.030 C 
BRANCH   5   6
ATOM      6  C   UNL     1       0.949  16.789  13.569  1.00  0.00    -0.077 C 
ATOM      7  C   UNL     1       1.860  17.939  13.219  1.00  0.00     0.039 C 
ATOM      8  C   UNL     1       1.432  15.532  13.421  1.00  0.00    -0.027 CG0
ATOM      9  G   UNL     1       0.687  14.245  13.712  1.00  0.00     0.000 G0
ENDBRANCH   5   6
ENDBRANCH   4   5
ENDBRANCH   3   4
ENDBRANCH   1   3
BRANCH   1  10
ATOM     10  C   UNL     1       1.729  14.825  17.459  1.00  0.00     0.057 C 
BRANCH  10  11
ATOM     11  C   UNL     1       0.830  13.659  17.138  1.00  0.00    -0.026 C 
ATOM     12  C   UNL     1       0.706  12.990  15.970  1.00  0.00    -0.024 C 
BRANCH  12  13
ATOM     13  C   UNL     1       1.440  13.199  14.634  1.00  0.00    -0.014 C 
ATOM     14  C   UNL     1       2.936  13.520  14.867  1.00  0.00     0.016 C 
ATOM     15  C   UNL     1       1.402  11.836  13.894  1.00  0.00     0.016 C 
BRANCH  13  16
ATOM     16  C   UNL     1       0.696  14.226  13.711  1.00  0.00     0.038 CG0
ATOM     17  G   UNL     1       1.437  15.515  13.416  1.00  0.00     0.000 G0
ENDBRANCH  13  16
ENDBRANCH  12  13
ENDBRANCH  10  11
ENDBRANCH   1  10
TORSDOF 0
ENDMDL
MODEL 5
REMARK VINA RESULT:    -3.256      1.487      3.475
REMARK INTER + INTRA:          -4.518
REMARK INTER:                  -4.769
REMARK INTRA:                   0.252
REMARK UNBOUND:                 0.261
REMARK SMILES C=C1CC=CC(C)(C)CC=C(C)CCC1
REMARK SMILES IDX 2 1 1 2 15 3 14 4 13 5 11 6 12 7 10 8 3 10 4 11 5 12 6 13
REMARK SMILES IDX 7 14 8 15 9 16
REMARK H PARENT
REMARK Flexibility Score: 60.00
ROOT
ATOM      1  C   UNL     1       0.554  16.855  14.443  1.00  0.00    -0.074 C 
ATOM      2  C   UNL     1       1.016  17.887  13.716  1.00  0.00     0.008 C 
ENDROOT
BRANCH   1   3
ATOM      3  C   UNL     1      -0.059  15.659  13.729  1.00  0.00     0.031 C 
BRANCH   3   4
ATOM      4  C   UNL     1       0.883  15.025  12.685  1.00  0.00     0.009 C 
BRANCH   4   5
ATOM      5  C   UNL     1       1.390  13.624  13.065  1.00  0.00     0.030 C 
BRANCH   5   6
ATOM      6  C   UNL     1       2.531  13.662  14.064  1.00  0.00    -0.077 C 
ATOM      7  C   UNL     1       3.917  13.950  13.542  1.00  0.00     0.039 C 
ATOM      8  C   UNL     1       2.387  13.462  15.396  1.00  0.00    -0.027 CG0
ATOM      9  G   UNL     1       1.091  13.160  16.121  1.00  0.00     0.000 G0
ENDBRANCH   5   6
ENDBRANCH   4   5
ENDBRANCH   3   4
ENDBRANCH   1   3
BRANCH   1  10
ATOM     10  C   UNL     1       0.653  16.929  15.957  1.00  0.00     0.057 C 
BRANCH  10  11
ATOM     11  C   UNL     1      -0.449  16.168  16.647  1.00  0.00    -0.026 C 
ATOM     12  C   UNL     1      -0.384  14.960  17.251  1.00  0.00    -0.024 C 
BRANCH  12  13
ATOM     13  C   UNL     1       0.814  14.013  17.431  1.00  0.00    -0.014 C 
ATOM     14  C   UNL     1       2.047  14.775  17.973  1.00  0.00     0.016 C 
ATOM     15  C   UNL     1       0.413  13.001  18.536  1.00  0.00     0.016 C 
BRANCH  13  16
ATOM     16  C   UNL     1       1.095  13.170  16.138  1.00  0.00     0.038 CG0
ATOM     17  G   UNL     1       2.390  13.474  15.412  1.00  0.00     0.000 G0
ENDBRANCH  13  16
ENDBRANCH  12  13
ENDBRANCH  10  11
ENDBRANCH   1  10
TORSDOF 0
ENDMDL
MODEL 6
REMARK VINA RESULT:    -3.215      1.327      4.095
REMARK INTER + INTRA:          -4.457
REMARK INTER:                  -4.955
REMARK INTRA:                   0.498
REMARK UNBOUND:                 0.261
REMARK SMILES C=C1CC=CC(C)(C)CC=C(C)CCC1
REMARK SMILES IDX 2 1 1 2 15 3 14 4 13 5 11 6 12 7 10 8 3 10 4 11 5 12 6 13
REMARK SMILES IDX 7 14 8 15 9 16
REMARK H PARENT
REMARK Flexibility Score: 60.00
ROOT
ATOM      1  C   UNL     1      -0.026  13.257  17.207  1.00  0.00    -0.074 C 
ATOM      2  C   UNL     1       0.517  12.742  18.324  1.00  0.00     0.008 C 
ENDROOT
BRANCH   1   3
ATOM      3  C   UNL     1      -1.022  14.402  17.325  1.00  0.00     0.031 C 
BRANCH   3   4
ATOM      4  C   UNL     1      -0.362  15.749  17.685  1.00  0.00     0.009 C 
BRANCH   4   5
ATOM      5  C   UNL     1       1.102  15.873  17.231  1.00  0.00     0.030 C 
BRANCH   5   6
ATOM      6  C   UNL     1       1.296  16.918  16.148  1.00  0.00    -0.077 C 
ATOM      7  C   UNL     1       1.727  18.301  16.570  1.00  0.00     0.039 C 
ATOM      8  C   UNL     1       1.113  16.689  14.825  1.00  0.00    -0.027 CG0
ATOM      9  G   UNL     1       0.681  15.381  14.194  1.00  0.00     0.000 G0
ENDBRANCH   5   6
ENDBRANCH   4   5
ENDBRANCH   3   4
ENDBRANCH   1   3
BRANCH   1  10
ATOM     10  C   UNL     1       0.372  12.667  15.865  1.00  0.00     0.057 C 
BRANCH  10  11
ATOM     11  C   UNL     1       1.844  12.812  15.582  1.00  0.00    -0.026 C 
ATOM     12  C   UNL     1       2.447  13.563  14.634  1.00  0.00    -0.024 C 
BRANCH  12  13
ATOM     13  C   UNL     1       1.831  14.495  13.578  1.00  0.00    -0.014 C 
ATOM     14  C   UNL     1       2.928  15.293  12.833  1.00  0.00     0.016 C 
ATOM     15  C   UNL     1       1.167  13.580  12.515  1.00  0.00     0.016 C 
BRANCH  13  16
ATOM     16  C   UNL     1       0.684  15.383  14.177  1.00  0.00     0.038 CG0
ATOM     17  G   UNL     1       1.117  16.682  14.827  1.00  0.00     0.000 G0
ENDBRANCH  13  16
ENDBRANCH  12  13
ENDBRANCH  10  11
ENDBRANCH   1  10
TORSDOF 0
ENDMDL
MODEL 7
REMARK VINA RESULT:    -3.061      1.695      3.577
REMARK INTER + INTRA:          -4.231
REMARK INTER:                  -4.775
REMARK INTRA:                   0.545
REMARK UNBOUND:                 0.261
REMARK SMILES C=C1CC=CC(C)(C)CC=C(C)CCC1
REMARK SMILES IDX 2 1 1 2 15 3 14 4 13 5 11 6 12 7 10 8 3 10 4 11 5 12 6 13
REMARK SMILES IDX 7 14 8 15 9 16
REMARK H PARENT
REMARK Flexibility Score: 60.00
ROOT
ATOM      1  C   UNL     1       0.521  16.785  16.324  1.00  0.00    -0.074 C 
ATOM      2  C   UNL     1       1.504  17.699  16.395  1.00  0.00     0.008 C 
ENDROOT
BRANCH   1   3
ATOM      3  C   UNL     1      -0.722  17.093  15.502  1.00  0.00     0.031 C 
BRANCH   3   4
ATOM      4  C   UNL     1      -0.433  17.969  14.265  1.00  0.00     0.009 C 
BRANCH   4   5
ATOM      5  C   UNL     1      -0.274  17.175  12.957  1.00  0.00     0.030 C 
BRANCH   5   6
ATOM      6  C   UNL     1       1.068  16.473  12.855  1.00  0.00    -0.077 C 
ATOM      7  C   UNL     1       2.240  17.264  12.330  1.00  0.00     0.039 C 
ATOM      8  C   UNL     1       1.284  15.185  13.212  1.00  0.00    -0.027 CG0
ATOM      9  G   UNL     1       0.250  14.220  13.758  1.00  0.00     0.000 G0
ENDBRANCH   5   6
ENDBRANCH   4   5
ENDBRANCH   3   4
ENDBRANCH   1   3
BRANCH   1  10
ATOM     10  C   UNL     1       0.686  15.478  17.080  1.00  0.00     0.057 C 
BRANCH  10  11
ATOM     11  C   UNL     1       1.874  14.682  16.607  1.00  0.00    -0.026 C 
ATOM     12  C   UNL     1       1.915  13.715  15.663  1.00  0.00    -0.024 C 
BRANCH  12  13
ATOM     13  C   UNL     1       0.786  13.148  14.786  1.00  0.00    -0.014 C 
ATOM     14  C   UNL     1       1.201  11.798  14.153  1.00  0.00     0.016 C 
ATOM     15  C   UNL     1      -0.396  12.832  15.740  1.00  0.00     0.016 C 
BRANCH  13  16
ATOM     16  C   UNL     1       0.255  14.206  13.757  1.00  0.00     0.038 CG0
ATOM     17  G   UNL     1       1.277  15.191  13.226  1.00  0.00     0.000 G0
ENDBRANCH  13  16
ENDBRANCH  12  13
ENDBRANCH  10  11
ENDBRANCH   1  10
TORSDOF 0
ENDMDL
MODEL 8
REMARK VINA RESULT:    -3.014      1.756      4.450
REMARK INTER + INTRA:          -4.163
REMARK INTER:                  -4.418
REMARK INTRA:                   0.255
REMARK UNBOUND:                 0.261
REMARK SMILES C=C1CC=CC(C)(C)CC=C(C)CCC1
REMARK SMILES IDX 2 1 1 2 15 3 14 4 13 5 11 6 12 7 10 8 3 10 4 11 5 12 6 13
REMARK SMILES IDX 7 14 8 15 9 16
REMARK H PARENT
REMARK Flexibility Score: 60.00
ROOT
ATOM      1  C   UNL     1       1.184  14.935  17.488  1.00  0.00    -0.074 C 
ATOM      2  C   UNL     1       2.247  14.644  18.258  1.00  0.00     0.008 C 
ENDROOT
BRANCH   1   3
ATOM      3  C   UNL     1       0.140  13.860  17.224  1.00  0.00     0.031 C 
BRANCH   3   4
ATOM      4  C   UNL     1       0.727  12.586  16.579  1.00  0.00     0.009 C 
BRANCH   4   5
ATOM      5  C   UNL     1       1.165  12.767  15.116  1.00  0.00     0.030 C 
BRANCH   5   6
ATOM      6  C   UNL     1       0.005  13.084  14.190  1.00  0.00    -0.077 C 
ATOM      7  C   UNL     1      -1.058  12.030  14.003  1.00  0.00     0.039 C 
ATOM      8  C   UNL     1      -0.143  14.255  13.525  1.00  0.00    -0.027 CG0
ATOM      9  G   UNL     1       0.804  15.437  13.571  1.00  0.00     0.000 G0
ENDBRANCH   5   6
ENDBRANCH   4   5
ENDBRANCH   3   4
ENDBRANCH   1   3
BRANCH   1  10
ATOM     10  C   UNL     1       1.072  16.331  16.900  1.00  0.00     0.057 C 
BRANCH  10  11
ATOM     11  C   UNL     1      -0.312  16.634  16.387  1.00  0.00    -0.026 C 
ATOM     12  C   UNL     1      -0.706  16.851  15.113  1.00  0.00    -0.024 C 
BRANCH  12  13
ATOM     13  C   UNL     1       0.116  16.843  13.813  1.00  0.00    -0.014 C 
ATOM     14  C   UNL     1      -0.725  17.361  12.622  1.00  0.00     0.016 C 
ATOM     15  C   UNL     1       1.262  17.869  14.011  1.00  0.00     0.016 C 
BRANCH  13  16
ATOM     16  C   UNL     1       0.801  15.455  13.563  1.00  0.00     0.038 CG0
ATOM     17  G   UNL     1      -0.122  14.254  13.515  1.00  0.00     0.000 G0
ENDBRANCH  13  16
ENDBRANCH  12  13
ENDBRANCH  10  11
ENDBRANCH   1  10
TORSDOF 0
ENDMDL
MODEL 9
REMARK VINA RESULT:    -2.912      1.509      3.750
REMARK INTER + INTRA:          -4.013
REMARK INTER:                  -4.867
REMARK INTRA:                   0.855
REMARK UNBOUND:                 0.261
REMARK SMILES C=C1CC=CC(C)(C)CC=C(C)CCC1
REMARK SMILES IDX 2 1 1 2 15 3 14 4 13 5 11 6 12 7 10 8 3 10 4 11 5 12 6 13
REMARK SMILES IDX 7 14 8 15 9 16
REMARK H PARENT
REMARK Flexibility Score: 60.00
ROOT
ATOM      1  C   UNL     1       1.300  15.806  16.734  1.00  0.00    -0.074 C 
ATOM      2  C   UNL     1       1.737  16.786  17.544  1.00  0.00     0.008 C 
ENDROOT
BRANCH   1   3
ATOM      3  C   UNL     1      -0.035  15.971  16.021  1.00  0.00     0.031 C 
BRANCH   3   4
ATOM      4  C   UNL     1      -0.339  17.431  15.626  1.00  0.00     0.009 C 
BRANCH   4   5
ATOM      5  C   UNL     1       0.437  17.922  14.393  1.00  0.00     0.030 C 
BRANCH   5   6
ATOM      6  C   UNL     1       0.159  17.091  13.154  1.00  0.00    -0.077 C 
ATOM      7  C   UNL     1      -1.074  17.417  12.348  1.00  0.00     0.039 C 
ATOM      8  C   UNL     1       0.949  16.081  12.720  1.00  0.00    -0.027 CG0
ATOM      9  G   UNL     1       2.224  15.593  13.379  1.00  0.00     0.000 G0
ENDBRANCH   5   6
ENDBRANCH   4   5
ENDBRANCH   3   4
ENDBRANCH   1   3
BRANCH   1  10
ATOM     10  C   UNL     1       2.156  14.562  16.569  1.00  0.00     0.057 C 
BRANCH  10  11
ATOM     11  C   UNL     1       1.490  13.511  15.719  1.00  0.00    -0.026 C 
ATOM     12  C   UNL     1       1.621  13.298  14.391  1.00  0.00    -0.024 C 
BRANCH  12  13
ATOM     13  C   UNL     1       2.484  14.039  13.356  1.00  0.00    -0.014 C 
ATOM     14  C   UNL     1       3.973  13.636  13.485  1.00  0.00     0.016 C 
ATOM     15  C   UNL     1       2.023  13.542  11.961  1.00  0.00     0.016 C 
BRANCH  13  16
ATOM     16  C   UNL     1       2.231  15.586  13.381  1.00  0.00     0.038 CG0
ATOM     17  G   UNL     1       0.950  16.063  12.726  1.00  0.00     0.000 G0
ENDBRANCH  13  16
ENDBRANCH  12  13
ENDBRANCH  10  11
ENDBRANCH   1  10
TORSDOF 0
ENDMDL
