MODEL 1
REMARK VINA RESULT:    -6.543      0.000      0.000
REMARK INTER + INTRA:         -10.405
REMARK INTER:                  -9.029
REMARK INTRA:                  -1.376
REMARK UNBOUND:                -1.376
REMARK SMILES O=C([O-])[C@@H]1O[C@@H](Oc2cc3oc(-c4ccccc4)cc(=O)c3c(O)c2O)[C@H](O)[C@H](O)[C@@H]1O
REMARK SMILES IDX 7 1 6 2 4 3 31 4 5 5 29 6 27 7 2 8 1 9 3 10 32 11 30 13
REMARK SMILES IDX 28 15 8 17 25 18 9 19 23 20 10 21 22 22 11 23 20 24 12 25
REMARK SMILES IDX 19 26 21 27 26 28 24 30 13 32 14 33 18 34 15 35 17 36 16 37
REMARK H PARENT 32 12 30 14 28 16 26 29 24 31
REMARK Flexibility Score: inf
ROOT
ATOM      1  O   UNL     1      15.846  14.611  14.544  1.00  0.00    -0.458 OA
ENDROOT
BRANCH   1   2
ATOM      2  C   UNL     1      16.414  15.905  14.785  1.00  0.00     0.339 C 
ATOM      3  C   UNL     1      14.899  16.944  13.320  1.00  0.00     0.199 C 
ATOM      4  C   UNL     1      15.983  17.358  12.305  1.00  0.00     0.180 C 
ATOM      5  O   UNL     1      15.422  16.910  14.641  1.00  0.00    -0.328 OA
ATOM      6  C   UNL     1      17.175  16.382  12.399  1.00  0.00     0.181 C 
ATOM      7  C   UNL     1      17.629  16.172  13.857  1.00  0.00     0.214 C 
BRANCH   3   8
ATOM      8  C   UNL     1      13.741  17.900  13.260  1.00  0.00     0.073 C 
ATOM      9  O   UNL     1      13.708  18.818  12.397  1.00  0.00    -0.547 OA
ATOM     10  O   UNL     1      12.679  17.755  14.144  1.00  0.00    -0.547 OA
ENDBRANCH   3   8
BRANCH   4  11
ATOM     11  O   UNL     1      16.399  18.678  12.558  1.00  0.00    -0.387 OA
ATOM     12  H   UNL     1      16.750  19.038  11.704  1.00  0.00     0.211 HD
ENDBRANCH   4  11
BRANCH   6  13
ATOM     13  O   UNL     1      18.253  16.835  11.620  1.00  0.00    -0.387 OA
ATOM     14  H   UNL     1      18.798  17.424  12.203  1.00  0.00     0.211 HD
ENDBRANCH   6  13
BRANCH   7  15
ATOM     15  O   UNL     1      18.395  17.263  14.315  1.00  0.00    -0.384 OA
ATOM     16  H   UNL     1      18.860  16.992  15.146  1.00  0.00     0.211 HD
ENDBRANCH   7  15
ENDBRANCH   1   2
BRANCH   1  17
ATOM     17  C   UNL     1      15.345  13.730  15.519  1.00  0.00     0.172 A 
ATOM     18  C   UNL     1      14.019  13.900  15.936  1.00  0.00     0.201 A 
ATOM     19  C   UNL     1      16.123  12.713  16.090  1.00  0.00     0.098 A 
ATOM     20  C   UNL     1      13.461  13.068  16.928  1.00  0.00     0.176 A 
ATOM     21  C   UNL     1      15.577  11.851  17.042  1.00  0.00     0.146 A 
ATOM     22  C   UNL     1      14.231  11.997  17.464  1.00  0.00     0.111 A 
ATOM     23  O   UNL     1      16.345  10.886  17.535  1.00  0.00    -0.456 OA
ATOM     24  C   UNL     1      13.740  11.029  18.374  1.00  0.00     0.197 A 
ATOM     25  C   UNL     1      15.923   9.999  18.429  1.00  0.00     0.138 A 
ATOM     26  C   UNL     1      14.594  10.044  18.868  1.00  0.00     0.100 A 
ATOM     27  O   UNL     1      12.534  11.003  18.735  1.00  0.00    -0.289 OA
BRANCH  18  28
ATOM     28  O   UNL     1      13.264  14.922  15.358  1.00  0.00    -0.502 OA
ATOM     29  H   UNL     1      12.354  14.761  14.941  1.00  0.00     0.293 HD
ENDBRANCH  18  28
BRANCH  20  30
ATOM     30  O   UNL     1      12.162  13.368  17.355  1.00  0.00    -0.504 OA
ATOM     31  H   UNL     1      11.938  13.944  18.152  1.00  0.00     0.293 HD
ENDBRANCH  20  30
BRANCH  25  32
ATOM     32  C   UNL     1      16.872   8.969  18.916  1.00  0.00     0.017 A 
ATOM     33  C   UNL     1      18.219   9.026  18.517  1.00  0.00     0.012 A 
ATOM     34  C   UNL     1      16.467   7.944  19.793  1.00  0.00     0.012 A 
ATOM     35  C   UNL     1      19.133   8.068  18.964  1.00  0.00     0.001 A 
ATOM     36  C   UNL     1      17.386   6.992  20.239  1.00  0.00     0.001 A 
ATOM     37  C   UNL     1      18.717   7.050  19.823  1.00  0.00     0.000 A 
ENDBRANCH  25  32
ENDBRANCH   1  17
TORSDOF 9
ENDMDL
MODEL 2
REMARK VINA RESULT:    -6.482      2.105      4.253
REMARK INTER + INTRA:         -10.320
REMARK INTER:                  -9.040
REMARK INTRA:                  -1.280
REMARK UNBOUND:                -1.376
REMARK SMILES O=C([O-])[C@@H]1O[C@@H](Oc2cc3oc(-c4ccccc4)cc(=O)c3c(O)c2O)[C@H](O)[C@H](O)[C@@H]1O
REMARK SMILES IDX 7 1 6 2 4 3 31 4 5 5 29 6 27 7 2 8 1 9 3 10 32 11 30 13
REMARK SMILES IDX 28 15 8 17 25 18 9 19 23 20 10 21 22 22 11 23 20 24 12 25
REMARK SMILES IDX 19 26 21 27 26 28 24 30 13 32 14 33 18 34 15 35 17 36 16 37
REMARK H PARENT 32 12 30 14 28 16 26 29 24 31
REMARK Flexibility Score: inf
ROOT
ATOM      1  O   UNL     1      16.434  14.313  15.255  1.00  0.00    -0.458 OA
ENDROOT
BRANCH   1   2
ATOM      2  C   UNL     1      15.632  14.788  14.165  1.00  0.00     0.339 C 
ATOM      3  C   UNL     1      17.523  15.476  12.952  1.00  0.00     0.199 C 
ATOM      4  C   UNL     1      17.172  16.976  13.031  1.00  0.00     0.180 C 
ATOM      5  O   UNL     1      16.348  14.677  12.945  1.00  0.00    -0.328 OA
ATOM      6  C   UNL     1      16.321  17.238  14.292  1.00  0.00     0.181 C 
ATOM      7  C   UNL     1      15.151  16.243  14.409  1.00  0.00     0.214 C 
BRANCH   3   8
ATOM      8  C   UNL     1      18.331  15.197  11.716  1.00  0.00     0.073 C 
ATOM      9  O   UNL     1      18.992  16.114  11.159  1.00  0.00    -0.547 OA
ATOM     10  O   UNL     1      18.376  13.910  11.197  1.00  0.00    -0.547 OA
ENDBRANCH   3   8
BRANCH   4  11
ATOM     11  O   UNL     1      16.481  17.369  11.871  1.00  0.00    -0.387 OA
ATOM     12  H   UNL     1      17.035  17.090  11.097  1.00  0.00     0.211 HD
ENDBRANCH   4  11
BRANCH   6  13
ATOM     13  O   UNL     1      15.834  18.556  14.297  1.00  0.00    -0.387 OA
ATOM     14  H   UNL     1      15.366  18.692  13.433  1.00  0.00     0.211 HD
ENDBRANCH   6  13
BRANCH   7  15
ATOM     15  O   UNL     1      14.097  16.588  13.539  1.00  0.00    -0.384 OA
ATOM     16  H   UNL     1      13.705  17.444  13.845  1.00  0.00     0.211 HD
ENDBRANCH   7  15
ENDBRANCH   1   2
BRANCH   1  17
ATOM     17  C   UNL     1      16.485  12.991  15.732  1.00  0.00     0.172 A 
ATOM     18  C   UNL     1      17.450  12.134  15.188  1.00  0.00     0.201 A 
ATOM     19  C   UNL     1      15.605  12.506  16.709  1.00  0.00     0.098 A 
ATOM     20  C   UNL     1      17.540  10.790  15.603  1.00  0.00     0.176 A 
ATOM     21  C   UNL     1      15.706  11.191  17.167  1.00  0.00     0.146 A 
ATOM     22  C   UNL     1      16.686  10.314  16.639  1.00  0.00     0.111 A 
ATOM     23  O   UNL     1      14.866  10.785  18.113  1.00  0.00    -0.456 OA
ATOM     24  C   UNL     1      16.765   9.024  17.217  1.00  0.00     0.197 A 
ATOM     25  C   UNL     1      14.886   9.563  18.634  1.00  0.00     0.138 A 
ATOM     26  C   UNL     1      15.852   8.647  18.201  1.00  0.00     0.100 A 
ATOM     27  O   UNL     1      17.664   8.202  16.898  1.00  0.00    -0.289 OA
BRANCH  18  28
ATOM     28  O   UNL     1      18.313  12.637  14.212  1.00  0.00    -0.502 OA
ATOM     29  H   UNL     1      19.098  12.107  13.851  1.00  0.00     0.293 HD
ENDBRANCH  18  28
BRANCH  20  30
ATOM     30  O   UNL     1      18.467   9.978  14.939  1.00  0.00    -0.504 OA
ATOM     31  H   UNL     1      18.230   9.160  14.400  1.00  0.00     0.293 HD
ENDBRANCH  20  30
BRANCH  25  32
ATOM     32  C   UNL     1      13.894   9.218  19.681  1.00  0.00     0.017 A 
ATOM     33  C   UNL     1      12.537   9.098  19.335  1.00  0.00     0.012 A 
ATOM     34  C   UNL     1      14.279   8.979  21.014  1.00  0.00     0.012 A 
ATOM     35  C   UNL     1      11.584   8.771  20.304  1.00  0.00     0.001 A 
ATOM     36  C   UNL     1      13.323   8.650  21.977  1.00  0.00     0.001 A 
ATOM     37  C   UNL     1      11.976   8.550  21.625  1.00  0.00     0.000 A 
ENDBRANCH  25  32
ENDBRANCH   1  17
TORSDOF 9
ENDMDL
MODEL 3
REMARK VINA RESULT:    -6.354      2.397      9.098
REMARK INTER + INTRA:         -10.144
REMARK INTER:                  -8.767
REMARK INTRA:                  -1.377
REMARK UNBOUND:                -1.376
REMARK SMILES O=C([O-])[C@@H]1O[C@@H](Oc2cc3oc(-c4ccccc4)cc(=O)c3c(O)c2O)[C@H](O)[C@H](O)[C@@H]1O
REMARK SMILES IDX 7 1 6 2 4 3 31 4 5 5 29 6 27 7 2 8 1 9 3 10 32 11 30 13
REMARK SMILES IDX 28 15 8 17 25 18 9 19 23 20 10 21 22 22 11 23 20 24 12 25
REMARK SMILES IDX 19 26 21 27 26 28 24 30 13 32 14 33 18 34 15 35 17 36 16 37
REMARK H PARENT 32 12 30 14 28 16 26 29 24 31
REMARK Flexibility Score: inf
ROOT
ATOM      1  O   UNL     1      15.915  10.580  18.269  1.00  0.00    -0.458 OA
ENDROOT
BRANCH   1   2
ATOM      2  C   UNL     1      15.731   9.242  17.788  1.00  0.00     0.339 C 
ATOM      3  C   UNL     1      15.578   8.381  19.969  1.00  0.00     0.199 C 
ATOM      4  C   UNL     1      16.881   7.562  19.862  1.00  0.00     0.180 C 
ATOM      5  O   UNL     1      14.943   8.496  18.703  1.00  0.00    -0.328 OA
ATOM      6  C   UNL     1      17.821   8.225  18.834  1.00  0.00     0.181 C 
ATOM      7  C   UNL     1      17.092   8.547  17.516  1.00  0.00     0.214 C 
BRANCH   3   8
ATOM      8  C   UNL     1      14.638   7.734  20.948  1.00  0.00     0.073 C 
ATOM      9  O   UNL     1      15.042   6.829  21.725  1.00  0.00    -0.547 OA
ATOM     10  O   UNL     1      13.319   8.160  21.021  1.00  0.00    -0.547 OA
ENDBRANCH   3   8
BRANCH   4  11
ATOM     11  O   UNL     1      16.586   6.238  19.489  1.00  0.00    -0.387 OA
ATOM     12  H   UNL     1      15.610   6.197  19.320  1.00  0.00     0.211 HD
ENDBRANCH   4  11
BRANCH   6  13
ATOM     13  O   UNL     1      18.936   7.408  18.580  1.00  0.00    -0.387 OA
ATOM     14  H   UNL     1      18.865   6.630  19.191  1.00  0.00     0.211 HD
ENDBRANCH   6  13
BRANCH   7  15
ATOM     15  O   UNL     1      16.928   7.391  16.727  1.00  0.00    -0.384 OA
ATOM     16  H   UNL     1      16.085   6.945  16.993  1.00  0.00     0.211 HD
ENDBRANCH   7  15
ENDBRANCH   1   2
BRANCH   1  17
ATOM     17  C   UNL     1      15.100  11.687  17.973  1.00  0.00     0.172 A 
ATOM     18  C   UNL     1      13.981  11.913  18.783  1.00  0.00     0.201 A 
ATOM     19  C   UNL     1      15.360  12.550  16.899  1.00  0.00     0.098 A 
ATOM     20  C   UNL     1      13.108  12.990  18.527  1.00  0.00     0.176 A 
ATOM     21  C   UNL     1      14.534  13.648  16.654  1.00  0.00     0.146 A 
ATOM     22  C   UNL     1      13.405  13.902  17.474  1.00  0.00     0.111 A 
ATOM     23  O   UNL     1      14.835  14.453  15.641  1.00  0.00    -0.456 OA
ATOM     24  C   UNL     1      12.670  15.081  17.200  1.00  0.00     0.197 A 
ATOM     25  C   UNL     1      14.130  15.535  15.331  1.00  0.00     0.138 A 
ATOM     26  C   UNL     1      13.025  15.884  16.117  1.00  0.00     0.100 A 
ATOM     27  O   UNL     1      11.714  15.457  17.927  1.00  0.00    -0.289 OA
BRANCH  18  28
ATOM     28  O   UNL     1      13.739  11.038  19.844  1.00  0.00    -0.502 OA
ATOM     29  H   UNL     1      13.972  10.052  19.803  1.00  0.00     0.293 HD
ENDBRANCH  18  28
BRANCH  20  30
ATOM     30  O   UNL     1      11.962  13.087  19.325  1.00  0.00    -0.504 OA
ATOM     31  H   UNL     1      11.160  12.480  19.253  1.00  0.00     0.293 HD
ENDBRANCH  20  30
BRANCH  25  32
ATOM     32  C   UNL     1      14.556  16.356  14.171  1.00  0.00     0.017 A 
ATOM     33  C   UNL     1      13.800  17.483  13.807  1.00  0.00     0.012 A 
ATOM     34  C   UNL     1      15.719  16.052  13.438  1.00  0.00     0.012 A 
ATOM     35  C   UNL     1      14.184  18.274  12.720  1.00  0.00     0.001 A 
ATOM     36  C   UNL     1      16.099  16.847  12.354  1.00  0.00     0.001 A 
ATOM     37  C   UNL     1      15.331  17.955  11.992  1.00  0.00     0.000 A 
ENDBRANCH  25  32
ENDBRANCH   1  17
TORSDOF 9
ENDMDL
MODEL 4
REMARK VINA RESULT:    -6.330      2.024      4.399
REMARK INTER + INTRA:         -10.111
REMARK INTER:                  -8.790
REMARK INTRA:                  -1.321
REMARK UNBOUND:                -1.376
REMARK SMILES O=C([O-])[C@@H]1O[C@@H](Oc2cc3oc(-c4ccccc4)cc(=O)c3c(O)c2O)[C@H](O)[C@H](O)[C@@H]1O
REMARK SMILES IDX 7 1 6 2 4 3 31 4 5 5 29 6 27 7 2 8 1 9 3 10 32 11 30 13
REMARK SMILES IDX 28 15 8 17 25 18 9 19 23 20 10 21 22 22 11 23 20 24 12 25
REMARK SMILES IDX 19 26 21 27 26 28 24 30 13 32 14 33 18 34 15 35 17 36 16 37
REMARK H PARENT 32 12 30 14 28 16 26 29 24 31
REMARK Flexibility Score: inf
ROOT
ATOM      1  O   UNL     1      14.728  13.457  17.031  1.00  0.00    -0.458 OA
ENDROOT
BRANCH   1   2
ATOM      2  C   UNL     1      13.518  13.661  16.289  1.00  0.00     0.339 C 
ATOM      3  C   UNL     1      14.464  15.420  15.053  1.00  0.00     0.199 C 
ATOM      4  C   UNL     1      13.531  16.495  15.646  1.00  0.00     0.180 C 
ATOM      5  O   UNL     1      13.815  14.157  14.993  1.00  0.00    -0.328 OA
ATOM      6  C   UNL     1      13.064  16.051  17.048  1.00  0.00     0.181 C 
ATOM      7  C   UNL     1      12.542  14.602  17.045  1.00  0.00     0.214 C 
BRANCH   3   8
ATOM      8  C   UNL     1      14.909  15.825  13.675  1.00  0.00     0.073 C 
ATOM      9  O   UNL     1      14.581  16.942  13.195  1.00  0.00    -0.547 OA
ATOM     10  O   UNL     1      15.715  14.972  12.932  1.00  0.00    -0.547 OA
ENDBRANCH   3   8
BRANCH   4  11
ATOM     11  O   UNL     1      12.430  16.699  14.794  1.00  0.00    -0.387 OA
ATOM     12  H   UNL     1      11.738  17.170  15.326  1.00  0.00     0.211 HD
ENDBRANCH   4  11
BRANCH   6  13
ATOM     13  O   UNL     1      12.073  16.917  17.540  1.00  0.00    -0.387 OA
ATOM     14  H   UNL     1      11.263  16.771  16.985  1.00  0.00     0.211 HD
ENDBRANCH   6  13
BRANCH   7  15
ATOM     15  O   UNL     1      11.241  14.528  16.510  1.00  0.00    -0.384 OA
ATOM     16  H   UNL     1      11.144  13.663  16.038  1.00  0.00     0.211 HD
ENDBRANCH   7  15
ENDBRANCH   1   2
BRANCH   1  17
ATOM     17  C   UNL     1      15.456  12.257  17.118  1.00  0.00     0.172 A 
ATOM     18  C   UNL     1      16.408  11.994  16.125  1.00  0.00     0.201 A 
ATOM     19  C   UNL     1      15.250  11.321  18.142  1.00  0.00     0.098 A 
ATOM     20  C   UNL     1      17.155  10.799  16.138  1.00  0.00     0.176 A 
ATOM     21  C   UNL     1      16.010  10.152  18.198  1.00  0.00     0.146 A 
ATOM     22  C   UNL     1      16.990   9.877  17.211  1.00  0.00     0.111 A 
ATOM     23  O   UNL     1      15.797   9.308  19.202  1.00  0.00    -0.456 OA
ATOM     24  C   UNL     1      17.765   8.706  17.391  1.00  0.00     0.197 A 
ATOM     25  C   UNL     1      16.475   8.176  19.363  1.00  0.00     0.138 A 
ATOM     26  C   UNL     1      17.493   7.850  18.458  1.00  0.00     0.100 A 
ATOM     27  O   UNL     1      18.729   8.419  16.634  1.00  0.00    -0.289 OA
BRANCH  18  28
ATOM     28  O   UNL     1      16.592  12.938  15.113  1.00  0.00    -0.502 OA
ATOM     29  H   UNL     1      15.823  13.314  14.570  1.00  0.00     0.293 HD
ENDBRANCH  18  28
BRANCH  20  30
ATOM     30  O   UNL     1      18.015  10.572  15.057  1.00  0.00    -0.504 OA
ATOM     31  H   UNL     1      17.714  10.328  14.126  1.00  0.00     0.293 HD
ENDBRANCH  20  30
BRANCH  25  32
ATOM     32  C   UNL     1      16.147   7.307  20.518  1.00  0.00     0.017 A 
ATOM     33  C   UNL     1      17.023   7.255  21.616  1.00  0.00     0.012 A 
ATOM     34  C   UNL     1      14.961   6.548  20.559  1.00  0.00     0.012 A 
ATOM     35  C   UNL     1      16.733   6.445  22.717  1.00  0.00     0.001 A 
ATOM     36  C   UNL     1      14.676   5.743  21.664  1.00  0.00     0.001 A 
ATOM     37  C   UNL     1      15.562   5.687  22.740  1.00  0.00     0.000 A 
ENDBRANCH  25  32
ENDBRANCH   1  17
TORSDOF 9
ENDMDL
MODEL 5
REMARK VINA RESULT:    -6.260      2.244      8.662
REMARK INTER + INTRA:         -10.014
REMARK INTER:                  -9.032
REMARK INTRA:                  -0.982
REMARK UNBOUND:                -1.376
REMARK SMILES O=C([O-])[C@@H]1O[C@@H](Oc2cc3oc(-c4ccccc4)cc(=O)c3c(O)c2O)[C@H](O)[C@H](O)[C@@H]1O
REMARK SMILES IDX 7 1 6 2 4 3 31 4 5 5 29 6 27 7 2 8 1 9 3 10 32 11 30 13
REMARK SMILES IDX 28 15 8 17 25 18 9 19 23 20 10 21 22 22 11 23 20 24 12 25
REMARK SMILES IDX 19 26 21 27 26 28 24 30 13 32 14 33 18 34 15 35 17 36 16 37
REMARK H PARENT 32 12 30 14 28 16 26 29 24 31
REMARK Flexibility Score: inf
ROOT
ATOM      1  O   UNL     1      15.734  10.733  18.657  1.00  0.00    -0.458 OA
ENDROOT
BRANCH   1   2
ATOM      2  C   UNL     1      15.720   9.306  18.522  1.00  0.00     0.339 C 
ATOM      3  C   UNL     1      17.607   9.065  19.901  1.00  0.00     0.199 C 
ATOM      4  C   UNL     1      18.509   8.527  18.771  1.00  0.00     0.180 C 
ATOM      5  O   UNL     1      16.250   8.697  19.689  1.00  0.00    -0.328 OA
ATOM      6  C   UNL     1      18.002   9.057  17.413  1.00  0.00     0.181 C 
ATOM      7  C   UNL     1      16.484   8.851  17.249  1.00  0.00     0.214 C 
BRANCH   3   8
ATOM      8  C   UNL     1      18.071   8.537  21.230  1.00  0.00     0.073 C 
ATOM      9  O   UNL     1      17.262   8.396  22.185  1.00  0.00    -0.547 OA
ATOM     10  O   UNL     1      19.400   8.170  21.400  1.00  0.00    -0.547 OA
ENDBRANCH   3   8
BRANCH   4  11
ATOM     11  O   UNL     1      18.513   7.121  18.788  1.00  0.00    -0.387 OA
ATOM     12  H   UNL     1      18.635   6.822  17.850  1.00  0.00     0.211 HD
ENDBRANCH   4  11
BRANCH   6  13
ATOM     13  O   UNL     1      18.688   8.443  16.352  1.00  0.00    -0.387 OA
ATOM     14  H   UNL     1      18.841   9.145  15.667  1.00  0.00     0.211 HD
ENDBRANCH   6  13
BRANCH   7  15
ATOM     15  O   UNL     1      16.182   7.514  16.921  1.00  0.00    -0.384 OA
ATOM     16  H   UNL     1      16.966   7.118  16.465  1.00  0.00     0.211 HD
ENDBRANCH   7  15
ENDBRANCH   1   2
BRANCH   1  17
ATOM     17  C   UNL     1      15.286  11.661  17.700  1.00  0.00     0.172 A 
ATOM     18  C   UNL     1      13.938  12.039  17.733  1.00  0.00     0.201 A 
ATOM     19  C   UNL     1      16.130  12.202  16.719  1.00  0.00     0.098 A 
ATOM     20  C   UNL     1      13.418  12.945  16.788  1.00  0.00     0.176 A 
ATOM     21  C   UNL     1      15.645  13.135  15.801  1.00  0.00     0.146 A 
ATOM     22  C   UNL     1      14.287  13.541  15.830  1.00  0.00     0.111 A 
ATOM     23  O   UNL     1      16.489  13.638  14.907  1.00  0.00    -0.456 OA
ATOM     24  C   UNL     1      13.904  14.548  14.912  1.00  0.00     0.197 A 
ATOM     25  C   UNL     1      16.140  14.545  14.001  1.00  0.00     0.138 A 
ATOM     26  C   UNL     1      14.828  15.034  13.988  1.00  0.00     0.100 A 
ATOM     27  O   UNL     1      12.752  15.055  14.919  1.00  0.00    -0.289 OA
BRANCH  18  28
ATOM     28  O   UNL     1      13.115  11.484  18.715  1.00  0.00    -0.502 OA
ATOM     29  H   UNL     1      12.633  10.601  18.590  1.00  0.00     0.293 HD
ENDBRANCH  18  28
BRANCH  20  30
ATOM     30  O   UNL     1      12.040  13.193  16.832  1.00  0.00    -0.504 OA
ATOM     31  H   UNL     1      11.460  13.352  16.023  1.00  0.00     0.293 HD
ENDBRANCH  20  30
BRANCH  25  32
ATOM     32  C   UNL     1      17.166  15.031  13.047  1.00  0.00     0.017 A 
ATOM     33  C   UNL     1      17.848  16.230  13.315  1.00  0.00     0.012 A 
ATOM     34  C   UNL     1      17.497  14.306  11.885  1.00  0.00     0.012 A 
ATOM     35  C   UNL     1      18.821  16.706  12.432  1.00  0.00     0.001 A 
ATOM     36  C   UNL     1      18.473  14.786  11.008  1.00  0.00     0.001 A 
ATOM     37  C   UNL     1      19.131  15.986  11.278  1.00  0.00     0.000 A 
ENDBRANCH  25  32
ENDBRANCH   1  17
TORSDOF 9
ENDMDL
MODEL 6
REMARK VINA RESULT:    -6.244      2.968      8.932
REMARK INTER + INTRA:          -9.992
REMARK INTER:                  -8.942
REMARK INTRA:                  -1.049
REMARK UNBOUND:                -1.376
REMARK SMILES O=C([O-])[C@@H]1O[C@@H](Oc2cc3oc(-c4ccccc4)cc(=O)c3c(O)c2O)[C@H](O)[C@H](O)[C@@H]1O
REMARK SMILES IDX 7 1 6 2 4 3 31 4 5 5 29 6 27 7 2 8 1 9 3 10 32 11 30 13
REMARK SMILES IDX 28 15 8 17 25 18 9 19 23 20 10 21 22 22 11 23 20 24 12 25
REMARK SMILES IDX 19 26 21 27 26 28 24 30 13 32 14 33 18 34 15 35 17 36 16 37
REMARK H PARENT 32 12 30 14 28 16 26 29 24 31
REMARK Flexibility Score: inf
ROOT
ATOM      1  O   UNL     1      16.823  11.155  17.512  1.00  0.00    -0.458 OA
ENDROOT
BRANCH   1   2
ATOM      2  C   UNL     1      16.468   9.793  17.236  1.00  0.00     0.339 C 
ATOM      3  C   UNL     1      16.297   9.279  19.522  1.00  0.00     0.199 C 
ATOM      4  C   UNL     1      17.491   8.303  19.512  1.00  0.00     0.180 C 
ATOM      5  O   UNL     1      15.633   9.286  18.265  1.00  0.00    -0.328 OA
ATOM      6  C   UNL     1      18.464   8.695  18.379  1.00  0.00     0.181 C 
ATOM      7  C   UNL     1      17.729   8.909  17.042  1.00  0.00     0.214 C 
BRANCH   3   8
ATOM      8  C   UNL     1      15.325   8.896  20.604  1.00  0.00     0.073 C 
ATOM      9  O   UNL     1      14.117   9.245  20.536  1.00  0.00    -0.547 OA
ATOM     10  O   UNL     1      15.755   8.124  21.675  1.00  0.00    -0.547 OA
ENDBRANCH   3   8
BRANCH   4  11
ATOM     11  O   UNL     1      17.033   6.984  19.343  1.00  0.00    -0.387 OA
ATOM     12  H   UNL     1      16.100   6.958  19.679  1.00  0.00     0.211 HD
ENDBRANCH   4  11
BRANCH   6  13
ATOM     13  O   UNL     1      19.467   7.723  18.226  1.00  0.00    -0.387 OA
ATOM     14  H   UNL     1      19.911   7.904  17.357  1.00  0.00     0.211 HD
ENDBRANCH   6  13
BRANCH   7  15
ATOM     15  O   UNL     1      17.404   7.679  16.435  1.00  0.00    -0.384 OA
ATOM     16  H   UNL     1      17.899   6.959  16.900  1.00  0.00     0.211 HD
ENDBRANCH   7  15
ENDBRANCH   1   2
BRANCH   1  17
ATOM     17  C   UNL     1      16.295  12.294  16.877  1.00  0.00     0.172 A 
ATOM     18  C   UNL     1      16.866  12.691  15.662  1.00  0.00     0.201 A 
ATOM     19  C   UNL     1      15.242  13.042  17.422  1.00  0.00     0.098 A 
ATOM     20  C   UNL     1      16.402  13.837  14.985  1.00  0.00     0.176 A 
ATOM     21  C   UNL     1      14.738  14.155  16.747  1.00  0.00     0.146 A 
ATOM     22  C   UNL     1      15.293  14.563  15.508  1.00  0.00     0.111 A 
ATOM     23  O   UNL     1      13.723  14.817  17.291  1.00  0.00    -0.456 OA
ATOM     24  C   UNL     1      14.668  15.654  14.858  1.00  0.00     0.197 A 
ATOM     25  C   UNL     1      13.154  15.877  16.726  1.00  0.00     0.138 A 
ATOM     26  C   UNL     1      13.611  16.320  15.478  1.00  0.00     0.100 A 
ATOM     27  O   UNL     1      15.011  16.033  13.708  1.00  0.00    -0.289 OA
BRANCH  18  28
ATOM     28  O   UNL     1      17.917  11.934  15.140  1.00  0.00    -0.502 OA
ATOM     29  H   UNL     1      17.888  11.524  14.213  1.00  0.00     0.293 HD
ENDBRANCH  18  28
BRANCH  20  30
ATOM     30  O   UNL     1      17.091  14.218  13.828  1.00  0.00    -0.504 OA
ATOM     31  H   UNL     1      16.941  15.081  13.328  1.00  0.00     0.293 HD
ENDBRANCH  20  30
BRANCH  25  32
ATOM     32  C   UNL     1      12.030  16.542  17.428  1.00  0.00     0.017 A 
ATOM     33  C   UNL     1      11.121  15.767  18.168  1.00  0.00     0.012 A 
ATOM     34  C   UNL     1      11.862  17.940  17.397  1.00  0.00     0.012 A 
ATOM     35  C   UNL     1      10.056  16.371  18.841  1.00  0.00     0.001 A 
ATOM     36  C   UNL     1      10.798  18.539  18.074  1.00  0.00     0.001 A 
ATOM     37  C   UNL     1       9.892  17.756  18.792  1.00  0.00     0.000 A 
ENDBRANCH  25  32
ENDBRANCH   1  17
TORSDOF 9
ENDMDL
MODEL 7
REMARK VINA RESULT:    -6.198      5.095      9.848
REMARK INTER + INTRA:          -9.929
REMARK INTER:                  -8.827
REMARK INTRA:                  -1.102
REMARK UNBOUND:                -1.376
REMARK SMILES O=C([O-])[C@@H]1O[C@@H](Oc2cc3oc(-c4ccccc4)cc(=O)c3c(O)c2O)[C@H](O)[C@H](O)[C@@H]1O
REMARK SMILES IDX 7 1 6 2 4 3 31 4 5 5 29 6 27 7 2 8 1 9 3 10 32 11 30 13
REMARK SMILES IDX 28 15 8 17 25 18 9 19 23 20 10 21 22 22 11 23 20 24 12 25
REMARK SMILES IDX 19 26 21 27 26 28 24 30 13 32 14 33 18 34 15 35 17 36 16 37
REMARK H PARENT 32 12 30 14 28 16 26 29 24 31
REMARK Flexibility Score: inf
ROOT
ATOM      1  O   UNL     1      11.061  16.629  18.020  1.00  0.00    -0.458 OA
ENDROOT
BRANCH   1   2
ATOM      2  C   UNL     1      11.373  17.025  19.362  1.00  0.00     0.339 C 
ATOM      3  C   UNL     1      10.008  15.343  20.273  1.00  0.00     0.199 C 
ATOM      4  C   UNL     1       9.000  16.334  20.891  1.00  0.00     0.180 C 
ATOM      5  O   UNL     1      11.313  15.903  20.230  1.00  0.00    -0.328 OA
ATOM      6  C   UNL     1       9.008  17.647  20.081  1.00  0.00     0.181 C 
ATOM      7  C   UNL     1      10.440  18.166  19.847  1.00  0.00     0.214 C 
BRANCH   3   8
ATOM      8  C   UNL     1      10.032  14.067  21.066  1.00  0.00     0.073 C 
ATOM      9  O   UNL     1       8.982  13.623  21.603  1.00  0.00    -0.547 OA
ATOM     10  O   UNL     1      11.215  13.350  21.183  1.00  0.00    -0.547 OA
ENDBRANCH   3   8
BRANCH   4  11
ATOM     11  O   UNL     1       9.329  16.576  22.237  1.00  0.00    -0.387 OA
ATOM     12  H   UNL     1       9.631  15.712  22.620  1.00  0.00     0.211 HD
ENDBRANCH   4  11
BRANCH   6  13
ATOM     13  O   UNL     1       8.239  18.633  20.722  1.00  0.00    -0.387 OA
ATOM     14  H   UNL     1       8.572  18.693  21.655  1.00  0.00     0.211 HD
ENDBRANCH   6  13
BRANCH   7  15
ATOM     15  O   UNL     1      10.952  18.792  21.001  1.00  0.00    -0.384 OA
ATOM     16  H   UNL     1      11.804  18.351  21.246  1.00  0.00     0.211 HD
ENDBRANCH   7  15
ENDBRANCH   1   2
BRANCH   1  17
ATOM     17  C   UNL     1      11.971  16.528  16.952  1.00  0.00     0.172 A 
ATOM     18  C   UNL     1      12.222  15.256  16.422  1.00  0.00     0.201 A 
ATOM     19  C   UNL     1      12.636  17.641  16.419  1.00  0.00     0.098 A 
ATOM     20  C   UNL     1      13.141  15.081  15.368  1.00  0.00     0.176 A 
ATOM     21  C   UNL     1      13.517  17.496  15.346  1.00  0.00     0.146 A 
ATOM     22  C   UNL     1      13.771  16.218  14.786  1.00  0.00     0.111 A 
ATOM     23  O   UNL     1      14.104  18.583  14.859  1.00  0.00    -0.456 OA
ATOM     24  C   UNL     1      14.617  16.176  13.652  1.00  0.00     0.197 A 
ATOM     25  C   UNL     1      14.943  18.562  13.829  1.00  0.00     0.138 A 
ATOM     26  C   UNL     1      15.215  17.347  13.188  1.00  0.00     0.100 A 
ATOM     27  O   UNL     1      14.828  15.112  13.014  1.00  0.00    -0.289 OA
BRANCH  18  28
ATOM     28  O   UNL     1      11.552  14.162  16.972  1.00  0.00    -0.502 OA
ATOM     29  H   UNL     1      11.955  13.232  17.000  1.00  0.00     0.293 HD
ENDBRANCH  18  28
BRANCH  20  30
ATOM     30  O   UNL     1      13.405  13.767  14.964  1.00  0.00    -0.504 OA
ATOM     31  H   UNL     1      13.895  13.083  15.519  1.00  0.00     0.293 HD
ENDBRANCH  20  30
BRANCH  25  32
ATOM     32  C   UNL     1      15.546  19.839  13.374  1.00  0.00     0.017 A 
ATOM     33  C   UNL     1      16.316  20.598  14.271  1.00  0.00     0.012 A 
ATOM     34  C   UNL     1      15.389  20.301  12.053  1.00  0.00     0.012 A 
ATOM     35  C   UNL     1      16.896  21.803  13.865  1.00  0.00     0.001 A 
ATOM     36  C   UNL     1      15.974  21.504  11.652  1.00  0.00     0.001 A 
ATOM     37  C   UNL     1      16.723  22.258  12.557  1.00  0.00     0.000 A 
ENDBRANCH  25  32
ENDBRANCH   1  17
TORSDOF 9
ENDMDL
MODEL 8
REMARK VINA RESULT:    -6.161      5.039      9.635
REMARK INTER + INTRA:          -9.878
REMARK INTER:                  -8.972
REMARK INTRA:                  -0.906
REMARK UNBOUND:                -1.376
REMARK SMILES O=C([O-])[C@@H]1O[C@@H](Oc2cc3oc(-c4ccccc4)cc(=O)c3c(O)c2O)[C@H](O)[C@H](O)[C@@H]1O
REMARK SMILES IDX 7 1 6 2 4 3 31 4 5 5 29 6 27 7 2 8 1 9 3 10 32 11 30 13
REMARK SMILES IDX 28 15 8 17 25 18 9 19 23 20 10 21 22 22 11 23 20 24 12 25
REMARK SMILES IDX 19 26 21 27 26 28 24 30 13 32 14 33 18 34 15 35 17 36 16 37
REMARK H PARENT 32 12 30 14 28 16 26 29 24 31
REMARK Flexibility Score: inf
ROOT
ATOM      1  O   UNL     1      10.900  16.586  17.738  1.00  0.00    -0.458 OA
ENDROOT
BRANCH   1   2
ATOM      2  C   UNL     1      10.555  17.744  18.511  1.00  0.00     0.339 C 
ATOM      3  C   UNL     1      12.062  17.164  20.219  1.00  0.00     0.199 C 
ATOM      4  C   UNL     1      10.959  16.919  21.269  1.00  0.00     0.180 C 
ATOM      5  O   UNL     1      11.667  18.163  19.288  1.00  0.00    -0.328 OA
ATOM      6  C   UNL     1       9.651  16.518  20.555  1.00  0.00     0.181 C 
ATOM      7  C   UNL     1       9.311  17.480  19.401  1.00  0.00     0.214 C 
BRANCH   3   8
ATOM      8  C   UNL     1      13.337  17.582  20.896  1.00  0.00     0.073 C 
ATOM      9  O   UNL     1      14.160  16.720  21.304  1.00  0.00    -0.547 OA
ATOM     10  O   UNL     1      13.629  18.931  21.046  1.00  0.00    -0.547 OA
ENDBRANCH   3   8
BRANCH   4  11
ATOM     11  O   UNL     1      10.769  18.076  22.046  1.00  0.00    -0.387 OA
ATOM     12  H   UNL     1      10.020  17.886  22.667  1.00  0.00     0.211 HD
ENDBRANCH   4  11
BRANCH   6  13
ATOM     13  O   UNL     1       8.583  16.464  21.466  1.00  0.00    -0.387 OA
ATOM     14  H   UNL     1       8.594  17.319  21.971  1.00  0.00     0.211 HD
ENDBRANCH   6  13
BRANCH   7  15
ATOM     15  O   UNL     1       8.761  18.684  19.884  1.00  0.00    -0.384 OA
ATOM     16  H   UNL     1       8.094  19.010  19.229  1.00  0.00     0.211 HD
ENDBRANCH   7  15
ENDBRANCH   1   2
BRANCH   1  17
ATOM     17  C   UNL     1      11.917  16.508  16.770  1.00  0.00     0.172 A 
ATOM     18  C   UNL     1      12.285  15.239  16.306  1.00  0.00     0.201 A 
ATOM     19  C   UNL     1      12.575  17.642  16.273  1.00  0.00     0.098 A 
ATOM     20  C   UNL     1      13.314  15.088  15.355  1.00  0.00     0.176 A 
ATOM     21  C   UNL     1      13.566  17.518  15.298  1.00  0.00     0.146 A 
ATOM     22  C   UNL     1      13.941  16.243  14.805  1.00  0.00     0.111 A 
ATOM     23  O   UNL     1      14.142  18.624  14.839  1.00  0.00    -0.456 OA
ATOM     24  C   UNL     1      14.898  16.219  13.762  1.00  0.00     0.197 A 
ATOM     25  C   UNL     1      15.081  18.623  13.899  1.00  0.00     0.138 A 
ATOM     26  C   UNL     1      15.479  17.409  13.325  1.00  0.00     0.100 A 
ATOM     27  O   UNL     1      15.227  15.152  13.181  1.00  0.00    -0.289 OA
BRANCH  18  28
ATOM     28  O   UNL     1      11.620  14.124  16.819  1.00  0.00    -0.502 OA
ATOM     29  H   UNL     1      11.979  13.585  17.600  1.00  0.00     0.293 HD
ENDBRANCH  18  28
BRANCH  20  30
ATOM     30  O   UNL     1      13.685  13.781  15.018  1.00  0.00    -0.504 OA
ATOM     31  H   UNL     1      13.975  13.078  15.681  1.00  0.00     0.293 HD
ENDBRANCH  20  30
BRANCH  25  32
ATOM     32  C   UNL     1      15.660  19.919  13.469  1.00  0.00     0.017 A 
ATOM     33  C   UNL     1      15.464  20.360  12.149  1.00  0.00     0.012 A 
ATOM     34  C   UNL     1      16.383  20.738  14.359  1.00  0.00     0.012 A 
ATOM     35  C   UNL     1      15.997  21.579  11.721  1.00  0.00     0.001 A 
ATOM     36  C   UNL     1      16.910  21.956  13.926  1.00  0.00     0.001 A 
ATOM     37  C   UNL     1      16.722  22.376  12.608  1.00  0.00     0.000 A 
ENDBRANCH  25  32
ENDBRANCH   1  17
TORSDOF 9
ENDMDL
MODEL 9
REMARK VINA RESULT:    -6.145      3.063      9.015
REMARK INTER + INTRA:          -9.855
REMARK INTER:                  -8.738
REMARK INTRA:                  -1.117
REMARK UNBOUND:                -1.376
REMARK SMILES O=C([O-])[C@@H]1O[C@@H](Oc2cc3oc(-c4ccccc4)cc(=O)c3c(O)c2O)[C@H](O)[C@H](O)[C@@H]1O
REMARK SMILES IDX 7 1 6 2 4 3 31 4 5 5 29 6 27 7 2 8 1 9 3 10 32 11 30 13
REMARK SMILES IDX 28 15 8 17 25 18 9 19 23 20 10 21 22 22 11 23 20 24 12 25
REMARK SMILES IDX 19 26 21 27 26 28 24 30 13 32 14 33 18 34 15 35 17 36 16 37
REMARK H PARENT 32 12 30 14 28 16 26 29 24 31
REMARK Flexibility Score: inf
ROOT
ATOM      1  O   UNL     1      17.196  11.517  17.928  1.00  0.00    -0.458 OA
ENDROOT
BRANCH   1   2
ATOM      2  C   UNL     1      16.584  10.433  18.639  1.00  0.00     0.339 C 
ATOM      3  C   UNL     1      18.654   9.389  19.017  1.00  0.00     0.199 C 
ATOM      4  C   UNL     1      18.328   8.162  18.142  1.00  0.00     0.180 C 
ATOM      5  O   UNL     1      17.478   9.918  19.613  1.00  0.00    -0.328 OA
ATOM      6  C   UNL     1      17.297   8.560  17.064  1.00  0.00     0.181 C 
ATOM      7  C   UNL     1      16.102   9.321  17.670  1.00  0.00     0.214 C 
BRANCH   3   8
ATOM      8  C   UNL     1      19.639   9.013  20.089  1.00  0.00     0.073 C 
ATOM      9  O   UNL     1      20.798   9.506  20.099  1.00  0.00    -0.547 OA
ATOM     10  O   UNL     1      19.259   8.137  21.097  1.00  0.00    -0.547 OA
ENDBRANCH   3   8
BRANCH   4  11
ATOM     11  O   UNL     1      17.834   7.117  18.944  1.00  0.00    -0.387 OA
ATOM     12  H   UNL     1      16.941   7.401  19.268  1.00  0.00     0.211 HD
ENDBRANCH   4  11
BRANCH   6  13
ATOM     13  O   UNL     1      16.843   7.427  16.368  1.00  0.00    -0.387 OA
ATOM     14  H   UNL     1      16.634   6.737  17.049  1.00  0.00     0.211 HD
ENDBRANCH   6  13
BRANCH   7  15
ATOM     15  O   UNL     1      15.204   8.440  18.305  1.00  0.00    -0.384 OA
ATOM     16  H   UNL     1      15.576   7.524  18.258  1.00  0.00     0.211 HD
ENDBRANCH   7  15
ENDBRANCH   1   2
BRANCH   1  17
ATOM     17  C   UNL     1      16.527  12.499  17.177  1.00  0.00     0.172 A 
ATOM     18  C   UNL     1      16.954  12.725  15.863  1.00  0.00     0.201 A 
ATOM     19  C   UNL     1      15.472  13.260  17.700  1.00  0.00     0.098 A 
ATOM     20  C   UNL     1      16.343  13.712  15.063  1.00  0.00     0.176 A 
ATOM     21  C   UNL     1      14.824  14.212  16.911  1.00  0.00     0.146 A 
ATOM     22  C   UNL     1      15.231  14.443  15.573  1.00  0.00     0.111 A 
ATOM     23  O   UNL     1      13.812  14.890  17.442  1.00  0.00    -0.456 OA
ATOM     24  C   UNL     1      14.467  15.370  14.825  1.00  0.00     0.197 A 
ATOM     25  C   UNL     1      13.114  15.804  16.776  1.00  0.00     0.138 A 
ATOM     26  C   UNL     1      13.421  16.062  15.435  1.00  0.00     0.100 A 
ATOM     27  O   UNL     1      14.676  15.575  13.600  1.00  0.00    -0.289 OA
BRANCH  18  28
ATOM     28  O   UNL     1      18.010  11.960  15.365  1.00  0.00    -0.502 OA
ATOM     29  H   UNL     1      17.869  11.064  14.910  1.00  0.00     0.293 HD
ENDBRANCH  18  28
BRANCH  20  30
ATOM     30  O   UNL     1      16.894  13.939  13.797  1.00  0.00    -0.504 OA
ATOM     31  H   UNL     1      17.507  13.300  13.315  1.00  0.00     0.293 HD
ENDBRANCH  20  30
BRANCH  25  32
ATOM     32  C   UNL     1      12.008  16.504  17.474  1.00  0.00     0.017 A 
ATOM     33  C   UNL     1      11.084  15.760  18.227  1.00  0.00     0.012 A 
ATOM     34  C   UNL     1      11.873  17.905  17.426  1.00  0.00     0.012 A 
ATOM     35  C   UNL     1      10.036  16.398  18.896  1.00  0.00     0.001 A 
ATOM     36  C   UNL     1      10.826  18.537  18.099  1.00  0.00     0.001 A 
ATOM     37  C   UNL     1       9.905  17.786  18.830  1.00  0.00     0.000 A 
ENDBRANCH  25  32
ENDBRANCH   1  17
TORSDOF 9
ENDMDL
