MODEL 1
REMARK VINA RESULT:    -4.124      0.000      0.000
REMARK INTER + INTRA:          -7.830
REMARK INTER:                  -6.534
REMARK INTRA:                  -1.296
REMARK UNBOUND:                -1.296
REMARK SMILES CCCCCCCCCCCC(=O)[O-]
REMARK SMILES IDX 7 1 8 2 9 3 10 4 11 5 12 6 13 7 14 8 6 9 5 10 4 11 3 12 2 13
REMARK SMILES IDX 1 14
REMARK H PARENT
REMARK Flexibility Score: inf
ROOT
ATOM      1  C   UNL     1      25.207   3.551   7.740  1.00  0.00     0.000 C 
ENDROOT
BRANCH   1   2
ATOM      2  C   UNL     1      26.624   3.715   7.162  1.00  0.00     0.000 C 
BRANCH   2   3
ATOM      3  C   UNL     1      27.712   3.671   8.246  1.00  0.00     0.000 C 
BRANCH   3   4
ATOM      4  C   UNL     1      27.246   4.278   9.579  1.00  0.00     0.006 C 
BRANCH   4   5
ATOM      5  C   UNL     1      28.287   5.260  10.125  1.00  0.00     0.053 C 
BRANCH   5   6
ATOM      6  C   UNL     1      28.792   4.802  11.458  1.00  0.00     0.041 C 
ATOM      7  O   UNL     1      29.016   5.638  12.372  1.00  0.00    -0.550 OA
ATOM      8  O   UNL     1      28.968   3.447  11.705  1.00  0.00    -0.550 OA
ENDBRANCH   5   6
ENDBRANCH   4   5
ENDBRANCH   3   4
ENDBRANCH   2   3
ENDBRANCH   1   2
BRANCH   1   9
ATOM      9  C   UNL     1      24.133   4.214   6.862  1.00  0.00     0.000 C 
BRANCH   9  10
ATOM     10  C   UNL     1      23.405   5.362   7.581  1.00  0.00    -0.000 C 
BRANCH  10  11
ATOM     11  C   UNL     1      24.008   6.742   7.261  1.00  0.00    -0.000 C 
BRANCH  11  12
ATOM     12  C   UNL     1      24.891   6.790   5.997  1.00  0.00    -0.000 C 
BRANCH  12  13
ATOM     13  C   UNL     1      26.293   7.387   6.206  1.00  0.00    -0.003 C 
ATOM     14  C   UNL     1      26.625   7.629   7.677  1.00  0.00     0.004 C 
ENDBRANCH  12  13
ENDBRANCH  11  12
ENDBRANCH  10  11
ENDBRANCH   9  10
ENDBRANCH   1   9
TORSDOF 10
ENDMDL
MODEL 2
REMARK VINA RESULT:    -3.961      1.553      3.145
REMARK INTER + INTRA:          -7.573
REMARK INTER:                  -5.959
REMARK INTRA:                  -1.613
REMARK UNBOUND:                -1.296
REMARK SMILES CCCCCCCCCCCC(=O)[O-]
REMARK SMILES IDX 7 1 8 2 9 3 10 4 11 5 12 6 13 7 14 8 6 9 5 10 4 11 3 12 2 13
REMARK SMILES IDX 1 14
REMARK H PARENT
REMARK Flexibility Score: inf
ROOT
ATOM      1  C   UNL     1      25.114   7.686   9.635  1.00  0.00     0.000 C 
ENDROOT
BRANCH   1   2
ATOM      2  C   UNL     1      24.550   6.266   9.812  1.00  0.00     0.000 C 
BRANCH   2   3
ATOM      3  C   UNL     1      25.636   5.242  10.182  1.00  0.00     0.000 C 
BRANCH   3   4
ATOM      4  C   UNL     1      26.955   5.905  10.608  1.00  0.00     0.006 C 
BRANCH   4   5
ATOM      5  C   UNL     1      28.149   5.240   9.916  1.00  0.00     0.053 C 
BRANCH   5   6
ATOM      6  C   UNL     1      28.342   3.847  10.427  1.00  0.00     0.041 C 
ATOM      7  O   UNL     1      28.749   3.654  11.602  1.00  0.00    -0.550 OA
ATOM      8  O   UNL     1      28.026   2.762   9.620  1.00  0.00    -0.550 OA
ENDBRANCH   5   6
ENDBRANCH   4   5
ENDBRANCH   3   4
ENDBRANCH   2   3
ENDBRANCH   1   2
BRANCH   1   9
ATOM      9  C   UNL     1      25.187   8.110   8.160  1.00  0.00     0.000 C 
BRANCH   9  10
ATOM     10  C   UNL     1      26.572   7.861   7.539  1.00  0.00    -0.000 C 
BRANCH  10  11
ATOM     11  C   UNL     1      26.504   7.010   6.257  1.00  0.00    -0.000 C 
BRANCH  11  12
ATOM     12  C   UNL     1      25.688   5.707   6.383  1.00  0.00    -0.000 C 
BRANCH  12  13
ATOM     13  C   UNL     1      26.520   4.444   6.666  1.00  0.00    -0.003 C 
ATOM     14  C   UNL     1      25.662   3.238   7.046  1.00  0.00     0.004 C 
ENDBRANCH  12  13
ENDBRANCH  11  12
ENDBRANCH  10  11
ENDBRANCH   9  10
ENDBRANCH   1   9
TORSDOF 10
ENDMDL
MODEL 3
REMARK VINA RESULT:    -3.952      1.390      3.724
REMARK INTER + INTRA:          -7.559
REMARK INTER:                  -6.537
REMARK INTRA:                  -1.022
REMARK UNBOUND:                -1.296
REMARK SMILES CCCCCCCCCCCC(=O)[O-]
REMARK SMILES IDX 7 1 8 2 9 3 10 4 11 5 12 6 13 7 14 8 6 9 5 10 4 11 3 12 2 13
REMARK SMILES IDX 1 14
REMARK H PARENT
REMARK Flexibility Score: inf
ROOT
ATOM      1  C   UNL     1      26.124   6.374   6.441  1.00  0.00     0.000 C 
ENDROOT
BRANCH   1   2
ATOM      2  C   UNL     1      26.341   7.396   7.571  1.00  0.00     0.000 C 
BRANCH   2   3
ATOM      3  C   UNL     1      26.034   6.814   8.960  1.00  0.00     0.000 C 
BRANCH   3   4
ATOM      4  C   UNL     1      27.300   6.383   9.716  1.00  0.00     0.006 C 
BRANCH   4   5
ATOM      5  C   UNL     1      27.232   4.901  10.097  1.00  0.00     0.053 C 
BRANCH   5   6
ATOM      6  C   UNL     1      28.232   4.587  11.164  1.00  0.00     0.041 C 
ATOM      7  O   UNL     1      28.610   3.400  11.349  1.00  0.00    -0.550 OA
ATOM      8  O   UNL     1      28.783   5.611  11.923  1.00  0.00    -0.550 OA
ENDBRANCH   5   6
ENDBRANCH   4   5
ENDBRANCH   3   4
ENDBRANCH   2   3
ENDBRANCH   1   2
BRANCH   1   9
ATOM      9  C   UNL     1      24.847   5.542   6.638  1.00  0.00     0.000 C 
BRANCH   9  10
ATOM     10  C   UNL     1      25.142   4.055   6.900  1.00  0.00    -0.000 C 
BRANCH  10  11
ATOM     11  C   UNL     1      26.603   3.676   6.597  1.00  0.00    -0.000 C 
BRANCH  11  12
ATOM     12  C   UNL     1      26.962   2.199   6.865  1.00  0.00    -0.000 C 
BRANCH  12  13
ATOM     13  C   UNL     1      27.859   1.961   8.092  1.00  0.00    -0.003 C 
ATOM     14  C   UNL     1      28.183   0.485   8.315  1.00  0.00     0.004 C 
ENDBRANCH  12  13
ENDBRANCH  11  12
ENDBRANCH  10  11
ENDBRANCH   9  10
ENDBRANCH   1   9
TORSDOF 10
ENDMDL
MODEL 4
REMARK VINA RESULT:    -3.942      2.115      4.135
REMARK INTER + INTRA:          -7.543
REMARK INTER:                  -6.210
REMARK INTRA:                  -1.333
REMARK UNBOUND:                -1.296
REMARK SMILES CCCCCCCCCCCC(=O)[O-]
REMARK SMILES IDX 7 1 8 2 9 3 10 4 11 5 12 6 13 7 14 8 6 9 5 10 4 11 3 12 2 13
REMARK SMILES IDX 1 14
REMARK H PARENT
REMARK Flexibility Score: inf
ROOT
ATOM      1  C   UNL     1      25.995   7.081   6.181  1.00  0.00     0.000 C 
ENDROOT
BRANCH   1   2
ATOM      2  C   UNL     1      26.360   5.588   6.240  1.00  0.00     0.000 C 
BRANCH   2   3
ATOM      3  C   UNL     1      25.212   4.721   6.782  1.00  0.00     0.000 C 
BRANCH   3   4
ATOM      4  C   UNL     1      25.706   3.579   7.684  1.00  0.00     0.006 C 
BRANCH   4   5
ATOM      5  C   UNL     1      27.164   3.228   7.371  1.00  0.00     0.053 C 
BRANCH   5   6
ATOM      6  C   UNL     1      27.502   1.870   7.904  1.00  0.00     0.041 C 
ATOM      7  O   UNL     1      27.983   1.745   9.060  1.00  0.00    -0.550 OA
ATOM      8  O   UNL     1      27.238   0.740   7.141  1.00  0.00    -0.550 OA
ENDBRANCH   5   6
ENDBRANCH   4   5
ENDBRANCH   3   4
ENDBRANCH   2   3
ENDBRANCH   1   2
BRANCH   1   9
ATOM      9  C   UNL     1      26.560   7.873   7.370  1.00  0.00     0.000 C 
BRANCH   9  10
ATOM     10  C   UNL     1      25.553   8.011   8.524  1.00  0.00    -0.000 C 
BRANCH  10  11
ATOM     11  C   UNL     1      25.770   6.966   9.633  1.00  0.00    -0.000 C 
BRANCH  11  12
ATOM     12  C   UNL     1      27.199   6.389   9.713  1.00  0.00    -0.000 C 
BRANCH  12  13
ATOM     13  C   UNL     1      27.393   5.278  10.759  1.00  0.00    -0.003 C 
ATOM     14  C   UNL     1      28.798   4.678  10.737  1.00  0.00     0.004 C 
ENDBRANCH  12  13
ENDBRANCH  11  12
ENDBRANCH  10  11
ENDBRANCH   9  10
ENDBRANCH   1   9
TORSDOF 10
ENDMDL
MODEL 5
REMARK VINA RESULT:    -3.941      2.967      5.071
REMARK INTER + INTRA:          -7.542
REMARK INTER:                  -5.939
REMARK INTRA:                  -1.602
REMARK UNBOUND:                -1.296
REMARK SMILES CCCCCCCCCCCC(=O)[O-]
REMARK SMILES IDX 7 1 8 2 9 3 10 4 11 5 12 6 13 7 14 8 6 9 5 10 4 11 3 12 2 13
REMARK SMILES IDX 1 14
REMARK H PARENT
REMARK Flexibility Score: inf
ROOT
ATOM      1  C   UNL     1      24.229   7.621   8.967  1.00  0.00     0.000 C 
ENDROOT
BRANCH   1   2
ATOM      2  C   UNL     1      25.673   8.145   9.069  1.00  0.00     0.000 C 
BRANCH   2   3
ATOM      3  C   UNL     1      26.494   7.864   7.801  1.00  0.00     0.000 C 
BRANCH   3   4
ATOM      4  C   UNL     1      25.693   7.103   6.733  1.00  0.00     0.006 C 
BRANCH   4   5
ATOM      5  C   UNL     1      26.248   5.688   6.538  1.00  0.00     0.053 C 
BRANCH   5   6
ATOM      6  C   UNL     1      25.156   4.674   6.669  1.00  0.00     0.041 C 
ATOM      7  O   UNL     1      25.437   3.464   6.875  1.00  0.00    -0.550 OA
ATOM      8  O   UNL     1      23.827   5.073   6.613  1.00  0.00    -0.550 OA
ENDBRANCH   5   6
ENDBRANCH   4   5
ENDBRANCH   3   4
ENDBRANCH   2   3
ENDBRANCH   1   2
BRANCH   1   9
ATOM      9  C   UNL     1      23.921   6.539  10.013  1.00  0.00     0.000 C 
BRANCH   9  10
ATOM     10  C   UNL     1      25.184   6.022  10.723  1.00  0.00    -0.000 C 
BRANCH  10  11
ATOM     11  C   UNL     1      25.566   4.595  10.293  1.00  0.00    -0.000 C 
BRANCH  11  12
ATOM     12  C   UNL     1      27.073   4.369  10.053  1.00  0.00    -0.000 C 
BRANCH  12  13
ATOM     13  C   UNL     1      27.979   5.547  10.450  1.00  0.00    -0.003 C 
ATOM     14  C   UNL     1      28.766   5.288  11.733  1.00  0.00     0.004 C 
ENDBRANCH  12  13
ENDBRANCH  11  12
ENDBRANCH  10  11
ENDBRANCH   9  10
ENDBRANCH   1   9
TORSDOF 10
ENDMDL
MODEL 6
REMARK VINA RESULT:    -3.934      1.510      2.781
REMARK INTER + INTRA:          -7.529
REMARK INTER:                  -6.161
REMARK INTRA:                  -1.368
REMARK UNBOUND:                -1.296
REMARK SMILES CCCCCCCCCCCC(=O)[O-]
REMARK SMILES IDX 7 1 8 2 9 3 10 4 11 5 12 6 13 7 14 8 6 9 5 10 4 11 3 12 2 13
REMARK SMILES IDX 1 14
REMARK H PARENT
REMARK Flexibility Score: inf
ROOT
ATOM      1  C   UNL     1      24.935   5.661   6.694  1.00  0.00     0.000 C 
ENDROOT
BRANCH   1   2
ATOM      2  C   UNL     1      25.265   4.305   7.342  1.00  0.00     0.000 C 
BRANCH   2   3
ATOM      3  C   UNL     1      26.679   3.812   6.993  1.00  0.00     0.000 C 
BRANCH   3   4
ATOM      4  C   UNL     1      27.575   3.654   8.231  1.00  0.00     0.006 C 
BRANCH   4   5
ATOM      5  C   UNL     1      26.818   4.040   9.506  1.00  0.00     0.053 C 
BRANCH   5   6
ATOM      6  C   UNL     1      27.778   4.358  10.609  1.00  0.00     0.041 C 
ATOM      7  O   UNL     1      28.380   3.431  11.212  1.00  0.00    -0.550 OA
ATOM      8  O   UNL     1      28.043   5.681  10.939  1.00  0.00    -0.550 OA
ENDBRANCH   5   6
ENDBRANCH   4   5
ENDBRANCH   3   4
ENDBRANCH   2   3
ENDBRANCH   1   2
BRANCH   1   9
ATOM      9  C   UNL     1      26.190   6.397   6.200  1.00  0.00     0.000 C 
BRANCH   9  10
ATOM     10  C   UNL     1      26.390   7.757   6.890  1.00  0.00    -0.000 C 
BRANCH  10  11
ATOM     11  C   UNL     1      26.347   7.657   8.426  1.00  0.00    -0.000 C 
BRANCH  11  12
ATOM     12  C   UNL     1      25.443   8.697   9.121  1.00  0.00    -0.000 C 
BRANCH  12  13
ATOM     13  C   UNL     1      24.168   8.123   9.762  1.00  0.00    -0.003 C 
ATOM     14  C   UNL     1      24.348   6.695  10.273  1.00  0.00     0.004 C 
ENDBRANCH  12  13
ENDBRANCH  11  12
ENDBRANCH  10  11
ENDBRANCH   9  10
ENDBRANCH   1   9
TORSDOF 10
ENDMDL
MODEL 7
REMARK VINA RESULT:    -3.880      2.751      4.322
REMARK INTER + INTRA:          -7.444
REMARK INTER:                  -6.112
REMARK INTRA:                  -1.332
REMARK UNBOUND:                -1.296
REMARK SMILES CCCCCCCCCCCC(=O)[O-]
REMARK SMILES IDX 7 1 8 2 9 3 10 4 11 5 12 6 13 7 14 8 6 9 5 10 4 11 3 12 2 13
REMARK SMILES IDX 1 14
REMARK H PARENT
REMARK Flexibility Score: inf
ROOT
ATOM      1  C   UNL     1      28.752   4.394  10.466  1.00  0.00     0.000 C 
ENDROOT
BRANCH   1   2
ATOM      2  C   UNL     1      27.891   3.289   9.828  1.00  0.00     0.000 C 
BRANCH   2   3
ATOM      3  C   UNL     1      28.028   3.245   8.298  1.00  0.00     0.000 C 
BRANCH   3   4
ATOM      4  C   UNL     1      26.783   2.668   7.607  1.00  0.00     0.006 C 
BRANCH   4   5
ATOM      5  C   UNL     1      26.130   3.712   6.696  1.00  0.00     0.053 C 
BRANCH   5   6
ATOM      6  C   UNL     1      24.724   3.983   7.132  1.00  0.00     0.041 C 
ATOM      7  O   UNL     1      24.046   4.878   6.563  1.00  0.00    -0.550 OA
ATOM      8  O   UNL     1      24.148   3.215   8.135  1.00  0.00    -0.550 OA
ENDBRANCH   5   6
ENDBRANCH   4   5
ENDBRANCH   3   4
ENDBRANCH   2   3
ENDBRANCH   1   2
BRANCH   1   9
ATOM      9  C   UNL     1      27.937   5.654  10.802  1.00  0.00     0.000 C 
BRANCH   9  10
ATOM     10  C   UNL     1      26.419   5.416  10.728  1.00  0.00    -0.000 C 
BRANCH  10  11
ATOM     11  C   UNL     1      25.737   6.258   9.635  1.00  0.00    -0.000 C 
BRANCH  11  12
ATOM     12  C   UNL     1      26.700   7.067   8.740  1.00  0.00    -0.000 C 
BRANCH  12  13
ATOM     13  C   UNL     1      26.030   7.809   7.571  1.00  0.00    -0.003 C 
ATOM     14  C   UNL     1      26.506   7.320   6.204  1.00  0.00     0.004 C 
ENDBRANCH  12  13
ENDBRANCH  11  12
ENDBRANCH  10  11
ENDBRANCH   9  10
ENDBRANCH   1   9
TORSDOF 10
ENDMDL
MODEL 8
REMARK VINA RESULT:    -3.866      2.308      3.760
REMARK INTER + INTRA:          -7.423
REMARK INTER:                  -5.841
REMARK INTRA:                  -1.581
REMARK UNBOUND:                -1.296
REMARK SMILES CCCCCCCCCCCC(=O)[O-]
REMARK SMILES IDX 7 1 8 2 9 3 10 4 11 5 12 6 13 7 14 8 6 9 5 10 4 11 3 12 2 13
REMARK SMILES IDX 1 14
REMARK H PARENT
REMARK Flexibility Score: inf
ROOT
ATOM      1  C   UNL     1      26.229   7.547   8.787  1.00  0.00     0.000 C 
ENDROOT
BRANCH   1   2
ATOM      2  C   UNL     1      27.067   6.383   9.345  1.00  0.00     0.000 C 
BRANCH   2   3
ATOM      3  C   UNL     1      26.210   5.332  10.068  1.00  0.00     0.000 C 
BRANCH   3   4
ATOM      4  C   UNL     1      26.681   3.895   9.797  1.00  0.00     0.006 C 
BRANCH   4   5
ATOM      5  C   UNL     1      27.821   3.877   8.774  1.00  0.00     0.053 C 
BRANCH   5   6
ATOM      6  C   UNL     1      27.649   2.741   7.816  1.00  0.00     0.041 C 
ATOM      7  O   UNL     1      28.011   1.579   8.139  1.00  0.00    -0.550 OA
ATOM      8  O   UNL     1      27.043   2.956   6.585  1.00  0.00    -0.550 OA
ENDBRANCH   5   6
ENDBRANCH   4   5
ENDBRANCH   3   4
ENDBRANCH   2   3
ENDBRANCH   1   2
BRANCH   1   9
ATOM      9  C   UNL     1      26.563   7.862   7.320  1.00  0.00     0.000 C 
BRANCH   9  10
ATOM     10  C   UNL     1      26.257   6.687   6.376  1.00  0.00    -0.000 C 
BRANCH  10  11
ATOM     11  C   UNL     1      24.750   6.396   6.256  1.00  0.00    -0.000 C 
BRANCH  11  12
ATOM     12  C   UNL     1      24.302   5.032   6.821  1.00  0.00    -0.000 C 
BRANCH  12  13
ATOM     13  C   UNL     1      23.182   5.101   7.872  1.00  0.00    -0.003 C 
ATOM     14  C   UNL     1      22.771   6.532   8.213  1.00  0.00     0.004 C 
ENDBRANCH  12  13
ENDBRANCH  11  12
ENDBRANCH  10  11
ENDBRANCH   9  10
ENDBRANCH   1   9
TORSDOF 10
ENDMDL
MODEL 9
REMARK VINA RESULT:    -3.849      3.407      5.007
REMARK INTER + INTRA:          -7.395
REMARK INTER:                  -6.173
REMARK INTRA:                  -1.222
REMARK UNBOUND:                -1.296
REMARK SMILES CCCCCCCCCCCC(=O)[O-]
REMARK SMILES IDX 7 1 8 2 9 3 10 4 11 5 12 6 13 7 14 8 6 9 5 10 4 11 3 12 2 13
REMARK SMILES IDX 1 14
REMARK H PARENT
REMARK Flexibility Score: inf
ROOT
ATOM      1  C   UNL     1      26.524   4.110   7.006  1.00  0.00     0.000 C 
ENDROOT
BRANCH   1   2
ATOM      2  C   UNL     1      26.557   2.794   7.804  1.00  0.00     0.000 C 
BRANCH   2   3
ATOM      3  C   UNL     1      27.973   2.205   7.910  1.00  0.00     0.000 C 
BRANCH   3   4
ATOM      4  C   UNL     1      28.052   1.022   8.888  1.00  0.00     0.006 C 
BRANCH   4   5
ATOM      5  C   UNL     1      28.347  -0.283   8.143  1.00  0.00     0.053 C 
BRANCH   5   6
ATOM      6  C   UNL     1      27.150  -0.724   7.361  1.00  0.00     0.041 C 
ATOM      7  O   UNL     1      27.243  -0.930   6.123  1.00  0.00    -0.550 OA
ATOM      8  O   UNL     1      25.943  -0.953   8.009  1.00  0.00    -0.550 OA
ENDBRANCH   5   6
ENDBRANCH   4   5
ENDBRANCH   3   4
ENDBRANCH   2   3
ENDBRANCH   1   2
BRANCH   1   9
ATOM      9  C   UNL     1      26.151   5.318   7.879  1.00  0.00     0.000 C 
BRANCH   9  10
ATOM     10  C   UNL     1      25.491   4.910   9.207  1.00  0.00    -0.000 C 
BRANCH  10  11
ATOM     11  C   UNL     1      26.403   5.148  10.424  1.00  0.00    -0.000 C 
BRANCH  11  12
ATOM     12  C   UNL     1      27.759   5.809  10.101  1.00  0.00    -0.000 C 
BRANCH  12  13
ATOM     13  C   UNL     1      28.987   4.903  10.301  1.00  0.00    -0.003 C 
ATOM     14  C   UNL     1      28.806   3.897  11.436  1.00  0.00     0.004 C 
ENDBRANCH  12  13
ENDBRANCH  11  12
ENDBRANCH  10  11
ENDBRANCH   9  10
ENDBRANCH   1   9
TORSDOF 10
ENDMDL
