MODEL 1
REMARK VINA RESULT:    -6.890      0.000      0.000
REMARK INTER + INTRA:         -11.997
REMARK INTER:                 -10.515
REMARK INTRA:                  -1.482
REMARK UNBOUND:                -1.482
REMARK SMILES OC[C@@H]1O[C@H](O[C@@]2(CO)O[C@@H](CO)[C@@H](O)[C@@H]2O)[C@@H](O)[C@H](O)[C@H]1O
REMARK SMILES IDX 6 1 5 2 3 3 22 4 4 5 20 6 18 7 2 8 1 9 23 11 21 13 19 15
REMARK SMILES IDX 7 17 16 18 10 19 14 20 11 21 8 22 9 23 17 25 15 27 12 29
REMARK SMILES IDX 13 30
REMARK H PARENT 1 10 23 12 21 14 19 16 9 24 17 26 15 28 13 31
REMARK Flexibility Score: inf
ROOT
ATOM      1  O   UNL     1      20.333  -1.575  19.796  1.00  0.00    -0.313 OA
ENDROOT
BRANCH   1   2
ATOM      2  C   UNL     1      19.241  -2.483  19.863  1.00  0.00     0.285 C 
ATOM      3  C   UNL     1      17.210  -2.926  18.790  1.00  0.00     0.178 C 
ATOM      4  C   UNL     1      17.757  -3.905  17.721  1.00  0.00     0.177 C 
ATOM      5  O   UNL     1      18.188  -1.946  19.071  1.00  0.00    -0.341 OA
ATOM      6  C   UNL     1      19.279  -4.155  17.908  1.00  0.00     0.179 C 
ATOM      7  C   UNL     1      19.741  -3.873  19.357  1.00  0.00     0.202 C 
BRANCH   3   8
ATOM      8  C   UNL     1      15.933  -2.235  18.292  1.00  0.00     0.191 C 
BRANCH   8   9
ATOM      9  O   UNL     1      14.852  -3.132  18.319  1.00  0.00    -0.394 OA
ATOM     10  H   UNL     1      14.110  -2.695  17.823  1.00  0.00     0.210 HD
ENDBRANCH   8   9
ENDBRANCH   3   8
BRANCH   4  11
ATOM     11  O   UNL     1      17.040  -5.115  17.746  1.00  0.00    -0.387 OA
ATOM     12  H   UNL     1      16.104  -4.917  17.483  1.00  0.00     0.211 HD
ENDBRANCH   4  11
BRANCH   6  13
ATOM     13  O   UNL     1      20.031  -3.392  16.993  1.00  0.00    -0.387 OA
ATOM     14  H   UNL     1      20.445  -4.014  16.341  1.00  0.00     0.211 HD
ENDBRANCH   6  13
BRANCH   7  15
ATOM     15  O   UNL     1      19.260  -4.878  20.216  1.00  0.00    -0.385 OA
ATOM     16  H   UNL     1      18.538  -5.355  19.728  1.00  0.00     0.211 HD
ENDBRANCH   7  15
ENDBRANCH   1   2
BRANCH   1  17
ATOM     17  C   UNL     1      20.596  -0.874  21.010  1.00  0.00     0.224 C 
ATOM     18  C   UNL     1      22.123  -0.712  21.114  1.00  0.00     0.208 C 
ATOM     19  O   UNL     1      20.175  -1.642  22.128  1.00  0.00    -0.337 OA
ATOM     20  C   UNL     1      22.527  -1.983  21.817  1.00  0.00     0.180 C 
ATOM     21  C   UNL     1      21.315  -2.236  22.714  1.00  0.00     0.179 C 
BRANCH  17  22
ATOM     22  C   UNL     1      19.869   0.493  21.007  1.00  0.00     0.225 C 
BRANCH  22  23
ATOM     23  O   UNL     1      19.577   0.902  22.318  1.00  0.00    -0.391 OA
ATOM     24  H   UNL     1      19.906   0.188  22.922  1.00  0.00     0.210 HD
ENDBRANCH  22  23
ENDBRANCH  17  22
BRANCH  18  25
ATOM     25  O   UNL     1      22.476   0.399  21.904  1.00  0.00    -0.385 OA
ATOM     26  H   UNL     1      21.719   0.554  22.527  1.00  0.00     0.211 HD
ENDBRANCH  18  25
BRANCH  20  27
ATOM     27  O   UNL     1      22.698  -3.023  20.883  1.00  0.00    -0.387 OA
ATOM     28  H   UNL     1      21.980  -3.686  21.064  1.00  0.00     0.211 HD
ENDBRANCH  20  27
BRANCH  21  29
ATOM     29  C   UNL     1      21.037  -3.721  23.005  1.00  0.00     0.191 C 
BRANCH  29  30
ATOM     30  O   UNL     1      22.221  -4.391  23.356  1.00  0.00    -0.394 OA
ATOM     31  H   UNL     1      22.718  -3.788  23.971  1.00  0.00     0.210 HD
ENDBRANCH  29  30
ENDBRANCH  21  29
ENDBRANCH   1  17
TORSDOF 13
ENDMDL
MODEL 2
REMARK VINA RESULT:    -6.864      1.747      5.895
REMARK INTER + INTRA:         -11.957
REMARK INTER:                 -10.689
REMARK INTRA:                  -1.268
REMARK UNBOUND:                -1.482
REMARK SMILES OC[C@@H]1O[C@H](O[C@@]2(CO)O[C@@H](CO)[C@@H](O)[C@@H]2O)[C@@H](O)[C@H](O)[C@H]1O
REMARK SMILES IDX 6 1 5 2 3 3 22 4 4 5 20 6 18 7 2 8 1 9 23 11 21 13 19 15
REMARK SMILES IDX 7 17 16 18 10 19 14 20 11 21 8 22 9 23 17 25 15 27 12 29
REMARK SMILES IDX 13 30
REMARK H PARENT 1 10 23 12 21 14 19 16 9 24 17 26 15 28 13 31
REMARK Flexibility Score: inf
ROOT
ATOM      1  O   UNL     1      18.891  -2.527  19.774  1.00  0.00    -0.313 OA
ENDROOT
BRANCH   1   2
ATOM      2  C   UNL     1      20.269  -2.184  19.709  1.00  0.00     0.285 C 
ATOM      3  C   UNL     1      21.913  -1.114  20.985  1.00  0.00     0.178 C 
ATOM      4  C   UNL     1      22.419  -2.363  21.748  1.00  0.00     0.177 C 
ATOM      5  O   UNL     1      20.526  -1.242  20.744  1.00  0.00    -0.341 OA
ATOM      6  C   UNL     1      21.685  -3.650  21.279  1.00  0.00     0.179 C 
ATOM      7  C   UNL     1      21.098  -3.499  19.856  1.00  0.00     0.202 C 
BRANCH   3   8
ATOM      8  C   UNL     1      22.166   0.161  21.800  1.00  0.00     0.191 C 
BRANCH   8   9
ATOM      9  O   UNL     1      22.805  -0.153  23.010  1.00  0.00    -0.394 OA
ATOM     10  H   UNL     1      23.139  -1.085  22.921  1.00  0.00     0.210 HD
ENDBRANCH   8   9
ENDBRANCH   3   8
BRANCH   4  11
ATOM     11  O   UNL     1      23.813  -2.498  21.606  1.00  0.00    -0.387 OA
ATOM     12  H   UNL     1      24.130  -3.113  22.316  1.00  0.00     0.211 HD
ENDBRANCH   4  11
BRANCH   6  13
ATOM     13  O   UNL     1      20.676  -4.016  22.192  1.00  0.00    -0.387 OA
ATOM     14  H   UNL     1      20.977  -3.759  23.102  1.00  0.00     0.211 HD
ENDBRANCH   6  13
BRANCH   7  15
ATOM     15  O   UNL     1      22.138  -3.497  18.908  1.00  0.00    -0.385 OA
ATOM     16  H   UNL     1      22.341  -2.547  18.702  1.00  0.00     0.211 HD
ENDBRANCH   7  15
ENDBRANCH   1   2
BRANCH   1  17
ATOM     17  C   UNL     1      18.107  -2.042  18.686  1.00  0.00     0.224 C 
ATOM     18  C   UNL     1      16.887  -1.328  19.293  1.00  0.00     0.208 C 
ATOM     19  O   UNL     1      17.619  -3.123  17.906  1.00  0.00    -0.337 OA
ATOM     20  C   UNL     1      15.900  -2.458  19.438  1.00  0.00     0.180 C 
ATOM     21  C   UNL     1      16.263  -3.337  18.241  1.00  0.00     0.179 C 
BRANCH  17  22
ATOM     22  C   UNL     1      18.950  -1.094  17.799  1.00  0.00     0.225 C 
BRANCH  22  23
ATOM     23  O   UNL     1      18.361  -0.941  16.534  1.00  0.00    -0.391 OA
ATOM     24  H   UNL     1      17.577  -0.346  16.653  1.00  0.00     0.210 HD
ENDBRANCH  22  23
ENDBRANCH  17  22
BRANCH  18  25
ATOM     25  O   UNL     1      16.367  -0.353  18.419  1.00  0.00    -0.385 OA
ATOM     26  H   UNL     1      16.315   0.492  18.937  1.00  0.00     0.211 HD
ENDBRANCH  18  25
BRANCH  20  27
ATOM     27  O   UNL     1      16.112  -3.136  20.653  1.00  0.00    -0.387 OA
ATOM     28  H   UNL     1      16.330  -4.077  20.418  1.00  0.00     0.211 HD
ENDBRANCH  20  27
BRANCH  21  29
ATOM     29  C   UNL     1      16.010  -4.840  18.455  1.00  0.00     0.191 C 
BRANCH  29  30
ATOM     30  O   UNL     1      14.676  -5.073  18.828  1.00  0.00    -0.394 OA
ATOM     31  H   UNL     1      14.656  -5.961  19.274  1.00  0.00     0.210 HD
ENDBRANCH  29  30
ENDBRANCH  21  29
ENDBRANCH   1  17
TORSDOF 13
ENDMDL
MODEL 3
REMARK VINA RESULT:    -6.707      1.553      6.050
REMARK INTER + INTRA:         -11.718
REMARK INTER:                 -10.453
REMARK INTRA:                  -1.265
REMARK UNBOUND:                -1.482
REMARK SMILES OC[C@@H]1O[C@H](O[C@@]2(CO)O[C@@H](CO)[C@@H](O)[C@@H]2O)[C@@H](O)[C@H](O)[C@H]1O
REMARK SMILES IDX 6 1 5 2 3 3 22 4 4 5 20 6 18 7 2 8 1 9 23 11 21 13 19 15
REMARK SMILES IDX 7 17 16 18 10 19 14 20 11 21 8 22 9 23 17 25 15 27 12 29
REMARK SMILES IDX 13 30
REMARK H PARENT 1 10 23 12 21 14 19 16 9 24 17 26 15 28 13 31
REMARK Flexibility Score: inf
ROOT
ATOM      1  O   UNL     1      18.895  -2.889  19.824  1.00  0.00    -0.313 OA
ENDROOT
BRANCH   1   2
ATOM      2  C   UNL     1      20.246  -2.472  19.681  1.00  0.00     0.285 C 
ATOM      3  C   UNL     1      21.821  -1.103  20.739  1.00  0.00     0.178 C 
ATOM      4  C   UNL     1      22.416  -2.176  21.686  1.00  0.00     0.177 C 
ATOM      5  O   UNL     1      20.445  -1.360  20.546  1.00  0.00    -0.341 OA
ATOM      6  C   UNL     1      21.767  -3.567  21.444  1.00  0.00     0.179 C 
ATOM      7  C   UNL     1      21.163  -3.688  20.025  1.00  0.00     0.202 C 
BRANCH   3   8
ATOM      8  C   UNL     1      21.993   0.302  21.332  1.00  0.00     0.191 C 
BRANCH   8   9
ATOM      9  O   UNL     1      22.509   0.220  22.636  1.00  0.00    -0.394 OA
ATOM     10  H   UNL     1      22.088   0.956  23.154  1.00  0.00     0.210 HD
ENDBRANCH   8   9
ENDBRANCH   3   8
BRANCH   4  11
ATOM     11  O   UNL     1      23.814  -2.240  21.544  1.00  0.00    -0.387 OA
ATOM     12  H   UNL     1      24.046  -3.158  21.247  1.00  0.00     0.211 HD
ENDBRANCH   4  11
BRANCH   6  13
ATOM     13  O   UNL     1      20.791  -3.845  22.421  1.00  0.00    -0.387 OA
ATOM     14  H   UNL     1      21.052  -4.679  22.889  1.00  0.00     0.211 HD
ENDBRANCH   6  13
BRANCH   7  15
ATOM     15  O   UNL     1      22.194  -3.773  19.072  1.00  0.00    -0.385 OA
ATOM     16  H   UNL     1      22.823  -3.026  19.259  1.00  0.00     0.211 HD
ENDBRANCH   7  15
ENDBRANCH   1   2
BRANCH   1  17
ATOM     17  C   UNL     1      18.217  -3.136  18.594  1.00  0.00     0.224 C 
ATOM     18  C   UNL     1      18.610  -2.005  17.628  1.00  0.00     0.208 C 
ATOM     19  O   UNL     1      16.812  -3.065  18.779  1.00  0.00    -0.337 OA
ATOM     20  C   UNL     1      17.572  -0.955  17.934  1.00  0.00     0.180 C 
ATOM     21  C   UNL     1      16.361  -1.817  18.293  1.00  0.00     0.179 C 
BRANCH  17  22
ATOM     22  C   UNL     1      18.604  -4.530  18.040  1.00  0.00     0.225 C 
BRANCH  22  23
ATOM     23  O   UNL     1      17.697  -4.939  17.048  1.00  0.00    -0.391 OA
ATOM     24  H   UNL     1      18.190  -5.554  16.447  1.00  0.00     0.210 HD
ENDBRANCH  22  23
ENDBRANCH  17  22
BRANCH  18  25
ATOM     25  O   UNL     1      18.497  -2.406  16.283  1.00  0.00    -0.385 OA
ATOM     26  H   UNL     1      19.381  -2.775  16.023  1.00  0.00     0.211 HD
ENDBRANCH  18  25
BRANCH  20  27
ATOM     27  O   UNL     1      17.982  -0.169  19.027  1.00  0.00    -0.387 OA
ATOM     28  H   UNL     1      18.888  -0.489  19.281  1.00  0.00     0.211 HD
ENDBRANCH  20  27
BRANCH  21  29
ATOM     29  C   UNL     1      15.403  -1.175  19.312  1.00  0.00     0.191 C 
BRANCH  29  30
ATOM     30  O   UNL     1      14.896   0.040  18.823  1.00  0.00    -0.394 OA
ATOM     31  H   UNL     1      15.415   0.764  19.266  1.00  0.00     0.210 HD
ENDBRANCH  29  30
ENDBRANCH  21  29
ENDBRANCH   1  17
TORSDOF 13
ENDMDL
MODEL 4
REMARK VINA RESULT:    -6.666      1.545      5.734
REMARK INTER + INTRA:         -11.655
REMARK INTER:                 -10.143
REMARK INTRA:                  -1.512
REMARK UNBOUND:                -1.482
REMARK SMILES OC[C@@H]1O[C@H](O[C@@]2(CO)O[C@@H](CO)[C@@H](O)[C@@H]2O)[C@@H](O)[C@H](O)[C@H]1O
REMARK SMILES IDX 6 1 5 2 3 3 22 4 4 5 20 6 18 7 2 8 1 9 23 11 21 13 19 15
REMARK SMILES IDX 7 17 16 18 10 19 14 20 11 21 8 22 9 23 17 25 15 27 12 29
REMARK SMILES IDX 13 30
REMARK H PARENT 1 10 23 12 21 14 19 16 9 24 17 26 15 28 13 31
REMARK Flexibility Score: inf
ROOT
ATOM      1  O   UNL     1      19.045  -2.436  20.900  1.00  0.00    -0.313 OA
ENDROOT
BRANCH   1   2
ATOM      2  C   UNL     1      20.378  -2.068  20.572  1.00  0.00     0.285 C 
ATOM      3  C   UNL     1      22.176  -0.864  21.461  1.00  0.00     0.178 C 
ATOM      4  C   UNL     1      22.851  -2.037  22.214  1.00  0.00     0.177 C 
ATOM      5  O   UNL     1      20.774  -1.042  21.475  1.00  0.00    -0.341 OA
ATOM      6  C   UNL     1      22.094  -3.373  21.976  1.00  0.00     0.179 C 
ATOM      7  C   UNL     1      21.266  -3.348  20.669  1.00  0.00     0.202 C 
BRANCH   3   8
ATOM      8  C   UNL     1      22.519   0.477  22.123  1.00  0.00     0.191 C 
BRANCH   8   9
ATOM      9  O   UNL     1      23.605   0.323  23.001  1.00  0.00    -0.394 OA
ATOM     10  H   UNL     1      23.361   0.796  23.840  1.00  0.00     0.210 HD
ENDBRANCH   8   9
ENDBRANCH   3   8
BRANCH   4  11
ATOM     11  O   UNL     1      24.203  -2.150  21.843  1.00  0.00    -0.387 OA
ATOM     12  H   UNL     1      24.754  -1.867  22.618  1.00  0.00     0.211 HD
ENDBRANCH   4  11
BRANCH   6  13
ATOM     13  O   UNL     1      21.270  -3.689  23.075  1.00  0.00    -0.387 OA
ATOM     14  H   UNL     1      20.602  -2.964  23.177  1.00  0.00     0.211 HD
ENDBRANCH   6  13
BRANCH   7  15
ATOM     15  O   UNL     1      22.128  -3.397  19.558  1.00  0.00    -0.385 OA
ATOM     16  H   UNL     1      22.429  -2.467  19.383  1.00  0.00     0.211 HD
ENDBRANCH   7  15
ENDBRANCH   1   2
BRANCH   1  17
ATOM     17  C   UNL     1      18.104  -2.262  19.843  1.00  0.00     0.224 C 
ATOM     18  C   UNL     1      16.997  -3.310  20.048  1.00  0.00     0.208 C 
ATOM     19  O   UNL     1      18.712  -2.529  18.588  1.00  0.00    -0.337 OA
ATOM     20  C   UNL     1      17.545  -4.498  19.299  1.00  0.00     0.180 C 
ATOM     21  C   UNL     1      18.314  -3.817  18.166  1.00  0.00     0.179 C 
BRANCH  17  22
ATOM     22  C   UNL     1      17.543  -0.818  19.858  1.00  0.00     0.225 C 
BRANCH  22  23
ATOM     23  O   UNL     1      17.151  -0.424  18.568  1.00  0.00    -0.391 OA
ATOM     24  H   UNL     1      17.959  -0.471  17.996  1.00  0.00     0.210 HD
ENDBRANCH  22  23
ENDBRANCH  17  22
BRANCH  18  25
ATOM     25  O   UNL     1      15.780  -2.903  19.466  1.00  0.00    -0.385 OA
ATOM     26  H   UNL     1      15.412  -2.190  20.050  1.00  0.00     0.211 HD
ENDBRANCH  18  25
BRANCH  20  27
ATOM     27  O   UNL     1      18.407  -5.241  20.128  1.00  0.00    -0.387 OA
ATOM     28  H   UNL     1      18.934  -4.581  20.652  1.00  0.00     0.211 HD
ENDBRANCH  20  27
BRANCH  21  29
ATOM     29  C   UNL     1      19.539  -4.604  17.667  1.00  0.00     0.191 C 
BRANCH  29  30
ATOM     30  O   UNL     1      20.437  -3.757  16.998  1.00  0.00    -0.394 OA
ATOM     31  H   UNL     1      21.009  -4.339  16.430  1.00  0.00     0.210 HD
ENDBRANCH  29  30
ENDBRANCH  21  29
ENDBRANCH   1  17
TORSDOF 13
ENDMDL
MODEL 5
REMARK VINA RESULT:    -6.653      1.676      3.597
REMARK INTER + INTRA:         -11.635
REMARK INTER:                 -10.251
REMARK INTRA:                  -1.384
REMARK UNBOUND:                -1.482
REMARK SMILES OC[C@@H]1O[C@H](O[C@@]2(CO)O[C@@H](CO)[C@@H](O)[C@@H]2O)[C@@H](O)[C@H](O)[C@H]1O
REMARK SMILES IDX 6 1 5 2 3 3 22 4 4 5 20 6 18 7 2 8 1 9 23 11 21 13 19 15
REMARK SMILES IDX 7 17 16 18 10 19 14 20 11 21 8 22 9 23 17 25 15 27 12 29
REMARK SMILES IDX 13 30
REMARK H PARENT 1 10 23 12 21 14 19 16 9 24 17 26 15 28 13 31
REMARK Flexibility Score: inf
ROOT
ATOM      1  O   UNL     1      19.083  -2.278  21.191  1.00  0.00    -0.313 OA
ENDROOT
BRANCH   1   2
ATOM      2  C   UNL     1      18.595  -2.430  19.865  1.00  0.00     0.285 C 
ATOM      3  C   UNL     1      16.814  -3.418  18.713  1.00  0.00     0.178 C 
ATOM      4  C   UNL     1      15.846  -2.210  18.765  1.00  0.00     0.177 C 
ATOM      5  O   UNL     1      17.597  -3.443  19.890  1.00  0.00    -0.341 OA
ATOM      6  C   UNL     1      16.507  -0.984  19.454  1.00  0.00     0.179 C 
ATOM      7  C   UNL     1      18.051  -1.045  19.393  1.00  0.00     0.202 C 
BRANCH   3   8
ATOM      8  C   UNL     1      16.036  -4.736  18.598  1.00  0.00     0.191 C 
BRANCH   8   9
ATOM      9  O   UNL     1      14.654  -4.484  18.570  1.00  0.00    -0.394 OA
ATOM     10  H   UNL     1      14.487  -3.749  19.218  1.00  0.00     0.210 HD
ENDBRANCH   8   9
ENDBRANCH   3   8
BRANCH   4  11
ATOM     11  O   UNL     1      15.396  -1.882  17.474  1.00  0.00    -0.387 OA
ATOM     12  H   UNL     1      16.101  -2.150  16.830  1.00  0.00     0.211 HD
ENDBRANCH   4  11
BRANCH   6  13
ATOM     13  O   UNL     1      16.071  -0.859  20.788  1.00  0.00    -0.387 OA
ATOM     14  H   UNL     1      16.731  -1.314  21.372  1.00  0.00     0.211 HD
ENDBRANCH   6  13
BRANCH   7  15
ATOM     15  O   UNL     1      18.487  -0.802  18.077  1.00  0.00    -0.385 OA
ATOM     16  H   UNL     1      19.391  -1.205  17.992  1.00  0.00     0.211 HD
ENDBRANCH   7  15
ENDBRANCH   1   2
BRANCH   1  17
ATOM     17  C   UNL     1      20.501  -2.375  21.316  1.00  0.00     0.224 C 
ATOM     18  C   UNL     1      20.808  -2.584  22.809  1.00  0.00     0.208 C 
ATOM     19  O   UNL     1      21.118  -1.158  20.924  1.00  0.00    -0.337 OA
ATOM     20  C   UNL     1      20.910  -1.166  23.312  1.00  0.00     0.180 C 
ATOM     21  C   UNL     1      21.484  -0.449  22.090  1.00  0.00     0.179 C 
BRANCH  17  22
ATOM     22  C   UNL     1      21.036  -3.539  20.447  1.00  0.00     0.225 C 
BRANCH  22  23
ATOM     23  O   UNL     1      22.259  -3.192  19.850  1.00  0.00    -0.391 OA
ATOM     24  H   UNL     1      22.965  -3.695  20.332  1.00  0.00     0.210 HD
ENDBRANCH  22  23
ENDBRANCH  17  22
BRANCH  18  25
ATOM     25  O   UNL     1      22.038  -3.244  23.000  1.00  0.00    -0.385 OA
ATOM     26  H   UNL     1      21.990  -4.087  22.479  1.00  0.00     0.211 HD
ENDBRANCH  18  25
BRANCH  20  27
ATOM     27  O   UNL     1      19.632  -0.674  23.640  1.00  0.00    -0.387 OA
ATOM     28  H   UNL     1      19.680  -0.372  24.586  1.00  0.00     0.211 HD
ENDBRANCH  20  27
BRANCH  21  29
ATOM     29  C   UNL     1      21.059   1.024  21.959  1.00  0.00     0.191 C 
BRANCH  29  30
ATOM     30  O   UNL     1      19.768   1.125  21.415  1.00  0.00    -0.394 OA
ATOM     31  H   UNL     1      19.583   0.262  20.958  1.00  0.00     0.210 HD
ENDBRANCH  29  30
ENDBRANCH  21  29
ENDBRANCH   1  17
TORSDOF 13
ENDMDL
MODEL 6
REMARK VINA RESULT:    -6.555      2.213      4.638
REMARK INTER + INTRA:         -11.486
REMARK INTER:                 -10.042
REMARK INTRA:                  -1.444
REMARK UNBOUND:                -1.482
REMARK SMILES OC[C@@H]1O[C@H](O[C@@]2(CO)O[C@@H](CO)[C@@H](O)[C@@H]2O)[C@@H](O)[C@H](O)[C@H]1O
REMARK SMILES IDX 6 1 5 2 3 3 22 4 4 5 20 6 18 7 2 8 1 9 23 11 21 13 19 15
REMARK SMILES IDX 7 17 16 18 10 19 14 20 11 21 8 22 9 23 17 25 15 27 12 29
REMARK SMILES IDX 13 30
REMARK H PARENT 1 10 23 12 21 14 19 16 9 24 17 26 15 28 13 31
REMARK Flexibility Score: inf
ROOT
ATOM      1  O   UNL     1      18.213  -2.302  19.028  1.00  0.00    -0.313 OA
ENDROOT
BRANCH   1   2
ATOM      2  C   UNL     1      16.862  -2.326  19.471  1.00  0.00     0.285 C 
ATOM      3  C   UNL     1      15.339  -1.002  20.655  1.00  0.00     0.178 C 
ATOM      4  C   UNL     1      14.765  -0.225  19.444  1.00  0.00     0.177 C 
ATOM      5  O   UNL     1      16.705  -1.284  20.426  1.00  0.00    -0.341 OA
ATOM      6  C   UNL     1      15.390  -0.715  18.108  1.00  0.00     0.179 C 
ATOM      7  C   UNL     1      15.945  -2.155  18.220  1.00  0.00     0.202 C 
BRANCH   3   8
ATOM      8  C   UNL     1      15.203  -0.180  21.943  1.00  0.00     0.191 C 
BRANCH   8   9
ATOM      9  O   UNL     1      13.924   0.393  22.022  1.00  0.00    -0.394 OA
ATOM     10  H   UNL     1      14.038   1.366  21.852  1.00  0.00     0.210 HD
ENDBRANCH   8   9
ENDBRANCH   3   8
BRANCH   4  11
ATOM     11  O   UNL     1      13.363  -0.326  19.412  1.00  0.00    -0.387 OA
ATOM     12  H   UNL     1      13.061  -0.051  18.507  1.00  0.00     0.211 HD
ENDBRANCH   4  11
BRANCH   6  13
ATOM     13  O   UNL     1      16.396   0.168  17.668  1.00  0.00    -0.387 OA
ATOM     14  H   UNL     1      17.245  -0.088  18.110  1.00  0.00     0.211 HD
ENDBRANCH   6  13
BRANCH   7  15
ATOM     15  O   UNL     1      14.880  -3.072  18.299  1.00  0.00    -0.385 OA
ATOM     16  H   UNL     1      14.219  -2.810  17.605  1.00  0.00     0.211 HD
ENDBRANCH   7  15
ENDBRANCH   1   2
BRANCH   1  17
ATOM     17  C   UNL     1      18.902  -3.544  19.157  1.00  0.00     0.224 C 
ATOM     18  C   UNL     1      18.620  -4.071  20.574  1.00  0.00     0.208 C 
ATOM     19  O   UNL     1      20.303  -3.347  19.050  1.00  0.00    -0.337 OA
ATOM     20  C   UNL     1      19.726  -3.430  21.374  1.00  0.00     0.180 C 
ATOM     21  C   UNL     1      20.859  -3.384  20.348  1.00  0.00     0.179 C 
BRANCH  17  22
ATOM     22  C   UNL     1      18.426  -4.536  18.067  1.00  0.00     0.225 C 
BRANCH  22  23
ATOM     23  O   UNL     1      19.476  -5.380  17.670  1.00  0.00    -0.391 OA
ATOM     24  H   UNL     1      20.048  -4.854  17.054  1.00  0.00     0.210 HD
ENDBRANCH  22  23
ENDBRANCH  17  22
BRANCH  18  25
ATOM     25  O   UNL     1      18.737  -5.472  20.642  1.00  0.00    -0.385 OA
ATOM     26  H   UNL     1      19.422  -5.731  19.972  1.00  0.00     0.211 HD
ENDBRANCH  18  25
BRANCH  20  27
ATOM     27  O   UNL     1      19.348  -2.135  21.777  1.00  0.00    -0.387 OA
ATOM     28  H   UNL     1      19.566  -2.064  22.744  1.00  0.00     0.211 HD
ENDBRANCH  20  27
BRANCH  21  29
ATOM     29  C   UNL     1      21.836  -2.209  20.531  1.00  0.00     0.191 C 
BRANCH  29  30
ATOM     30  O   UNL     1      21.421  -1.094  19.785  1.00  0.00    -0.394 OA
ATOM     31  H   UNL     1      22.128  -0.926  19.107  1.00  0.00     0.210 HD
ENDBRANCH  29  30
ENDBRANCH  21  29
ENDBRANCH   1  17
TORSDOF 13
ENDMDL
MODEL 7
REMARK VINA RESULT:    -6.530      1.771      3.105
REMARK INTER + INTRA:         -11.448
REMARK INTER:                 -10.378
REMARK INTRA:                  -1.070
REMARK UNBOUND:                -1.482
REMARK SMILES OC[C@@H]1O[C@H](O[C@@]2(CO)O[C@@H](CO)[C@@H](O)[C@@H]2O)[C@@H](O)[C@H](O)[C@H]1O
REMARK SMILES IDX 6 1 5 2 3 3 22 4 4 5 20 6 18 7 2 8 1 9 23 11 21 13 19 15
REMARK SMILES IDX 7 17 16 18 10 19 14 20 11 21 8 22 9 23 17 25 15 27 12 29
REMARK SMILES IDX 13 30
REMARK H PARENT 1 10 23 12 21 14 19 16 9 24 17 26 15 28 13 31
REMARK Flexibility Score: inf
ROOT
ATOM      1  O   UNL     1      21.705  -2.291  20.932  1.00  0.00    -0.313 OA
ENDROOT
BRANCH   1   2
ATOM      2  C   UNL     1      20.463  -2.667  20.353  1.00  0.00     0.285 C 
ATOM      3  C   UNL     1      19.126  -2.169  18.498  1.00  0.00     0.178 C 
ATOM      4  C   UNL     1      19.718  -3.227  17.535  1.00  0.00     0.177 C 
ATOM      5  O   UNL     1      20.143  -1.699  19.360  1.00  0.00    -0.341 OA
ATOM      6  C   UNL     1      20.797  -4.095  18.240  1.00  0.00     0.179 C 
ATOM      7  C   UNL     1      20.619  -4.109  19.776  1.00  0.00     0.202 C 
BRANCH   3   8
ATOM      8  C   UNL     1      18.542  -0.986  17.715  1.00  0.00     0.191 C 
BRANCH   8   9
ATOM      9  O   UNL     1      18.296  -1.357  16.383  1.00  0.00    -0.394 OA
ATOM     10  H   UNL     1      17.357  -1.683  16.349  1.00  0.00     0.210 HD
ENDBRANCH   8   9
ENDBRANCH   3   8
BRANCH   4  11
ATOM     11  O   UNL     1      18.697  -4.031  16.995  1.00  0.00    -0.387 OA
ATOM     12  H   UNL     1      17.957  -4.064  17.655  1.00  0.00     0.211 HD
ENDBRANCH   4  11
BRANCH   6  13
ATOM     13  O   UNL     1      22.094  -3.664  17.897  1.00  0.00    -0.387 OA
ATOM     14  H   UNL     1      22.396  -3.019  18.587  1.00  0.00     0.211 HD
ENDBRANCH   6  13
BRANCH   7  15
ATOM     15  O   UNL     1      19.486  -4.869  20.119  1.00  0.00    -0.385 OA
ATOM     16  H   UNL     1      19.490  -5.674  19.537  1.00  0.00     0.211 HD
ENDBRANCH   7  15
ENDBRANCH   1   2
BRANCH   1  17
ATOM     17  C   UNL     1      21.632  -1.926  22.309  1.00  0.00     0.224 C 
ATOM     18  C   UNL     1      20.601  -0.789  22.419  1.00  0.00     0.208 C 
ATOM     19  O   UNL     1      22.878  -1.412  22.753  1.00  0.00    -0.337 OA
ATOM     20  C   UNL     1      21.454   0.433  22.192  1.00  0.00     0.180 C 
ATOM     21  C   UNL     1      22.784  -0.003  22.808  1.00  0.00     0.179 C 
BRANCH  17  22
ATOM     22  C   UNL     1      21.234  -3.152  23.167  1.00  0.00     0.225 C 
BRANCH  22  23
ATOM     23  O   UNL     1      22.152  -4.200  22.993  1.00  0.00    -0.391 OA
ATOM     24  H   UNL     1      22.865  -3.860  22.394  1.00  0.00     0.210 HD
ENDBRANCH  22  23
ENDBRANCH  17  22
BRANCH  18  25
ATOM     25  O   UNL     1      20.025  -0.732  23.703  1.00  0.00    -0.385 OA
ATOM     26  H   UNL     1      20.766  -0.856  24.351  1.00  0.00     0.211 HD
ENDBRANCH  18  25
BRANCH  20  27
ATOM     27  O   UNL     1      21.588   0.683  20.813  1.00  0.00    -0.387 OA
ATOM     28  H   UNL     1      20.705   0.483  20.402  1.00  0.00     0.211 HD
ENDBRANCH  20  27
BRANCH  21  29
ATOM     29  C   UNL     1      24.026   0.628  22.154  1.00  0.00     0.191 C 
BRANCH  29  30
ATOM     30  O   UNL     1      24.999  -0.348  21.886  1.00  0.00    -0.394 OA
ATOM     31  H   UNL     1      24.725  -1.168  22.378  1.00  0.00     0.210 HD
ENDBRANCH  29  30
ENDBRANCH  21  29
ENDBRANCH   1  17
TORSDOF 13
ENDMDL
MODEL 8
REMARK VINA RESULT:    -6.508      1.570      3.231
REMARK INTER + INTRA:         -11.414
REMARK INTER:                 -10.165
REMARK INTRA:                  -1.249
REMARK UNBOUND:                -1.482
REMARK SMILES OC[C@@H]1O[C@H](O[C@@]2(CO)O[C@@H](CO)[C@@H](O)[C@@H]2O)[C@@H](O)[C@H](O)[C@H]1O
REMARK SMILES IDX 6 1 5 2 3 3 22 4 4 5 20 6 18 7 2 8 1 9 23 11 21 13 19 15
REMARK SMILES IDX 7 17 16 18 10 19 14 20 11 21 8 22 9 23 17 25 15 27 12 29
REMARK SMILES IDX 13 30
REMARK H PARENT 1 10 23 12 21 14 19 16 9 24 17 26 15 28 13 31
REMARK Flexibility Score: inf
ROOT
ATOM      1  O   UNL     1      19.924  -2.165  19.736  1.00  0.00    -0.313 OA
ENDROOT
BRANCH   1   2
ATOM      2  C   UNL     1      18.645  -2.756  19.922  1.00  0.00     0.285 C 
ATOM      3  C   UNL     1      16.393  -2.141  20.082  1.00  0.00     0.178 C 
ATOM      4  C   UNL     1      16.049  -2.244  18.575  1.00  0.00     0.177 C 
ATOM      5  O   UNL     1      17.731  -1.710  20.230  1.00  0.00    -0.341 OA
ATOM      6  C   UNL     1      17.269  -2.737  17.748  1.00  0.00     0.179 C 
ATOM      7  C   UNL     1      18.278  -3.527  18.615  1.00  0.00     0.202 C 
BRANCH   3   8
ATOM      8  C   UNL     1      15.462  -1.145  20.786  1.00  0.00     0.191 C 
BRANCH   8   9
ATOM      9  O   UNL     1      14.708  -0.432  19.841  1.00  0.00    -0.394 OA
ATOM     10  H   UNL     1      13.859  -0.176  20.290  1.00  0.00     0.210 HD
ENDBRANCH   8   9
ENDBRANCH   3   8
BRANCH   4  11
ATOM     11  O   UNL     1      14.935  -3.079  18.378  1.00  0.00    -0.387 OA
ATOM     12  H   UNL     1      14.600  -3.353  19.271  1.00  0.00     0.211 HD
ENDBRANCH   4  11
BRANCH   6  13
ATOM     13  O   UNL     1      17.909  -1.661  17.103  1.00  0.00    -0.387 OA
ATOM     14  H   UNL     1      17.373  -1.417  16.305  1.00  0.00     0.211 HD
ENDBRANCH   6  13
BRANCH   7  15
ATOM     15  O   UNL     1      17.738  -4.781  18.955  1.00  0.00    -0.385 OA
ATOM     16  H   UNL     1      18.503  -5.386  19.140  1.00  0.00     0.211 HD
ENDBRANCH   7  15
ENDBRANCH   1   2
BRANCH   1  17
ATOM     17  C   UNL     1      20.970  -2.761  20.502  1.00  0.00     0.224 C 
ATOM     18  C   UNL     1      20.390  -3.068  21.893  1.00  0.00     0.208 C 
ATOM     19  O   UNL     1      22.038  -1.844  20.682  1.00  0.00    -0.337 OA
ATOM     20  C   UNL     1      20.648  -1.780  22.633  1.00  0.00     0.180 C 
ATOM     21  C   UNL     1      21.954  -1.313  21.988  1.00  0.00     0.179 C 
BRANCH  17  22
ATOM     22  C   UNL     1      21.488  -4.039  19.797  1.00  0.00     0.225 C 
BRANCH  22  23
ATOM     23  O   UNL     1      22.071  -3.723  18.559  1.00  0.00    -0.391 OA
ATOM     24  H   UNL     1      23.001  -4.066  18.585  1.00  0.00     0.210 HD
ENDBRANCH  22  23
ENDBRANCH  17  22
BRANCH  18  25
ATOM     25  O   UNL     1      21.078  -4.123  22.524  1.00  0.00    -0.385 OA
ATOM     26  H   UNL     1      21.814  -3.708  23.045  1.00  0.00     0.211 HD
ENDBRANCH  18  25
BRANCH  20  27
ATOM     27  O   UNL     1      19.605  -0.865  22.396  1.00  0.00    -0.387 OA
ATOM     28  H   UNL     1      20.000   0.043  22.485  1.00  0.00     0.211 HD
ENDBRANCH  20  27
BRANCH  21  29
ATOM     29  C   UNL     1      22.129   0.215  21.942  1.00  0.00     0.191 C 
BRANCH  29  30
ATOM     30  O   UNL     1      21.424   0.766  20.860  1.00  0.00    -0.394 OA
ATOM     31  H   UNL     1      21.201   1.702  21.112  1.00  0.00     0.210 HD
ENDBRANCH  29  30
ENDBRANCH  21  29
ENDBRANCH   1  17
TORSDOF 13
ENDMDL
