MODEL 1
REMARK VINA RESULT:    -3.901      0.000      0.000
REMARK INTER + INTRA:          -3.901
REMARK INTER:                  -3.901
REMARK INTRA:                   0.000
REMARK UNBOUND:                 0.000
REMARK SMILES CC1(C)O[C@]2(C)CC[C@H]1CC2
REMARK SMILES IDX 1 1 2 2 9 3 8 4 7 5 5 6 4 7 11 8 10 9 6 10 3 11
REMARK H PARENT
REMARK Flexibility Score: inf
ROOT
ATOM      1  C   UNL     1     137.958 135.022 130.251  1.00  0.00     0.042 C 
ATOM      2  C   UNL     1     136.842 135.568 129.334  1.00  0.00     0.066 C 
ATOM      3  C   UNL     1     135.490 134.793 129.579  1.00  0.00     0.021 C 
ATOM      4  C   UNL     1     134.399 135.415 128.673  1.00  0.00     0.009 C 
ATOM      5  C   UNL     1     134.374 136.947 128.885  1.00  0.00     0.035 C 
ATOM      6  C   UNL     1     135.387 137.342 129.999  1.00  0.00     0.066 C 
ATOM      7  O   UNL     1     136.704 136.974 129.587  1.00  0.00    -0.369 OA
ATOM      8  C   UNL     1     135.027 136.574 131.304  1.00  0.00     0.035 C 
ATOM      9  C   UNL     1     135.036 135.051 131.035  1.00  0.00     0.009 C 
ATOM     10  C   UNL     1     135.349 138.854 130.242  1.00  0.00     0.042 C 
ATOM     11  C   UNL     1     137.318 135.389 127.875  1.00  0.00     0.042 C 
ENDROOT
TORSDOF 0
ENDMDL
MODEL 2
REMARK VINA RESULT:    -3.901      3.962      5.658
REMARK INTER + INTRA:          -3.901
REMARK INTER:                  -3.901
REMARK INTRA:                   0.000
REMARK UNBOUND:                 0.000
REMARK SMILES CC1(C)O[C@]2(C)CC[C@H]1CC2
REMARK SMILES IDX 1 1 2 2 9 3 8 4 7 5 5 6 4 7 11 8 10 9 6 10 3 11
REMARK H PARENT
REMARK Flexibility Score: inf
ROOT
ATOM      1  C   UNL     1     137.256 140.274 130.187  1.00  0.00     0.042 C 
ATOM      2  C   UNL     1     138.368 139.609 129.348  1.00  0.00     0.066 C 
ATOM      3  C   UNL     1     139.731 140.387 129.512  1.00  0.00     0.021 C 
ATOM      4  C   UNL     1     140.817 139.649 128.693  1.00  0.00     0.009 C 
ATOM      5  C   UNL     1     140.817 138.151 129.081  1.00  0.00     0.035 C 
ATOM      6  C   UNL     1     139.792 137.903 130.225  1.00  0.00     0.066 C 
ATOM      7  O   UNL     1     138.483 138.240 129.764  1.00  0.00    -0.369 OA
ATOM      8  C   UNL     1     140.156 138.811 131.436  1.00  0.00     0.035 C 
ATOM      9  C   UNL     1     140.172 140.294 130.992  1.00  0.00     0.009 C 
ATOM     10  C   UNL     1     139.805 136.429 130.642  1.00  0.00     0.042 C 
ATOM     11  C   UNL     1     137.903 139.625 127.875  1.00  0.00     0.042 C 
ENDROOT
TORSDOF 0
ENDMDL
MODEL 3
REMARK VINA RESULT:    -3.887      2.253      4.001
REMARK INTER + INTRA:          -3.887
REMARK INTER:                  -3.887
REMARK INTRA:                   0.000
REMARK UNBOUND:                 0.000
REMARK SMILES CC1(C)O[C@]2(C)CC[C@H]1CC2
REMARK SMILES IDX 1 1 2 2 9 3 8 4 7 5 5 6 4 7 11 8 10 9 6 10 3 11
REMARK H PARENT
REMARK Flexibility Score: inf
ROOT
ATOM      1  C   UNL     1     135.063 137.219 130.256  1.00  0.00     0.042 C 
ATOM      2  C   UNL     1     135.577 138.370 129.364  1.00  0.00     0.066 C 
ATOM      3  C   UNL     1     134.775 139.698 129.650  1.00  0.00     0.021 C 
ATOM      4  C   UNL     1     135.365 140.825 128.769  1.00  0.00     0.009 C 
ATOM      5  C   UNL     1     136.899 140.878 128.968  1.00  0.00     0.035 C 
ATOM      6  C   UNL     1     137.325 139.845 130.052  1.00  0.00     0.066 C 
ATOM      7  O   UNL     1     136.982 138.532 129.609  1.00  0.00    -0.369 OA
ATOM      8  C   UNL     1     136.561 140.155 131.373  1.00  0.00     0.035 C 
ATOM      9  C   UNL     1     135.036 140.119 131.116  1.00  0.00     0.009 C 
ATOM     10  C   UNL     1     138.837 139.910 130.284  1.00  0.00     0.042 C 
ATOM     11  C   UNL     1     135.395 137.928 127.895  1.00  0.00     0.042 C 
ENDROOT
TORSDOF 0
ENDMDL
MODEL 4
REMARK VINA RESULT:    -3.869      2.244      3.980
REMARK INTER + INTRA:          -3.869
REMARK INTER:                  -3.869
REMARK INTRA:                   0.000
REMARK UNBOUND:                 0.000
REMARK SMILES CC1(C)O[C@]2(C)CC[C@H]1CC2
REMARK SMILES IDX 1 1 2 2 9 3 8 4 7 5 5 6 4 7 11 8 10 9 6 10 3 11
REMARK H PARENT
REMARK Flexibility Score: inf
ROOT
ATOM      1  C   UNL     1     140.217 137.946 130.180  1.00  0.00     0.042 C 
ATOM      2  C   UNL     1     139.542 136.839 129.341  1.00  0.00     0.066 C 
ATOM      3  C   UNL     1     140.339 135.484 129.461  1.00  0.00     0.021 C 
ATOM      4  C   UNL     1     139.591 134.402 128.644  1.00  0.00     0.009 C 
ATOM      5  C   UNL     1     138.105 134.378 129.073  1.00  0.00     0.035 C 
ATOM      6  C   UNL     1     137.877 135.382 130.241  1.00  0.00     0.066 C 
ATOM      7  O   UNL     1     138.186 136.701 129.792  1.00  0.00    -0.369 OA
ATOM      8  C   UNL     1     138.822 135.008 131.420  1.00  0.00     0.035 C 
ATOM      9  C   UNL     1     140.292 135.017 130.936  1.00  0.00     0.009 C 
ATOM     10  C   UNL     1     136.415 135.344 130.698  1.00  0.00     0.042 C 
ATOM     11  C   UNL     1     139.512 137.328 127.876  1.00  0.00     0.042 C 
ENDROOT
TORSDOF 0
ENDMDL
MODEL 5
REMARK VINA RESULT:    -3.860      2.195      4.148
REMARK INTER + INTRA:          -3.860
REMARK INTER:                  -3.860
REMARK INTRA:                   0.000
REMARK UNBOUND:                 0.000
REMARK SMILES CC1(C)O[C@]2(C)CC[C@H]1CC2
REMARK SMILES IDX 1 1 2 2 9 3 8 4 7 5 5 6 4 7 11 8 10 9 6 10 3 11
REMARK H PARENT
REMARK Flexibility Score: inf
ROOT
ATOM      1  C   UNL     1     140.171 134.604 131.966  1.00  0.00     0.042 C 
ATOM      2  C   UNL     1     139.440 135.721 131.191  1.00  0.00     0.066 C 
ATOM      3  C   UNL     1     140.113 135.955 129.784  1.00  0.00     0.021 C 
ATOM      4  C   UNL     1     139.310 137.045 129.033  1.00  0.00     0.009 C 
ATOM      5  C   UNL     1     137.810 136.665 129.035  1.00  0.00     0.035 C 
ATOM      6  C   UNL     1     137.620 135.275 129.709  1.00  0.00     0.066 C 
ATOM      7  O   UNL     1     138.059 135.347 131.066  1.00  0.00    -0.369 OA
ATOM      8  C   UNL     1     138.480 134.223 128.949  1.00  0.00     0.035 C 
ATOM      9  C   UNL     1     139.964 134.661 128.949  1.00  0.00     0.009 C 
ATOM     10  C   UNL     1     136.143 134.870 129.689  1.00  0.00     0.042 C 
ATOM     11  C   UNL     1     139.513 137.001 132.052  1.00  0.00     0.042 C 
ENDROOT
TORSDOF 0
ENDMDL
MODEL 6
REMARK VINA RESULT:    -3.851      4.052      5.682
REMARK INTER + INTRA:          -3.851
REMARK INTER:                  -3.851
REMARK INTRA:                   0.000
REMARK UNBOUND:                 0.000
REMARK SMILES CC1(C)O[C@]2(C)CC[C@H]1CC2
REMARK SMILES IDX 1 1 2 2 9 3 8 4 7 5 5 6 4 7 11 8 10 9 6 10 3 11
REMARK H PARENT
REMARK Flexibility Score: inf
ROOT
ATOM      1  C   UNL     1     140.616 140.116 131.947  1.00  0.00     0.042 C 
ATOM      2  C   UNL     1     139.505 139.372 131.174  1.00  0.00     0.066 C 
ATOM      3  C   UNL     1     139.272 140.032 129.761  1.00  0.00     0.021 C 
ATOM      4  C   UNL     1     138.188 139.217 129.014  1.00  0.00     0.009 C 
ATOM      5  C   UNL     1     138.574 137.719 129.031  1.00  0.00     0.035 C 
ATOM      6  C   UNL     1     139.963 137.541 129.710  1.00  0.00     0.066 C 
ATOM      7  O   UNL     1     139.885 137.992 131.063  1.00  0.00    -0.369 OA
ATOM      8  C   UNL     1     141.014 138.399 128.946  1.00  0.00     0.035 C 
ATOM      9  C   UNL     1     140.569 139.881 128.931  1.00  0.00     0.009 C 
ATOM     10  C   UNL     1     140.374 136.066 129.704  1.00  0.00     0.042 C 
ATOM     11  C   UNL     1     138.221 139.448 132.031  1.00  0.00     0.042 C 
ENDROOT
TORSDOF 0
ENDMDL
MODEL 7
REMARK VINA RESULT:    -3.843      1.143      2.405
REMARK INTER + INTRA:          -3.843
REMARK INTER:                  -3.843
REMARK INTRA:                   0.000
REMARK UNBOUND:                 0.000
REMARK SMILES CC1(C)O[C@]2(C)CC[C@H]1CC2
REMARK SMILES IDX 1 1 2 2 9 3 8 4 7 5 5 6 4 7 11 8 10 9 6 10 3 11
REMARK H PARENT
REMARK Flexibility Score: inf
ROOT
ATOM      1  C   UNL     1     134.625 135.083 131.944  1.00  0.00     0.042 C 
ATOM      2  C   UNL     1     135.733 135.780 131.125  1.00  0.00     0.066 C 
ATOM      3  C   UNL     1     135.915 135.078 129.724  1.00  0.00     0.021 C 
ATOM      4  C   UNL     1     136.998 135.848 128.929  1.00  0.00     0.009 C 
ATOM      5  C   UNL     1     136.645 137.354 128.915  1.00  0.00     0.035 C 
ATOM      6  C   UNL     1     135.278 137.582 129.624  1.00  0.00     0.066 C 
ATOM      7  O   UNL     1     135.381 137.165 130.986  1.00  0.00    -0.369 OA
ATOM      8  C   UNL     1     134.190 136.729 128.909  1.00  0.00     0.035 C 
ATOM      9  C   UNL     1     134.601 135.237 128.923  1.00  0.00     0.009 C 
ATOM     10  C   UNL     1     134.900 139.066 129.588  1.00  0.00     0.042 C 
ATOM     11  C   UNL     1     137.035 135.698 131.951  1.00  0.00     0.042 C 
ENDROOT
TORSDOF 0
ENDMDL
MODEL 8
REMARK VINA RESULT:    -3.826      2.829      4.614
REMARK INTER + INTRA:          -3.826
REMARK INTER:                  -3.826
REMARK INTRA:                   0.000
REMARK UNBOUND:                 0.000
REMARK SMILES CC1(C)O[C@]2(C)CC[C@H]1CC2
REMARK SMILES IDX 1 1 2 2 9 3 8 4 7 5 5 6 4 7 11 8 10 9 6 10 3 11
REMARK H PARENT
REMARK Flexibility Score: inf
ROOT
ATOM      1  C   UNL     1     135.084 140.630 131.967  1.00  0.00     0.042 C 
ATOM      2  C   UNL     1     135.757 139.510 131.145  1.00  0.00     0.066 C 
ATOM      3  C   UNL     1     135.038 139.330 129.752  1.00  0.00     0.021 C 
ATOM      4  C   UNL     1     135.784 138.234 128.954  1.00  0.00     0.009 C 
ATOM      5  C   UNL     1     137.295 138.566 128.923  1.00  0.00     0.035 C 
ATOM      6  C   UNL     1     137.549 139.933 129.623  1.00  0.00     0.066 C 
ATOM      7  O   UNL     1     137.145 139.842 130.989  1.00  0.00    -0.369 OA
ATOM      8  C   UNL     1     136.703 141.030 128.912  1.00  0.00     0.035 C 
ATOM      9  C   UNL     1     135.206 140.639 128.944  1.00  0.00     0.009 C 
ATOM     10  C   UNL     1     139.037 140.291 129.569  1.00  0.00     0.042 C 
ATOM     11  C   UNL     1     135.666 138.212 131.978  1.00  0.00     0.042 C 
ENDROOT
TORSDOF 0
ENDMDL
MODEL 9
REMARK VINA RESULT:    -3.781      3.866      5.338
REMARK INTER + INTRA:          -3.781
REMARK INTER:                  -3.781
REMARK INTRA:                   0.000
REMARK UNBOUND:                 0.000
REMARK SMILES CC1(C)O[C@]2(C)CC[C@H]1CC2
REMARK SMILES IDX 1 1 2 2 9 3 8 4 7 5 5 6 4 7 11 8 10 9 6 10 3 11
REMARK H PARENT
REMARK Flexibility Score: inf
ROOT
ATOM      1  C   UNL     1     136.999 138.215 127.880  1.00  0.00     0.042 C 
ATOM      2  C   UNL     1     137.836 139.262 128.646  1.00  0.00     0.066 C 
ATOM      3  C   UNL     1     138.082 138.800 130.134  1.00  0.00     0.021 C 
ATOM      4  C   UNL     1     138.966 139.859 130.835  1.00  0.00     0.009 C 
ATOM      5  C   UNL     1     140.221 140.127 129.971  1.00  0.00     0.035 C 
ATOM      6  C   UNL     1     140.222 139.181 128.735  1.00  0.00     0.066 C 
ATOM      7  O   UNL     1     139.070 139.452 127.936  1.00  0.00    -0.369 OA
ATOM      8  C   UNL     1     140.167 137.706 129.227  1.00  0.00     0.035 C 
ATOM      9  C   UNL     1     138.913 137.495 130.109  1.00  0.00     0.009 C 
ATOM     10  C   UNL     1     141.477 139.413 127.887  1.00  0.00     0.042 C 
ATOM     11  C   UNL     1     137.052 140.592 128.609  1.00  0.00     0.042 C 
ENDROOT
TORSDOF 0
ENDMDL
