MODEL 1
REMARK VINA RESULT:    -4.906      0.000      0.000
REMARK INTER + INTRA:          -5.624
REMARK INTER:                  -5.480
REMARK INTRA:                  -0.144
REMARK UNBOUND:                -0.144
REMARK SMILES C=CCc1ccc2c(c1)OCO2
REMARK SMILES IDX 3 1 2 2 1 3 4 4 9 5 5 6 8 7 6 8 7 9 10 10 12 11 11 12
REMARK H PARENT
REMARK Flexibility Score: inf
ROOT
ATOM      1  C   UNL     1     -11.021   4.322  -9.762  1.00  0.00     0.062 C 
ENDROOT
BRANCH   1   2
ATOM      2  C   UNL     1     -11.958   5.097  -8.879  1.00  0.00    -0.030 C 
ATOM      3  C   UNL     1     -12.102   4.807  -7.583  1.00  0.00     0.004 C 
ENDBRANCH   1   2
BRANCH   1   4
ATOM      4  C   UNL     1     -11.189   4.726 -11.202  1.00  0.00    -0.040 A 
ATOM      5  C   UNL     1     -10.324   5.684 -11.778  1.00  0.00     0.054 A 
ATOM      6  C   UNL     1     -12.246   4.181 -11.975  1.00  0.00     0.008 A 
ATOM      7  C   UNL     1     -10.540   6.045 -13.105  1.00  0.00     0.166 A 
ATOM      8  C   UNL     1     -12.429   4.574 -13.314  1.00  0.00     0.051 A 
ATOM      9  C   UNL     1     -11.549   5.512 -13.841  1.00  0.00     0.165 A 
ATOM     10  O   UNL     1      -9.833   6.947 -13.878  1.00  0.00    -0.454 OA
ATOM     11  O   UNL     1     -11.525   6.051 -15.113  1.00  0.00    -0.454 OA
ATOM     12  C   UNL     1     -10.434   6.981 -15.180  1.00  0.00     0.468 C 
ENDBRANCH   1   4
TORSDOF 2
ENDMDL
MODEL 2
REMARK VINA RESULT:    -4.876      2.248      5.111
REMARK INTER + INTRA:          -5.590
REMARK INTER:                  -5.413
REMARK INTRA:                  -0.176
REMARK UNBOUND:                -0.144
REMARK SMILES C=CCc1ccc2c(c1)OCO2
REMARK SMILES IDX 3 1 2 2 1 3 4 4 9 5 5 6 8 7 6 8 7 9 10 10 12 11 11 12
REMARK H PARENT
REMARK Flexibility Score: inf
ROOT
ATOM      1  C   UNL     1      -9.435   8.132 -14.705  1.00  0.00     0.062 C 
ENDROOT
BRANCH   1   2
ATOM      2  C   UNL     1      -8.753   7.780 -15.997  1.00  0.00    -0.030 C 
ATOM      3  C   UNL     1      -8.616   8.670 -16.984  1.00  0.00     0.004 C 
ENDBRANCH   1   2
BRANCH   1   4
ATOM      4  C   UNL     1     -10.343   7.017 -14.260  1.00  0.00    -0.040 A 
ATOM      5  C   UNL     1     -10.182   6.435 -12.982  1.00  0.00     0.054 A 
ATOM      6  C   UNL     1     -11.335   6.514 -15.140  1.00  0.00     0.008 A 
ATOM      7  C   UNL     1     -11.028   5.387 -12.631  1.00  0.00     0.166 A 
ATOM      8  C   UNL     1     -12.170   5.453 -14.745  1.00  0.00     0.051 A 
ATOM      9  C   UNL     1     -11.981   4.917 -13.475  1.00  0.00     0.165 A 
ATOM     10  O   UNL     1     -11.065   4.670 -11.450  1.00  0.00    -0.454 OA
ATOM     11  O   UNL     1     -12.665   3.883 -12.867  1.00  0.00    -0.454 OA
ATOM     12  C   UNL     1     -12.106   3.690 -11.559  1.00  0.00     0.468 C 
ENDBRANCH   1   4
TORSDOF 2
ENDMDL
MODEL 3
REMARK VINA RESULT:    -4.616      2.527      4.162
REMARK INTER + INTRA:          -5.299
REMARK INTER:                  -5.072
REMARK INTRA:                  -0.227
REMARK UNBOUND:                -0.144
REMARK SMILES C=CCc1ccc2c(c1)OCO2
REMARK SMILES IDX 3 1 2 2 1 3 4 4 9 5 5 6 8 7 6 8 7 9 10 10 12 11 11 12
REMARK H PARENT
REMARK Flexibility Score: inf
ROOT
ATOM      1  C   UNL     1      -9.751   8.694 -13.757  1.00  0.00     0.062 C 
ENDROOT
BRANCH   1   2
ATOM      2  C   UNL     1     -10.002   9.555 -12.551  1.00  0.00    -0.030 C 
ATOM      3  C   UNL     1     -11.207  10.071 -12.294  1.00  0.00     0.004 C 
ENDBRANCH   1   2
BRANCH   1   4
ATOM      4  C   UNL     1     -10.532   7.411 -13.667  1.00  0.00    -0.040 A 
ATOM      5  C   UNL     1     -10.200   6.442 -12.693  1.00  0.00     0.054 A 
ATOM      6  C   UNL     1     -11.577   7.148 -14.590  1.00  0.00     0.008 A 
ATOM      7  C   UNL     1     -10.934   5.259 -12.671  1.00  0.00     0.166 A 
ATOM      8  C   UNL     1     -12.294   5.939 -14.532  1.00  0.00     0.051 A 
ATOM      9  C   UNL     1     -11.938   5.019 -13.552  1.00  0.00     0.165 A 
ATOM     10  O   UNL     1     -10.799   4.179 -11.820  1.00  0.00    -0.454 OA
ATOM     11  O   UNL     1     -12.485   3.776 -13.298  1.00  0.00    -0.454 OA
ATOM     12  C   UNL     1     -11.780   3.199 -12.189  1.00  0.00     0.468 C 
ENDBRANCH   1   4
TORSDOF 2
ENDMDL
MODEL 4
REMARK VINA RESULT:    -4.611      2.642      4.870
REMARK INTER + INTRA:          -5.294
REMARK INTER:                  -5.126
REMARK INTRA:                  -0.168
REMARK UNBOUND:                -0.144
REMARK SMILES C=CCc1ccc2c(c1)OCO2
REMARK SMILES IDX 3 1 2 2 1 3 4 4 9 5 5 6 8 7 6 8 7 9 10 10 12 11 11 12
REMARK H PARENT
REMARK Flexibility Score: inf
ROOT
ATOM      1  C   UNL     1      -9.850   6.918 -13.578  1.00  0.00     0.062 C 
ENDROOT
BRANCH   1   2
ATOM      2  C   UNL     1     -10.699   6.557 -14.765  1.00  0.00    -0.030 C 
ATOM      3  C   UNL     1     -12.020   6.754 -14.770  1.00  0.00     0.004 C 
ENDBRANCH   1   2
BRANCH   1   4
ATOM      4  C   UNL     1     -10.384   6.276 -12.326  1.00  0.00    -0.040 A 
ATOM      5  C   UNL     1     -10.728   7.071 -11.209  1.00  0.00     0.054 A 
ATOM      6  C   UNL     1     -10.503   4.865 -12.246  1.00  0.00     0.008 A 
ATOM      7  C   UNL     1     -11.190   6.426 -10.065  1.00  0.00     0.166 A 
ATOM      8  C   UNL     1     -10.975   4.253 -11.070  1.00  0.00     0.051 A 
ATOM      9  C   UNL     1     -11.308   5.075  -9.999  1.00  0.00     0.165 A 
ATOM     10  O   UNL     1     -11.585   6.983  -8.864  1.00  0.00    -0.454 OA
ATOM     11  O   UNL     1     -11.786   4.716  -8.754  1.00  0.00    -0.454 OA
ATOM     12  C   UNL     1     -11.978   5.916  -7.989  1.00  0.00     0.468 C 
ENDBRANCH   1   4
TORSDOF 2
ENDMDL
MODEL 5
REMARK VINA RESULT:    -4.611      2.182      3.358
REMARK INTER + INTRA:          -5.294
REMARK INTER:                  -5.054
REMARK INTRA:                  -0.240
REMARK UNBOUND:                -0.144
REMARK SMILES C=CCc1ccc2c(c1)OCO2
REMARK SMILES IDX 3 1 2 2 1 3 4 4 9 5 5 6 8 7 6 8 7 9 10 10 12 11 11 12
REMARK H PARENT
REMARK Flexibility Score: inf
ROOT
ATOM      1  C   UNL     1      -9.687   8.638 -11.884  1.00  0.00     0.062 C 
ENDROOT
BRANCH   1   2
ATOM      2  C   UNL     1     -10.180   9.030 -10.520  1.00  0.00    -0.030 C 
ATOM      3  C   UNL     1     -11.372   9.608 -10.343  1.00  0.00     0.004 C 
ENDBRANCH   1   2
BRANCH   1   4
ATOM      4  C   UNL     1     -10.318   7.347 -12.329  1.00  0.00    -0.040 A 
ATOM      5  C   UNL     1     -10.972   7.269 -13.580  1.00  0.00     0.054 A 
ATOM      6  C   UNL     1     -10.301   6.215 -11.475  1.00  0.00     0.008 A 
ATOM      7  C   UNL     1     -11.566   6.060 -13.932  1.00  0.00     0.166 A 
ATOM      8  C   UNL     1     -10.914   5.012 -11.870  1.00  0.00     0.051 A 
ATOM      9  C   UNL     1     -11.537   4.978 -13.112  1.00  0.00     0.165 A 
ATOM     10  O   UNL     1     -12.251   5.743 -15.089  1.00  0.00    -0.454 OA
ATOM     11  O   UNL     1     -12.201   3.927 -13.714  1.00  0.00    -0.454 OA
ATOM     12  C   UNL     1     -12.678   4.377 -14.991  1.00  0.00     0.468 C 
ENDBRANCH   1   4
TORSDOF 2
ENDMDL
MODEL 6
REMARK VINA RESULT:    -4.520      2.318      5.166
REMARK INTER + INTRA:          -5.193
REMARK INTER:                  -5.048
REMARK INTRA:                  -0.145
REMARK UNBOUND:                -0.144
REMARK SMILES C=CCc1ccc2c(c1)OCO2
REMARK SMILES IDX 3 1 2 2 1 3 4 4 9 5 5 6 8 7 6 8 7 9 10 10 12 11 11 12
REMARK H PARENT
REMARK Flexibility Score: inf
ROOT
ATOM      1  C   UNL     1      -9.693   8.236 -14.549  1.00  0.00     0.062 C 
ENDROOT
BRANCH   1   2
ATOM      2  C   UNL     1      -8.940   7.674 -15.722  1.00  0.00    -0.030 C 
ATOM      3  C   UNL     1      -8.530   8.449 -16.730  1.00  0.00     0.004 C 
ENDBRANCH   1   2
BRANCH   1   4
ATOM      4  C   UNL     1     -10.194   7.132 -13.659  1.00  0.00    -0.040 A 
ATOM      5  C   UNL     1     -11.101   6.170 -14.159  1.00  0.00     0.054 A 
ATOM      6  C   UNL     1      -9.794   7.076 -12.299  1.00  0.00     0.008 A 
ATOM      7  C   UNL     1     -11.558   5.186 -13.287  1.00  0.00     0.166 A 
ATOM      8  C   UNL     1     -10.280   6.064 -11.451  1.00  0.00     0.051 A 
ATOM      9  C   UNL     1     -11.163   5.135 -11.989  1.00  0.00     0.165 A 
ATOM     10  O   UNL     1     -12.435   4.149 -13.543  1.00  0.00    -0.454 OA
ATOM     11  O   UNL     1     -11.771   4.063 -11.365  1.00  0.00    -0.454 OA
ATOM     12  C   UNL     1     -12.601   3.400 -12.331  1.00  0.00     0.468 C 
ENDBRANCH   1   4
TORSDOF 2
ENDMDL
MODEL 7
REMARK VINA RESULT:    -4.489      2.993      4.809
REMARK INTER + INTRA:          -5.158
REMARK INTER:                  -4.969
REMARK INTRA:                  -0.189
REMARK UNBOUND:                -0.144
REMARK SMILES C=CCc1ccc2c(c1)OCO2
REMARK SMILES IDX 3 1 2 2 1 3 4 4 9 5 5 6 8 7 6 8 7 9 10 10 12 11 11 12
REMARK H PARENT
REMARK Flexibility Score: inf
ROOT
ATOM      1  C   UNL     1     -11.178   6.347 -14.955  1.00  0.00     0.062 C 
ENDROOT
BRANCH   1   2
ATOM      2  C   UNL     1     -12.533   5.696 -14.982  1.00  0.00    -0.030 C 
ATOM      3  C   UNL     1     -12.676   4.369 -14.912  1.00  0.00     0.004 C 
ENDBRANCH   1   2
BRANCH   1   4
ATOM      4  C   UNL     1     -10.915   6.972 -13.612  1.00  0.00    -0.040 A 
ATOM      5  C   UNL     1     -11.139   8.354 -13.414  1.00  0.00     0.054 A 
ATOM      6  C   UNL     1     -10.396   6.187 -12.551  1.00  0.00     0.008 A 
ATOM      7  C   UNL     1     -10.852   8.889 -12.162  1.00  0.00     0.166 A 
ATOM      8  C   UNL     1     -10.120   6.768 -11.300  1.00  0.00     0.051 A 
ATOM      9  C   UNL     1     -10.364   8.129 -11.148  1.00  0.00     0.165 A 
ATOM     10  O   UNL     1     -10.990  10.195 -11.732  1.00  0.00    -0.454 OA
ATOM     11  O   UNL     1     -10.173   8.919 -10.032  1.00  0.00    -0.454 OA
ATOM     12  C   UNL     1     -10.564  10.260 -10.364  1.00  0.00     0.468 C 
ENDBRANCH   1   4
TORSDOF 2
ENDMDL
MODEL 8
REMARK VINA RESULT:    -4.407      2.627      3.891
REMARK INTER + INTRA:          -5.066
REMARK INTER:                  -4.899
REMARK INTRA:                  -0.167
REMARK UNBOUND:                -0.144
REMARK SMILES C=CCc1ccc2c(c1)OCO2
REMARK SMILES IDX 3 1 2 2 1 3 4 4 9 5 5 6 8 7 6 8 7 9 10 10 12 11 11 12
REMARK H PARENT
REMARK Flexibility Score: inf
ROOT
ATOM      1  C   UNL     1     -10.500   4.795 -11.894  1.00  0.00     0.062 C 
ENDROOT
BRANCH   1   2
ATOM      2  C   UNL     1     -11.932   4.385 -12.099  1.00  0.00    -0.030 C 
ATOM      3  C   UNL     1     -12.387   3.999 -13.293  1.00  0.00     0.004 C 
ENDBRANCH   1   2
BRANCH   1   4
ATOM      4  C   UNL     1     -10.307   6.247 -12.237  1.00  0.00    -0.040 A 
ATOM      5  C   UNL     1     -10.482   7.242 -11.249  1.00  0.00     0.054 A 
ATOM      6  C   UNL     1      -9.992   6.627 -13.567  1.00  0.00     0.008 A 
ATOM      7  C   UNL     1     -10.321   8.572 -11.625  1.00  0.00     0.166 A 
ATOM      8  C   UNL     1      -9.837   7.984 -13.905  1.00  0.00     0.051 A 
ATOM      9  C   UNL     1     -10.011   8.928 -12.898  1.00  0.00     0.165 A 
ATOM     10  O   UNL     1     -10.437   9.707 -10.845  1.00  0.00    -0.454 OA
ATOM     11  O   UNL     1      -9.915  10.303 -12.981  1.00  0.00    -0.454 OA
ATOM     12  C   UNL     1     -10.183  10.846 -11.679  1.00  0.00     0.468 C 
ENDBRANCH   1   4
TORSDOF 2
ENDMDL
MODEL 9
REMARK VINA RESULT:    -4.321      2.674      4.423
REMARK INTER + INTRA:          -4.970
REMARK INTER:                  -4.827
REMARK INTRA:                  -0.143
REMARK UNBOUND:                -0.144
REMARK SMILES C=CCc1ccc2c(c1)OCO2
REMARK SMILES IDX 3 1 2 2 1 3 4 4 9 5 5 6 8 7 6 8 7 9 10 10 12 11 11 12
REMARK H PARENT
REMARK Flexibility Score: inf
ROOT
ATOM      1  C   UNL     1     -11.069   4.028 -12.219  1.00  0.00     0.062 C 
ENDROOT
BRANCH   1   2
ATOM      2  C   UNL     1     -12.376   3.968 -12.959  1.00  0.00    -0.030 C 
ATOM      3  C   UNL     1     -12.487   4.388 -14.223  1.00  0.00     0.004 C 
ENDBRANCH   1   2
BRANCH   1   4
ATOM      4  C   UNL     1     -10.801   5.423 -11.723  1.00  0.00    -0.040 A 
ATOM      5  C   UNL     1     -11.274   5.831 -10.454  1.00  0.00     0.054 A 
ATOM      6  C   UNL     1     -10.112   6.351 -12.546  1.00  0.00     0.008 A 
ATOM      7  C   UNL     1     -11.025   7.141 -10.054  1.00  0.00     0.166 A 
ATOM      8  C   UNL     1      -9.882   7.666 -12.102  1.00  0.00     0.051 A 
ATOM      9  C   UNL     1     -10.357   8.020 -10.844  1.00  0.00     0.165 A 
ATOM     10  O   UNL     1     -11.381   7.762  -8.872  1.00  0.00    -0.454 OA
ATOM     11  O   UNL     1     -10.258   9.236 -10.197  1.00  0.00    -0.454 OA
ATOM     12  C   UNL     1     -10.905   9.114  -8.922  1.00  0.00     0.468 C 
ENDBRANCH   1   4
TORSDOF 2
ENDMDL
