MODEL 1
REMARK VINA RESULT:    -3.353      0.000      0.000
REMARK INTER + INTRA:          -4.618
REMARK INTER:                  -4.137
REMARK INTRA:                  -0.480
REMARK UNBOUND:                -0.480
REMARK SMILES C=CC[C@H](C)C(=O)CC
REMARK SMILES IDX 4 1 5 2 6 3 7 4 8 5 9 6 3 7 2 8 1 9
REMARK H PARENT
REMARK Flexibility Score: inf
ROOT
ATOM      1  C   UNL     1       0.281 -14.667   9.409  1.00  0.00     0.057 C 
ATOM      2  C   UNL     1      -0.184 -15.789   8.470  1.00  0.00     0.016 C 
ENDROOT
BRANCH   1   3
ATOM      3  C   UNL     1       0.833 -13.502   8.614  1.00  0.00     0.135 C 
ATOM      4  O   UNL     1       0.282 -13.179   7.571  1.00  0.00    -0.299 OA
BRANCH   3   5
ATOM      5  C   UNL     1       2.060 -12.741   9.056  1.00  0.00     0.072 C 
ATOM      6  C   UNL     1       3.169 -12.843   8.013  1.00  0.00     0.012 C 
ENDBRANCH   3   5
ENDBRANCH   1   3
BRANCH   1   7
ATOM      7  C   UNL     1       1.319 -15.167  10.438  1.00  0.00     0.038 C 
BRANCH   7   8
ATOM      8  C   UNL     1       2.106 -16.346   9.929  1.00  0.00    -0.034 C 
ATOM      9  C   UNL     1       3.391 -16.237   9.579  1.00  0.00     0.004 C 
ENDBRANCH   7   8
ENDBRANCH   1   7
TORSDOF 4
ENDMDL
MODEL 2
REMARK VINA RESULT:    -3.304      1.024      1.657
REMARK INTER + INTRA:          -4.557
REMARK INTER:                  -4.135
REMARK INTRA:                  -0.423
REMARK UNBOUND:                -0.480
REMARK SMILES C=CC[C@H](C)C(=O)CC
REMARK SMILES IDX 4 1 5 2 6 3 7 4 8 5 9 6 3 7 2 8 1 9
REMARK H PARENT
REMARK Flexibility Score: inf
ROOT
ATOM      1  C   UNL     1       1.039 -13.881   9.243  1.00  0.00     0.057 C 
ATOM      2  C   UNL     1       0.512 -13.087  10.446  1.00  0.00     0.016 C 
ENDROOT
BRANCH   1   3
ATOM      3  C   UNL     1       1.217 -12.974   8.042  1.00  0.00     0.135 C 
ATOM      4  O   UNL     1       0.245 -12.706   7.352  1.00  0.00    -0.299 OA
BRANCH   3   5
ATOM      5  C   UNL     1       2.564 -12.412   7.656  1.00  0.00     0.072 C 
ATOM      6  C   UNL     1       3.694 -13.262   8.229  1.00  0.00     0.012 C 
ENDBRANCH   3   5
ENDBRANCH   1   3
BRANCH   1   7
ATOM      7  C   UNL     1       0.127 -15.077   8.894  1.00  0.00     0.038 C 
BRANCH   7   8
ATOM      8  C   UNL     1       0.769 -16.400   9.218  1.00  0.00    -0.034 C 
ATOM      9  C   UNL     1       2.056 -16.491   9.569  1.00  0.00     0.004 C 
ENDBRANCH   7   8
ENDBRANCH   1   7
TORSDOF 4
ENDMDL
MODEL 3
REMARK VINA RESULT:    -3.261      1.443      1.861
REMARK INTER + INTRA:          -4.504
REMARK INTER:                  -4.256
REMARK INTRA:                  -0.248
REMARK UNBOUND:                -0.480
REMARK SMILES C=CC[C@H](C)C(=O)CC
REMARK SMILES IDX 4 1 5 2 6 3 7 4 8 5 9 6 3 7 2 8 1 9
REMARK H PARENT
REMARK Flexibility Score: inf
ROOT
ATOM      1  C   UNL     1       0.654 -15.204   9.471  1.00  0.00     0.057 C 
ATOM      2  C   UNL     1      -0.278 -15.921   8.486  1.00  0.00     0.016 C 
ENDROOT
BRANCH   1   3
ATOM      3  C   UNL     1       1.157 -13.903   8.878  1.00  0.00     0.135 C 
ATOM      4  O   UNL     1       2.233 -13.458   9.250  1.00  0.00    -0.299 OA
BRANCH   3   5
ATOM      5  C   UNL     1       0.358 -13.125   7.861  1.00  0.00     0.072 C 
ATOM      6  C   UNL     1       1.261 -12.199   7.052  1.00  0.00     0.012 C 
ENDBRANCH   3   5
ENDBRANCH   1   3
BRANCH   1   7
ATOM      7  C   UNL     1       1.836 -16.099   9.905  1.00  0.00     0.038 C 
BRANCH   7   8
ATOM      8  C   UNL     1       1.845 -16.354  11.389  1.00  0.00    -0.034 C 
ATOM      9  C   UNL     1       1.796 -15.355  12.276  1.00  0.00     0.004 C 
ENDBRANCH   7   8
ENDBRANCH   1   7
TORSDOF 4
ENDMDL
MODEL 4
REMARK VINA RESULT:    -3.230      1.954      3.268
REMARK INTER + INTRA:          -4.465
REMARK INTER:                  -4.097
REMARK INTRA:                  -0.368
REMARK UNBOUND:                -0.480
REMARK SMILES C=CC[C@H](C)C(=O)CC
REMARK SMILES IDX 4 1 5 2 6 3 7 4 8 5 9 6 3 7 2 8 1 9
REMARK H PARENT
REMARK Flexibility Score: inf
ROOT
ATOM      1  C   UNL     1       0.964 -15.178   9.066  1.00  0.00     0.057 C 
ATOM      2  C   UNL     1      -0.168 -16.125   8.647  1.00  0.00     0.016 C 
ENDROOT
BRANCH   1   3
ATOM      3  C   UNL     1       1.966 -15.900   9.944  1.00  0.00     0.135 C 
ATOM      4  O   UNL     1       1.606 -16.322  11.033  1.00  0.00    -0.299 OA
BRANCH   3   5
ATOM      5  C   UNL     1       3.404 -16.093   9.527  1.00  0.00     0.072 C 
ATOM      6  C   UNL     1       4.022 -14.773   9.077  1.00  0.00     0.012 C 
ENDBRANCH   3   5
ENDBRANCH   1   3
BRANCH   1   7
ATOM      7  C   UNL     1       0.430 -13.914   9.773  1.00  0.00     0.038 C 
BRANCH   7   8
ATOM      8  C   UNL     1       0.651 -12.666   8.959  1.00  0.00    -0.034 C 
ATOM      9  C   UNL     1       0.576 -12.674   7.624  1.00  0.00     0.004 C 
ENDBRANCH   7   8
ENDBRANCH   1   7
TORSDOF 4
ENDMDL
MODEL 5
REMARK VINA RESULT:    -3.214      2.088      3.202
REMARK INTER + INTRA:          -4.445
REMARK INTER:                  -4.092
REMARK INTRA:                  -0.353
REMARK UNBOUND:                -0.480
REMARK SMILES C=CC[C@H](C)C(=O)CC
REMARK SMILES IDX 4 1 5 2 6 3 7 4 8 5 9 6 3 7 2 8 1 9
REMARK H PARENT
REMARK Flexibility Score: inf
ROOT
ATOM      1  C   UNL     1       1.988 -16.055  10.329  1.00  0.00     0.057 C 
ATOM      2  C   UNL     1       2.166 -16.564  11.766  1.00  0.00     0.016 C 
ENDROOT
BRANCH   1   3
ATOM      3  C   UNL     1       3.322 -15.637   9.743  1.00  0.00     0.135 C 
ATOM      4  O   UNL     1       4.050 -16.490   9.256  1.00  0.00    -0.299 OA
BRANCH   3   5
ATOM      5  C   UNL     1       3.792 -14.203   9.765  1.00  0.00     0.072 C 
ATOM      6  C   UNL     1       4.167 -13.731   8.364  1.00  0.00     0.012 C 
ENDBRANCH   3   5
ENDBRANCH   1   3
BRANCH   1   7
ATOM      7  C   UNL     1       0.969 -14.898  10.246  1.00  0.00     0.038 C 
BRANCH   7   8
ATOM      8  C   UNL     1       0.201 -14.904   8.950  1.00  0.00    -0.034 C 
ATOM      9  C   UNL     1      -0.327 -16.026   8.450  1.00  0.00     0.004 C 
ENDBRANCH   7   8
ENDBRANCH   1   7
TORSDOF 4
ENDMDL
MODEL 6
REMARK VINA RESULT:    -3.211      2.023      3.932
REMARK INTER + INTRA:          -4.442
REMARK INTER:                  -4.009
REMARK INTRA:                  -0.433
REMARK UNBOUND:                -0.480
REMARK SMILES C=CC[C@H](C)C(=O)CC
REMARK SMILES IDX 4 1 5 2 6 3 7 4 8 5 9 6 3 7 2 8 1 9
REMARK H PARENT
REMARK Flexibility Score: inf
ROOT
ATOM      1  C   UNL     1       0.579 -13.369   9.773  1.00  0.00     0.057 C 
ATOM      2  C   UNL     1       0.260 -12.438  10.950  1.00  0.00     0.016 C 
ENDROOT
BRANCH   1   3
ATOM      3  C   UNL     1       0.936 -14.755  10.271  1.00  0.00     0.135 C 
ATOM      4  O   UNL     1       1.248 -14.902  11.444  1.00  0.00    -0.299 OA
BRANCH   3   5
ATOM      5  C   UNL     1       0.944 -15.957   9.358  1.00  0.00     0.072 C 
ATOM      6  C   UNL     1      -0.301 -15.980   8.477  1.00  0.00     0.012 C 
ENDBRANCH   3   5
ENDBRANCH   1   3
BRANCH   1   7
ATOM      7  C   UNL     1       1.703 -12.804   8.876  1.00  0.00     0.038 C 
BRANCH   7   8
ATOM      8  C   UNL     1       1.281 -12.690   7.435  1.00  0.00    -0.034 C 
ATOM      9  C   UNL     1       0.168 -12.043   7.076  1.00  0.00     0.004 C 
ENDBRANCH   7   8
ENDBRANCH   1   7
TORSDOF 4
ENDMDL
MODEL 7
REMARK VINA RESULT:    -3.200      1.531      3.267
REMARK INTER + INTRA:          -4.429
REMARK INTER:                  -4.097
REMARK INTRA:                  -0.332
REMARK UNBOUND:                -0.480
REMARK SMILES C=CC[C@H](C)C(=O)CC
REMARK SMILES IDX 4 1 5 2 6 3 7 4 8 5 9 6 3 7 2 8 1 9
REMARK H PARENT
REMARK Flexibility Score: inf
ROOT
ATOM      1  C   UNL     1       1.223 -13.022   7.993  1.00  0.00     0.057 C 
ATOM      2  C   UNL     1       0.178 -12.131   7.308  1.00  0.00     0.016 C 
ENDROOT
BRANCH   1   3
ATOM      3  C   UNL     1       0.657 -13.625   9.263  1.00  0.00     0.135 C 
ATOM      4  O   UNL     1       0.224 -12.883  10.132  1.00  0.00    -0.299 OA
BRANCH   3   5
ATOM      5  C   UNL     1       0.634 -15.116   9.500  1.00  0.00     0.072 C 
ATOM      6  C   UNL     1      -0.236 -15.819   8.464  1.00  0.00     0.012 C 
ENDBRANCH   3   5
ENDBRANCH   1   3
BRANCH   1   7
ATOM      7  C   UNL     1       2.532 -12.257   8.289  1.00  0.00     0.038 C 
BRANCH   7   8
ATOM      8  C   UNL     1       3.749 -12.999   7.803  1.00  0.00    -0.034 C 
ATOM      9  C   UNL     1       4.291 -13.999   8.505  1.00  0.00     0.004 C 
ENDBRANCH   7   8
ENDBRANCH   1   7
TORSDOF 4
ENDMDL
MODEL 8
REMARK VINA RESULT:    -3.170      1.498      2.411
REMARK INTER + INTRA:          -4.391
REMARK INTER:                  -3.929
REMARK INTRA:                  -0.462
REMARK UNBOUND:                -0.480
REMARK SMILES C=CC[C@H](C)C(=O)CC
REMARK SMILES IDX 4 1 5 2 6 3 7 4 8 5 9 6 3 7 2 8 1 9
REMARK H PARENT
REMARK Flexibility Score: inf
ROOT
ATOM      1  C   UNL     1       1.107 -12.891   8.808  1.00  0.00     0.057 C 
ATOM      2  C   UNL     1       0.364 -12.751   7.472  1.00  0.00     0.016 C 
ENDROOT
BRANCH   1   3
ATOM      3  C   UNL     1       2.595 -13.060   8.575  1.00  0.00     0.135 C 
ATOM      4  O   UNL     1       3.081 -12.659   7.527  1.00  0.00    -0.299 OA
BRANCH   3   5
ATOM      5  C   UNL     1       3.492 -13.732   9.586  1.00  0.00     0.072 C 
ATOM      6  C   UNL     1       4.271 -14.877   8.947  1.00  0.00     0.012 C 
ENDBRANCH   3   5
ENDBRANCH   1   3
BRANCH   1   7
ATOM      7  C   UNL     1       0.552 -14.053   9.660  1.00  0.00     0.038 C 
BRANCH   7   8
ATOM      8  C   UNL     1       0.174 -15.246   8.823  1.00  0.00    -0.034 C 
ATOM      9  C   UNL     1       0.601 -16.478   9.119  1.00  0.00     0.004 C 
ENDBRANCH   7   8
ENDBRANCH   1   7
TORSDOF 4
ENDMDL
MODEL 9
REMARK VINA RESULT:    -3.098      1.609      2.579
REMARK INTER + INTRA:          -4.303
REMARK INTER:                  -4.024
REMARK INTRA:                  -0.280
REMARK UNBOUND:                -0.480
REMARK SMILES C=CC[C@H](C)C(=O)CC
REMARK SMILES IDX 4 1 5 2 6 3 7 4 8 5 9 6 3 7 2 8 1 9
REMARK H PARENT
REMARK Flexibility Score: inf
ROOT
ATOM      1  C   UNL     1       2.159 -14.119   9.254  1.00  0.00     0.057 C 
ATOM      2  C   UNL     1       3.462 -13.824  10.008  1.00  0.00     0.016 C 
ENDROOT
BRANCH   1   3
ATOM      3  C   UNL     1       1.451 -12.829   8.889  1.00  0.00     0.135 C 
ATOM      4  O   UNL     1       1.514 -11.879   9.656  1.00  0.00    -0.299 OA
BRANCH   3   5
ATOM      5  C   UNL     1       0.648 -12.689   7.618  1.00  0.00     0.072 C 
ATOM      6  C   UNL     1       1.462 -11.992   6.533  1.00  0.00     0.012 C 
ENDBRANCH   3   5
ENDBRANCH   1   3
BRANCH   1   7
ATOM      7  C   UNL     1       1.222 -15.047  10.057  1.00  0.00     0.038 C 
BRANCH   7   8
ATOM      8  C   UNL     1       0.710 -16.197   9.230  1.00  0.00    -0.034 C 
ATOM      9  C   UNL     1      -0.389 -16.088   8.477  1.00  0.00     0.004 C 
ENDBRANCH   7   8
ENDBRANCH   1   7
TORSDOF 4
ENDMDL
