MODEL 1
REMARK VINA RESULT:    -5.319      0.000      0.000
REMARK INTER + INTRA:          -6.919
REMARK INTER:                  -6.563
REMARK INTRA:                  -0.356
REMARK UNBOUND:                -0.356
REMARK SMILES O=c1c(O)c(-c2cc(O)c(O)c(O)c2)oc2cc(O)cc(O)c12
REMARK SMILES IDX 5 1 3 2 2 3 1 4 23 5 21 6 20 7 18 8 17 9 16 10 15 11 6 12
REMARK SMILES IDX 7 13 8 14 14 15 10 16 12 17 9 18 11 20 13 22 4 24 22 26
REMARK SMILES IDX 19 28
REMARK H PARENT 9 19 11 21 13 23 4 25 22 27 19 29
REMARK Flexibility Score: inf
ROOT
ATOM      1  C   UNL     1      -9.539  83.558  -8.882  1.00  0.00     0.180 A 
ATOM      2  C   UNL     1     -10.394  82.447  -8.987  1.00  0.00     0.208 A 
ATOM      3  C   UNL     1     -11.749  82.655  -9.293  1.00  0.00     0.238 A 
ATOM      4  O   UNL     1     -12.519  81.661  -9.331  1.00  0.00    -0.285 OA
ATOM      5  C   UNL     1     -12.227  83.970  -9.508  1.00  0.00     0.111 A 
ATOM      6  C   UNL     1     -13.571  84.295  -9.864  1.00  0.00     0.134 A 
ATOM      7  C   UNL     1     -13.965  85.637  -9.923  1.00  0.00     0.093 A 
ATOM      8  C   UNL     1     -13.046  86.667  -9.704  1.00  0.00     0.123 A 
ATOM      9  C   UNL     1     -11.719  86.360  -9.415  1.00  0.00     0.094 A 
ATOM     10  C   UNL     1     -11.305  85.031  -9.313  1.00  0.00     0.146 A 
ATOM     11  O   UNL     1     -10.033  84.782  -9.024  1.00  0.00    -0.452 OA
ENDROOT
BRANCH   1  12
ATOM     12  C   UNL     1      -8.096  83.416  -8.587  1.00  0.00     0.029 A 
ATOM     13  C   UNL     1      -7.620  83.374  -7.264  1.00  0.00     0.062 A 
ATOM     14  C   UNL     1      -6.252  83.216  -7.005  1.00  0.00     0.162 A 
ATOM     15  C   UNL     1      -7.186  83.260  -9.644  1.00  0.00     0.062 A 
ATOM     16  C   UNL     1      -5.346  83.084  -8.071  1.00  0.00     0.200 A 
ATOM     17  C   UNL     1      -5.817  83.103  -9.391  1.00  0.00     0.162 A 
BRANCH  14  18
ATOM     18  O   UNL     1      -5.789  83.183  -5.690  1.00  0.00    -0.504 OA
ATOM     19  H   UNL     1      -5.686  84.029  -5.142  1.00  0.00     0.293 HD
ENDBRANCH  14  18
BRANCH  16  20
ATOM     20  O   UNL     1      -3.980  82.930  -7.837  1.00  0.00    -0.502 OA
ATOM     21  H   UNL     1      -3.498  82.057  -8.016  1.00  0.00     0.293 HD
ENDBRANCH  16  20
BRANCH  17  22
ATOM     22  O   UNL     1      -4.917  82.964 -10.445  1.00  0.00    -0.504 OA
ATOM     23  H   UNL     1      -4.007  82.535 -10.314  1.00  0.00     0.293 HD
ENDBRANCH  17  22
ENDBRANCH   1  12
BRANCH   2  24
ATOM     24  O   UNL     1      -9.905  81.159  -8.749  1.00  0.00    -0.502 OA
ATOM     25  H   UNL     1      -8.925  80.922  -8.847  1.00  0.00     0.293 HD
ENDBRANCH   2  24
BRANCH   6  26
ATOM     26  O   UNL     1     -14.542  83.344 -10.193  1.00  0.00    -0.507 OA
ATOM     27  H   UNL     1     -14.439  82.640 -10.907  1.00  0.00     0.293 HD
ENDBRANCH   6  26
BRANCH   8  28
ATOM     28  O   UNL     1     -13.443  88.000  -9.780  1.00  0.00    -0.508 OA
ATOM     29  H   UNL     1     -13.990  88.347 -10.559  1.00  0.00     0.293 HD
ENDBRANCH   8  28
TORSDOF 7
ENDMDL
MODEL 2
REMARK VINA RESULT:    -5.203      1.912      3.429
REMARK INTER + INTRA:          -6.776
REMARK INTER:                  -6.546
REMARK INTRA:                  -0.230
REMARK UNBOUND:                -0.356
REMARK SMILES O=c1c(O)c(-c2cc(O)c(O)c(O)c2)oc2cc(O)cc(O)c12
REMARK SMILES IDX 5 1 3 2 2 3 1 4 23 5 21 6 20 7 18 8 17 9 16 10 15 11 6 12
REMARK SMILES IDX 7 13 8 14 14 15 10 16 12 17 9 18 11 20 13 22 4 24 22 26
REMARK SMILES IDX 19 28
REMARK H PARENT 9 19 11 21 13 23 4 25 22 27 19 29
REMARK Flexibility Score: inf
ROOT
ATOM      1  C   UNL     1      -8.557  83.922  -8.716  1.00  0.00     0.180 A 
ATOM      2  C   UNL     1      -9.396  84.994  -9.068  1.00  0.00     0.208 A 
ATOM      3  C   UNL     1     -10.787  84.821  -8.999  1.00  0.00     0.238 A 
ATOM      4  O   UNL     1     -11.532  85.765  -9.367  1.00  0.00    -0.285 OA
ATOM      5  C   UNL     1     -11.323  83.585  -8.561  1.00  0.00     0.111 A 
ATOM      6  C   UNL     1     -12.716  83.313  -8.415  1.00  0.00     0.134 A 
ATOM      7  C   UNL     1     -13.137  82.014  -8.101  1.00  0.00     0.093 A 
ATOM      8  C   UNL     1     -12.210  80.995  -7.865  1.00  0.00     0.123 A 
ATOM      9  C   UNL     1     -10.847  81.266  -7.948  1.00  0.00     0.094 A 
ATOM     10  C   UNL     1     -10.398  82.542  -8.295  1.00  0.00     0.146 A 
ATOM     11  O   UNL     1      -9.090  82.755  -8.374  1.00  0.00    -0.452 OA
ENDROOT
BRANCH   1  12
ATOM     12  C   UNL     1      -7.081  84.036  -8.740  1.00  0.00     0.029 A 
ATOM     13  C   UNL     1      -6.399  84.900  -7.866  1.00  0.00     0.062 A 
ATOM     14  C   UNL     1      -5.000  84.977  -7.888  1.00  0.00     0.162 A 
ATOM     15  C   UNL     1      -6.339  83.224  -9.612  1.00  0.00     0.062 A 
ATOM     16  C   UNL     1      -4.268  84.177  -8.781  1.00  0.00     0.200 A 
ATOM     17  C   UNL     1      -4.940  83.298  -9.640  1.00  0.00     0.162 A 
BRANCH  14  18
ATOM     18  O   UNL     1      -4.334  85.842  -7.021  1.00  0.00    -0.504 OA
ATOM     19  H   UNL     1      -4.738  86.727  -6.738  1.00  0.00     0.293 HD
ENDBRANCH  14  18
BRANCH  16  20
ATOM     20  O   UNL     1      -2.875  84.239  -8.824  1.00  0.00    -0.502 OA
ATOM     21  H   UNL     1      -2.383  85.013  -9.255  1.00  0.00     0.293 HD
ENDBRANCH  16  20
BRANCH  17  22
ATOM     22  O   UNL     1      -4.210  82.500 -10.519  1.00  0.00    -0.504 OA
ATOM     23  H   UNL     1      -4.041  82.784 -11.478  1.00  0.00     0.293 HD
ENDBRANCH  17  22
ENDBRANCH   1  12
BRANCH   2  24
ATOM     24  O   UNL     1      -8.846  86.198  -9.517  1.00  0.00    -0.502 OA
ATOM     25  H   UNL     1      -8.273  86.258 -10.350  1.00  0.00     0.293 HD
ENDBRANCH   2  24
BRANCH   6  26
ATOM     26  O   UNL     1     -13.717  84.280  -8.537  1.00  0.00    -0.507 OA
ATOM     27  H   UNL     1     -13.551  85.265  -8.679  1.00  0.00     0.293 HD
ENDBRANCH   6  26
BRANCH   8  28
ATOM     28  O   UNL     1     -12.637  79.709  -7.539  1.00  0.00    -0.508 OA
ATOM     29  H   UNL     1     -12.249  78.891  -7.993  1.00  0.00     0.293 HD
ENDBRANCH   8  28
TORSDOF 7
ENDMDL
MODEL 3
REMARK VINA RESULT:    -5.201      9.730     11.627
REMARK INTER + INTRA:          -6.774
REMARK INTER:                  -6.409
REMARK INTRA:                  -0.365
REMARK UNBOUND:                -0.356
REMARK SMILES O=c1c(O)c(-c2cc(O)c(O)c(O)c2)oc2cc(O)cc(O)c12
REMARK SMILES IDX 5 1 3 2 2 3 1 4 23 5 21 6 20 7 18 8 17 9 16 10 15 11 6 12
REMARK SMILES IDX 7 13 8 14 14 15 10 16 12 17 9 18 11 20 13 22 4 24 22 26
REMARK SMILES IDX 19 28
REMARK H PARENT 9 19 11 21 13 23 4 25 22 27 19 29
REMARK Flexibility Score: inf
ROOT
ATOM      1  C   UNL     1      -5.214  91.240 -14.603  1.00  0.00     0.180 A 
ATOM      2  C   UNL     1      -4.654  92.162 -13.701  1.00  0.00     0.208 A 
ATOM      3  C   UNL     1      -4.737  91.903 -12.323  1.00  0.00     0.238 A 
ATOM      4  O   UNL     1      -4.282  92.758 -11.520  1.00  0.00    -0.285 OA
ATOM      5  C   UNL     1      -5.362  90.718 -11.865  1.00  0.00     0.111 A 
ATOM      6  C   UNL     1      -5.467  90.335 -10.494  1.00  0.00     0.134 A 
ATOM      7  C   UNL     1      -6.221  89.208 -10.148  1.00  0.00     0.093 A 
ATOM      8  C   UNL     1      -6.821  88.413 -11.129  1.00  0.00     0.123 A 
ATOM      9  C   UNL     1      -6.674  88.746 -12.474  1.00  0.00     0.094 A 
ATOM     10  C   UNL     1      -5.959  89.885 -12.848  1.00  0.00     0.146 A 
ATOM     11  O   UNL     1      -5.853  90.172 -14.140  1.00  0.00    -0.452 OA
ENDROOT
BRANCH   1  12
ATOM     12  C   UNL     1      -5.145  91.432 -16.069  1.00  0.00     0.029 A 
ATOM     13  C   UNL     1      -4.070  90.932 -16.823  1.00  0.00     0.062 A 
ATOM     14  C   UNL     1      -4.034  91.103 -18.214  1.00  0.00     0.162 A 
ATOM     15  C   UNL     1      -6.202  92.076 -16.732  1.00  0.00     0.062 A 
ATOM     16  C   UNL     1      -5.086  91.769 -18.865  1.00  0.00     0.200 A 
ATOM     17  C   UNL     1      -6.171  92.252 -18.122  1.00  0.00     0.162 A 
BRANCH  14  18
ATOM     18  O   UNL     1      -2.959  90.608 -18.952  1.00  0.00    -0.504 OA
ATOM     19  H   UNL     1      -2.085  90.349 -18.509  1.00  0.00     0.293 HD
ENDBRANCH  14  18
BRANCH  16  20
ATOM     20  O   UNL     1      -5.070  91.955 -20.248  1.00  0.00    -0.502 OA
ATOM     21  H   UNL     1      -5.540  91.321 -20.882  1.00  0.00     0.293 HD
ENDBRANCH  16  20
BRANCH  17  22
ATOM     22  O   UNL     1      -7.215  92.905 -18.773  1.00  0.00    -0.504 OA
ATOM     23  H   UNL     1      -7.067  93.412 -19.639  1.00  0.00     0.293 HD
ENDBRANCH  17  22
ENDBRANCH   1  12
BRANCH   2  24
ATOM     24  O   UNL     1      -4.060  93.335 -14.174  1.00  0.00    -0.502 OA
ATOM     25  H   UNL     1      -4.600  94.104 -14.554  1.00  0.00     0.293 HD
ENDBRANCH   2  24
BRANCH   6  26
ATOM     26  O   UNL     1      -4.830  91.006  -9.447  1.00  0.00    -0.507 OA
ATOM     27  H   UNL     1      -5.119  90.971  -8.481  1.00  0.00     0.293 HD
ENDBRANCH   6  26
BRANCH   8  28
ATOM     28  O   UNL     1      -7.557  87.284 -10.776  1.00  0.00    -0.508 OA
ATOM     29  H   UNL     1      -7.318  86.727  -9.964  1.00  0.00     0.293 HD
ENDBRANCH   8  28
TORSDOF 7
ENDMDL
MODEL 4
REMARK VINA RESULT:    -5.190      9.729     11.609
REMARK INTER + INTRA:          -6.761
REMARK INTER:                  -6.404
REMARK INTRA:                  -0.357
REMARK UNBOUND:                -0.356
REMARK SMILES O=c1c(O)c(-c2cc(O)c(O)c(O)c2)oc2cc(O)cc(O)c12
REMARK SMILES IDX 5 1 3 2 2 3 1 4 23 5 21 6 20 7 18 8 17 9 16 10 15 11 6 12
REMARK SMILES IDX 7 13 8 14 14 15 10 16 12 17 9 18 11 20 13 22 4 24 22 26
REMARK SMILES IDX 19 28
REMARK H PARENT 9 19 11 21 13 23 4 25 22 27 19 29
REMARK Flexibility Score: inf
ROOT
ATOM      1  C   UNL     1      -5.254  91.208 -14.626  1.00  0.00     0.180 A 
ATOM      2  C   UNL     1      -4.703  92.148 -13.737  1.00  0.00     0.208 A 
ATOM      3  C   UNL     1      -4.759  91.895 -12.357  1.00  0.00     0.238 A 
ATOM      4  O   UNL     1      -4.313  92.765 -11.565  1.00  0.00    -0.285 OA
ATOM      5  C   UNL     1      -5.348  90.697 -11.884  1.00  0.00     0.111 A 
ATOM      6  C   UNL     1      -5.422  90.319 -10.509  1.00  0.00     0.134 A 
ATOM      7  C   UNL     1      -6.144  89.175 -10.146  1.00  0.00     0.093 A 
ATOM      8  C   UNL     1      -6.738  88.361 -11.114  1.00  0.00     0.123 A 
ATOM      9  C   UNL     1      -6.620  88.690 -12.462  1.00  0.00     0.094 A 
ATOM     10  C   UNL     1      -5.938  89.844 -12.853  1.00  0.00     0.146 A 
ATOM     11  O   UNL     1      -5.859  90.127 -14.148  1.00  0.00    -0.452 OA
ENDROOT
BRANCH   1  12
ATOM     12  C   UNL     1      -5.211  91.394 -16.094  1.00  0.00     0.029 A 
ATOM     13  C   UNL     1      -6.225  92.093 -16.773  1.00  0.00     0.062 A 
ATOM     14  C   UNL     1      -6.155  92.278 -18.160  1.00  0.00     0.162 A 
ATOM     15  C   UNL     1      -4.109  90.914 -16.819  1.00  0.00     0.062 A 
ATOM     16  C   UNL     1      -5.059  91.774 -18.881  1.00  0.00     0.200 A 
ATOM     17  C   UNL     1      -4.035  91.095 -18.207  1.00  0.00     0.162 A 
BRANCH  14  18
ATOM     18  O   UNL     1      -7.168  92.968 -18.825  1.00  0.00    -0.504 OA
ATOM     19  H   UNL     1      -7.216  93.980 -18.818  1.00  0.00     0.293 HD
ENDBRANCH  14  18
BRANCH  16  20
ATOM     20  O   UNL     1      -4.970  91.943 -20.262  1.00  0.00    -0.502 OA
ATOM     21  H   UNL     1      -5.769  91.823 -20.873  1.00  0.00     0.293 HD
ENDBRANCH  16  20
BRANCH  17  22
ATOM     22  O   UNL     1      -2.946  90.604 -18.924  1.00  0.00    -0.504 OA
ATOM     23  H   UNL     1      -2.061  91.099 -18.951  1.00  0.00     0.293 HD
ENDBRANCH  17  22
ENDBRANCH   1  12
BRANCH   2  24
ATOM     24  O   UNL     1      -4.145  93.333 -14.224  1.00  0.00    -0.502 OA
ATOM     25  H   UNL     1      -4.603  94.231 -14.126  1.00  0.00     0.293 HD
ENDBRANCH   2  24
BRANCH   6  26
ATOM     26  O   UNL     1      -4.787  91.011  -9.475  1.00  0.00    -0.507 OA
ATOM     27  H   UNL     1      -4.095  91.733  -9.605  1.00  0.00     0.293 HD
ENDBRANCH   6  26
BRANCH   8  28
ATOM     28  O   UNL     1      -7.441  87.216 -10.745  1.00  0.00    -0.508 OA
ATOM     29  H   UNL     1      -8.357  87.272 -10.314  1.00  0.00     0.293 HD
ENDBRANCH   8  28
TORSDOF 7
ENDMDL
MODEL 5
REMARK VINA RESULT:    -5.159      2.141      6.983
REMARK INTER + INTRA:          -6.722
REMARK INTER:                  -6.708
REMARK INTRA:                  -0.014
REMARK UNBOUND:                -0.356
REMARK SMILES O=c1c(O)c(-c2cc(O)c(O)c(O)c2)oc2cc(O)cc(O)c12
REMARK SMILES IDX 5 1 3 2 2 3 1 4 23 5 21 6 20 7 18 8 17 9 16 10 15 11 6 12
REMARK SMILES IDX 7 13 8 14 14 15 10 16 12 17 9 18 11 20 13 22 4 24 22 26
REMARK SMILES IDX 19 28
REMARK H PARENT 9 19 11 21 13 23 4 25 22 27 19 29
REMARK Flexibility Score: inf
ROOT
ATOM      1  C   UNL     1      -9.701  83.882  -8.930  1.00  0.00     0.180 A 
ATOM      2  C   UNL     1      -9.608  85.256  -8.653  1.00  0.00     0.208 A 
ATOM      3  C   UNL     1      -8.369  85.901  -8.805  1.00  0.00     0.238 A 
ATOM      4  O   UNL     1      -8.281  87.119  -8.503  1.00  0.00    -0.285 OA
ATOM      5  C   UNL     1      -7.244  85.166  -9.250  1.00  0.00     0.111 A 
ATOM      6  C   UNL     1      -5.950  85.725  -9.478  1.00  0.00     0.134 A 
ATOM      7  C   UNL     1      -4.878  84.880  -9.791  1.00  0.00     0.093 A 
ATOM      8  C   UNL     1      -5.068  83.504  -9.947  1.00  0.00     0.123 A 
ATOM      9  C   UNL     1      -6.339  82.958  -9.785  1.00  0.00     0.094 A 
ATOM     10  C   UNL     1      -7.420  83.770  -9.437  1.00  0.00     0.146 A 
ATOM     11  O   UNL     1      -8.612  83.207  -9.280  1.00  0.00    -0.452 OA
ENDROOT
BRANCH   1  12
ATOM     12  C   UNL     1     -10.977  83.139  -8.815  1.00  0.00     0.029 A 
ATOM     13  C   UNL     1     -12.167  83.640  -9.371  1.00  0.00     0.062 A 
ATOM     14  C   UNL     1     -13.360  82.911  -9.272  1.00  0.00     0.162 A 
ATOM     15  C   UNL     1     -10.991  81.882  -8.191  1.00  0.00     0.062 A 
ATOM     16  C   UNL     1     -13.369  81.664  -8.625  1.00  0.00     0.200 A 
ATOM     17  C   UNL     1     -12.182  81.150  -8.088  1.00  0.00     0.162 A 
BRANCH  14  18
ATOM     18  O   UNL     1     -14.537  83.420  -9.821  1.00  0.00    -0.504 OA
ATOM     19  H   UNL     1     -15.016  84.213  -9.410  1.00  0.00     0.293 HD
ENDBRANCH  14  18
BRANCH  16  20
ATOM     20  O   UNL     1     -14.545  80.924  -8.512  1.00  0.00    -0.502 OA
ATOM     21  H   UNL     1     -15.449  81.363  -8.389  1.00  0.00     0.293 HD
ENDBRANCH  16  20
BRANCH  17  22
ATOM     22  O   UNL     1     -12.193  79.909  -7.454  1.00  0.00    -0.504 OA
ATOM     23  H   UNL     1     -11.927  79.808  -6.481  1.00  0.00     0.293 HD
ENDBRANCH  17  22
ENDBRANCH   1  12
BRANCH   2  24
ATOM     24  O   UNL     1     -10.727  85.958  -8.195  1.00  0.00    -0.502 OA
ATOM     25  H   UNL     1     -10.654  86.742  -7.557  1.00  0.00     0.293 HD
ENDBRANCH   2  24
BRANCH   6  26
ATOM     26  O   UNL     1      -5.675  87.094  -9.438  1.00  0.00    -0.507 OA
ATOM     27  H   UNL     1      -5.496  87.621  -8.597  1.00  0.00     0.293 HD
ENDBRANCH   6  26
BRANCH   8  28
ATOM     28  O   UNL     1      -3.999  82.673 -10.273  1.00  0.00    -0.508 OA
ATOM     29  H   UNL     1      -3.444  82.824 -11.108  1.00  0.00     0.293 HD
ENDBRANCH   8  28
TORSDOF 7
ENDMDL
MODEL 6
REMARK VINA RESULT:    -5.077      2.041      2.778
REMARK INTER + INTRA:          -6.621
REMARK INTER:                  -6.284
REMARK INTRA:                  -0.337
REMARK UNBOUND:                -0.356
REMARK SMILES O=c1c(O)c(-c2cc(O)c(O)c(O)c2)oc2cc(O)cc(O)c12
REMARK SMILES IDX 5 1 3 2 2 3 1 4 23 5 21 6 20 7 18 8 17 9 16 10 15 11 6 12
REMARK SMILES IDX 7 13 8 14 14 15 10 16 12 17 9 18 11 20 13 22 4 24 22 26
REMARK SMILES IDX 19 28
REMARK H PARENT 9 19 11 21 13 23 4 25 22 27 19 29
REMARK Flexibility Score: inf
ROOT
ATOM      1  C   UNL     1      -9.021  83.235  -8.184  1.00  0.00     0.180 A 
ATOM      2  C   UNL     1      -9.263  82.437  -7.053  1.00  0.00     0.208 A 
ATOM      3  C   UNL     1     -10.559  81.941  -6.834  1.00  0.00     0.238 A 
ATOM      4  O   UNL     1     -10.781  81.273  -5.791  1.00  0.00    -0.285 OA
ATOM      5  C   UNL     1     -11.590  82.234  -7.758  1.00  0.00     0.111 A 
ATOM      6  C   UNL     1     -12.930  81.751  -7.657  1.00  0.00     0.134 A 
ATOM      7  C   UNL     1     -13.900  82.211  -8.556  1.00  0.00     0.093 A 
ATOM      8  C   UNL     1     -13.563  83.086  -9.592  1.00  0.00     0.123 A 
ATOM      9  C   UNL     1     -12.246  83.517  -9.735  1.00  0.00     0.094 A 
ATOM     10  C   UNL     1     -11.265  83.104  -8.831  1.00  0.00     0.146 A 
ATOM     11  O   UNL     1     -10.024  83.547  -8.996  1.00  0.00    -0.452 OA
ENDROOT
BRANCH   1  12
ATOM     12  C   UNL     1      -7.677  83.774  -8.495  1.00  0.00     0.029 A 
ATOM     13  C   UNL     1      -7.196  84.942  -7.878  1.00  0.00     0.062 A 
ATOM     14  C   UNL     1      -5.912  85.423  -8.167  1.00  0.00     0.162 A 
ATOM     15  C   UNL     1      -6.840  83.075  -9.379  1.00  0.00     0.062 A 
ATOM     16  C   UNL     1      -5.090  84.729  -9.071  1.00  0.00     0.200 A 
ATOM     17  C   UNL     1      -5.556  83.553  -9.674  1.00  0.00     0.162 A 
BRANCH  14  18
ATOM     18  O   UNL     1      -5.446  86.586  -7.554  1.00  0.00    -0.504 OA
ATOM     19  H   UNL     1      -5.258  86.623  -6.560  1.00  0.00     0.293 HD
ENDBRANCH  14  18
BRANCH  16  20
ATOM     20  O   UNL     1      -3.810  85.191  -9.378  1.00  0.00    -0.502 OA
ATOM     21  H   UNL     1      -3.637  85.829 -10.145  1.00  0.00     0.293 HD
ENDBRANCH  16  20
BRANCH  17  22
ATOM     22  O   UNL     1      -4.735  82.863 -10.564  1.00  0.00    -0.504 OA
ATOM     23  H   UNL     1      -4.210  83.346 -11.284  1.00  0.00     0.293 HD
ENDBRANCH  17  22
ENDBRANCH   1  12
BRANCH   2  24
ATOM     24  O   UNL     1      -8.235  82.178  -6.142  1.00  0.00    -0.502 OA
ATOM     25  H   UNL     1      -7.645  82.910  -5.764  1.00  0.00     0.293 HD
ENDBRANCH   2  24
BRANCH   6  26
ATOM     26  O   UNL     1     -13.348  80.805  -6.718  1.00  0.00    -0.507 OA
ATOM     27  H   UNL     1     -14.257  80.791  -6.280  1.00  0.00     0.293 HD
ENDBRANCH   6  26
BRANCH   8  28
ATOM     28  O   UNL     1     -14.532  83.527 -10.492  1.00  0.00    -0.508 OA
ATOM     29  H   UNL     1     -15.521  83.407 -10.307  1.00  0.00     0.293 HD
ENDBRANCH   8  28
TORSDOF 7
ENDMDL
MODEL 7
REMARK VINA RESULT:    -5.071      1.351      7.193
REMARK INTER + INTRA:          -6.613
REMARK INTER:                  -6.252
REMARK INTRA:                  -0.361
REMARK UNBOUND:                -0.356
REMARK SMILES O=c1c(O)c(-c2cc(O)c(O)c(O)c2)oc2cc(O)cc(O)c12
REMARK SMILES IDX 5 1 3 2 2 3 1 4 23 5 21 6 20 7 18 8 17 9 16 10 15 11 6 12
REMARK SMILES IDX 7 13 8 14 14 15 10 16 12 17 9 18 11 20 13 22 4 24 22 26
REMARK SMILES IDX 19 28
REMARK H PARENT 9 19 11 21 13 23 4 25 22 27 19 29
REMARK Flexibility Score: inf
ROOT
ATOM      1  C   UNL     1      -9.189  83.509  -8.326  1.00  0.00     0.180 A 
ATOM      2  C   UNL     1      -8.901  83.625  -6.955  1.00  0.00     0.208 A 
ATOM      3  C   UNL     1      -7.565  83.546  -6.530  1.00  0.00     0.238 A 
ATOM      4  O   UNL     1      -7.320  83.595  -5.296  1.00  0.00    -0.285 OA
ATOM      5  C   UNL     1      -6.532  83.370  -7.482  1.00  0.00     0.111 A 
ATOM      6  C   UNL     1      -5.141  83.317  -7.167  1.00  0.00     0.134 A 
ATOM      7  C   UNL     1      -4.217  83.009  -8.173  1.00  0.00     0.093 A 
ATOM      8  C   UNL     1      -4.629  82.816  -9.494  1.00  0.00     0.123 A 
ATOM      9  C   UNL     1      -5.978  82.924  -9.822  1.00  0.00     0.094 A 
ATOM     10  C   UNL     1      -6.927  83.194  -8.834  1.00  0.00     0.146 A 
ATOM     11  O   UNL     1      -8.205  83.278  -9.187  1.00  0.00    -0.452 OA
ENDROOT
BRANCH   1  12
ATOM     12  C   UNL     1     -10.569  83.607  -8.852  1.00  0.00     0.029 A 
ATOM     13  C   UNL     1     -11.162  84.852  -9.126  1.00  0.00     0.062 A 
ATOM     14  C   UNL     1     -12.462  84.922  -9.645  1.00  0.00     0.162 A 
ATOM     15  C   UNL     1     -11.284  82.433  -9.140  1.00  0.00     0.062 A 
ATOM     16  C   UNL     1     -13.177  83.742  -9.909  1.00  0.00     0.200 A 
ATOM     17  C   UNL     1     -12.584  82.498  -9.658  1.00  0.00     0.162 A 
BRANCH  14  18
ATOM     18  O   UNL     1     -13.043  86.163  -9.907  1.00  0.00    -0.504 OA
ATOM     19  H   UNL     1     -14.042  86.310  -9.822  1.00  0.00     0.293 HD
ENDBRANCH  14  18
BRANCH  16  20
ATOM     20  O   UNL     1     -14.473  83.788 -10.422  1.00  0.00    -0.502 OA
ATOM     21  H   UNL     1     -15.128  83.025 -10.302  1.00  0.00     0.293 HD
ENDBRANCH  16  20
BRANCH  17  22
ATOM     22  O   UNL     1     -13.294  81.330  -9.928  1.00  0.00    -0.504 OA
ATOM     23  H   UNL     1     -13.447  80.625  -9.215  1.00  0.00     0.293 HD
ENDBRANCH  17  22
ENDBRANCH   1  12
BRANCH   2  24
ATOM     24  O   UNL     1      -9.938  83.777  -6.029  1.00  0.00    -0.502 OA
ATOM     25  H   UNL     1     -10.789  83.229  -6.071  1.00  0.00     0.293 HD
ENDBRANCH   2  24
BRANCH   6  26
ATOM     26  O   UNL     1      -4.618  83.585  -5.900  1.00  0.00    -0.507 OA
ATOM     27  H   UNL     1      -5.121  83.472  -5.033  1.00  0.00     0.293 HD
ENDBRANCH   6  26
BRANCH   8  28
ATOM     28  O   UNL     1      -3.701  82.524 -10.492  1.00  0.00    -0.508 OA
ATOM     29  H   UNL     1      -3.539  81.574 -10.804  1.00  0.00     0.293 HD
ENDBRANCH   8  28
TORSDOF 7
ENDMDL
MODEL 8
REMARK VINA RESULT:    -4.984      4.397      5.758
REMARK INTER + INTRA:          -6.506
REMARK INTER:                  -6.137
REMARK INTRA:                  -0.369
REMARK UNBOUND:                -0.356
REMARK SMILES O=c1c(O)c(-c2cc(O)c(O)c(O)c2)oc2cc(O)cc(O)c12
REMARK SMILES IDX 5 1 3 2 2 3 1 4 23 5 21 6 20 7 18 8 17 9 16 10 15 11 6 12
REMARK SMILES IDX 7 13 8 14 14 15 10 16 12 17 9 18 11 20 13 22 4 24 22 26
REMARK SMILES IDX 19 28
REMARK H PARENT 9 19 11 21 13 23 4 25 22 27 19 29
REMARK Flexibility Score: inf
ROOT
ATOM      1  C   UNL     1     -13.471  81.897  -7.960  1.00  0.00     0.180 A 
ATOM      2  C   UNL     1     -13.385  82.294  -9.305  1.00  0.00     0.208 A 
ATOM      3  C   UNL     1     -13.913  83.539  -9.683  1.00  0.00     0.238 A 
ATOM      4  O   UNL     1     -13.881  83.865 -10.898  1.00  0.00    -0.285 OA
ATOM      5  C   UNL     1     -14.504  84.379  -8.708  1.00  0.00     0.111 A 
ATOM      6  C   UNL     1     -15.034  85.678  -8.972  1.00  0.00     0.134 A 
ATOM      7  C   UNL     1     -15.713  86.365  -7.959  1.00  0.00     0.093 A 
ATOM      8  C   UNL     1     -15.824  85.828  -6.674  1.00  0.00     0.123 A 
ATOM      9  C   UNL     1     -15.258  84.587  -6.391  1.00  0.00     0.094 A 
ATOM     10  C   UNL     1     -14.607  83.861  -7.391  1.00  0.00     0.146 A 
ATOM     11  O   UNL     1     -14.091  82.677  -7.082  1.00  0.00    -0.452 OA
ENDROOT
BRANCH   1  12
ATOM     12  C   UNL     1     -12.917  80.610  -7.481  1.00  0.00     0.029 A 
ATOM     13  C   UNL     1     -11.585  80.505  -7.042  1.00  0.00     0.062 A 
ATOM     14  C   UNL     1     -11.085  79.284  -6.571  1.00  0.00     0.162 A 
ATOM     15  C   UNL     1     -13.750  79.483  -7.407  1.00  0.00     0.062 A 
ATOM     16  C   UNL     1     -11.921  78.156  -6.523  1.00  0.00     0.200 A 
ATOM     17  C   UNL     1     -13.255  78.259  -6.939  1.00  0.00     0.162 A 
BRANCH  14  18
ATOM     18  O   UNL     1      -9.761  79.189  -6.144  1.00  0.00    -0.504 OA
ATOM     19  H   UNL     1      -9.507  79.302  -5.170  1.00  0.00     0.293 HD
ENDBRANCH  14  18
BRANCH  16  20
ATOM     20  O   UNL     1     -11.444  76.929  -6.062  1.00  0.00    -0.502 OA
ATOM     21  H   UNL     1     -10.454  76.728  -5.989  1.00  0.00     0.293 HD
ENDBRANCH  16  20
BRANCH  17  22
ATOM     22  O   UNL     1     -14.083  77.140  -6.882  1.00  0.00    -0.504 OA
ATOM     23  H   UNL     1     -14.690  76.968  -6.088  1.00  0.00     0.293 HD
ENDBRANCH  17  22
ENDBRANCH   1  12
BRANCH   2  24
ATOM     24  O   UNL     1     -12.816  81.441 -10.255  1.00  0.00    -0.502 OA
ATOM     25  H   UNL     1     -13.133  81.408 -11.217  1.00  0.00     0.293 HD
ENDBRANCH   2  24
BRANCH   6  26
ATOM     26  O   UNL     1     -14.896  86.343 -10.194  1.00  0.00    -0.507 OA
ATOM     27  H   UNL     1     -15.500  87.083 -10.518  1.00  0.00     0.293 HD
ENDBRANCH   6  26
BRANCH   8  28
ATOM     28  O   UNL     1     -16.489  86.525  -5.667  1.00  0.00    -0.508 OA
ATOM     29  H   UNL     1     -17.489  86.435  -5.531  1.00  0.00     0.293 HD
ENDBRANCH   8  28
TORSDOF 7
ENDMDL
MODEL 9
REMARK VINA RESULT:    -4.065     10.362     11.980
REMARK INTER + INTRA:          -5.372
REMARK INTER:                  -5.014
REMARK INTRA:                  -0.357
REMARK UNBOUND:                -0.356
REMARK SMILES O=c1c(O)c(-c2cc(O)c(O)c(O)c2)oc2cc(O)cc(O)c12
REMARK SMILES IDX 5 1 3 2 2 3 1 4 23 5 21 6 20 7 18 8 17 9 16 10 15 11 6 12
REMARK SMILES IDX 7 13 8 14 14 15 10 16 12 17 9 18 11 20 13 22 4 24 22 26
REMARK SMILES IDX 19 28
REMARK H PARENT 9 19 11 21 13 23 4 25 22 27 19 29
REMARK Flexibility Score: inf
ROOT
ATOM      1  C   UNL     1      -5.112  91.474 -14.610  1.00  0.00     0.180 A 
ATOM      2  C   UNL     1      -5.618  90.355 -13.926  1.00  0.00     0.208 A 
ATOM      3  C   UNL     1      -5.616  90.357 -12.522  1.00  0.00     0.238 A 
ATOM      4  O   UNL     1      -6.019  89.330 -11.916  1.00  0.00    -0.285 OA
ATOM      5  C   UNL     1      -5.125  91.484 -11.820  1.00  0.00     0.111 A 
ATOM      6  C   UNL     1      -5.112  91.610 -10.398  1.00  0.00     0.134 A 
ATOM      7  C   UNL     1      -4.483  92.713  -9.808  1.00  0.00     0.093 A 
ATOM      8  C   UNL     1      -3.923  93.726 -10.592  1.00  0.00     0.123 A 
ATOM      9  C   UNL     1      -3.983  93.641 -11.981  1.00  0.00     0.094 A 
ATOM     10  C   UNL     1      -4.572  92.535 -12.597  1.00  0.00     0.146 A 
ATOM     11  O   UNL     1      -4.598  92.487 -13.924  1.00  0.00    -0.452 OA
ENDROOT
BRANCH   1  12
ATOM     12  C   UNL     1      -5.104  91.555 -16.089  1.00  0.00     0.029 A 
ATOM     13  C   UNL     1      -6.149  92.178 -16.794  1.00  0.00     0.062 A 
ATOM     14  C   UNL     1      -6.111  92.266 -18.192  1.00  0.00     0.162 A 
ATOM     15  C   UNL     1      -4.004  91.053 -16.802  1.00  0.00     0.062 A 
ATOM     16  C   UNL     1      -5.017  91.740 -18.898  1.00  0.00     0.200 A 
ATOM     17  C   UNL     1      -3.962  91.137 -18.200  1.00  0.00     0.162 A 
BRANCH  14  18
ATOM     18  O   UNL     1      -7.156  92.880 -18.882  1.00  0.00    -0.504 OA
ATOM     19  H   UNL     1      -8.120  92.602 -18.743  1.00  0.00     0.293 HD
ENDBRANCH  14  18
BRANCH  16  20
ATOM     20  O   UNL     1      -4.960  91.812 -20.290  1.00  0.00    -0.502 OA
ATOM     21  H   UNL     1      -4.970  90.984 -20.873  1.00  0.00     0.293 HD
ENDBRANCH  16  20
BRANCH  17  22
ATOM     22  O   UNL     1      -2.875  90.623 -18.904  1.00  0.00    -0.504 OA
ATOM     23  H   UNL     1      -1.995  90.417 -18.445  1.00  0.00     0.293 HD
ENDBRANCH  17  22
ENDBRANCH   1  12
BRANCH   2  24
ATOM     24  O   UNL     1      -6.079  89.244 -14.639  1.00  0.00    -0.502 OA
ATOM     25  H   UNL     1      -5.494  88.439 -14.830  1.00  0.00     0.293 HD
ENDBRANCH   2  24
BRANCH   6  26
ATOM     26  O   UNL     1      -5.724  90.702  -9.529  1.00  0.00    -0.507 OA
ATOM     27  H   UNL     1      -5.527  90.628  -8.543  1.00  0.00     0.293 HD
ENDBRANCH   6  26
BRANCH   8  28
ATOM     28  O   UNL     1      -3.312  94.828  -9.997  1.00  0.00    -0.508 OA
ATOM     29  H   UNL     1      -2.808  94.747  -9.122  1.00  0.00     0.293 HD
ENDBRANCH   8  28
TORSDOF 7
ENDMDL
