MODEL 1
REMARK VINA RESULT:    -5.094      0.000      0.000
REMARK INTER + INTRA:         -11.068
REMARK INTER:                  -9.858
REMARK INTRA:                  -1.210
REMARK UNBOUND:                -1.210
REMARK SMILES CCCCCCCCCCCCCCCCCC(=O)[O-]
REMARK SMILES IDX 10 1 11 2 12 3 13 4 14 5 15 6 16 7 17 8 18 9 19 10 20 11
REMARK SMILES IDX 9 12 8 13 7 14 6 15 5 16 4 17 3 18 2 19 1 20
REMARK H PARENT
REMARK Flexibility Score: inf
ROOT
ATOM      1  C   UNL     1      -3.923   9.381 -39.805  1.00  0.00     0.000 C 
ENDROOT
BRANCH   1   2
ATOM      2  C   UNL     1      -4.495   8.509 -38.672  1.00  0.00     0.000 C 
BRANCH   2   3
ATOM      3  C   UNL     1      -5.912   8.933 -38.259  1.00  0.00     0.000 C 
BRANCH   3   4
ATOM      4  C   UNL     1      -6.906   8.892 -39.429  1.00  0.00     0.000 C 
BRANCH   4   5
ATOM      5  C   UNL     1      -7.371   7.457 -39.705  1.00  0.00     0.000 C 
BRANCH   5   6
ATOM      6  C   UNL     1      -7.485   7.196 -41.211  1.00  0.00     0.000 C 
BRANCH   6   7
ATOM      7  C   UNL     1      -7.726   5.706 -41.494  1.00  0.00     0.006 C 
BRANCH   7   8
ATOM      8  C   UNL     1      -7.947   4.898 -40.208  1.00  0.00     0.053 C 
BRANCH   8   9
ATOM      9  C   UNL     1      -9.177   4.046 -40.291  1.00  0.00     0.041 C 
ATOM     10  O   UNL     1     -10.093   4.171 -39.435  1.00  0.00    -0.550 OA
ATOM     11  O   UNL     1      -9.296   3.090 -41.292  1.00  0.00    -0.550 OA
ENDBRANCH   8   9
ENDBRANCH   7   8
ENDBRANCH   6   7
ENDBRANCH   5   6
ENDBRANCH   4   5
ENDBRANCH   3   4
ENDBRANCH   2   3
ENDBRANCH   1   2
BRANCH   1  12
ATOM     12  C   UNL     1      -2.462   9.016 -40.149  1.00  0.00     0.000 C 
BRANCH  12  13
ATOM     13  C   UNL     1      -1.741   8.230 -39.039  1.00  0.00    -0.000 C 
BRANCH  13  14
ATOM     14  C   UNL     1      -0.695   9.034 -38.243  1.00  0.00    -0.000 C 
BRANCH  14  15
ATOM     15  C   UNL     1      -0.608  10.528 -38.608  1.00  0.00    -0.000 C 
BRANCH  15  16
ATOM     16  C   UNL     1       0.776  11.132 -38.328  1.00  0.00    -0.000 C 
BRANCH  16  17
ATOM     17  C   UNL     1       0.651  12.462 -37.568  1.00  0.00    -0.000 C 
BRANCH  17  18
ATOM     18  C   UNL     1      -0.783  13.013 -37.572  1.00  0.00    -0.000 C 
BRANCH  18  19
ATOM     19  C   UNL     1      -1.303  13.318 -36.160  1.00  0.00    -0.003 C 
ATOM     20  C   UNL     1      -2.352  12.297 -35.729  1.00  0.00     0.004 C 
ENDBRANCH  18  19
ENDBRANCH  17  18
ENDBRANCH  16  17
ENDBRANCH  15  16
ENDBRANCH  14  15
ENDBRANCH  13  14
ENDBRANCH  12  13
ENDBRANCH   1  12
TORSDOF 16
ENDMDL
MODEL 2
REMARK VINA RESULT:    -5.032      2.839      4.709
REMARK INTER + INTRA:         -10.949
REMARK INTER:                 -10.279
REMARK INTRA:                  -0.670
REMARK UNBOUND:                -1.210
REMARK SMILES CCCCCCCCCCCCCCCCCC(=O)[O-]
REMARK SMILES IDX 10 1 11 2 12 3 13 4 14 5 15 6 16 7 17 8 18 9 19 10 20 11
REMARK SMILES IDX 9 12 8 13 7 14 6 15 5 16 4 17 3 18 2 19 1 20
REMARK H PARENT
REMARK Flexibility Score: inf
ROOT
ATOM      1  C   UNL     1      -3.043   9.230 -38.448  1.00  0.00     0.000 C 
ENDROOT
BRANCH   1   2
ATOM      2  C   UNL     1      -3.671   9.421 -39.841  1.00  0.00     0.000 C 
BRANCH   2   3
ATOM      3  C   UNL     1      -5.200   9.550 -39.785  1.00  0.00     0.000 C 
BRANCH   3   4
ATOM      4  C   UNL     1      -5.853   8.469 -38.910  1.00  0.00     0.000 C 
BRANCH   4   5
ATOM      5  C   UNL     1      -7.303   8.216 -39.341  1.00  0.00     0.000 C 
BRANCH   5   6
ATOM      6  C   UNL     1      -7.371   7.150 -40.441  1.00  0.00     0.000 C 
BRANCH   6   7
ATOM      7  C   UNL     1      -8.022   5.860 -39.918  1.00  0.00     0.006 C 
BRANCH   7   8
ATOM      8  C   UNL     1      -8.182   4.802 -41.018  1.00  0.00     0.053 C 
BRANCH   8   9
ATOM      9  C   UNL     1      -9.209   3.773 -40.655  1.00  0.00     0.041 C 
ATOM     10  O   UNL     1      -9.920   3.924 -39.626  1.00  0.00    -0.550 OA
ATOM     11  O   UNL     1      -9.357   2.632 -41.432  1.00  0.00    -0.550 OA
ENDBRANCH   8   9
ENDBRANCH   7   8
ENDBRANCH   6   7
ENDBRANCH   5   6
ENDBRANCH   4   5
ENDBRANCH   3   4
ENDBRANCH   2   3
ENDBRANCH   1   2
BRANCH   1  12
ATOM     12  C   UNL     1      -1.777  10.093 -38.249  1.00  0.00     0.000 C 
BRANCH  12  13
ATOM     13  C   UNL     1      -0.470   9.370 -38.622  1.00  0.00    -0.000 C 
BRANCH  13  14
ATOM     14  C   UNL     1      -0.638   7.903 -39.064  1.00  0.00    -0.000 C 
BRANCH  14  15
ATOM     15  C   UNL     1      -0.630   7.678 -40.587  1.00  0.00    -0.000 C 
BRANCH  15  16
ATOM     16  C   UNL     1       0.133   6.411 -41.001  1.00  0.00    -0.000 C 
BRANCH  16  17
ATOM     17  C   UNL     1       0.644   6.524 -42.445  1.00  0.00    -0.000 C 
BRANCH  17  18
ATOM     18  C   UNL     1       2.117   6.111 -42.585  1.00  0.00    -0.000 C 
BRANCH  18  19
ATOM     19  C   UNL     1       2.576   5.168 -41.462  1.00  0.00    -0.003 C 
ATOM     20  C   UNL     1       4.098   5.078 -41.409  1.00  0.00     0.004 C 
ENDBRANCH  18  19
ENDBRANCH  17  18
ENDBRANCH  16  17
ENDBRANCH  15  16
ENDBRANCH  14  15
ENDBRANCH  13  14
ENDBRANCH  12  13
ENDBRANCH   1  12
TORSDOF 16
ENDMDL
MODEL 3
REMARK VINA RESULT:    -4.745      2.769      4.706
REMARK INTER + INTRA:         -10.393
REMARK INTER:                  -9.516
REMARK INTRA:                  -0.878
REMARK UNBOUND:                -1.210
REMARK SMILES CCCCCCCCCCCCCCCCCC(=O)[O-]
REMARK SMILES IDX 10 1 11 2 12 3 13 4 14 5 15 6 16 7 17 8 18 9 19 10 20 11
REMARK SMILES IDX 9 12 8 13 7 14 6 15 5 16 4 17 3 18 2 19 1 20
REMARK H PARENT
REMARK Flexibility Score: inf
ROOT
ATOM      1  C   UNL     1      -2.454  10.082 -37.421  1.00  0.00     0.000 C 
ENDROOT
BRANCH   1   2
ATOM      2  C   UNL     1      -3.743   9.362 -37.858  1.00  0.00     0.000 C 
BRANCH   2   3
ATOM      3  C   UNL     1      -3.934   9.367 -39.382  1.00  0.00     0.000 C 
BRANCH   3   4
ATOM      4  C   UNL     1      -5.415   9.368 -39.792  1.00  0.00     0.000 C 
BRANCH   4   5
ATOM      5  C   UNL     1      -6.282   8.704 -38.717  1.00  0.00     0.000 C 
BRANCH   5   6
ATOM      6  C   UNL     1      -7.576   8.145 -39.321  1.00  0.00     0.000 C 
BRANCH   6   7
ATOM      7  C   UNL     1      -7.277   6.996 -40.295  1.00  0.00     0.006 C 
BRANCH   7   8
ATOM      8  C   UNL     1      -8.108   5.742 -39.988  1.00  0.00     0.053 C 
BRANCH   8   9
ATOM      9  C   UNL     1      -8.261   4.867 -41.195  1.00  0.00     0.041 C 
ATOM     10  O   UNL     1      -8.846   3.756 -41.101  1.00  0.00    -0.550 OA
ATOM     11  O   UNL     1      -7.725   5.263 -42.414  1.00  0.00    -0.550 OA
ENDBRANCH   8   9
ENDBRANCH   7   8
ENDBRANCH   6   7
ENDBRANCH   5   6
ENDBRANCH   4   5
ENDBRANCH   3   4
ENDBRANCH   2   3
ENDBRANCH   1   2
BRANCH   1  12
ATOM     12  C   UNL     1      -1.509  10.369 -38.608  1.00  0.00     0.000 C 
BRANCH  12  13
ATOM     13  C   UNL     1      -0.416   9.301 -38.802  1.00  0.00    -0.000 C 
BRANCH  13  14
ATOM     14  C   UNL     1      -0.916   7.844 -38.776  1.00  0.00    -0.000 C 
BRANCH  14  15
ATOM     15  C   UNL     1      -0.764   7.080 -40.104  1.00  0.00    -0.000 C 
BRANCH  15  16
ATOM     16  C   UNL     1      -0.107   7.924 -41.207  1.00  0.00    -0.000 C 
BRANCH  16  17
ATOM     17  C   UNL     1       0.520   7.026 -42.285  1.00  0.00    -0.000 C 
BRANCH  17  18
ATOM     18  C   UNL     1       1.266   5.822 -41.691  1.00  0.00    -0.000 C 
BRANCH  18  19
ATOM     19  C   UNL     1       2.686   5.670 -42.255  1.00  0.00    -0.003 C 
ATOM     20  C   UNL     1       3.638   5.110 -41.201  1.00  0.00     0.004 C 
ENDBRANCH  18  19
ENDBRANCH  17  18
ENDBRANCH  16  17
ENDBRANCH  15  16
ENDBRANCH  14  15
ENDBRANCH  13  14
ENDBRANCH  12  13
ENDBRANCH   1  12
TORSDOF 16
ENDMDL
MODEL 4
REMARK VINA RESULT:    -4.622      5.343      9.231
REMARK INTER + INTRA:         -10.155
REMARK INTER:                  -9.290
REMARK INTRA:                  -0.865
REMARK UNBOUND:                -1.210
REMARK SMILES CCCCCCCCCCCCCCCCCC(=O)[O-]
REMARK SMILES IDX 10 1 11 2 12 3 13 4 14 5 15 6 16 7 17 8 18 9 19 10 20 11
REMARK SMILES IDX 9 12 8 13 7 14 6 15 5 16 4 17 3 18 2 19 1 20
REMARK H PARENT
REMARK Flexibility Score: inf
ROOT
ATOM      1  C   UNL     1      -2.307   9.658 -38.436  1.00  0.00     0.000 C 
ENDROOT
BRANCH   1   2
ATOM      2  C   UNL     1      -1.056   8.776 -38.603  1.00  0.00     0.000 C 
BRANCH   2   3
ATOM      3  C   UNL     1      -1.251   7.670 -39.652  1.00  0.00     0.000 C 
BRANCH   3   4
ATOM      4  C   UNL     1      -0.313   7.829 -40.859  1.00  0.00     0.000 C 
BRANCH   4   5
ATOM      5  C   UNL     1       0.300   6.482 -41.258  1.00  0.00     0.000 C 
BRANCH   5   6
ATOM      6  C   UNL     1       0.822   6.521 -42.699  1.00  0.00     0.000 C 
BRANCH   6   7
ATOM      7  C   UNL     1       2.199   5.849 -42.804  1.00  0.00     0.006 C 
BRANCH   7   8
ATOM      8  C   UNL     1       2.620   5.178 -41.490  1.00  0.00     0.053 C 
BRANCH   8   9
ATOM      9  C   UNL     1       4.108   5.193 -41.309  1.00  0.00     0.041 C 
ATOM     10  O   UNL     1       4.724   6.289 -41.231  1.00  0.00    -0.550 OA
ATOM     11  O   UNL     1       4.817   4.000 -41.264  1.00  0.00    -0.550 OA
ENDBRANCH   8   9
ENDBRANCH   7   8
ENDBRANCH   6   7
ENDBRANCH   5   6
ENDBRANCH   4   5
ENDBRANCH   3   4
ENDBRANCH   2   3
ENDBRANCH   1   2
BRANCH   1  12
ATOM     12  C   UNL     1      -3.383   9.364 -39.504  1.00  0.00     0.000 C 
BRANCH  12  13
ATOM     13  C   UNL     1      -4.680   8.767 -38.928  1.00  0.00    -0.000 C 
BRANCH  13  14
ATOM     14  C   UNL     1      -5.983   9.356 -39.504  1.00  0.00    -0.000 C 
BRANCH  14  15
ATOM     15  C   UNL     1      -7.277   8.809 -38.876  1.00  0.00    -0.000 C 
BRANCH  15  16
ATOM     16  C   UNL     1      -7.608   7.381 -39.336  1.00  0.00    -0.000 C 
BRANCH  16  17
ATOM     17  C   UNL     1      -7.464   7.247 -40.859  1.00  0.00    -0.000 C 
BRANCH  17  18
ATOM     18  C   UNL     1      -7.612   5.796 -41.342  1.00  0.00    -0.000 C 
BRANCH  18  19
ATOM     19  C   UNL     1      -7.987   4.831 -40.207  1.00  0.00    -0.003 C 
ATOM     20  C   UNL     1      -9.217   4.004 -40.574  1.00  0.00     0.004 C 
ENDBRANCH  18  19
ENDBRANCH  17  18
ENDBRANCH  16  17
ENDBRANCH  15  16
ENDBRANCH  14  15
ENDBRANCH  13  14
ENDBRANCH  12  13
ENDBRANCH   1  12
TORSDOF 16
ENDMDL
MODEL 5
REMARK VINA RESULT:    -4.586      3.764      9.076
REMARK INTER + INTRA:         -10.086
REMARK INTER:                  -9.017
REMARK INTRA:                  -1.070
REMARK UNBOUND:                -1.210
REMARK SMILES CCCCCCCCCCCCCCCCCC(=O)[O-]
REMARK SMILES IDX 10 1 11 2 12 3 13 4 14 5 15 6 16 7 17 8 18 9 19 10 20 11
REMARK SMILES IDX 9 12 8 13 7 14 6 15 5 16 4 17 3 18 2 19 1 20
REMARK H PARENT
REMARK Flexibility Score: inf
ROOT
ATOM      1  C   UNL     1      -2.670   9.385 -40.130  1.00  0.00     0.000 C 
ENDROOT
BRANCH   1   2
ATOM      2  C   UNL     1      -1.944   8.242 -39.397  1.00  0.00     0.000 C 
BRANCH   2   3
ATOM      3  C   UNL     1      -0.897   8.754 -38.396  1.00  0.00     0.000 C 
BRANCH   3   4
ATOM      4  C   UNL     1      -0.841  10.288 -38.333  1.00  0.00     0.000 C 
BRANCH   4   5
ATOM      5  C   UNL     1       0.609  10.785 -38.328  1.00  0.00     0.000 C 
BRANCH   5   6
ATOM      6  C   UNL     1       0.716  12.164 -37.667  1.00  0.00     0.000 C 
BRANCH   6   7
ATOM      7  C   UNL     1      -0.624  12.912 -37.732  1.00  0.00     0.006 C 
BRANCH   7   8
ATOM      8  C   UNL     1      -1.028  13.501 -36.374  1.00  0.00     0.053 C 
BRANCH   8   9
ATOM      9  C   UNL     1      -2.325  12.932 -35.884  1.00  0.00     0.041 C 
ATOM     10  O   UNL     1      -3.243  13.698 -35.487  1.00  0.00    -0.550 OA
ATOM     11  O   UNL     1      -2.506  11.556 -35.832  1.00  0.00    -0.550 OA
ENDBRANCH   8   9
ENDBRANCH   7   8
ENDBRANCH   6   7
ENDBRANCH   5   6
ENDBRANCH   4   5
ENDBRANCH   3   4
ENDBRANCH   2   3
ENDBRANCH   1   2
BRANCH   1  12
ATOM     12  C   UNL     1      -4.193   9.375 -39.873  1.00  0.00     0.000 C 
BRANCH  12  13
ATOM     13  C   UNL     1      -4.605   8.589 -38.615  1.00  0.00    -0.000 C 
BRANCH  13  14
ATOM     14  C   UNL     1      -6.116   8.580 -38.316  1.00  0.00    -0.000 C 
BRANCH  14  15
ATOM     15  C   UNL     1      -7.014   9.007 -39.492  1.00  0.00    -0.000 C 
BRANCH  15  16
ATOM     16  C   UNL     1      -7.370   7.842 -40.426  1.00  0.00    -0.000 C 
BRANCH  16  17
ATOM     17  C   UNL     1      -7.343   6.504 -39.671  1.00  0.00    -0.000 C 
BRANCH  17  18
ATOM     18  C   UNL     1      -7.780   5.320 -40.549  1.00  0.00    -0.000 C 
BRANCH  18  19
ATOM     19  C   UNL     1      -8.980   4.562 -39.963  1.00  0.00    -0.003 C 
ATOM     20  C   UNL     1      -9.389   3.401 -40.866  1.00  0.00     0.004 C 
ENDBRANCH  18  19
ENDBRANCH  17  18
ENDBRANCH  16  17
ENDBRANCH  15  16
ENDBRANCH  14  15
ENDBRANCH  13  14
ENDBRANCH  12  13
ENDBRANCH   1  12
TORSDOF 16
ENDMDL
MODEL 6
REMARK VINA RESULT:    -4.435      3.464      5.308
REMARK INTER + INTRA:          -9.792
REMARK INTER:                  -8.758
REMARK INTRA:                  -1.034
REMARK UNBOUND:                -1.210
REMARK SMILES CCCCCCCCCCCCCCCCCC(=O)[O-]
REMARK SMILES IDX 10 1 11 2 12 3 13 4 14 5 15 6 16 7 17 8 18 9 19 10 20 11
REMARK SMILES IDX 9 12 8 13 7 14 6 15 5 16 4 17 3 18 2 19 1 20
REMARK H PARENT
REMARK Flexibility Score: inf
ROOT
ATOM      1  C   UNL     1      -1.160   9.331 -38.703  1.00  0.00     0.000 C 
ENDROOT
BRANCH   1   2
ATOM      2  C   UNL     1      -2.593   9.857 -38.502  1.00  0.00     0.000 C 
BRANCH   2   3
ATOM      3  C   UNL     1      -3.656   8.909 -39.078  1.00  0.00     0.000 C 
BRANCH   3   4
ATOM      4  C   UNL     1      -4.576   9.601 -40.095  1.00  0.00     0.000 C 
BRANCH   4   5
ATOM      5  C   UNL     1      -6.047   9.470 -39.683  1.00  0.00     0.000 C 
BRANCH   5   6
ATOM      6  C   UNL     1      -6.366   8.040 -39.231  1.00  0.00     0.000 C 
BRANCH   6   7
ATOM      7  C   UNL     1      -7.226   7.312 -40.275  1.00  0.00     0.006 C 
BRANCH   7   8
ATOM      8  C   UNL     1      -7.647   5.913 -39.807  1.00  0.00     0.053 C 
BRANCH   8   9
ATOM      9  C   UNL     1      -8.121   5.064 -40.948  1.00  0.00     0.041 C 
ATOM     10  O   UNL     1      -7.840   5.383 -42.133  1.00  0.00    -0.550 OA
ATOM     11  O   UNL     1      -8.903   3.943 -40.704  1.00  0.00    -0.550 OA
ENDBRANCH   8   9
ENDBRANCH   7   8
ENDBRANCH   6   7
ENDBRANCH   5   6
ENDBRANCH   4   5
ENDBRANCH   3   4
ENDBRANCH   2   3
ENDBRANCH   1   2
BRANCH   1  12
ATOM     12  C   UNL     1      -1.085   7.789 -38.644  1.00  0.00     0.000 C 
BRANCH  12  13
ATOM     13  C   UNL     1      -0.765   7.132 -40.000  1.00  0.00    -0.000 C 
BRANCH  13  14
ATOM     14  C   UNL     1      -0.561   8.115 -41.170  1.00  0.00    -0.000 C 
BRANCH  14  15
ATOM     15  C   UNL     1       0.660   7.820 -42.061  1.00  0.00    -0.000 C 
BRANCH  15  16
ATOM     16  C   UNL     1       0.756   6.344 -42.475  1.00  0.00    -0.000 C 
BRANCH  16  17
ATOM     17  C   UNL     1       2.221   5.887 -42.544  1.00  0.00    -0.000 C 
BRANCH  17  18
ATOM     18  C   UNL     1       2.634   5.039 -41.331  1.00  0.00    -0.000 C 
BRANCH  18  19
ATOM     19  C   UNL     1       4.145   5.085 -41.065  1.00  0.00    -0.003 C 
ATOM     20  C   UNL     1       4.907   5.541 -42.306  1.00  0.00     0.004 C 
ENDBRANCH  18  19
ENDBRANCH  17  18
ENDBRANCH  16  17
ENDBRANCH  15  16
ENDBRANCH  14  15
ENDBRANCH  13  14
ENDBRANCH  12  13
ENDBRANCH   1  12
TORSDOF 16
ENDMDL
MODEL 7
REMARK VINA RESULT:    -4.129      3.266      6.154
REMARK INTER + INTRA:          -9.202
REMARK INTER:                  -7.918
REMARK INTRA:                  -1.284
REMARK UNBOUND:                -1.210
REMARK SMILES CCCCCCCCCCCCCCCCCC(=O)[O-]
REMARK SMILES IDX 10 1 11 2 12 3 13 4 14 5 15 6 16 7 17 8 18 9 19 10 20 11
REMARK SMILES IDX 9 12 8 13 7 14 6 15 5 16 4 17 3 18 2 19 1 20
REMARK H PARENT
REMARK Flexibility Score: inf
ROOT
ATOM      1  C   UNL     1       0.868  12.231 -38.308  1.00  0.00     0.000 C 
ENDROOT
BRANCH   1   2
ATOM      2  C   UNL     1      -0.225  11.504 -37.503  1.00  0.00     0.000 C 
BRANCH   2   3
ATOM      3  C   UNL     1      -1.209  10.740 -38.402  1.00  0.00     0.000 C 
BRANCH   3   4
ATOM      4  C   UNL     1      -1.150   9.220 -38.184  1.00  0.00     0.000 C 
BRANCH   4   5
ATOM      5  C   UNL     1      -1.926   8.478 -39.278  1.00  0.00     0.000 C 
BRANCH   5   6
ATOM      6  C   UNL     1      -3.111   9.313 -39.775  1.00  0.00     0.000 C 
BRANCH   6   7
ATOM      7  C   UNL     1      -4.395   8.956 -39.011  1.00  0.00     0.006 C 
BRANCH   7   8
ATOM      8  C   UNL     1      -5.661   9.318 -39.799  1.00  0.00     0.053 C 
BRANCH   8   9
ATOM      9  C   UNL     1      -6.856   8.555 -39.313  1.00  0.00     0.041 C 
ATOM     10  O   UNL     1      -7.183   7.472 -39.867  1.00  0.00    -0.550 OA
ATOM     11  O   UNL     1      -7.627   9.057 -38.273  1.00  0.00    -0.550 OA
ENDBRANCH   8   9
ENDBRANCH   7   8
ENDBRANCH   6   7
ENDBRANCH   5   6
ENDBRANCH   4   5
ENDBRANCH   3   4
ENDBRANCH   2   3
ENDBRANCH   1   2
BRANCH   1  12
ATOM     12  C   UNL     1       1.539  11.313 -39.353  1.00  0.00     0.000 C 
BRANCH  12  13
ATOM     13  C   UNL     1       2.127  12.071 -40.557  1.00  0.00    -0.000 C 
BRANCH  13  14
ATOM     14  C   UNL     1       2.685  11.178 -41.683  1.00  0.00    -0.000 C 
BRANCH  14  15
ATOM     15  C   UNL     1       1.628  10.358 -42.446  1.00  0.00    -0.000 C 
BRANCH  15  16
ATOM     16  C   UNL     1       1.802   8.843 -42.265  1.00  0.00    -0.000 C 
BRANCH  16  17
ATOM     17  C   UNL     1       0.457   8.170 -41.947  1.00  0.00    -0.000 C 
BRANCH  17  18
ATOM     18  C   UNL     1       0.571   6.641 -41.843  1.00  0.00    -0.000 C 
BRANCH  18  19
ATOM     19  C   UNL     1       1.850   6.098 -42.496  1.00  0.00    -0.003 C 
ATOM     20  C   UNL     1       2.637   5.226 -41.521  1.00  0.00     0.004 C 
ENDBRANCH  18  19
ENDBRANCH  17  18
ENDBRANCH  16  17
ENDBRANCH  15  16
ENDBRANCH  14  15
ENDBRANCH  13  14
ENDBRANCH  12  13
ENDBRANCH   1  12
TORSDOF 16
ENDMDL
MODEL 8
REMARK VINA RESULT:    -3.660     14.369     16.066
REMARK INTER + INTRA:          -8.293
REMARK INTER:                  -6.035
REMARK INTRA:                  -2.258
REMARK UNBOUND:                -1.210
REMARK SMILES CCCCCCCCCCCCCCCCCC(=O)[O-]
REMARK SMILES IDX 10 1 11 2 12 3 13 4 14 5 15 6 16 7 17 8 18 9 19 10 20 11
REMARK SMILES IDX 9 12 8 13 7 14 6 15 5 16 4 17 3 18 2 19 1 20
REMARK H PARENT
REMARK Flexibility Score: inf
ROOT
ATOM      1  C   UNL     1      -9.375   5.125 -25.572  1.00  0.00     0.000 C 
ENDROOT
BRANCH   1   2
ATOM      2  C   UNL     1     -10.243   4.390 -26.610  1.00  0.00     0.000 C 
BRANCH   2   3
ATOM      3  C   UNL     1     -11.392   3.600 -25.965  1.00  0.00     0.000 C 
BRANCH   3   4
ATOM      4  C   UNL     1     -12.741   3.847 -26.658  1.00  0.00     0.000 C 
BRANCH   4   5
ATOM      5  C   UNL     1     -13.396   5.133 -26.142  1.00  0.00     0.000 C 
BRANCH   5   6
ATOM      6  C   UNL     1     -13.132   5.322 -24.643  1.00  0.00     0.000 C 
BRANCH   6   7
ATOM      7  C   UNL     1     -12.742   6.775 -24.332  1.00  0.00     0.006 C 
BRANCH   7   8
ATOM      8  C   UNL     1     -12.453   7.585 -25.603  1.00  0.00     0.053 C 
BRANCH   8   9
ATOM      9  C   UNL     1     -11.110   8.246 -25.548  1.00  0.00     0.041 C 
ATOM     10  O   UNL     1     -10.411   8.348 -26.591  1.00  0.00    -0.550 OA
ATOM     11  O   UNL     1     -10.615   8.718 -24.340  1.00  0.00    -0.550 OA
ENDBRANCH   8   9
ENDBRANCH   7   8
ENDBRANCH   6   7
ENDBRANCH   5   6
ENDBRANCH   4   5
ENDBRANCH   3   4
ENDBRANCH   2   3
ENDBRANCH   1   2
BRANCH   1  12
ATOM     12  C   UNL     1      -9.616   4.614 -24.135  1.00  0.00     0.000 C 
BRANCH  12  13
ATOM     13  C   UNL     1      -8.626   5.182 -23.101  1.00  0.00    -0.000 C 
BRANCH  13  14
ATOM     14  C   UNL     1      -7.354   4.340 -22.883  1.00  0.00    -0.000 C 
BRANCH  14  15
ATOM     15  C   UNL     1      -7.362   2.962 -23.569  1.00  0.00    -0.000 C 
BRANCH  15  16
ATOM     16  C   UNL     1      -6.270   2.821 -24.640  1.00  0.00    -0.000 C 
BRANCH  16  17
ATOM     17  C   UNL     1      -6.861   2.309 -25.963  1.00  0.00    -0.000 C 
BRANCH  17  18
ATOM     18  C   UNL     1      -6.393   3.128 -27.176  1.00  0.00    -0.000 C 
BRANCH  18  19
ATOM     19  C   UNL     1      -5.885   2.244 -28.325  1.00  0.00    -0.003 C 
ATOM     20  C   UNL     1      -5.208   3.084 -29.405  1.00  0.00     0.004 C 
ENDBRANCH  18  19
ENDBRANCH  17  18
ENDBRANCH  16  17
ENDBRANCH  15  16
ENDBRANCH  14  15
ENDBRANCH  13  14
ENDBRANCH  12  13
ENDBRANCH   1  12
TORSDOF 16
ENDMDL
MODEL 9
REMARK VINA RESULT:    -3.632     14.208     16.507
REMARK INTER + INTRA:          -8.239
REMARK INTER:                  -5.360
REMARK INTRA:                  -2.879
REMARK UNBOUND:                -1.210
REMARK SMILES CCCCCCCCCCCCCCCCCC(=O)[O-]
REMARK SMILES IDX 10 1 11 2 12 3 13 4 14 5 15 6 16 7 17 8 18 9 19 10 20 11
REMARK SMILES IDX 9 12 8 13 7 14 6 15 5 16 4 17 3 18 2 19 1 20
REMARK H PARENT
REMARK Flexibility Score: inf
ROOT
ATOM      1  C   UNL     1     -11.779   7.452 -28.037  1.00  0.00     0.000 C 
ENDROOT
BRANCH   1   2
ATOM      2  C   UNL     1     -11.283   7.443 -26.579  1.00  0.00     0.000 C 
BRANCH   2   3
ATOM      3  C   UNL     1     -10.242   6.346 -26.316  1.00  0.00     0.000 C 
BRANCH   3   4
ATOM      4  C   UNL     1      -9.976   6.130 -24.819  1.00  0.00     0.000 C 
BRANCH   4   5
ATOM      5  C   UNL     1      -9.221   4.817 -24.579  1.00  0.00     0.000 C 
BRANCH   5   6
ATOM      6  C   UNL     1      -8.777   4.187 -25.905  1.00  0.00     0.000 C 
BRANCH   6   7
ATOM      7  C   UNL     1      -8.181   2.790 -25.678  1.00  0.00     0.006 C 
BRANCH   7   8
ATOM      8  C   UNL     1      -6.865   2.588 -26.440  1.00  0.00     0.053 C 
BRANCH   8   9
ATOM      9  C   UNL     1      -5.674   2.758 -25.546  1.00  0.00     0.041 C 
ATOM     10  O   UNL     1      -4.537   2.369 -25.926  1.00  0.00    -0.550 OA
ATOM     11  O   UNL     1      -5.825   3.313 -24.282  1.00  0.00    -0.550 OA
ENDBRANCH   8   9
ENDBRANCH   7   8
ENDBRANCH   6   7
ENDBRANCH   5   6
ENDBRANCH   4   5
ENDBRANCH   3   4
ENDBRANCH   2   3
ENDBRANCH   1   2
BRANCH   1  12
ATOM     12  C   UNL     1     -11.973   6.027 -28.601  1.00  0.00     0.000 C 
BRANCH  12  13
ATOM     13  C   UNL     1     -13.376   5.445 -28.344  1.00  0.00    -0.000 C 
BRANCH  13  14
ATOM     14  C   UNL     1     -13.401   3.963 -27.924  1.00  0.00    -0.000 C 
BRANCH  14  15
ATOM     15  C   UNL     1     -12.085   3.435 -27.324  1.00  0.00    -0.000 C 
BRANCH  15  16
ATOM     16  C   UNL     1     -12.259   2.868 -25.907  1.00  0.00    -0.000 C 
BRANCH  16  17
ATOM     17  C   UNL     1     -13.500   3.464 -25.225  1.00  0.00    -0.000 C 
BRANCH  17  18
ATOM     18  C   UNL     1     -13.167   4.681 -24.349  1.00  0.00    -0.000 C 
BRANCH  18  19
ATOM     19  C   UNL     1     -14.042   5.901 -24.673  1.00  0.00    -0.003 C 
ATOM     20  C   UNL     1     -13.692   7.083 -23.774  1.00  0.00     0.004 C 
ENDBRANCH  18  19
ENDBRANCH  17  18
ENDBRANCH  16  17
ENDBRANCH  15  16
ENDBRANCH  14  15
ENDBRANCH  13  14
ENDBRANCH  12  13
ENDBRANCH   1  12
TORSDOF 16
ENDMDL
