MODEL 1
REMARK VINA RESULT:    74.886      0.000      0.000
REMARK INTER + INTRA:         134.103
REMARK INTER:                 133.987
REMARK INTRA:                   0.116
REMARK UNBOUND:                 0.116
REMARK SMILES C[C@H]1O[C@@H](O[C@@H]2[C@@H](O)[C@H](OCCc3ccc(O)c(O)c3)O[C@H](CO)[C@@H]2OC(=O)C=Cc2ccc(O)c(O)c2)[C@@H](O)[C@H](O)[C@@H]1O
REMARK SMILES IDX 6 1 7 2 9 3 21 4 22 5 25 6 5 7 4 8 1 9 2 10 43 11 3 12 41 13
REMARK SMILES IDX 39 14 44 15 42 17 40 19 8 21 26 23 27 24 28 25 29 26 30 27
REMARK SMILES IDX 31 28 38 29 32 30 36 31 33 32 34 33 37 34 35 36 10 38 11 39
REMARK SMILES IDX 12 40 13 41 20 42 14 43 18 44 15 45 16 46 19 47 17 49 23 51
REMARK SMILES IDX 24 52
REMARK H PARENT 44 16 42 18 40 20 8 22 37 35 35 37 19 48 17 50 24 53
REMARK Flexibility Score: inf
ROOT
ATOM      1  C   UNL     1      21.615  21.120  15.927  1.00  0.00     0.199 C 
ATOM      2  C   UNL     1      22.959  20.846  17.020  1.00  0.00     0.203 C 
ATOM      3  C   UNL     1      24.379  21.761  16.613  1.00  0.00     0.282 C 
ATOM      4  O   UNL     1      24.130  22.976  15.857  1.00  0.00    -0.340 OA
ATOM      5  C   UNL     1      22.745  23.145  15.661  1.00  0.00     0.190 C 
ATOM      6  C   UNL     1      22.376  21.759  14.878  1.00  0.00     0.240 C 
ENDROOT
BRANCH   1   7
ATOM      7  O   UNL     1      20.388  22.052  15.818  1.00  0.00    -0.340 OA
BRANCH   7   8
ATOM      8  C   UNL     1      19.040  21.750  15.261  1.00  0.00     0.282 C 
ATOM      9  C   UNL     1      18.051  24.091  12.743  1.00  0.00     0.041 C 
ATOM     10  C   UNL     1      17.933  22.777  13.476  1.00  0.00     0.150 C 
ATOM     11  C   UNL     1      16.481  22.298  14.016  1.00  0.00     0.174 C 
ATOM     12  O   UNL     1      18.714  22.948  14.632  1.00  0.00    -0.344 OA
ATOM     13  C   UNL     1      16.521  21.065  15.031  1.00  0.00     0.179 C 
ATOM     14  C   UNL     1      17.644  21.374  16.140  1.00  0.00     0.202 C 
BRANCH  11  15
ATOM     15  O   UNL     1      15.646  22.140  12.917  1.00  0.00    -0.388 OA
ATOM     16  H   UNL     1      15.502  21.170  12.836  1.00  0.00     0.211 HD
ENDBRANCH  11  15
BRANCH  13  17
ATOM     17  O   UNL     1      16.590  19.729  14.548  1.00  0.00    -0.387 OA
ATOM     18  H   UNL     1      16.348  19.117  15.330  1.00  0.00     0.211 HD
ENDBRANCH  13  17
BRANCH  14  19
ATOM     19  O   UNL     1      17.197  22.561  16.742  1.00  0.00    -0.385 OA
ATOM     20  H   UNL     1      17.345  22.383  17.719  1.00  0.00     0.211 HD
ENDBRANCH  14  19
ENDBRANCH   7   8
ENDBRANCH   1   7
BRANCH   2  21
ATOM     21  O   UNL     1      23.007  19.558  17.553  1.00  0.00    -0.385 OA
ATOM     22  H   UNL     1      23.895  19.575  17.991  1.00  0.00     0.211 HD
ENDBRANCH   2  21
BRANCH   6  23
ATOM     23  O   UNL     1      21.857  21.601  13.510  1.00  0.00    -0.453 OA
BRANCH  23  24
ATOM     24  C   UNL     1      22.459  20.495  12.675  1.00  0.00     0.331 C 
ATOM     25  O   UNL     1      23.753  20.381  12.601  1.00  0.00    -0.247 OA
BRANCH  24  26
ATOM     26  C   UNL     1      21.785  19.866  11.571  1.00  0.00     0.094 C 
ATOM     27  C   UNL     1      21.210  20.658  10.757  1.00  0.00     0.016 C 
BRANCH  27  28
ATOM     28  C   UNL     1      19.706  20.446  10.645  1.00  0.00    -0.021 A 
ATOM     29  C   UNL     1      19.293  19.910   9.408  1.00  0.00     0.058 A 
ATOM     30  C   UNL     1      18.821  21.167  11.436  1.00  0.00     0.012 A 
ATOM     31  C   UNL     1      18.492  20.763   8.674  1.00  0.00     0.157 A 
ATOM     32  C   UNL     1      17.763  21.772  10.763  1.00  0.00     0.051 A 
ATOM     33  C   UNL     1      17.672  21.689   9.380  1.00  0.00     0.157 A 
BRANCH  31  34
ATOM     34  O   UNL     1      18.427  20.683   7.275  1.00  0.00    -0.504 OA
ATOM     35  H   UNL     1      19.156  20.152   6.740  1.00  0.00     0.293 HD
ENDBRANCH  31  34
BRANCH  33  36
ATOM     36  O   UNL     1      16.887  22.577   8.645  1.00  0.00    -0.504 OA
ATOM     37  H   UNL     1      16.319  22.228   7.886  1.00  0.00     0.293 HD
ENDBRANCH  33  36
ENDBRANCH  27  28
ENDBRANCH  24  26
ENDBRANCH  23  24
ENDBRANCH   6  23
BRANCH   3  38
ATOM     38  O   UNL     1      25.257  22.078  17.616  1.00  0.00    -0.350 OA
BRANCH  38  39
ATOM     39  C   UNL     1      26.579  21.639  17.340  1.00  0.00     0.168 C 
BRANCH  39  40
ATOM     40  C   UNL     1      27.424  23.031  17.098  1.00  0.00     0.064 C 
BRANCH  40  41
ATOM     41  C   UNL     1      27.165  23.594  15.737  1.00  0.00    -0.042 A 
ATOM     42  C   UNL     1      27.303  22.822  14.500  1.00  0.00     0.054 A 
ATOM     43  C   UNL     1      27.349  25.013  15.600  1.00  0.00     0.008 A 
ATOM     44  C   UNL     1      27.812  23.369  13.309  1.00  0.00     0.157 A 
ATOM     45  C   UNL     1      28.328  25.326  14.657  1.00  0.00     0.050 A 
ATOM     46  C   UNL     1      28.404  24.698  13.425  1.00  0.00     0.157 A 
BRANCH  44  47
ATOM     47  O   UNL     1      27.865  22.640  12.086  1.00  0.00    -0.504 OA
ATOM     48  H   UNL     1      28.083  21.637  12.117  1.00  0.00     0.293 HD
ENDBRANCH  44  47
BRANCH  46  49
ATOM     49  O   UNL     1      29.145  25.279  12.367  1.00  0.00    -0.504 OA
ATOM     50  H   UNL     1      29.923  25.859  12.673  1.00  0.00     0.293 HD
ENDBRANCH  46  49
ENDBRANCH  40  41
ENDBRANCH  39  40
ENDBRANCH  38  39
ENDBRANCH   3  38
BRANCH   5  51
ATOM     51  C   UNL     1      22.156  23.475  17.215  1.00  0.00     0.192 C 
BRANCH  51  52
ATOM     52  O   UNL     1      22.137  24.873  17.591  1.00  0.00    -0.394 OA
ATOM     53  H   UNL     1      22.373  25.236  16.736  1.00  0.00     0.210 HD
ENDBRANCH  51  52
ENDBRANCH   5  51
TORSDOF 20
ENDMDL
MODEL 2
REMARK VINA RESULT:    76.455      4.297      7.047
REMARK INTER + INTRA:         136.910
REMARK INTER:                 139.823
REMARK INTRA:                  -2.913
REMARK UNBOUND:                 0.116
REMARK SMILES C[C@H]1O[C@@H](O[C@@H]2[C@@H](O)[C@H](OCCc3ccc(O)c(O)c3)O[C@H](CO)[C@@H]2OC(=O)C=Cc2ccc(O)c(O)c2)[C@@H](O)[C@H](O)[C@@H]1O
REMARK SMILES IDX 6 1 7 2 9 3 21 4 22 5 25 6 5 7 4 8 1 9 2 10 43 11 3 12 41 13
REMARK SMILES IDX 39 14 44 15 42 17 40 19 8 21 26 23 27 24 28 25 29 26 30 27
REMARK SMILES IDX 31 28 38 29 32 30 36 31 33 32 34 33 37 34 35 36 10 38 11 39
REMARK SMILES IDX 12 40 13 41 20 42 14 43 18 44 15 45 16 46 19 47 17 49 23 51
REMARK SMILES IDX 24 52
REMARK H PARENT 44 16 42 18 40 20 8 22 37 35 35 37 19 48 17 50 24 53
REMARK Flexibility Score: inf
ROOT
ATOM      1  C   UNL     1      17.338  27.218  14.614  1.00  0.00     0.199 C 
ATOM      2  C   UNL     1      19.092  27.240  14.633  1.00  0.00     0.203 C 
ATOM      3  C   UNL     1      19.811  25.915  13.771  1.00  0.00     0.282 C 
ATOM      4  O   UNL     1      18.979  25.337  12.730  1.00  0.00    -0.340 OA
ATOM      5  C   UNL     1      17.760  26.039  12.644  1.00  0.00     0.190 C 
ATOM      6  C   UNL     1      17.192  25.852  14.164  1.00  0.00     0.240 C 
ENDROOT
BRANCH   1   7
ATOM      7  O   UNL     1      16.187  27.787  13.757  1.00  0.00    -0.340 OA
BRANCH   7   8
ATOM      8  C   UNL     1      15.150  28.785  14.143  1.00  0.00     0.282 C 
ATOM      9  C   UNL     1      15.143  29.450  17.658  1.00  0.00     0.041 C 
ATOM     10  C   UNL     1      14.778  29.772  16.230  1.00  0.00     0.150 C 
ATOM     11  C   UNL     1      13.235  30.118  15.863  1.00  0.00     0.174 C 
ATOM     12  O   UNL     1      15.066  28.594  15.519  1.00  0.00    -0.344 OA
ATOM     13  C   UNL     1      12.911  30.137  14.300  1.00  0.00     0.179 C 
ATOM     14  C   UNL     1      13.532  28.804  13.649  1.00  0.00     0.202 C 
BRANCH  11  15
ATOM     15  O   UNL     1      12.876  31.262  16.563  1.00  0.00    -0.388 OA
ATOM     16  H   UNL     1      12.844  30.991  17.507  1.00  0.00     0.211 HD
ENDBRANCH  11  15
BRANCH  13  17
ATOM     17  O   UNL     1      13.174  31.296  13.518  1.00  0.00    -0.387 OA
ATOM     18  H   UNL     1      12.326  31.866  13.536  1.00  0.00     0.211 HD
ENDBRANCH  13  17
BRANCH  14  19
ATOM     19  O   UNL     1      12.875  27.766  14.329  1.00  0.00    -0.385 OA
ATOM     20  H   UNL     1      11.937  27.829  13.977  1.00  0.00     0.211 HD
ENDBRANCH  14  19
ENDBRANCH   7   8
ENDBRANCH   1   7
BRANCH   2  21
ATOM     21  O   UNL     1      19.642  27.785  15.794  1.00  0.00    -0.385 OA
ATOM     22  H   UNL     1      19.702  28.740  15.536  1.00  0.00     0.211 HD
ENDBRANCH   2  21
BRANCH   6  23
ATOM     23  O   UNL     1      15.970  25.154  14.596  1.00  0.00    -0.453 OA
BRANCH  23  24
ATOM     24  C   UNL     1      16.001  23.643  14.565  1.00  0.00     0.331 C 
ATOM     25  O   UNL     1      16.442  22.990  15.601  1.00  0.00    -0.247 OA
BRANCH  24  26
ATOM     26  C   UNL     1      16.064  22.867  13.355  1.00  0.00     0.094 C 
ATOM     27  C   UNL     1      17.001  22.008  13.303  1.00  0.00     0.016 C 
BRANCH  27  28
ATOM     28  C   UNL     1      17.983  22.231  12.160  1.00  0.00    -0.021 A 
ATOM     29  C   UNL     1      17.376  22.640  10.955  1.00  0.00     0.058 A 
ATOM     30  C   UNL     1      19.227  21.613  12.155  1.00  0.00     0.012 A 
ATOM     31  C   UNL     1      17.515  21.727   9.928  1.00  0.00     0.157 A 
ATOM     32  C   UNL     1      19.570  20.957  10.976  1.00  0.00     0.051 A 
ATOM     33  C   UNL     1      18.671  20.894   9.920  1.00  0.00     0.157 A 
BRANCH  31  34
ATOM     34  O   UNL     1      16.586  21.659   8.879  1.00  0.00    -0.504 OA
ATOM     35  H   UNL     1      15.833  22.382   8.791  1.00  0.00     0.293 HD
ENDBRANCH  31  34
BRANCH  33  36
ATOM     36  O   UNL     1      18.801  19.945   8.906  1.00  0.00    -0.504 OA
ATOM     37  H   UNL     1      17.994  19.406   8.623  1.00  0.00     0.293 HD
ENDBRANCH  33  36
ENDBRANCH  27  28
ENDBRANCH  24  26
ENDBRANCH  23  24
ENDBRANCH   6  23
BRANCH   3  38
ATOM     38  O   UNL     1      21.064  26.087  13.242  1.00  0.00    -0.350 OA
BRANCH  38  39
ATOM     39  C   UNL     1      22.084  25.577  14.086  1.00  0.00     0.168 C 
BRANCH  39  40
ATOM     40  C   UNL     1      21.822  23.952  14.100  1.00  0.00     0.064 C 
BRANCH  40  41
ATOM     41  C   UNL     1      21.980  23.387  15.476  1.00  0.00    -0.042 A 
ATOM     42  C   UNL     1      23.278  23.160  16.115  1.00  0.00     0.054 A 
ATOM     43  C   UNL     1      20.913  22.540  15.932  1.00  0.00     0.008 A 
ATOM     44  C   UNL     1      23.543  22.049  16.936  1.00  0.00     0.157 A 
ATOM     45  C   UNL     1      21.357  21.252  16.229  1.00  0.00     0.050 A 
ATOM     46  C   UNL     1      22.518  21.010  16.944  1.00  0.00     0.157 A 
BRANCH  44  47
ATOM     47  O   UNL     1      24.778  21.876  17.624  1.00  0.00    -0.504 OA
ATOM     48  H   UNL     1      25.615  21.624  17.084  1.00  0.00     0.293 HD
ENDBRANCH  44  47
BRANCH  46  49
ATOM     49  O   UNL     1      22.742  19.748  17.546  1.00  0.00    -0.504 OA
ATOM     50  H   UNL     1      23.016  19.018  16.893  1.00  0.00     0.293 HD
ENDBRANCH  46  49
ENDBRANCH  40  41
ENDBRANCH  39  40
ENDBRANCH  38  39
ENDBRANCH   3  38
BRANCH   5  51
ATOM     51  C   UNL     1      18.212  27.556  12.041  1.00  0.00     0.192 C 
BRANCH  51  52
ATOM     52  O   UNL     1      17.310  28.136  11.068  1.00  0.00    -0.394 OA
ATOM     53  H   UNL     1      17.456  29.054  11.294  1.00  0.00     0.210 HD
ENDBRANCH  51  52
ENDBRANCH   5  51
TORSDOF 20
ENDMDL
MODEL 3
REMARK VINA RESULT:    76.910      0.880      1.576
REMARK INTER + INTRA:         137.724
REMARK INTER:                 137.575
REMARK INTRA:                   0.150
REMARK UNBOUND:                 0.116
REMARK SMILES C[C@H]1O[C@@H](O[C@@H]2[C@@H](O)[C@H](OCCc3ccc(O)c(O)c3)O[C@H](CO)[C@@H]2OC(=O)C=Cc2ccc(O)c(O)c2)[C@@H](O)[C@H](O)[C@@H]1O
REMARK SMILES IDX 6 1 7 2 9 3 21 4 22 5 25 6 5 7 4 8 1 9 2 10 43 11 3 12 41 13
REMARK SMILES IDX 39 14 44 15 42 17 40 19 8 21 26 23 27 24 28 25 29 26 30 27
REMARK SMILES IDX 31 28 38 29 32 30 36 31 33 32 34 33 37 34 35 36 10 38 11 39
REMARK SMILES IDX 12 40 13 41 20 42 14 43 18 44 15 45 16 46 19 47 17 49 23 51
REMARK SMILES IDX 24 52
REMARK H PARENT 44 16 42 18 40 20 8 22 37 35 35 37 19 48 17 50 24 53
REMARK Flexibility Score: inf
ROOT
ATOM      1  C   UNL     1      21.177  21.751  15.668  1.00  0.00     0.199 C 
ATOM      2  C   UNL     1      22.451  21.183  16.731  1.00  0.00     0.203 C 
ATOM      3  C   UNL     1      24.006  21.875  16.381  1.00  0.00     0.282 C 
ATOM      4  O   UNL     1      23.967  23.164  15.713  1.00  0.00    -0.340 OA
ATOM      5  C   UNL     1      22.630  23.574  15.536  1.00  0.00     0.190 C 
ATOM      6  C   UNL     1      22.041  22.326  14.662  1.00  0.00     0.240 C 
ENDROOT
BRANCH   1   7
ATOM      7  O   UNL     1      20.124  22.880  15.630  1.00  0.00    -0.340 OA
BRANCH   7   8
ATOM      8  C   UNL     1      18.767  22.862  15.015  1.00  0.00     0.282 C 
ATOM      9  C   UNL     1      17.368  19.571  14.902  1.00  0.00     0.041 C 
ATOM     10  C   UNL     1      17.269  21.076  14.833  1.00  0.00     0.150 C 
ATOM     11  C   UNL     1      16.499  21.764  13.582  1.00  0.00     0.174 C 
ATOM     12  O   UNL     1      18.602  21.510  14.725  1.00  0.00    -0.344 OA
ATOM     13  C   UNL     1      16.721  23.340  13.450  1.00  0.00     0.179 C 
ATOM     14  C   UNL     1      18.297  23.631  13.583  1.00  0.00     0.202 C 
BRANCH  11  15
ATOM     15  O   UNL     1      15.175  21.347  13.613  1.00  0.00    -0.388 OA
ATOM     16  H   UNL     1      14.645  22.147  13.399  1.00  0.00     0.211 HD
ENDBRANCH  11  15
BRANCH  13  17
ATOM     17  O   UNL     1      15.935  24.250  14.210  1.00  0.00    -0.387 OA
ATOM     18  H   UNL     1      14.957  23.994  14.062  1.00  0.00     0.211 HD
ENDBRANCH  13  17
BRANCH  14  19
ATOM     19  O   UNL     1      18.858  22.910  12.517  1.00  0.00    -0.385 OA
ATOM     20  H   UNL     1      18.060  22.705  11.944  1.00  0.00     0.211 HD
ENDBRANCH  14  19
ENDBRANCH   7   8
ENDBRANCH   1   7
BRANCH   2  21
ATOM     21  O   UNL     1      22.280  19.871  17.174  1.00  0.00    -0.385 OA
ATOM     22  H   UNL     1      21.391  19.663  16.789  1.00  0.00     0.211 HD
ENDBRANCH   2  21
BRANCH   6  23
ATOM     23  O   UNL     1      21.511  22.353  13.289  1.00  0.00    -0.453 OA
BRANCH  23  24
ATOM     24  C   UNL     1      22.165  21.429  12.288  1.00  0.00     0.331 C 
ATOM     25  O   UNL     1      23.176  21.855  11.588  1.00  0.00    -0.247 OA
BRANCH  24  26
ATOM     26  C   UNL     1      21.497  20.313  11.670  1.00  0.00     0.094 C 
ATOM     27  C   UNL     1      21.056  20.522  10.495  1.00  0.00     0.016 C 
BRANCH  27  28
ATOM     28  C   UNL     1      19.547  20.359  10.362  1.00  0.00    -0.021 A 
ATOM     29  C   UNL     1      19.130  19.896   9.097  1.00  0.00     0.058 A 
ATOM     30  C   UNL     1      18.677  21.065  11.181  1.00  0.00     0.012 A 
ATOM     31  C   UNL     1      18.360  20.807   8.400  1.00  0.00     0.157 A 
ATOM     32  C   UNL     1      17.643  21.733  10.531  1.00  0.00     0.051 A 
ATOM     33  C   UNL     1      17.560  21.720   9.145  1.00  0.00     0.157 A 
BRANCH  31  34
ATOM     34  O   UNL     1      18.305  20.798   6.999  1.00  0.00    -0.504 OA
ATOM     35  H   UNL     1      19.130  20.475   6.438  1.00  0.00     0.293 HD
ENDBRANCH  31  34
BRANCH  33  36
ATOM     36  O   UNL     1      16.807  22.666   8.450  1.00  0.00    -0.504 OA
ATOM     37  H   UNL     1      16.012  23.097   8.900  1.00  0.00     0.293 HD
ENDBRANCH  33  36
ENDBRANCH  27  28
ENDBRANCH  24  26
ENDBRANCH  23  24
ENDBRANCH   6  23
BRANCH   3  38
ATOM     38  O   UNL     1      24.918  21.971  17.399  1.00  0.00    -0.350 OA
BRANCH  38  39
ATOM     39  C   UNL     1      26.175  21.407  17.057  1.00  0.00     0.168 C 
BRANCH  39  40
ATOM     40  C   UNL     1      27.188  22.702  16.971  1.00  0.00     0.064 C 
BRANCH  40  41
ATOM     41  C   UNL     1      27.054  23.410  15.660  1.00  0.00    -0.042 A 
ATOM     42  C   UNL     1      27.329  22.781  14.366  1.00  0.00     0.054 A 
ATOM     43  C   UNL     1      27.221  24.837  15.699  1.00  0.00     0.008 A 
ATOM     44  C   UNL     1      27.942  23.462  13.300  1.00  0.00     0.157 A 
ATOM     45  C   UNL     1      28.282  25.262  14.899  1.00  0.00     0.050 A 
ATOM     46  C   UNL     1      28.493  24.776  13.620  1.00  0.00     0.157 A 
BRANCH  44  47
ATOM     47  O   UNL     1      28.131  22.875  12.016  1.00  0.00    -0.504 OA
ATOM     48  H   UNL     1      29.088  22.768  11.657  1.00  0.00     0.293 HD
ENDBRANCH  44  47
BRANCH  46  49
ATOM     49  O   UNL     1      29.322  25.478  12.712  1.00  0.00    -0.504 OA
ATOM     50  H   UNL     1      28.848  25.780  11.863  1.00  0.00     0.293 HD
ENDBRANCH  46  49
ENDBRANCH  40  41
ENDBRANCH  39  40
ENDBRANCH  38  39
ENDBRANCH   3  38
BRANCH   5  51
ATOM     51  C   UNL     1      22.095  23.889  17.113  1.00  0.00     0.192 C 
BRANCH  51  52
ATOM     52  O   UNL     1      21.926  25.287  17.447  1.00  0.00    -0.394 OA
ATOM     53  H   UNL     1      22.783  25.423  17.852  1.00  0.00     0.210 HD
ENDBRANCH  51  52
ENDBRANCH   5  51
TORSDOF 20
ENDMDL
