MODEL 1
REMARK VINA RESULT:    -7.039      0.000      0.000
REMARK INTER + INTRA:          -7.039
REMARK INTER:                  -7.039
REMARK INTRA:                   0.000
REMARK UNBOUND:                 0.000
REMARK SMILES C=C1CCC[C@]2(C)CC(=O)C(=C(C)C)C[C@H]12
REMARK SMILES IDX 13 1 12 2 11 3 15 4 16 5 2 6 1 7 3 8 4 9 5 10 6 11 8 12 9 13
REMARK SMILES IDX 10 14 7 15 14 16
REMARK H PARENT
REMARK Flexibility Score: inf
ROOT
ATOM      1  C   UNL     1     138.178 137.819 113.480  1.00  0.00     0.039 C 
ATOM      2  C   UNL     1     138.858 138.753 112.508  1.00  0.00    -0.070 C 
ATOM      3  C   UNL     1     139.643 139.780 112.944  1.00  0.00    -0.006 C 
ATOM      4  C   UNL     1     139.930 140.037 114.410  1.00  0.00     0.047 C 
ATOM      5  C   UNL     1     141.454 140.057 114.716  1.00  0.00     0.025 C 
ATOM      6  C   UNL     1     141.679 140.838 116.003  1.00  0.00    -0.073 C 
ATOM      7  C   UNL     1     141.483 140.254 117.197  1.00  0.00     0.008 C 
ATOM      8  C   UNL     1     142.003 142.309 115.915  1.00  0.00     0.031 C 
ATOM      9  C   UNL     1     143.171 142.597 114.955  1.00  0.00     0.005 C 
ATOM     10  C   UNL     1     143.567 141.401 114.069  1.00  0.00     0.008 C 
ATOM     11  C   UNL     1     142.354 140.592 113.527  1.00  0.00    -0.018 C 
ATOM     12  C   UNL     1     141.530 141.474 112.543  1.00  0.00     0.088 C 
ATOM     13  C   UNL     1     140.325 140.737 112.034  1.00  0.00     0.159 C 
ATOM     14  O   UNL     1     139.878 141.003 110.887  1.00  0.00    -0.295 OA
ATOM     15  C   UNL     1     142.937 139.386 112.739  1.00  0.00     0.012 C 
ATOM     16  C   UNL     1     138.667 138.475 111.035  1.00  0.00     0.039 C 
ENDROOT
TORSDOF 0
ENDMDL
MODEL 2
REMARK VINA RESULT:    -6.994      2.190      4.491
REMARK INTER + INTRA:          -6.994
REMARK INTER:                  -6.994
REMARK INTRA:                   0.000
REMARK UNBOUND:                 0.000
REMARK SMILES C=C1CCC[C@]2(C)CC(=O)C(=C(C)C)C[C@H]12
REMARK SMILES IDX 13 1 12 2 11 3 15 4 16 5 2 6 1 7 3 8 4 9 5 10 6 11 8 12 9 13
REMARK SMILES IDX 10 14 7 15 14 16
REMARK H PARENT
REMARK Flexibility Score: inf
ROOT
ATOM      1  C   UNL     1     142.148 140.349 118.833  1.00  0.00     0.039 C 
ATOM      2  C   UNL     1     140.983 140.936 118.073  1.00  0.00    -0.070 C 
ATOM      3  C   UNL     1     141.129 141.393 116.796  1.00  0.00    -0.006 C 
ATOM      4  C   UNL     1     142.436 141.311 116.033  1.00  0.00     0.047 C 
ATOM      5  C   UNL     1     142.283 140.551 114.685  1.00  0.00     0.025 C 
ATOM      6  C   UNL     1     143.416 140.973 113.761  1.00  0.00    -0.073 C 
ATOM      7  C   UNL     1     144.638 140.428 113.888  1.00  0.00     0.008 C 
ATOM      8  C   UNL     1     143.178 142.099 112.784  1.00  0.00     0.031 C 
ATOM      9  C   UNL     1     141.908 141.886 111.941  1.00  0.00     0.005 C 
ATOM     10  C   UNL     1     140.994 140.758 112.453  1.00  0.00     0.008 C 
ATOM     11  C   UNL     1     140.863 140.709 114.002  1.00  0.00    -0.018 C 
ATOM     12  C   UNL     1     140.128 141.986 114.508  1.00  0.00     0.088 C 
ATOM     13  C   UNL     1     140.022 141.992 116.005  1.00  0.00     0.159 C 
ATOM     14  O   UNL     1     139.046 142.569 116.554  1.00  0.00    -0.295 OA
ATOM     15  C   UNL     1     139.988 139.470 114.338  1.00  0.00     0.012 C 
ATOM     16  C   UNL     1     139.642 140.954 118.770  1.00  0.00     0.039 C 
ENDROOT
TORSDOF 0
ENDMDL
MODEL 3
REMARK VINA RESULT:    -6.972      6.460      9.120
REMARK INTER + INTRA:          -6.972
REMARK INTER:                  -6.972
REMARK INTRA:                   0.000
REMARK UNBOUND:                 0.000
REMARK SMILES C=C1CCC[C@]2(C)CC(=O)C(=C(C)C)C[C@H]12
REMARK SMILES IDX 13 1 12 2 11 3 15 4 16 5 2 6 1 7 3 8 4 9 5 10 6 11 8 12 9 13
REMARK SMILES IDX 10 14 7 15 14 16
REMARK H PARENT
REMARK Flexibility Score: inf
ROOT
ATOM      1  C   UNL     1     134.367 136.112 118.823  1.00  0.00     0.039 C 
ATOM      2  C   UNL     1     135.532 135.544 118.048  1.00  0.00    -0.070 C 
ATOM      3  C   UNL     1     135.380 135.096 116.769  1.00  0.00    -0.006 C 
ATOM      4  C   UNL     1     134.066 135.169 116.017  1.00  0.00     0.047 C 
ATOM      5  C   UNL     1     134.199 135.942 114.674  1.00  0.00     0.025 C 
ATOM      6  C   UNL     1     133.063 135.516 113.756  1.00  0.00    -0.073 C 
ATOM      7  C   UNL     1     131.837 136.046 113.898  1.00  0.00     0.008 C 
ATOM      8  C   UNL     1     133.305 134.400 112.768  1.00  0.00     0.031 C 
ATOM      9  C   UNL     1     134.565 134.633 111.916  1.00  0.00     0.005 C 
ATOM     10  C   UNL     1     135.472 135.767 112.429  1.00  0.00     0.008 C 
ATOM     11  C   UNL     1     135.615 135.805 113.978  1.00  0.00    -0.018 C 
ATOM     12  C   UNL     1     136.368 134.532 114.467  1.00  0.00     0.088 C 
ATOM     13  C   UNL     1     136.487 134.515 115.964  1.00  0.00     0.159 C 
ATOM     14  O   UNL     1     137.474 133.944 116.499  1.00  0.00    -0.295 OA
ATOM     15  C   UNL     1     136.480 137.050 114.317  1.00  0.00     0.012 C 
ATOM     16  C   UNL     1     136.879 135.534 118.733  1.00  0.00     0.039 C 
ENDROOT
TORSDOF 0
ENDMDL
MODEL 4
REMARK VINA RESULT:    -6.581      7.488      8.994
REMARK INTER + INTRA:          -6.581
REMARK INTER:                  -6.581
REMARK INTRA:                   0.000
REMARK UNBOUND:                 0.000
REMARK SMILES C=C1CCC[C@]2(C)CC(=O)C(=C(C)C)C[C@H]12
REMARK SMILES IDX 13 1 12 2 11 3 15 4 16 5 2 6 1 7 3 8 4 9 5 10 6 11 8 12 9 13
REMARK SMILES IDX 10 14 7 15 14 16
REMARK H PARENT
REMARK Flexibility Score: inf
ROOT
ATOM      1  C   UNL     1     136.987 132.883 116.131  1.00  0.00     0.039 C 
ATOM      2  C   UNL     1     136.154 134.101 116.448  1.00  0.00    -0.070 C 
ATOM      3  C   UNL     1     135.828 135.007 115.481  1.00  0.00    -0.006 C 
ATOM      4  C   UNL     1     136.229 134.847 114.028  1.00  0.00     0.047 C 
ATOM      5  C   UNL     1     135.002 134.877 113.073  1.00  0.00     0.025 C 
ATOM      6  C   UNL     1     135.482 135.265 111.682  1.00  0.00    -0.073 C 
ATOM      7  C   UNL     1     136.042 134.348 110.875  1.00  0.00     0.008 C 
ATOM      8  C   UNL     1     135.433 136.717 111.272  1.00  0.00     0.031 C 
ATOM      9  C   UNL     1     134.048 137.347 111.508  1.00  0.00     0.005 C 
ATOM     10  C   UNL     1     133.104 136.487 112.370  1.00  0.00     0.008 C 
ATOM     11  C   UNL     1     133.809 135.792 113.571  1.00  0.00    -0.018 C 
ATOM     12  C   UNL     1     134.299 136.865 114.587  1.00  0.00     0.088 C 
ATOM     13  C   UNL     1     135.022 136.230 115.739  1.00  0.00     0.159 C 
ATOM     14  O   UNL     1     134.995 136.786 116.868  1.00  0.00    -0.295 OA
ATOM     15  C   UNL     1     132.737 134.908 114.266  1.00  0.00     0.012 C 
ATOM     16  C   UNL     1     135.660 134.250 117.869  1.00  0.00     0.039 C 
ENDROOT
TORSDOF 0
ENDMDL
MODEL 5
REMARK VINA RESULT:    -6.565      2.370      4.673
REMARK INTER + INTRA:          -6.565
REMARK INTER:                  -6.565
REMARK INTRA:                   0.000
REMARK UNBOUND:                 0.000
REMARK SMILES C=C1CCC[C@]2(C)CC(=O)C(=C(C)C)C[C@H]12
REMARK SMILES IDX 13 1 12 2 11 3 15 4 16 5 2 6 1 7 3 8 4 9 5 10 6 11 8 12 9 13
REMARK SMILES IDX 10 14 7 15 14 16
REMARK H PARENT
REMARK Flexibility Score: inf
ROOT
ATOM      1  C   UNL     1     139.505 143.591 116.118  1.00  0.00     0.039 C 
ATOM      2  C   UNL     1     140.323 142.364 116.447  1.00  0.00    -0.070 C 
ATOM      3  C   UNL     1     140.654 141.456 115.486  1.00  0.00    -0.006 C 
ATOM      4  C   UNL     1     140.274 141.618 114.027  1.00  0.00     0.047 C 
ATOM      5  C   UNL     1     141.513 141.576 113.089  1.00  0.00     0.025 C 
ATOM      6  C   UNL     1     141.049 141.193 111.691  1.00  0.00    -0.073 C 
ATOM      7  C   UNL     1     140.509 142.114 110.877  1.00  0.00     0.008 C 
ATOM      8  C   UNL     1     141.090 139.740 111.283  1.00  0.00     0.031 C 
ATOM      9  C   UNL     1     142.465 139.097 111.538  1.00  0.00     0.005 C 
ATOM     10  C   UNL     1     143.405 139.947 112.413  1.00  0.00     0.008 C 
ATOM     11  C   UNL     1     142.691 140.650 113.603  1.00  0.00    -0.018 C 
ATOM     12  C   UNL     1     142.177 139.582 114.613  1.00  0.00     0.088 C 
ATOM     13  C   UNL     1     141.444 140.225 115.754  1.00  0.00     0.159 C 
ATOM     14  O   UNL     1     141.450 139.669 116.885  1.00  0.00    -0.295 OA
ATOM     15  C   UNL     1     143.762 141.524 114.313  1.00  0.00     0.012 C 
ATOM     16  C   UNL     1     140.795 142.212 117.875  1.00  0.00     0.039 C 
ENDROOT
TORSDOF 0
ENDMDL
MODEL 6
REMARK VINA RESULT:    -6.442      2.095      3.656
REMARK INTER + INTRA:          -6.442
REMARK INTER:                  -6.442
REMARK INTRA:                   0.000
REMARK UNBOUND:                 0.000
REMARK SMILES C=C1CCC[C@]2(C)CC(=O)C(=C(C)C)C[C@H]12
REMARK SMILES IDX 13 1 12 2 11 3 15 4 16 5 2 6 1 7 3 8 4 9 5 10 6 11 8 12 9 13
REMARK SMILES IDX 10 14 7 15 14 16
REMARK H PARENT
REMARK Flexibility Score: inf
ROOT
ATOM      1  C   UNL     1     140.716 142.205 110.875  1.00  0.00     0.039 C 
ATOM      2  C   UNL     1     141.194 141.026 111.689  1.00  0.00    -0.070 C 
ATOM      3  C   UNL     1     141.278 141.092 113.048  1.00  0.00    -0.006 C 
ATOM      4  C   UNL     1     140.864 142.314 113.845  1.00  0.00     0.047 C 
ATOM      5  C   UNL     1     139.792 141.979 114.920  1.00  0.00     0.025 C 
ATOM      6  C   UNL     1     139.836 143.054 115.997  1.00  0.00    -0.073 C 
ATOM      7  C   UNL     1     139.224 144.234 115.806  1.00  0.00     0.008 C 
ATOM      8  C   UNL     1     140.680 142.819 117.226  1.00  0.00     0.031 C 
ATOM      9  C   UNL     1     140.381 141.465 117.894  1.00  0.00     0.005 C 
ATOM     10  C   UNL     1     139.528 140.513 117.035  1.00  0.00     0.008 C 
ATOM     11  C   UNL     1     139.907 140.520 115.526  1.00  0.00    -0.018 C 
ATOM     12  C   UNL     1     141.340 139.938 115.341  1.00  0.00     0.088 C 
ATOM     13  C   UNL     1     141.755 139.969 113.898  1.00  0.00     0.159 C 
ATOM     14  O   UNL     1     142.553 139.096 113.466  1.00  0.00    -0.295 OA
ATOM     15  C   UNL     1     138.897 139.583 114.808  1.00  0.00     0.012 C 
ATOM     16  C   UNL     1     141.533 139.759 110.937  1.00  0.00     0.039 C 
ENDROOT
TORSDOF 0
ENDMDL
MODEL 7
REMARK VINA RESULT:    -6.144      1.933      4.781
REMARK INTER + INTRA:          -6.144
REMARK INTER:                  -6.144
REMARK INTRA:                   0.000
REMARK UNBOUND:                 0.000
REMARK SMILES C=C1CCC[C@]2(C)CC(=O)C(=C(C)C)C[C@H]12
REMARK SMILES IDX 13 1 12 2 11 3 15 4 16 5 2 6 1 7 3 8 4 9 5 10 6 11 8 12 9 13
REMARK SMILES IDX 10 14 7 15 14 16
REMARK H PARENT
REMARK Flexibility Score: inf
ROOT
ATOM      1  C   UNL     1     143.163 139.487 117.074  1.00  0.00     0.039 C 
ATOM      2  C   UNL     1     141.817 140.128 116.834  1.00  0.00    -0.070 C 
ATOM      3  C   UNL     1     141.368 140.377 115.571  1.00  0.00    -0.006 C 
ATOM      4  C   UNL     1     142.146 140.000 114.326  1.00  0.00     0.047 C 
ATOM      5  C   UNL     1     141.322 139.091 113.370  1.00  0.00     0.025 C 
ATOM      6  C   UNL     1     141.904 139.210 111.969  1.00  0.00    -0.073 C 
ATOM      7  C   UNL     1     143.001 138.515 111.626  1.00  0.00     0.008 C 
ATOM      8  C   UNL     1     141.303 140.213 111.014  1.00  0.00     0.031 C 
ATOM      9  C   UNL     1     139.774 140.074 110.902  1.00  0.00     0.005 C 
ATOM     10  C   UNL     1     139.143 139.173 111.980  1.00  0.00     0.008 C 
ATOM     11  C   UNL     1     139.762 139.360 113.396  1.00  0.00    -0.018 C 
ATOM     12  C   UNL     1     139.439 140.787 113.927  1.00  0.00     0.088 C 
ATOM     13  C   UNL     1     140.058 141.016 115.275  1.00  0.00     0.159 C 
ATOM     14  O   UNL     1     139.499 141.801 116.087  1.00  0.00    -0.295 OA
ATOM     15  C   UNL     1     139.074 138.321 114.324  1.00  0.00     0.012 C 
ATOM     16  C   UNL     1     140.973 140.438 118.049  1.00  0.00     0.039 C 
ENDROOT
TORSDOF 0
ENDMDL
MODEL 8
REMARK VINA RESULT:    -5.818      1.923      3.343
REMARK INTER + INTRA:          -5.818
REMARK INTER:                  -5.818
REMARK INTRA:                   0.000
REMARK UNBOUND:                 0.000
REMARK SMILES C=C1CCC[C@]2(C)CC(=O)C(=C(C)C)C[C@H]12
REMARK SMILES IDX 13 1 12 2 11 3 15 4 16 5 2 6 1 7 3 8 4 9 5 10 6 11 8 12 9 13
REMARK SMILES IDX 10 14 7 15 14 16
REMARK H PARENT
REMARK Flexibility Score: inf
ROOT
ATOM      1  C   UNL     1     144.039 139.494 112.451  1.00  0.00     0.039 C 
ATOM      2  C   UNL     1     142.729 140.217 112.244  1.00  0.00    -0.070 C 
ATOM      3  C   UNL     1     141.835 140.366 113.263  1.00  0.00    -0.006 C 
ATOM      4  C   UNL     1     142.095 139.869 114.672  1.00  0.00     0.047 C 
ATOM      5  C   UNL     1     141.977 141.005 115.727  1.00  0.00     0.025 C 
ATOM      6  C   UNL     1     141.699 140.377 117.085  1.00  0.00    -0.073 C 
ATOM      7  C   UNL     1     142.701 139.854 117.812  1.00  0.00     0.008 C 
ATOM      8  C   UNL     1     140.268 140.239 117.543  1.00  0.00     0.031 C 
ATOM      9  C   UNL     1     139.489 141.563 117.445  1.00  0.00     0.005 C 
ATOM     10  C   UNL     1     140.210 142.659 116.638  1.00  0.00     0.008 C 
ATOM     11  C   UNL     1     140.925 142.131 115.361  1.00  0.00    -0.018 C 
ATOM     12  C   UNL     1     139.867 141.612 114.343  1.00  0.00     0.088 C 
ATOM     13  C   UNL     1     140.526 141.055 113.114  1.00  0.00     0.159 C 
ATOM     14  O   UNL     1     139.924 141.113 112.009  1.00  0.00    -0.295 OA
ATOM     15  C   UNL     1     141.664 143.343 114.730  1.00  0.00     0.012 C 
ATOM     16  C   UNL     1     142.472 140.803 110.875  1.00  0.00     0.039 C 
ENDROOT
TORSDOF 0
ENDMDL
