MODEL 1
REMARK VINA RESULT:    15.013      0.000      0.000
REMARK INTER + INTRA:          17.428
REMARK INTER:                  17.646
REMARK INTRA:                  -0.218
REMARK UNBOUND:                -0.218
REMARK SMILES C=C(C)[C@@H]1CC[C@@]2(CO)CC[C@@]3(C)[C@@H](CC[C@@H]4[C@]5(C)CC[C@@H](O)C(C)(C)[C@@H]5CC[C@]43C)[C@H]12
REMARK SMILES IDX 4 1 5 2 6 3 7 4 32 5 14 6 15 7 16 8 17 9 18 10 20 11 21 12
REMARK SMILES IDX 22 13 24 14 27 15 28 16 29 17 30 18 12 19 11 20 10 21 13 22
REMARK SMILES IDX 31 23 25 24 26 25 19 26 2 27 3 28 1 29 8 30 9 31 23 33
REMARK H PARENT 9 32 23 34
REMARK Flexibility Score: inf
ROOT
ATOM      1  C   UNL     1      20.523  31.960  36.873  1.00  0.00     0.018 C 
ATOM      2  C   UNL     1      19.234  31.879  36.030  1.00  0.00     0.009 C 
ATOM      3  C   UNL     1      18.066  31.962  37.042  1.00  0.00     0.010 C 
ATOM      4  C   UNL     1      18.594  32.910  38.134  1.00  0.00    -0.003 C 
ATOM      5  C   UNL     1      20.025  32.350  38.288  1.00  0.00     0.008 C 
ATOM      6  C   UNL     1      20.902  33.109  39.324  1.00  0.00    -0.000 C 
ATOM      7  C   UNL     1      22.304  32.447  39.540  1.00  0.00     0.005 C 
ATOM      8  C   UNL     1      23.051  32.981  40.804  1.00  0.00     0.005 C 
ATOM      9  C   UNL     1      22.551  34.410  41.144  1.00  0.00     0.002 C 
ATOM     10  C   UNL     1      23.555  35.458  41.811  1.00  0.00    -0.026 C 
ATOM     11  C   UNL     1      23.816  35.229  43.328  1.00  0.00     0.010 C 
ATOM     12  C   UNL     1      24.607  36.364  43.989  1.00  0.00     0.033 C 
ATOM     13  C   UNL     1      23.934  37.740  43.823  1.00  0.00     0.120 C 
ATOM     14  C   UNL     1      23.742  38.109  42.319  1.00  0.00    -0.006 C 
ATOM     15  C   UNL     1      22.962  36.916  41.572  1.00  0.00     0.003 C 
ATOM     16  C   UNL     1      21.434  36.959  41.922  1.00  0.00     0.005 C 
ATOM     17  C   UNL     1      20.546  35.860  41.300  1.00  0.00     0.008 C 
ATOM     18  C   UNL     1      21.023  34.407  41.583  1.00  0.00    -0.024 C 
ATOM     19  C   UNL     1      20.187  33.282  40.725  1.00  0.00    -0.024 C 
ATOM     20  C   UNL     1      18.659  33.663  40.554  1.00  0.00     0.008 C 
ATOM     21  C   UNL     1      17.916  32.777  39.517  1.00  0.00     0.010 C 
ATOM     22  C   UNL     1      20.156  31.876  41.462  1.00  0.00     0.012 C 
ATOM     23  C   UNL     1      20.806  34.105  43.099  1.00  0.00     0.012 C 
ATOM     24  C   UNL     1      22.916  39.433  42.210  1.00  0.00     0.014 C 
ATOM     25  C   UNL     1      25.125  38.444  41.669  1.00  0.00     0.014 C 
ATOM     26  C   UNL     1      24.918  35.280  41.051  1.00  0.00     0.012 C 
ENDROOT
BRANCH   1  27
ATOM     27  C   UNL     1      21.636  32.813  36.259  1.00  0.00    -0.077 C 
ATOM     28  C   UNL     1      22.937  32.141  35.922  1.00  0.00     0.039 C 
ATOM     29  C   UNL     1      21.459  34.096  35.903  1.00  0.00     0.008 C 
ENDBRANCH   1  27
BRANCH   4  30
ATOM     30  C   UNL     1      18.350  34.380  37.608  1.00  0.00     0.163 C 
BRANCH  30  31
ATOM     31  O   UNL     1      17.955  34.452  36.269  1.00  0.00    -0.396 OA
ATOM     32  H   UNL     1      17.986  33.527  35.929  1.00  0.00     0.210 HD
ENDBRANCH  30  31
ENDBRANCH   4  30
BRANCH  13  33
ATOM     33  O   UNL     1      24.712  38.707  44.480  1.00  0.00    -0.393 OA
ATOM     34  H   UNL     1      24.408  39.599  44.181  1.00  0.00     0.210 HD
ENDBRANCH  13  33
TORSDOF 4
ENDMDL
