MODEL 1
REMARK VINA RESULT:     3.940      0.000      0.000
REMARK INTER + INTRA:          10.488
REMARK INTER:                  10.390
REMARK INTRA:                   0.098
REMARK UNBOUND:                 0.098
REMARK SMILES CCCCCCCCCCCCCCCCCCCCCCCCCCCCCC(=O)[O-]
REMARK SMILES IDX 16 1 17 2 18 3 19 4 20 5 21 6 22 7 23 8 24 9 25 10 26 11
REMARK SMILES IDX 27 12 28 13 29 14 30 15 31 16 32 17 15 18 14 19 13 20 12 21
REMARK SMILES IDX 11 22 10 23 9 24 8 25 7 26 6 27 5 28 4 29 3 30 2 31 1 32
REMARK H PARENT
REMARK Flexibility Score: inf
ROOT
ATOM      1  C   UNL     1       3.931   2.518  16.722  1.00  0.00     0.000 C 
ENDROOT
BRANCH   1   2
ATOM      2  C   UNL     1       5.372   2.023  16.928  1.00  0.00     0.000 C 
BRANCH   2   3
ATOM      3  C   UNL     1       5.526   0.525  16.610  1.00  0.00     0.000 C 
BRANCH   3   4
ATOM      4  C   UNL     1       4.226  -0.268  16.819  1.00  0.00     0.000 C 
BRANCH   4   5
ATOM      5  C   UNL     1       4.474  -1.713  17.292  1.00  0.00     0.000 C 
BRANCH   5   6
ATOM      6  C   UNL     1       5.976  -2.046  17.416  1.00  0.00     0.000 C 
BRANCH   6   7
ATOM      7  C   UNL     1       6.553  -1.816  18.824  1.00  0.00     0.000 C 
BRANCH   7   8
ATOM      8  C   UNL     1       6.553  -0.338  19.238  1.00  0.00     0.000 C 
BRANCH   8   9
ATOM      9  C   UNL     1       5.953  -0.152  20.641  1.00  0.00     0.000 C 
BRANCH   9  10
ATOM     10  C   UNL     1       4.419   0.025  20.594  1.00  0.00     0.000 C 
BRANCH  10  11
ATOM     11  C   UNL     1       3.960   1.164  19.668  1.00  0.00     0.000 C 
BRANCH  11  12
ATOM     12  C   UNL     1       2.767   1.950  20.237  1.00  0.00     0.000 C 
BRANCH  12  13
ATOM     13  C   UNL     1       1.619   1.034  20.689  1.00  0.00     0.006 C 
BRANCH  13  14
ATOM     14  C   UNL     1       0.249   1.724  20.628  1.00  0.00     0.053 C 
BRANCH  14  15
ATOM     15  C   UNL     1       0.416   3.198  20.424  1.00  0.00     0.041 C 
ATOM     16  O   UNL     1      -0.086   3.757  19.413  1.00  0.00    -0.550 OA
ATOM     17  O   UNL     1       1.168   3.946  21.323  1.00  0.00    -0.550 OA
ENDBRANCH  14  15
ENDBRANCH  13  14
ENDBRANCH  12  13
ENDBRANCH  11  12
ENDBRANCH  10  11
ENDBRANCH   9  10
ENDBRANCH   8   9
ENDBRANCH   7   8
ENDBRANCH   6   7
ENDBRANCH   5   6
ENDBRANCH   4   5
ENDBRANCH   3   4
ENDBRANCH   2   3
ENDBRANCH   1   2
BRANCH   1  18
ATOM     18  C   UNL     1       3.880   3.911  16.069  1.00  0.00     0.000 C 
BRANCH  18  19
ATOM     19  C   UNL     1       4.000   3.845  14.537  1.00  0.00     0.000 C 
BRANCH  19  20
ATOM     20  C   UNL     1       3.242   2.645  13.942  1.00  0.00     0.000 C 
BRANCH  20  21
ATOM     21  C   UNL     1       4.061   1.893  12.879  1.00  0.00     0.000 C 
BRANCH  21  22
ATOM     22  C   UNL     1       5.591   2.032  13.015  1.00  0.00     0.000 C 
BRANCH  22  23
ATOM     23  C   UNL     1       6.350   0.690  12.930  1.00  0.00     0.000 C 
BRANCH  23  24
ATOM     24  C   UNL     1       6.772   0.167  14.316  1.00  0.00    -0.000 C 
BRANCH  24  25
ATOM     25  C   UNL     1       7.134  -1.326  14.297  1.00  0.00    -0.000 C 
BRANCH  25  26
ATOM     26  C   UNL     1       6.426  -2.089  13.167  1.00  0.00    -0.000 C 
BRANCH  26  27
ATOM     27  C   UNL     1       5.047  -1.485  12.875  1.00  0.00    -0.000 C 
BRANCH  27  28
ATOM     28  C   UNL     1       3.990  -2.023  13.846  1.00  0.00    -0.000 C 
BRANCH  28  29
ATOM     29  C   UNL     1       2.915  -0.964  14.133  1.00  0.00    -0.000 C 
BRANCH  29  30
ATOM     30  C   UNL     1       1.856  -1.445  15.143  1.00  0.00    -0.000 C 
BRANCH  30  31
ATOM     31  C   UNL     1       0.557  -0.619  15.163  1.00  0.00    -0.003 C 
ATOM     32  C   UNL     1       0.548   0.506  14.128  1.00  0.00     0.004 C 
ENDBRANCH  30  31
ENDBRANCH  29  30
ENDBRANCH  28  29
ENDBRANCH  27  28
ENDBRANCH  26  27
ENDBRANCH  25  26
ENDBRANCH  24  25
ENDBRANCH  23  24
ENDBRANCH  22  23
ENDBRANCH  21  22
ENDBRANCH  20  21
ENDBRANCH  19  20
ENDBRANCH  18  19
ENDBRANCH   1  18
TORSDOF 28
ENDMDL
MODEL 2
REMARK VINA RESULT:     4.519      1.296      3.410
REMARK INTER + INTRA:          12.014
REMARK INTER:                   8.517
REMARK INTRA:                   3.497
REMARK UNBOUND:                 0.098
REMARK SMILES CCCCCCCCCCCCCCCCCCCCCCCCCCCCCC(=O)[O-]
REMARK SMILES IDX 16 1 17 2 18 3 19 4 20 5 21 6 22 7 23 8 24 9 25 10 26 11
REMARK SMILES IDX 27 12 28 13 29 14 30 15 31 16 32 17 15 18 14 19 13 20 12 21
REMARK SMILES IDX 11 22 10 23 9 24 8 25 7 26 6 27 5 28 4 29 3 30 2 31 1 32
REMARK H PARENT
REMARK Flexibility Score: inf
ROOT
ATOM      1  C   UNL     1       4.587   2.048  13.514  1.00  0.00     0.000 C 
ENDROOT
BRANCH   1   2
ATOM      2  C   UNL     1       4.528   3.515  13.059  1.00  0.00     0.000 C 
BRANCH   2   3
ATOM      3  C   UNL     1       3.291   4.249  13.608  1.00  0.00     0.000 C 
BRANCH   3   4
ATOM      4  C   UNL     1       3.222   4.238  15.144  1.00  0.00     0.000 C 
BRANCH   4   5
ATOM      5  C   UNL     1       4.558   3.843  15.801  1.00  0.00     0.000 C 
BRANCH   5   6
ATOM      6  C   UNL     1       4.397   2.713  16.839  1.00  0.00     0.000 C 
BRANCH   6   7
ATOM      7  C   UNL     1       5.729   2.193  17.409  1.00  0.00     0.000 C 
BRANCH   7   8
ATOM      8  C   UNL     1       5.541   1.166  18.534  1.00  0.00     0.000 C 
BRANCH   8   9
ATOM      9  C   UNL     1       6.609   0.064  18.467  1.00  0.00     0.000 C 
BRANCH   9  10
ATOM     10  C   UNL     1       6.303  -1.097  19.438  1.00  0.00     0.000 C 
BRANCH  10  11
ATOM     11  C   UNL     1       4.804  -1.270  19.736  1.00  0.00     0.000 C 
BRANCH  11  12
ATOM     12  C   UNL     1       3.950  -0.115  19.188  1.00  0.00     0.000 C 
BRANCH  12  13
ATOM     13  C   UNL     1       3.376   0.775  20.300  1.00  0.00     0.006 C 
BRANCH  13  14
ATOM     14  C   UNL     1       2.402   1.837  19.770  1.00  0.00     0.053 C 
BRANCH  14  15
ATOM     15  C   UNL     1       1.184   1.906  20.638  1.00  0.00     0.041 C 
ATOM     16  O   UNL     1       0.552   0.855  20.927  1.00  0.00    -0.550 OA
ATOM     17  O   UNL     1       0.716   3.136  21.087  1.00  0.00    -0.550 OA
ENDBRANCH  14  15
ENDBRANCH  13  14
ENDBRANCH  12  13
ENDBRANCH  11  12
ENDBRANCH  10  11
ENDBRANCH   9  10
ENDBRANCH   8   9
ENDBRANCH   7   8
ENDBRANCH   6   7
ENDBRANCH   5   6
ENDBRANCH   4   5
ENDBRANCH   3   4
ENDBRANCH   2   3
ENDBRANCH   1   2
BRANCH   1  18
ATOM     18  C   UNL     1       6.004   1.624  13.939  1.00  0.00     0.000 C 
BRANCH  18  19
ATOM     19  C   UNL     1       6.570   0.501  13.054  1.00  0.00     0.000 C 
BRANCH  19  20
ATOM     20  C   UNL     1       5.582  -0.667  12.888  1.00  0.00     0.000 C 
BRANCH  20  21
ATOM     21  C   UNL     1       6.278  -2.039  12.893  1.00  0.00     0.000 C 
BRANCH  21  22
ATOM     22  C   UNL     1       7.545  -2.125  13.767  1.00  0.00     0.000 C 
BRANCH  22  23
ATOM     23  C   UNL     1       7.365  -1.545  15.187  1.00  0.00     0.000 C 
BRANCH  23  24
ATOM     24  C   UNL     1       6.131  -2.123  15.903  1.00  0.00    -0.000 C 
BRANCH  24  25
ATOM     25  C   UNL     1       5.098  -1.042  16.261  1.00  0.00    -0.000 C 
BRANCH  25  26
ATOM     26  C   UNL     1       3.656  -1.488  15.977  1.00  0.00    -0.000 C 
BRANCH  26  27
ATOM     27  C   UNL     1       3.539  -2.115  14.582  1.00  0.00    -0.000 C 
BRANCH  27  28
ATOM     28  C   UNL     1       2.724  -1.222  13.640  1.00  0.00    -0.000 C 
BRANCH  28  29
ATOM     29  C   UNL     1       1.230  -1.265  13.996  1.00  0.00    -0.000 C 
BRANCH  29  30
ATOM     30  C   UNL     1       0.781  -0.056  14.837  1.00  0.00    -0.000 C 
BRANCH  30  31
ATOM     31  C   UNL     1       1.823   0.452  15.850  1.00  0.00    -0.003 C 
ATOM     32  C   UNL     1       1.412   1.760  16.526  1.00  0.00     0.004 C 
ENDBRANCH  30  31
ENDBRANCH  29  30
ENDBRANCH  28  29
ENDBRANCH  27  28
ENDBRANCH  26  27
ENDBRANCH  25  26
ENDBRANCH  24  25
ENDBRANCH  23  24
ENDBRANCH  22  23
ENDBRANCH  21  22
ENDBRANCH  20  21
ENDBRANCH  19  20
ENDBRANCH  18  19
ENDBRANCH   1  18
TORSDOF 28
ENDMDL
MODEL 3
REMARK VINA RESULT:     4.583      2.050      6.118
REMARK INTER + INTRA:          12.184
REMARK INTER:                   8.888
REMARK INTRA:                   3.296
REMARK UNBOUND:                 0.098
REMARK SMILES CCCCCCCCCCCCCCCCCCCCCCCCCCCCCC(=O)[O-]
REMARK SMILES IDX 16 1 17 2 18 3 19 4 20 5 21 6 22 7 23 8 24 9 25 10 26 11
REMARK SMILES IDX 27 12 28 13 29 14 30 15 31 16 32 17 15 18 14 19 13 20 12 21
REMARK SMILES IDX 11 22 10 23 9 24 8 25 7 26 6 27 5 28 4 29 3 30 2 31 1 32
REMARK H PARENT
REMARK Flexibility Score: inf
ROOT
ATOM      1  C   UNL     1       1.664   3.469  15.579  1.00  0.00     0.000 C 
ENDROOT
BRANCH   1   2
ATOM      2  C   UNL     1       1.633   4.555  14.492  1.00  0.00     0.000 C 
BRANCH   2   3
ATOM      3  C   UNL     1       2.582   4.237  13.321  1.00  0.00     0.000 C 
BRANCH   3   4
ATOM      4  C   UNL     1       4.023   3.960  13.778  1.00  0.00     0.000 C 
BRANCH   4   5
ATOM      5  C   UNL     1       4.753   2.947  12.876  1.00  0.00     0.000 C 
BRANCH   5   6
ATOM      6  C   UNL     1       6.287   3.106  12.926  1.00  0.00     0.000 C 
BRANCH   6   7
ATOM      7  C   UNL     1       7.030   1.854  13.426  1.00  0.00     0.000 C 
BRANCH   7   8
ATOM      8  C   UNL     1       6.259   0.554  13.160  1.00  0.00     0.000 C 
BRANCH   8   9
ATOM      9  C   UNL     1       6.768  -0.588  14.055  1.00  0.00     0.000 C 
BRANCH   9  10
ATOM     10  C   UNL     1       6.413  -1.976  13.479  1.00  0.00     0.000 C 
BRANCH  10  11
ATOM     11  C   UNL     1       4.999  -2.047  12.875  1.00  0.00     0.000 C 
BRANCH  11  12
ATOM     12  C   UNL     1       3.919  -1.496  13.821  1.00  0.00     0.000 C 
BRANCH  12  13
ATOM     13  C   UNL     1       3.266  -0.212  13.287  1.00  0.00     0.006 C 
BRANCH  13  14
ATOM     14  C   UNL     1       2.194   0.348  14.233  1.00  0.00     0.053 C 
BRANCH  14  15
ATOM     15  C   UNL     1       1.334  -0.759  14.759  1.00  0.00     0.041 C 
ATOM     16  O   UNL     1       1.799  -1.925  14.868  1.00  0.00    -0.550 OA
ATOM     17  O   UNL     1       0.004  -0.516  15.082  1.00  0.00    -0.550 OA
ENDBRANCH  14  15
ENDBRANCH  13  14
ENDBRANCH  12  13
ENDBRANCH  11  12
ENDBRANCH  10  11
ENDBRANCH   9  10
ENDBRANCH   8   9
ENDBRANCH   7   8
ENDBRANCH   6   7
ENDBRANCH   5   6
ENDBRANCH   4   5
ENDBRANCH   3   4
ENDBRANCH   2   3
ENDBRANCH   1   2
BRANCH   1  18
ATOM     18  C   UNL     1       2.950   2.625  15.526  1.00  0.00     0.000 C 
BRANCH  18  19
ATOM     19  C   UNL     1       3.687   2.594  16.875  1.00  0.00     0.000 C 
BRANCH  19  20
ATOM     20  C   UNL     1       4.235   1.195  17.211  1.00  0.00     0.000 C 
BRANCH  20  21
ATOM     21  C   UNL     1       5.659   0.970  16.673  1.00  0.00     0.000 C 
BRANCH  21  22
ATOM     22  C   UNL     1       6.119  -0.501  16.642  1.00  0.00     0.000 C 
BRANCH  22  23
ATOM     23  C   UNL     1       5.141  -1.476  17.332  1.00  0.00     0.000 C 
BRANCH  23  24
ATOM     24  C   UNL     1       5.674  -1.979  18.686  1.00  0.00    -0.000 C 
BRANCH  24  25
ATOM     25  C   UNL     1       6.720  -1.032  19.295  1.00  0.00    -0.000 C 
BRANCH  25  26
ATOM     26  C   UNL     1       6.175  -0.246  20.497  1.00  0.00    -0.000 C 
BRANCH  26  27
ATOM     27  C   UNL     1       5.075   0.731  20.063  1.00  0.00    -0.000 C 
BRANCH  27  28
ATOM     28  C   UNL     1       3.741   0.005  19.854  1.00  0.00    -0.000 C 
BRANCH  28  29
ATOM     29  C   UNL     1       2.568   0.848  20.374  1.00  0.00    -0.000 C 
BRANCH  29  30
ATOM     30  C   UNL     1       2.044   1.852  19.330  1.00  0.00    -0.000 C 
BRANCH  30  31
ATOM     31  C   UNL     1       0.745   2.578  19.724  1.00  0.00    -0.003 C 
ATOM     32  C   UNL     1       0.727   3.021  21.187  1.00  0.00     0.004 C 
ENDBRANCH  30  31
ENDBRANCH  29  30
ENDBRANCH  28  29
ENDBRANCH  27  28
ENDBRANCH  26  27
ENDBRANCH  25  26
ENDBRANCH  24  25
ENDBRANCH  23  24
ENDBRANCH  22  23
ENDBRANCH  21  22
ENDBRANCH  20  21
ENDBRANCH  19  20
ENDBRANCH  18  19
ENDBRANCH   1  18
TORSDOF 28
ENDMDL
MODEL 4
REMARK VINA RESULT:     4.768      1.421      4.273
REMARK INTER + INTRA:          12.670
REMARK INTER:                   7.819
REMARK INTRA:                   4.851
REMARK UNBOUND:                 0.098
REMARK SMILES CCCCCCCCCCCCCCCCCCCCCCCCCCCCCC(=O)[O-]
REMARK SMILES IDX 16 1 17 2 18 3 19 4 20 5 21 6 22 7 23 8 24 9 25 10 26 11
REMARK SMILES IDX 27 12 28 13 29 14 30 15 31 16 32 17 15 18 14 19 13 20 12 21
REMARK SMILES IDX 11 22 10 23 9 24 8 25 7 26 6 27 5 28 4 29 3 30 2 31 1 32
REMARK H PARENT
REMARK Flexibility Score: inf
ROOT
ATOM      1  C   UNL     1       3.179   3.549  14.555  1.00  0.00     0.000 C 
ENDROOT
BRANCH   1   2
ATOM      2  C   UNL     1       3.972   2.517  15.374  1.00  0.00     0.000 C 
BRANCH   2   3
ATOM      3  C   UNL     1       3.569   1.070  15.040  1.00  0.00     0.000 C 
BRANCH   3   4
ATOM      4  C   UNL     1       3.134   0.893  13.576  1.00  0.00     0.000 C 
BRANCH   4   5
ATOM      5  C   UNL     1       3.850  -0.277  12.875  1.00  0.00     0.000 C 
BRANCH   5   6
ATOM      6  C   UNL     1       3.127  -1.624  13.082  1.00  0.00     0.000 C 
BRANCH   6   7
ATOM      7  C   UNL     1       3.139  -2.123  14.539  1.00  0.00     0.000 C 
BRANCH   7   8
ATOM      8  C   UNL     1       1.757  -2.070  15.202  1.00  0.00     0.000 C 
BRANCH   8   9
ATOM      9  C   UNL     1       0.838  -1.060  14.496  1.00  0.00     0.000 C 
BRANCH   9  10
ATOM     10  C   UNL     1       0.090  -0.158  15.501  1.00  0.00     0.000 C 
BRANCH  10  11
ATOM     11  C   UNL     1       0.544   1.312  15.465  1.00  0.00     0.000 C 
BRANCH  11  12
ATOM     12  C   UNL     1       1.511   1.664  16.607  1.00  0.00     0.000 C 
BRANCH  12  13
ATOM     13  C   UNL     1       0.868   1.509  17.994  1.00  0.00     0.006 C 
BRANCH  13  14
ATOM     14  C   UNL     1       0.975   2.781  18.845  1.00  0.00     0.053 C 
BRANCH  14  15
ATOM     15  C   UNL     1       0.875   2.444  20.301  1.00  0.00     0.041 C 
ATOM     16  O   UNL     1       0.669   3.353  21.149  1.00  0.00    -0.550 OA
ATOM     17  O   UNL     1       1.060   1.133  20.728  1.00  0.00    -0.550 OA
ENDBRANCH  14  15
ENDBRANCH  13  14
ENDBRANCH  12  13
ENDBRANCH  11  12
ENDBRANCH  10  11
ENDBRANCH   9  10
ENDBRANCH   8   9
ENDBRANCH   7   8
ENDBRANCH   6   7
ENDBRANCH   5   6
ENDBRANCH   4   5
ENDBRANCH   3   4
ENDBRANCH   2   3
ENDBRANCH   1   2
BRANCH   1  18
ATOM     18  C   UNL     1       3.732   3.711  13.128  1.00  0.00     0.000 C 
BRANCH  18  19
ATOM     19  C   UNL     1       5.241   4.009  13.114  1.00  0.00     0.000 C 
BRANCH  19  20
ATOM     20  C   UNL     1       6.047   2.984  13.932  1.00  0.00     0.000 C 
BRANCH  20  21
ATOM     21  C   UNL     1       6.502   1.779  13.092  1.00  0.00     0.000 C 
BRANCH  21  22
ATOM     22  C   UNL     1       6.862   0.518  13.903  1.00  0.00     0.000 C 
BRANCH  22  23
ATOM     23  C   UNL     1       6.652  -0.803  13.130  1.00  0.00     0.000 C 
BRANCH  23  24
ATOM     24  C   UNL     1       6.622  -2.028  14.063  1.00  0.00    -0.000 C 
BRANCH  24  25
ATOM     25  C   UNL     1       6.800  -1.646  15.541  1.00  0.00    -0.000 C 
BRANCH  25  26
ATOM     26  C   UNL     1       5.718  -0.672  16.032  1.00  0.00    -0.000 C 
BRANCH  26  27
ATOM     27  C   UNL     1       5.204  -1.077  17.419  1.00  0.00    -0.000 C 
BRANCH  27  28
ATOM     28  C   UNL     1       6.193  -2.010  18.127  1.00  0.00    -0.000 C 
BRANCH  28  29
ATOM     29  C   UNL     1       6.907  -1.286  19.278  1.00  0.00    -0.000 C 
BRANCH  29  30
ATOM     30  C   UNL     1       6.120  -0.067  19.797  1.00  0.00    -0.000 C 
BRANCH  30  31
ATOM     31  C   UNL     1       4.658   0.010  19.322  1.00  0.00    -0.003 C 
ATOM     32  C   UNL     1       4.148   1.444  19.184  1.00  0.00     0.004 C 
ENDBRANCH  30  31
ENDBRANCH  29  30
ENDBRANCH  28  29
ENDBRANCH  27  28
ENDBRANCH  26  27
ENDBRANCH  25  26
ENDBRANCH  24  25
ENDBRANCH  23  24
ENDBRANCH  22  23
ENDBRANCH  21  22
ENDBRANCH  20  21
ENDBRANCH  19  20
ENDBRANCH  18  19
ENDBRANCH   1  18
TORSDOF 28
ENDMDL
MODEL 5
REMARK VINA RESULT:     5.147      2.011      6.096
REMARK INTER + INTRA:          13.671
REMARK INTER:                  10.946
REMARK INTRA:                   2.725
REMARK UNBOUND:                 0.098
REMARK SMILES CCCCCCCCCCCCCCCCCCCCCCCCCCCCCC(=O)[O-]
REMARK SMILES IDX 16 1 17 2 18 3 19 4 20 5 21 6 22 7 23 8 24 9 25 10 26 11
REMARK SMILES IDX 27 12 28 13 29 14 30 15 31 16 32 17 15 18 14 19 13 20 12 21
REMARK SMILES IDX 11 22 10 23 9 24 8 25 7 26 6 27 5 28 4 29 3 30 2 31 1 32
REMARK H PARENT
REMARK Flexibility Score: inf
ROOT
ATOM      1  C   UNL     1       6.011  -0.299  18.965  1.00  0.00     0.000 C 
ENDROOT
BRANCH   1   2
ATOM      2  C   UNL     1       6.354  -1.720  18.486  1.00  0.00     0.000 C 
BRANCH   2   3
ATOM      3  C   UNL     1       5.834  -1.999  17.064  1.00  0.00     0.000 C 
BRANCH   3   4
ATOM      4  C   UNL     1       6.592  -1.210  15.985  1.00  0.00     0.000 C 
BRANCH   4   5
ATOM      5  C   UNL     1       7.528  -2.095  15.141  1.00  0.00     0.000 C 
BRANCH   5   6
ATOM      6  C   UNL     1       7.134  -2.124  13.650  1.00  0.00     0.000 C 
BRANCH   6   7
ATOM      7  C   UNL     1       7.348  -0.785  12.921  1.00  0.00     0.000 C 
BRANCH   7   8
ATOM      8  C   UNL     1       6.394   0.318  13.398  1.00  0.00     0.000 C 
BRANCH   8   9
ATOM      9  C   UNL     1       4.939  -0.003  13.022  1.00  0.00     0.000 C 
BRANCH   9  10
ATOM     10  C   UNL     1       4.701  -1.521  12.875  1.00  0.00     0.000 C 
BRANCH  10  11
ATOM     11  C   UNL     1       3.407  -2.009  13.551  1.00  0.00     0.000 C 
BRANCH  11  12
ATOM     12  C   UNL     1       3.540  -2.121  15.079  1.00  0.00     0.000 C 
BRANCH  12  13
ATOM     13  C   UNL     1       2.298  -1.601  15.819  1.00  0.00     0.006 C 
BRANCH  13  14
ATOM     14  C   UNL     1       1.008  -1.763  15.002  1.00  0.00     0.053 C 
BRANCH  14  15
ATOM     15  C   UNL     1       0.332  -0.438  14.829  1.00  0.00     0.041 C 
ATOM     16  O   UNL     1      -0.351   0.052  15.768  1.00  0.00    -0.550 OA
ATOM     17  O   UNL     1       0.413   0.233  13.614  1.00  0.00    -0.550 OA
ENDBRANCH  14  15
ENDBRANCH  13  14
ENDBRANCH  12  13
ENDBRANCH  11  12
ENDBRANCH  10  11
ENDBRANCH   9  10
ENDBRANCH   8   9
ENDBRANCH   7   8
ENDBRANCH   6   7
ENDBRANCH   5   6
ENDBRANCH   4   5
ENDBRANCH   3   4
ENDBRANCH   2   3
ENDBRANCH   1   2
BRANCH   1  18
ATOM     18  C   UNL     1       5.445   0.577  17.834  1.00  0.00     0.000 C 
BRANCH  18  19
ATOM     19  C   UNL     1       4.393   1.579  18.338  1.00  0.00     0.000 C 
BRANCH  19  20
ATOM     20  C   UNL     1       4.249   1.554  19.870  1.00  0.00     0.000 C 
BRANCH  20  21
ATOM     21  C   UNL     1       2.808   1.269  20.328  1.00  0.00     0.000 C 
BRANCH  21  22
ATOM     22  C   UNL     1       1.753   2.271  19.821  1.00  0.00     0.000 C 
BRANCH  22  23
ATOM     23  C   UNL     1       0.846   1.712  18.703  1.00  0.00     0.000 C 
BRANCH  23  24
ATOM     24  C   UNL     1       1.030   2.460  17.370  1.00  0.00    -0.000 C 
BRANCH  24  25
ATOM     25  C   UNL     1       2.196   1.902  16.538  1.00  0.00    -0.000 C 
BRANCH  25  26
ATOM     26  C   UNL     1       2.177   2.402  15.086  1.00  0.00    -0.000 C 
BRANCH  26  27
ATOM     27  C   UNL     1       2.539   3.890  15.012  1.00  0.00    -0.000 C 
BRANCH  27  28
ATOM     28  C   UNL     1       2.482   4.402  13.568  1.00  0.00    -0.000 C 
BRANCH  28  29
ATOM     29  C   UNL     1       3.887   4.461  12.949  1.00  0.00    -0.000 C 
BRANCH  29  30
ATOM     30  C   UNL     1       4.780   3.282  13.380  1.00  0.00    -0.000 C 
BRANCH  30  31
ATOM     31  C   UNL     1       4.744   2.958  14.884  1.00  0.00    -0.003 C 
ATOM     32  C   UNL     1       5.969   3.476  15.637  1.00  0.00     0.004 C 
ENDBRANCH  30  31
ENDBRANCH  29  30
ENDBRANCH  28  29
ENDBRANCH  27  28
ENDBRANCH  26  27
ENDBRANCH  25  26
ENDBRANCH  24  25
ENDBRANCH  23  24
ENDBRANCH  22  23
ENDBRANCH  21  22
ENDBRANCH  20  21
ENDBRANCH  19  20
ENDBRANCH  18  19
ENDBRANCH   1  18
TORSDOF 28
ENDMDL
MODEL 6
REMARK VINA RESULT:     5.174      1.429      4.747
REMARK INTER + INTRA:          13.741
REMARK INTER:                  11.485
REMARK INTRA:                   2.255
REMARK UNBOUND:                 0.098
REMARK SMILES CCCCCCCCCCCCCCCCCCCCCCCCCCCCCC(=O)[O-]
REMARK SMILES IDX 16 1 17 2 18 3 19 4 20 5 21 6 22 7 23 8 24 9 25 10 26 11
REMARK SMILES IDX 27 12 28 13 29 14 30 15 31 16 32 17 15 18 14 19 13 20 12 21
REMARK SMILES IDX 11 22 10 23 9 24 8 25 7 26 6 27 5 28 4 29 3 30 2 31 1 32
REMARK H PARENT
REMARK Flexibility Score: inf
ROOT
ATOM      1  C   UNL     1       0.846   0.119  15.644  1.00  0.00     0.000 C 
ENDROOT
BRANCH   1   2
ATOM      2  C   UNL     1       2.103   0.932  15.995  1.00  0.00     0.000 C 
BRANCH   2   3
ATOM      3  C   UNL     1       2.109   2.317  15.323  1.00  0.00     0.000 C 
BRANCH   3   4
ATOM      4  C   UNL     1       0.830   2.598  14.519  1.00  0.00     0.000 C 
BRANCH   4   5
ATOM      5  C   UNL     1       0.645   4.092  14.191  1.00  0.00     0.000 C 
BRANCH   5   6
ATOM      6  C   UNL     1       1.968   4.782  13.800  1.00  0.00     0.000 C 
BRANCH   6   7
ATOM      7  C   UNL     1       3.035   3.820  13.247  1.00  0.00     0.000 C 
BRANCH   7   8
ATOM      8  C   UNL     1       4.468   4.250  13.591  1.00  0.00     0.000 C 
BRANCH   8   9
ATOM      9  C   UNL     1       4.640   4.456  15.105  1.00  0.00     0.000 C 
BRANCH   9  10
ATOM     10  C   UNL     1       5.065   3.155  15.820  1.00  0.00     0.000 C 
BRANCH  10  11
ATOM     11  C   UNL     1       4.775   3.161  17.331  1.00  0.00     0.000 C 
BRANCH  11  12
ATOM     12  C   UNL     1       4.069   1.880  17.806  1.00  0.00     0.000 C 
BRANCH  12  13
ATOM     13  C   UNL     1       3.866   1.847  19.328  1.00  0.00     0.006 C 
BRANCH  13  14
ATOM     14  C   UNL     1       2.695   0.951  19.753  1.00  0.00     0.053 C 
BRANCH  14  15
ATOM     15  C   UNL     1       1.443   1.761  19.890  1.00  0.00     0.041 C 
ATOM     16  O   UNL     1       0.864   2.210  18.865  1.00  0.00    -0.550 OA
ATOM     17  O   UNL     1       0.941   2.062  21.151  1.00  0.00    -0.550 OA
ENDBRANCH  14  15
ENDBRANCH  13  14
ENDBRANCH  12  13
ENDBRANCH  11  12
ENDBRANCH  10  11
ENDBRANCH   9  10
ENDBRANCH   8   9
ENDBRANCH   7   8
ENDBRANCH   6   7
ENDBRANCH   5   6
ENDBRANCH   4   5
ENDBRANCH   3   4
ENDBRANCH   2   3
ENDBRANCH   1   2
BRANCH   1  18
ATOM     18  C   UNL     1       1.188  -1.230  14.987  1.00  0.00     0.000 C 
BRANCH  18  19
ATOM     19  C   UNL     1       2.326  -1.111  13.959  1.00  0.00     0.000 C 
BRANCH  19  20
ATOM     20  C   UNL     1       2.894   0.318  13.879  1.00  0.00     0.000 C 
BRANCH  20  21
ATOM     21  C   UNL     1       4.055   0.439  12.878  1.00  0.00     0.000 C 
BRANCH  21  22
ATOM     22  C   UNL     1       5.157   1.442  13.275  1.00  0.00     0.000 C 
BRANCH  22  23
ATOM     23  C   UNL     1       6.414   0.782  13.882  1.00  0.00     0.000 C 
BRANCH  23  24
ATOM     24  C   UNL     1       7.029  -0.275  12.946  1.00  0.00    -0.000 C 
BRANCH  24  25
ATOM     25  C   UNL     1       6.760  -1.711  13.424  1.00  0.00    -0.000 C 
BRANCH  25  26
ATOM     26  C   UNL     1       7.658  -2.119  14.601  1.00  0.00    -0.000 C 
BRANCH  26  27
ATOM     27  C   UNL     1       6.872  -2.122  15.918  1.00  0.00    -0.000 C 
BRANCH  27  28
ATOM     28  C   UNL     1       5.468  -1.536  15.725  1.00  0.00    -0.000 C 
BRANCH  28  29
ATOM     29  C   UNL     1       4.763  -1.340  17.075  1.00  0.00    -0.000 C 
BRANCH  29  30
ATOM     30  C   UNL     1       5.575  -1.895  18.260  1.00  0.00    -0.000 C 
BRANCH  30  31
ATOM     31  C   UNL     1       6.526  -0.883  18.925  1.00  0.00    -0.003 C 
ATOM     32  C   UNL     1       6.115  -0.524  20.352  1.00  0.00     0.004 C 
ENDBRANCH  30  31
ENDBRANCH  29  30
ENDBRANCH  28  29
ENDBRANCH  27  28
ENDBRANCH  26  27
ENDBRANCH  25  26
ENDBRANCH  24  25
ENDBRANCH  23  24
ENDBRANCH  22  23
ENDBRANCH  21  22
ENDBRANCH  20  21
ENDBRANCH  19  20
ENDBRANCH  18  19
ENDBRANCH   1  18
TORSDOF 28
ENDMDL
MODEL 7
REMARK VINA RESULT:     5.695      1.251      4.251
REMARK INTER + INTRA:          15.115
REMARK INTER:                  13.775
REMARK INTRA:                   1.340
REMARK UNBOUND:                 0.098
REMARK SMILES CCCCCCCCCCCCCCCCCCCCCCCCCCCCCC(=O)[O-]
REMARK SMILES IDX 16 1 17 2 18 3 19 4 20 5 21 6 22 7 23 8 24 9 25 10 26 11
REMARK SMILES IDX 27 12 28 13 29 14 30 15 31 16 32 17 15 18 14 19 13 20 12 21
REMARK SMILES IDX 11 22 10 23 9 24 8 25 7 26 6 27 5 28 4 29 3 30 2 31 1 32
REMARK H PARENT
REMARK Flexibility Score: inf
ROOT
ATOM      1  C   UNL     1       4.101  -1.400  16.695  1.00  0.00     0.000 C 
ENDROOT
BRANCH   1   2
ATOM      2  C   UNL     1       5.455  -1.833  16.111  1.00  0.00     0.000 C 
BRANCH   2   3
ATOM      3  C   UNL     1       6.499  -2.122  17.205  1.00  0.00     0.000 C 
BRANCH   3   4
ATOM      4  C   UNL     1       6.059  -1.634  18.594  1.00  0.00     0.000 C 
BRANCH   4   5
ATOM      5  C   UNL     1       6.608  -0.236  18.940  1.00  0.00     0.000 C 
BRANCH   5   6
ATOM      6  C   UNL     1       6.330   0.801  17.832  1.00  0.00     0.000 C 
BRANCH   6   7
ATOM      7  C   UNL     1       4.860   1.252  17.753  1.00  0.00     0.000 C 
BRANCH   7   8
ATOM      8  C   UNL     1       4.263   1.595  19.124  1.00  0.00     0.000 C 
BRANCH   8   9
ATOM      9  C   UNL     1       4.401   0.418  20.103  1.00  0.00     0.000 C 
BRANCH   9  10
ATOM     10  C   UNL     1       3.130   0.225  20.958  1.00  0.00     0.000 C 
BRANCH  10  11
ATOM     11  C   UNL     1       1.828   0.551  20.205  1.00  0.00     0.000 C 
BRANCH  11  12
ATOM     12  C   UNL     1       0.841   1.371  21.052  1.00  0.00     0.000 C 
BRANCH  12  13
ATOM     13  C   UNL     1       1.098   2.883  20.959  1.00  0.00     0.006 C 
BRANCH  13  14
ATOM     14  C   UNL     1      -0.124   3.664  20.456  1.00  0.00     0.053 C 
BRANCH  14  15
ATOM     15  C   UNL     1      -0.047   3.851  18.972  1.00  0.00     0.041 C 
ATOM     16  O   UNL     1       0.603   3.037  18.264  1.00  0.00    -0.550 OA
ATOM     17  O   UNL     1      -0.650   4.953  18.375  1.00  0.00    -0.550 OA
ENDBRANCH  14  15
ENDBRANCH  13  14
ENDBRANCH  12  13
ENDBRANCH  11  12
ENDBRANCH  10  11
ENDBRANCH   9  10
ENDBRANCH   8   9
ENDBRANCH   7   8
ENDBRANCH   6   7
ENDBRANCH   5   6
ENDBRANCH   4   5
ENDBRANCH   3   4
ENDBRANCH   2   3
ENDBRANCH   1   2
BRANCH   1  18
ATOM     18  C   UNL     1       2.913  -1.996  15.919  1.00  0.00     0.000 C 
BRANCH  18  19
ATOM     19  C   UNL     1       3.134  -1.971  14.398  1.00  0.00     0.000 C 
BRANCH  19  20
ATOM     20  C   UNL     1       2.251  -0.924  13.695  1.00  0.00     0.000 C 
BRANCH  20  21
ATOM     21  C   UNL     1       0.817  -0.888  14.249  1.00  0.00     0.000 C 
BRANCH  21  22
ATOM     22  C   UNL     1       0.600   0.070  15.436  1.00  0.00     0.000 C 
BRANCH  22  23
ATOM     23  C   UNL     1       1.281   1.446  15.262  1.00  0.00     0.000 C 
BRANCH  23  24
ATOM     24  C   UNL     1       2.451   1.648  16.241  1.00  0.00    -0.000 C 
BRANCH  24  25
ATOM     25  C   UNL     1       3.570   2.520  15.650  1.00  0.00    -0.000 C 
BRANCH  25  26
ATOM     26  C   UNL     1       3.043   3.546  14.636  1.00  0.00    -0.000 C 
BRANCH  26  27
ATOM     27  C   UNL     1       4.178   4.081  13.755  1.00  0.00    -0.000 C 
BRANCH  27  28
ATOM     28  C   UNL     1       4.768   2.970  12.877  1.00  0.00    -0.000 C 
BRANCH  28  29
ATOM     29  C   UNL     1       4.451   1.584  13.457  1.00  0.00    -0.000 C 
BRANCH  29  30
ATOM     30  C   UNL     1       5.439   0.500  12.988  1.00  0.00    -0.000 C 
BRANCH  30  31
ATOM     31  C   UNL     1       6.692   0.340  13.868  1.00  0.00    -0.003 C 
ATOM     32  C   UNL     1       7.460  -0.952  13.588  1.00  0.00     0.004 C 
ENDBRANCH  30  31
ENDBRANCH  29  30
ENDBRANCH  28  29
ENDBRANCH  27  28
ENDBRANCH  26  27
ENDBRANCH  25  26
ENDBRANCH  24  25
ENDBRANCH  23  24
ENDBRANCH  22  23
ENDBRANCH  21  22
ENDBRANCH  20  21
ENDBRANCH  19  20
ENDBRANCH  18  19
ENDBRANCH   1  18
TORSDOF 28
ENDMDL
MODEL 8
REMARK VINA RESULT:     6.346      2.024      4.582
REMARK INTER + INTRA:          16.832
REMARK INTER:                  12.246
REMARK INTRA:                   4.587
REMARK UNBOUND:                 0.098
REMARK SMILES CCCCCCCCCCCCCCCCCCCCCCCCCCCCCC(=O)[O-]
REMARK SMILES IDX 16 1 17 2 18 3 19 4 20 5 21 6 22 7 23 8 24 9 25 10 26 11
REMARK SMILES IDX 27 12 28 13 29 14 30 15 31 16 32 17 15 18 14 19 13 20 12 21
REMARK SMILES IDX 11 22 10 23 9 24 8 25 7 26 6 27 5 28 4 29 3 30 2 31 1 32
REMARK H PARENT
REMARK Flexibility Score: inf
ROOT
ATOM      1  C   UNL     1       6.432   0.158  17.022  1.00  0.00     0.000 C 
ENDROOT
BRANCH   1   2
ATOM      2  C   UNL     1       6.711  -0.702  18.265  1.00  0.00     0.000 C 
BRANCH   2   3
ATOM      3  C   UNL     1       5.564  -0.635  19.291  1.00  0.00     0.000 C 
BRANCH   3   4
ATOM      4  C   UNL     1       4.651   0.584  19.089  1.00  0.00     0.000 C 
BRANCH   4   5
ATOM      5  C   UNL     1       3.932   1.015  20.382  1.00  0.00     0.000 C 
BRANCH   5   6
ATOM      6  C   UNL     1       2.634   0.220  20.631  1.00  0.00     0.000 C 
BRANCH   6   7
ATOM      7  C   UNL     1       1.381   1.101  20.788  1.00  0.00     0.000 C 
BRANCH   7   8
ATOM      8  C   UNL     1       1.427   2.369  19.925  1.00  0.00     0.000 C 
BRANCH   8   9
ATOM      9  C   UNL     1       1.426   2.023  18.427  1.00  0.00     0.000 C 
BRANCH   9  10
ATOM     10  C   UNL     1       2.812   2.243  17.782  1.00  0.00     0.000 C 
BRANCH  10  11
ATOM     11  C   UNL     1       2.825   2.013  16.260  1.00  0.00     0.000 C 
BRANCH  11  12
ATOM     12  C   UNL     1       4.239   2.084  15.660  1.00  0.00     0.000 C 
BRANCH  12  13
ATOM     13  C   UNL     1       4.849   3.491  15.751  1.00  0.00     0.006 C 
BRANCH  13  14
ATOM     14  C   UNL     1       3.870   4.592  15.320  1.00  0.00     0.053 C 
BRANCH  14  15
ATOM     15  C   UNL     1       3.091   4.156  14.118  1.00  0.00     0.041 C 
ATOM     16  O   UNL     1       3.628   4.165  12.978  1.00  0.00    -0.550 OA
ATOM     17  O   UNL     1       1.757   3.787  14.247  1.00  0.00    -0.550 OA
ENDBRANCH  14  15
ENDBRANCH  13  14
ENDBRANCH  12  13
ENDBRANCH  11  12
ENDBRANCH  10  11
ENDBRANCH   9  10
ENDBRANCH   8   9
ENDBRANCH   7   8
ENDBRANCH   6   7
ENDBRANCH   5   6
ENDBRANCH   4   5
ENDBRANCH   3   4
ENDBRANCH   2   3
ENDBRANCH   1   2
BRANCH   1  18
ATOM     18  C   UNL     1       6.053  -0.693  15.797  1.00  0.00     0.000 C 
BRANCH  18  19
ATOM     19  C   UNL     1       6.942  -1.939  15.650  1.00  0.00     0.000 C 
BRANCH  19  20
ATOM     20  C   UNL     1       7.489  -2.102  14.220  1.00  0.00     0.000 C 
BRANCH  20  21
ATOM     21  C   UNL     1       6.753  -1.218  13.198  1.00  0.00     0.000 C 
BRANCH  21  22
ATOM     22  C   UNL     1       6.986   0.297  13.359  1.00  0.00     0.000 C 
BRANCH  22  23
ATOM     23  C   UNL     1       5.712   1.150  13.164  1.00  0.00     0.000 C 
BRANCH  23  24
ATOM     24  C   UNL     1       4.470   0.287  12.875  1.00  0.00    -0.000 C 
BRANCH  24  25
ATOM     25  C   UNL     1       4.743  -1.215  13.047  1.00  0.00    -0.000 C 
BRANCH  25  26
ATOM     26  C   UNL     1       3.477  -2.008  13.405  1.00  0.00    -0.000 C 
BRANCH  26  27
ATOM     27  C   UNL     1       3.214  -1.971  14.915  1.00  0.00    -0.000 C 
BRANCH  27  28
ATOM     28  C   UNL     1       1.791  -1.489  15.217  1.00  0.00    -0.000 C 
BRANCH  28  29
ATOM     29  C   UNL     1       1.596  -0.033  14.768  1.00  0.00    -0.000 C 
BRANCH  29  30
ATOM     30  C   UNL     1       0.187   0.236  14.207  1.00  0.00    -0.000 C 
BRANCH  30  31
ATOM     31  C   UNL     1      -0.917   0.381  15.271  1.00  0.00    -0.003 C 
ATOM     32  C   UNL     1      -0.387   0.858  16.623  1.00  0.00     0.004 C 
ENDBRANCH  30  31
ENDBRANCH  29  30
ENDBRANCH  28  29
ENDBRANCH  27  28
ENDBRANCH  26  27
ENDBRANCH  25  26
ENDBRANCH  24  25
ENDBRANCH  23  24
ENDBRANCH  22  23
ENDBRANCH  21  22
ENDBRANCH  20  21
ENDBRANCH  19  20
ENDBRANCH  18  19
ENDBRANCH   1  18
TORSDOF 28
ENDMDL
