MODEL 1
REMARK VINA RESULT:    -6.079      0.000      0.000
REMARK INTER + INTRA:          -8.310
REMARK INTER:                  -7.679
REMARK INTRA:                  -0.631
REMARK UNBOUND:                -0.631
REMARK SMILES Oc1ccc(CCc2cc(O)cc(O)c2)cc1
REMARK SMILES IDX 6 1 5 2 4 3 3 4 2 5 16 6 17 7 1 8 7 10 8 11 15 12 9 13 13 14
REMARK SMILES IDX 10 15 12 16 14 17 11 19
REMARK H PARENT 1 9 14 18 11 20
REMARK Flexibility Score: inf
ROOT
ATOM      1  C   UNL     1       6.620  12.068   8.974  1.00  0.00     0.040 C 
ENDROOT
BRANCH   1   2
ATOM      2  C   UNL     1       5.149  11.825   9.200  1.00  0.00    -0.047 A 
ATOM      3  C   UNL     1       4.645  10.515   9.249  1.00  0.00     0.007 A 
ATOM      4  C   UNL     1       3.273  10.293   9.408  1.00  0.00     0.046 A 
ATOM      5  C   UNL     1       2.394  11.375   9.516  1.00  0.00     0.115 A 
ATOM      6  C   UNL     1       4.261  12.908   9.302  1.00  0.00     0.007 A 
ATOM      7  C   UNL     1       2.890  12.684   9.463  1.00  0.00     0.046 A 
BRANCH   5   8
ATOM      8  O   UNL     1       1.030  11.138   9.673  1.00  0.00    -0.508 OA
ATOM      9  H   UNL     1       0.527  11.464  10.490  1.00  0.00     0.293 HD
ENDBRANCH   5   8
ENDBRANCH   1   2
BRANCH   1  10
ATOM     10  C   UNL     1       7.287  10.890   8.252  1.00  0.00     0.040 C 
BRANCH  10  11
ATOM     11  C   UNL     1       7.434  11.150   6.774  1.00  0.00    -0.040 A 
ATOM     12  C   UNL     1       6.417  10.764   5.885  1.00  0.00     0.050 A 
ATOM     13  C   UNL     1       8.555  11.838   6.283  1.00  0.00     0.050 A 
ATOM     14  C   UNL     1       6.530  11.049   4.517  1.00  0.00     0.119 A 
ATOM     15  C   UNL     1       8.666  12.127   4.916  1.00  0.00     0.119 A 
ATOM     16  C   UNL     1       7.654  11.728   4.037  1.00  0.00     0.092 A 
BRANCH  14  17
ATOM     17  O   UNL     1       5.528  10.665   3.628  1.00  0.00    -0.508 OA
ATOM     18  H   UNL     1       4.708  11.240   3.474  1.00  0.00     0.293 HD
ENDBRANCH  14  17
BRANCH  15  19
ATOM     19  O   UNL     1       9.775  12.812   4.423  1.00  0.00    -0.508 OA
ATOM     20  H   UNL     1      10.454  12.357   3.824  1.00  0.00     0.293 HD
ENDBRANCH  15  19
ENDBRANCH  10  11
ENDBRANCH   1  10
TORSDOF 6
ENDMDL
MODEL 2
REMARK VINA RESULT:    -6.040      1.518      6.328
REMARK INTER + INTRA:          -8.260
REMARK INTER:                  -7.728
REMARK INTRA:                  -0.533
REMARK UNBOUND:                -0.631
REMARK SMILES Oc1ccc(CCc2cc(O)cc(O)c2)cc1
REMARK SMILES IDX 6 1 5 2 4 3 3 4 2 5 16 6 17 7 1 8 7 10 8 11 15 12 9 13 13 14
REMARK SMILES IDX 10 15 12 16 14 17 11 19
REMARK H PARENT 1 9 14 18 11 20
REMARK Flexibility Score: inf
ROOT
ATOM      1  C   UNL     1       7.604  10.886   7.653  1.00  0.00     0.040 C 
ENDROOT
BRANCH   1   2
ATOM      2  C   UNL     1       8.051  11.514   6.358  1.00  0.00    -0.047 A 
ATOM      3  C   UNL     1       7.236  11.445   5.216  1.00  0.00     0.007 A 
ATOM      4  C   UNL     1       7.676  11.984   4.003  1.00  0.00     0.046 A 
ATOM      5  C   UNL     1       8.932  12.593   3.917  1.00  0.00     0.115 A 
ATOM      6  C   UNL     1       9.315  12.120   6.265  1.00  0.00     0.007 A 
ATOM      7  C   UNL     1       9.751  12.660   5.052  1.00  0.00     0.046 A 
BRANCH   5   8
ATOM      8  O   UNL     1       9.356  13.125   2.702  1.00  0.00    -0.508 OA
ATOM      9  H   UNL     1      10.319  13.047   2.397  1.00  0.00     0.293 HD
ENDBRANCH   5   8
ENDBRANCH   1   2
BRANCH   1  10
ATOM     10  C   UNL     1       6.813  11.873   8.522  1.00  0.00     0.040 C 
BRANCH  10  11
ATOM     11  C   UNL     1       5.362  11.481   8.635  1.00  0.00    -0.040 A 
ATOM     12  C   UNL     1       4.936  10.217   8.194  1.00  0.00     0.050 A 
ATOM     13  C   UNL     1       4.437  12.347   9.240  1.00  0.00     0.050 A 
ATOM     14  C   UNL     1       3.597   9.831   8.343  1.00  0.00     0.119 A 
ATOM     15  C   UNL     1       3.099  11.961   9.392  1.00  0.00     0.119 A 
ATOM     16  C   UNL     1       2.682  10.705   8.939  1.00  0.00     0.092 A 
BRANCH  14  17
ATOM     17  O   UNL     1       3.166   8.581   7.904  1.00  0.00    -0.508 OA
ATOM     18  H   UNL     1       2.925   7.844   8.557  1.00  0.00     0.293 HD
ENDBRANCH  14  17
BRANCH  15  19
ATOM     19  O   UNL     1       2.177  12.815   9.994  1.00  0.00    -0.508 OA
ATOM     20  H   UNL     1       2.252  13.821   9.906  1.00  0.00     0.293 HD
ENDBRANCH  15  19
ENDBRANCH  10  11
ENDBRANCH   1  10
TORSDOF 6
ENDMDL
MODEL 3
REMARK VINA RESULT:    -5.998      1.948      3.047
REMARK INTER + INTRA:          -8.207
REMARK INTER:                  -7.702
REMARK INTRA:                  -0.505
REMARK UNBOUND:                -0.631
REMARK SMILES Oc1ccc(CCc2cc(O)cc(O)c2)cc1
REMARK SMILES IDX 6 1 5 2 4 3 3 4 2 5 16 6 17 7 1 8 7 10 8 11 15 12 9 13 13 14
REMARK SMILES IDX 10 15 12 16 14 17 11 19
REMARK H PARENT 1 9 14 18 11 20
REMARK Flexibility Score: inf
ROOT
ATOM      1  C   UNL     1       4.959  11.246   5.576  1.00  0.00     0.040 C 
ENDROOT
BRANCH   1   2
ATOM      2  C   UNL     1       4.692  10.976   7.035  1.00  0.00    -0.047 A 
ATOM      3  C   UNL     1       4.908  11.979   7.994  1.00  0.00     0.007 A 
ATOM      4  C   UNL     1       4.708  11.710   9.352  1.00  0.00     0.046 A 
ATOM      5  C   UNL     1       4.297  10.440   9.764  1.00  0.00     0.115 A 
ATOM      6  C   UNL     1       4.286   9.699   7.455  1.00  0.00     0.007 A 
ATOM      7  C   UNL     1       4.085   9.434   8.813  1.00  0.00     0.046 A 
BRANCH   5   8
ATOM      8  O   UNL     1       4.103  10.187  11.120  1.00  0.00    -0.508 OA
ATOM      9  H   UNL     1       3.301   9.665  11.452  1.00  0.00     0.293 HD
ENDBRANCH   5   8
ENDBRANCH   1   2
BRANCH   1  10
ATOM     10  C   UNL     1       6.206  10.503   5.078  1.00  0.00     0.040 C 
BRANCH  10  11
ATOM     11  C   UNL     1       7.438  11.369   5.148  1.00  0.00    -0.040 A 
ATOM     12  C   UNL     1       8.048  11.629   6.386  1.00  0.00     0.050 A 
ATOM     13  C   UNL     1       8.023  11.867   3.973  1.00  0.00     0.050 A 
ATOM     14  C   UNL     1       9.221  12.393   6.448  1.00  0.00     0.119 A 
ATOM     15  C   UNL     1       9.198  12.628   4.034  1.00  0.00     0.119 A 
ATOM     16  C   UNL     1       9.791  12.892   5.273  1.00  0.00     0.092 A 
BRANCH  14  17
ATOM     17  O   UNL     1       9.830  12.660   7.673  1.00  0.00    -0.508 OA
ATOM     18  H   UNL     1      10.424  11.977   8.129  1.00  0.00     0.293 HD
ENDBRANCH  14  17
BRANCH  15  19
ATOM     19  O   UNL     1       9.785  13.123   2.872  1.00  0.00    -0.508 OA
ATOM     20  H   UNL     1      10.640  12.727   2.500  1.00  0.00     0.293 HD
ENDBRANCH  15  19
ENDBRANCH  10  11
ENDBRANCH   1  10
TORSDOF 6
ENDMDL
MODEL 4
REMARK VINA RESULT:    -5.932      0.276      2.359
REMARK INTER + INTRA:          -8.124
REMARK INTER:                  -7.530
REMARK INTRA:                  -0.595
REMARK UNBOUND:                -0.631
REMARK SMILES Oc1ccc(CCc2cc(O)cc(O)c2)cc1
REMARK SMILES IDX 6 1 5 2 4 3 3 4 2 5 16 6 17 7 1 8 7 10 8 11 15 12 9 13 13 14
REMARK SMILES IDX 10 15 12 16 14 17 11 19
REMARK H PARENT 1 9 14 18 11 20
REMARK Flexibility Score: inf
ROOT
ATOM      1  C   UNL     1       6.524  12.508   9.004  1.00  0.00     0.040 C 
ENDROOT
BRANCH   1   2
ATOM      2  C   UNL     1       5.083  12.113   9.201  1.00  0.00    -0.047 A 
ATOM      3  C   UNL     1       4.087  13.097   9.323  1.00  0.00     0.007 A 
ATOM      4  C   UNL     1       2.759  12.729   9.557  1.00  0.00     0.046 A 
ATOM      5  C   UNL     1       2.413  11.380   9.676  1.00  0.00     0.115 A 
ATOM      6  C   UNL     1       4.732  10.759   9.329  1.00  0.00     0.007 A 
ATOM      7  C   UNL     1       3.403  10.395   9.561  1.00  0.00     0.046 A 
BRANCH   5   8
ATOM      8  O   UNL     1       1.085  11.029   9.910  1.00  0.00    -0.508 OA
ATOM      9  H   UNL     1       0.625  11.250  10.785  1.00  0.00     0.293 HD
ENDBRANCH   5   8
ENDBRANCH   1   2
BRANCH   1  10
ATOM     10  C   UNL     1       7.345  11.374   8.376  1.00  0.00     0.040 C 
BRANCH  10  11
ATOM     11  C   UNL     1       7.463  11.530   6.881  1.00  0.00    -0.040 A 
ATOM     12  C   UNL     1       8.601  12.132   6.322  1.00  0.00     0.050 A 
ATOM     13  C   UNL     1       6.468  11.016   6.033  1.00  0.00     0.050 A 
ATOM     14  C   UNL     1       8.735  12.234   4.930  1.00  0.00     0.119 A 
ATOM     15  C   UNL     1       6.603  11.114   4.642  1.00  0.00     0.119 A 
ATOM     16  C   UNL     1       7.735  11.727   4.095  1.00  0.00     0.092 A 
BRANCH  14  17
ATOM     17  O   UNL     1       9.859  12.834   4.368  1.00  0.00    -0.508 OA
ATOM     18  H   UNL     1      10.613  13.192   4.943  1.00  0.00     0.293 HD
ENDBRANCH  14  17
BRANCH  15  19
ATOM     19  O   UNL     1       5.620  10.604   3.796  1.00  0.00    -0.508 OA
ATOM     20  H   UNL     1       5.357  11.081   2.941  1.00  0.00     0.293 HD
ENDBRANCH  15  19
ENDBRANCH  10  11
ENDBRANCH   1  10
TORSDOF 6
ENDMDL
MODEL 5
REMARK VINA RESULT:    -5.314      1.721      2.365
REMARK INTER + INTRA:          -7.343
REMARK INTER:                  -6.871
REMARK INTRA:                  -0.472
REMARK UNBOUND:                -0.631
REMARK SMILES Oc1ccc(CCc2cc(O)cc(O)c2)cc1
REMARK SMILES IDX 6 1 5 2 4 3 3 4 2 5 16 6 17 7 1 8 7 10 8 11 15 12 9 13 13 14
REMARK SMILES IDX 10 15 12 16 14 17 11 19
REMARK H PARENT 1 9 14 18 11 20
REMARK Flexibility Score: inf
ROOT
ATOM      1  C   UNL     1       5.082  11.024   6.267  1.00  0.00     0.040 C 
ENDROOT
BRANCH   1   2
ATOM      2  C   UNL     1       4.362  10.724   7.557  1.00  0.00    -0.047 A 
ATOM      3  C   UNL     1       3.957   9.413   7.856  1.00  0.00     0.007 A 
ATOM      4  C   UNL     1       3.244   9.146   9.029  1.00  0.00     0.046 A 
ATOM      5  C   UNL     1       2.926  10.183   9.911  1.00  0.00     0.115 A 
ATOM      6  C   UNL     1       4.034  11.764   8.442  1.00  0.00     0.007 A 
ATOM      7  C   UNL     1       3.323  11.494   9.615  1.00  0.00     0.046 A 
BRANCH   5   8
ATOM      8  O   UNL     1       2.216   9.902  11.075  1.00  0.00    -0.508 OA
ATOM      9  H   UNL     1       1.217  10.063  11.138  1.00  0.00     0.293 HD
ENDBRANCH   5   8
ENDBRANCH   1   2
BRANCH   1  10
ATOM     10  C   UNL     1       6.389  10.229   6.147  1.00  0.00     0.040 C 
BRANCH  10  11
ATOM     11  C   UNL     1       7.578  11.134   5.943  1.00  0.00    -0.040 A 
ATOM     12  C   UNL     1       7.914  11.578   4.653  1.00  0.00     0.050 A 
ATOM     13  C   UNL     1       8.317  11.594   7.045  1.00  0.00     0.050 A 
ATOM     14  C   UNL     1       8.988  12.459   4.467  1.00  0.00     0.119 A 
ATOM     15  C   UNL     1       9.389  12.478   6.859  1.00  0.00     0.119 A 
ATOM     16  C   UNL     1       9.723  12.904   5.570  1.00  0.00     0.092 A 
BRANCH  14  17
ATOM     17  O   UNL     1       9.331  12.900   3.191  1.00  0.00    -0.508 OA
ATOM     18  H   UNL     1      10.138  12.532   2.702  1.00  0.00     0.293 HD
ENDBRANCH  14  17
BRANCH  15  19
ATOM     19  O   UNL     1      10.124  12.939   7.949  1.00  0.00    -0.508 OA
ATOM     20  H   UNL     1       9.693  13.482   8.688  1.00  0.00     0.293 HD
ENDBRANCH  15  19
ENDBRANCH  10  11
ENDBRANCH   1  10
TORSDOF 6
ENDMDL
MODEL 6
REMARK VINA RESULT:    -5.044      0.910      2.577
REMARK INTER + INTRA:          -7.002
REMARK INTER:                  -6.508
REMARK INTRA:                  -0.494
REMARK UNBOUND:                -0.631
REMARK SMILES Oc1ccc(CCc2cc(O)cc(O)c2)cc1
REMARK SMILES IDX 6 1 5 2 4 3 3 4 2 5 16 6 17 7 1 8 7 10 8 11 15 12 9 13 13 14
REMARK SMILES IDX 10 15 12 16 14 17 11 19
REMARK H PARENT 1 9 14 18 11 20
REMARK Flexibility Score: inf
ROOT
ATOM      1  C   UNL     1       5.361   9.934   8.847  1.00  0.00     0.040 C 
ENDROOT
BRANCH   1   2
ATOM      2  C   UNL     1       4.029  10.539   9.212  1.00  0.00    -0.047 A 
ATOM      3  C   UNL     1       3.739  11.872   8.875  1.00  0.00     0.007 A 
ATOM      4  C   UNL     1       2.523  12.446   9.259  1.00  0.00     0.046 A 
ATOM      5  C   UNL     1       1.590  11.700   9.985  1.00  0.00     0.115 A 
ATOM      6  C   UNL     1       3.092   9.796   9.947  1.00  0.00     0.007 A 
ATOM      7  C   UNL     1       1.876  10.372  10.328  1.00  0.00     0.046 A 
BRANCH   5   8
ATOM      8  O   UNL     1       0.384  12.286  10.361  1.00  0.00    -0.508 OA
ATOM      9  H   UNL     1      -0.502  11.962   9.989  1.00  0.00     0.293 HD
ENDBRANCH   5   8
ENDBRANCH   1   2
BRANCH   1  10
ATOM     10  C   UNL     1       6.451  11.004   8.697  1.00  0.00     0.040 C 
BRANCH  10  11
ATOM     11  C   UNL     1       6.893  11.154   7.263  1.00  0.00    -0.040 A 
ATOM     12  C   UNL     1       8.189  11.607   6.969  1.00  0.00     0.050 A 
ATOM     13  C   UNL     1       6.037  10.781   6.214  1.00  0.00     0.050 A 
ATOM     14  C   UNL     1       8.619  11.701   5.637  1.00  0.00     0.119 A 
ATOM     15  C   UNL     1       6.468  10.871   4.883  1.00  0.00     0.119 A 
ATOM     16  C   UNL     1       7.756  11.335   4.599  1.00  0.00     0.092 A 
BRANCH  14  17
ATOM     17  O   UNL     1       9.902  12.154   5.337  1.00  0.00    -0.508 OA
ATOM     18  H   UNL     1      10.677  12.010   5.973  1.00  0.00     0.293 HD
ENDBRANCH  14  17
BRANCH  15  19
ATOM     19  O   UNL     1       5.625  10.500   3.838  1.00  0.00    -0.508 OA
ATOM     20  H   UNL     1       5.871  10.677   2.871  1.00  0.00     0.293 HD
ENDBRANCH  15  19
ENDBRANCH  10  11
ENDBRANCH   1  10
TORSDOF 6
ENDMDL
MODEL 7
REMARK VINA RESULT:    -4.516      1.738      2.670
REMARK INTER + INTRA:          -6.335
REMARK INTER:                  -6.149
REMARK INTRA:                  -0.186
REMARK UNBOUND:                -0.631
REMARK SMILES Oc1ccc(CCc2cc(O)cc(O)c2)cc1
REMARK SMILES IDX 6 1 5 2 4 3 3 4 2 5 16 6 17 7 1 8 7 10 8 11 15 12 9 13 13 14
REMARK SMILES IDX 10 15 12 16 14 17 11 19
REMARK H PARENT 1 9 14 18 11 20
REMARK Flexibility Score: inf
ROOT
ATOM      1  C   UNL     1       5.291  13.084   9.250  1.00  0.00     0.040 C 
ENDROOT
BRANCH   1   2
ATOM      2  C   UNL     1       4.679  11.731   8.997  1.00  0.00    -0.047 A 
ATOM      3  C   UNL     1       5.450  10.564   9.135  1.00  0.00     0.007 A 
ATOM      4  C   UNL     1       4.894   9.314   8.850  1.00  0.00     0.046 A 
ATOM      5  C   UNL     1       3.567   9.215   8.421  1.00  0.00     0.115 A 
ATOM      6  C   UNL     1       3.348  11.627   8.558  1.00  0.00     0.007 A 
ATOM      7  C   UNL     1       2.795  10.374   8.276  1.00  0.00     0.046 A 
BRANCH   5   8
ATOM      8  O   UNL     1       3.027   7.962   8.140  1.00  0.00    -0.508 OA
ATOM      9  H   UNL     1       2.429   7.482   8.802  1.00  0.00     0.293 HD
ENDBRANCH   5   8
ENDBRANCH   1   2
BRANCH   1  10
ATOM     10  C   UNL     1       6.820  13.052   9.118  1.00  0.00     0.040 C 
BRANCH  10  11
ATOM     11  C   UNL     1       7.252  12.760   7.703  1.00  0.00    -0.040 A 
ATOM     12  C   UNL     1       8.502  12.169   7.455  1.00  0.00     0.050 A 
ATOM     13  C   UNL     1       6.384  13.015   6.629  1.00  0.00     0.050 A 
ATOM     14  C   UNL     1       8.885  11.851   6.144  1.00  0.00     0.119 A 
ATOM     15  C   UNL     1       6.766  12.694   5.319  1.00  0.00     0.119 A 
ATOM     16  C   UNL     1       8.017  12.117   5.081  1.00  0.00     0.092 A 
BRANCH  14  17
ATOM     17  O   UNL     1      10.125  11.269   5.890  1.00  0.00    -0.508 OA
ATOM     18  H   UNL     1      10.283  10.696   5.068  1.00  0.00     0.293 HD
ENDBRANCH  14  17
BRANCH  15  19
ATOM     19  O   UNL     1       5.908  12.943   4.249  1.00  0.00    -0.508 OA
ATOM     20  H   UNL     1       5.401  12.194   3.793  1.00  0.00     0.293 HD
ENDBRANCH  15  19
ENDBRANCH  10  11
ENDBRANCH   1  10
TORSDOF 6
ENDMDL
MODEL 8
REMARK VINA RESULT:    -4.380      1.513      1.841
REMARK INTER + INTRA:          -6.164
REMARK INTER:                  -5.580
REMARK INTRA:                  -0.584
REMARK UNBOUND:                -0.631
REMARK SMILES Oc1ccc(CCc2cc(O)cc(O)c2)cc1
REMARK SMILES IDX 6 1 5 2 4 3 3 4 2 5 16 6 17 7 1 8 7 10 8 11 15 12 9 13 13 14
REMARK SMILES IDX 10 15 12 16 14 17 11 19
REMARK H PARENT 1 9 14 18 11 20
REMARK Flexibility Score: inf
ROOT
ATOM      1  C   UNL     1       6.101  12.161   9.119  1.00  0.00     0.040 C 
ENDROOT
BRANCH   1   2
ATOM      2  C   UNL     1       5.171  10.996   8.895  1.00  0.00    -0.047 A 
ATOM      3  C   UNL     1       5.670   9.682   8.878  1.00  0.00     0.007 A 
ATOM      4  C   UNL     1       4.814   8.607   8.619  1.00  0.00     0.046 A 
ATOM      5  C   UNL     1       3.457   8.832   8.371  1.00  0.00     0.115 A 
ATOM      6  C   UNL     1       3.808  11.217   8.637  1.00  0.00     0.007 A 
ATOM      7  C   UNL     1       2.955  10.140   8.381  1.00  0.00     0.046 A 
BRANCH   5   8
ATOM      8  O   UNL     1       2.617   7.751   8.114  1.00  0.00    -0.508 OA
ATOM      9  H   UNL     1       1.785   7.584   8.667  1.00  0.00     0.293 HD
ENDBRANCH   5   8
ENDBRANCH   1   2
BRANCH   1  10
ATOM     10  C   UNL     1       6.107  13.123   7.923  1.00  0.00     0.040 C 
BRANCH  10  11
ATOM     11  C   UNL     1       6.756  12.503   6.711  1.00  0.00    -0.040 A 
ATOM     12  C   UNL     1       5.980  11.794   5.780  1.00  0.00     0.050 A 
ATOM     13  C   UNL     1       8.127  12.686   6.469  1.00  0.00     0.050 A 
ATOM     14  C   UNL     1       6.573  11.260   4.628  1.00  0.00     0.119 A 
ATOM     15  C   UNL     1       8.720  12.155   5.316  1.00  0.00     0.119 A 
ATOM     16  C   UNL     1       7.941  11.440   4.400  1.00  0.00     0.092 A 
BRANCH  14  17
ATOM     17  O   UNL     1       5.811  10.551   3.701  1.00  0.00    -0.508 OA
ATOM     18  H   UNL     1       5.923  10.691   2.704  1.00  0.00     0.293 HD
ENDBRANCH  14  17
BRANCH  15  19
ATOM     19  O   UNL     1      10.079  12.335   5.069  1.00  0.00    -0.508 OA
ATOM     20  H   UNL     1      10.712  11.547   4.993  1.00  0.00     0.293 HD
ENDBRANCH  15  19
ENDBRANCH  10  11
ENDBRANCH   1  10
TORSDOF 6
ENDMDL
MODEL 9
REMARK VINA RESULT:    -3.819      1.524      6.414
REMARK INTER + INTRA:          -5.455
REMARK INTER:                  -4.928
REMARK INTRA:                  -0.527
REMARK UNBOUND:                -0.631
REMARK SMILES Oc1ccc(CCc2cc(O)cc(O)c2)cc1
REMARK SMILES IDX 6 1 5 2 4 3 3 4 2 5 16 6 17 7 1 8 7 10 8 11 15 12 9 13 13 14
REMARK SMILES IDX 10 15 12 16 14 17 11 19
REMARK H PARENT 1 9 14 18 11 20
REMARK Flexibility Score: inf
ROOT
ATOM      1  C   UNL     1       7.613  10.907   7.661  1.00  0.00     0.040 C 
ENDROOT
BRANCH   1   2
ATOM      2  C   UNL     1       8.067  11.530   6.365  1.00  0.00    -0.047 A 
ATOM      3  C   UNL     1       7.268  11.436   5.213  1.00  0.00     0.007 A 
ATOM      4  C   UNL     1       7.714  11.971   4.001  1.00  0.00     0.046 A 
ATOM      5  C   UNL     1       8.961  12.598   3.925  1.00  0.00     0.115 A 
ATOM      6  C   UNL     1       9.322  12.155   6.282  1.00  0.00     0.007 A 
ATOM      7  C   UNL     1       9.765  12.690   5.069  1.00  0.00     0.046 A 
BRANCH   5   8
ATOM      8  O   UNL     1       9.392  13.125   2.710  1.00  0.00    -0.508 OA
ATOM      9  H   UNL     1       8.761  13.231   1.924  1.00  0.00     0.293 HD
ENDBRANCH   5   8
ENDBRANCH   1   2
BRANCH   1  10
ATOM     10  C   UNL     1       6.816  11.898   8.520  1.00  0.00     0.040 C 
BRANCH  10  11
ATOM     11  C   UNL     1       5.380  11.467   8.683  1.00  0.00    -0.040 A 
ATOM     12  C   UNL     1       4.447  12.332   9.278  1.00  0.00     0.050 A 
ATOM     13  C   UNL     1       4.950  10.227   8.183  1.00  0.00     0.050 A 
ATOM     14  C   UNL     1       3.102  11.953   9.386  1.00  0.00     0.119 A 
ATOM     15  C   UNL     1       3.605   9.849   8.288  1.00  0.00     0.119 A 
ATOM     16  C   UNL     1       2.686  10.713   8.893  1.00  0.00     0.092 A 
BRANCH  14  17
ATOM     17  O   UNL     1       2.171  12.804   9.979  1.00  0.00    -0.508 OA
ATOM     18  H   UNL     1       1.739  12.580  10.868  1.00  0.00     0.293 HD
ENDBRANCH  14  17
BRANCH  15  19
ATOM     19  O   UNL     1       3.171   8.622   7.792  1.00  0.00    -0.508 OA
ATOM     20  H   UNL     1       3.582   8.212   6.961  1.00  0.00     0.293 HD
ENDBRANCH  15  19
ENDBRANCH  10  11
ENDBRANCH   1  10
TORSDOF 6
ENDMDL
