MODEL 1
REMARK VINA RESULT:     3.935      0.000      0.000
REMARK INTER + INTRA:           6.099
REMARK INTER:                   5.430
REMARK INTRA:                   0.669
REMARK UNBOUND:                 0.669
REMARK SMILES CC[C@@H](CC[C@@H](C)[C@@H]1CC[C@H]2[C@@H]3CC=C4C[C@H](O)CC[C@@]4(C)[C@H]3CC[C@@]21C)C(C)C
REMARK SMILES IDX 5 1 4 2 3 3 2 4 1 5 28 6 29 7 30 8 6 9 7 10 8 11 9 12 26 13
REMARK SMILES IDX 10 14 11 15 25 16 27 17 12 18 24 19 23 20 13 21 21 22 14 23
REMARK SMILES IDX 15 24 20 25 22 26 16 27 19 28 17 29 18 30
REMARK H PARENT 18 31
REMARK Flexibility Score: inf
ROOT
ATOM      1  C   UNL     1      28.551  26.183  25.858  1.00  0.00     0.004 C 
ENDROOT
BRANCH   1   2
ATOM      2  C   UNL     1      27.755  27.365  25.263  1.00  0.00     0.004 C 
BRANCH   2   3
ATOM      3  C   UNL     1      28.427  28.770  25.329  1.00  0.00    -0.009 C 
BRANCH   3   4
ATOM      4  C   UNL     1      29.125  29.026  26.699  1.00  0.00     0.000 C 
ATOM      5  C   UNL     1      28.767  30.334  27.416  1.00  0.00     0.004 C 
ENDBRANCH   3   4
BRANCH   3   6
ATOM      6  C   UNL     1      27.545  29.954  24.802  1.00  0.00    -0.014 C 
ATOM      7  C   UNL     1      28.388  31.213  24.525  1.00  0.00     0.007 C 
ATOM      8  C   UNL     1      26.803  29.583  23.503  1.00  0.00     0.007 C 
ENDBRANCH   3   6
ENDBRANCH   2   3
ENDBRANCH   1   2
BRANCH   1   9
ATOM      9  C   UNL     1      27.955  24.804  25.450  1.00  0.00    -0.011 C 
ATOM     10  C   UNL     1      29.124  23.882  25.043  1.00  0.00     0.008 C 
BRANCH   9  11
ATOM     11  C   UNL     1      27.049  24.221  26.603  1.00  0.00    -0.002 C 
ATOM     12  C   UNL     1      25.582  23.875  26.181  1.00  0.00     0.005 C 
ATOM     13  C   UNL     1      26.837  25.166  27.838  1.00  0.00    -0.026 C 
ATOM     14  C   UNL     1      24.646  24.884  26.856  1.00  0.00     0.005 C 
ATOM     15  C   UNL     1      25.577  25.938  27.424  1.00  0.00    -0.001 C 
ATOM     16  C   UNL     1      27.933  26.215  28.180  1.00  0.00     0.007 C 
ATOM     17  C   UNL     1      26.616  24.250  29.087  1.00  0.00     0.012 C 
ATOM     18  C   UNL     1      25.013  26.870  28.523  1.00  0.00     0.000 C 
ATOM     19  C   UNL     1      27.458  27.200  29.274  1.00  0.00     0.005 C 
ATOM     20  C   UNL     1      26.104  27.902  28.927  1.00  0.00     0.003 C 
ATOM     21  C   UNL     1      23.795  27.634  27.991  1.00  0.00     0.031 C 
ATOM     22  C   UNL     1      25.594  28.912  30.039  1.00  0.00    -0.008 C 
ATOM     23  C   UNL     1      23.293  28.617  29.001  1.00  0.00    -0.027 C 
ATOM     24  C   UNL     1      24.098  29.252  29.877  1.00  0.00    -0.065 C 
ATOM     25  C   UNL     1      25.777  28.331  31.478  1.00  0.00     0.014 C 
ATOM     26  C   UNL     1      26.417  30.221  29.906  1.00  0.00     0.016 C 
ATOM     27  C   UNL     1      23.459  30.124  30.936  1.00  0.00     0.063 C 
ATOM     28  C   UNL     1      25.110  29.170  32.588  1.00  0.00     0.033 C 
ATOM     29  C   UNL     1      23.625  29.455  32.300  1.00  0.00     0.118 C 
BRANCH  29  30
ATOM     30  O   UNL     1      23.100  30.294  33.293  1.00  0.00    -0.393 OA
ATOM     31  H   UNL     1      22.167  30.002  33.450  1.00  0.00     0.210 HD
ENDBRANCH  29  30
ENDBRANCH   9  11
ENDBRANCH   1   9
TORSDOF 7
ENDMDL
MODEL 2
REMARK VINA RESULT:     6.502      4.662      7.274
REMARK INTER + INTRA:           9.641
REMARK INTER:                   9.799
REMARK INTRA:                  -0.159
REMARK UNBOUND:                 0.669
REMARK SMILES CC[C@@H](CC[C@@H](C)[C@@H]1CC[C@H]2[C@@H]3CC=C4C[C@H](O)CC[C@@]4(C)[C@H]3CC[C@@]21C)C(C)C
REMARK SMILES IDX 5 1 4 2 3 3 2 4 1 5 28 6 29 7 30 8 6 9 7 10 8 11 9 12 26 13
REMARK SMILES IDX 10 14 11 15 25 16 27 17 12 18 24 19 23 20 13 21 21 22 14 23
REMARK SMILES IDX 15 24 20 25 22 26 16 27 19 28 17 29 18 30
REMARK H PARENT 18 31
REMARK Flexibility Score: inf
ROOT
ATOM      1  C   UNL     1      20.349  24.165  24.559  1.00  0.00     0.004 C 
ENDROOT
BRANCH   1   2
ATOM      2  C   UNL     1      19.222  23.915  23.533  1.00  0.00     0.004 C 
BRANCH   2   3
ATOM      3  C   UNL     1      19.569  24.160  22.033  1.00  0.00    -0.009 C 
BRANCH   3   4
ATOM      4  C   UNL     1      20.999  24.754  21.848  1.00  0.00     0.000 C 
ATOM      5  C   UNL     1      21.117  26.282  21.903  1.00  0.00     0.004 C 
ENDBRANCH   3   4
BRANCH   3   6
ATOM      6  C   UNL     1      18.445  24.862  21.197  1.00  0.00    -0.014 C 
ATOM      7  C   UNL     1      18.974  25.362  19.839  1.00  0.00     0.007 C 
ATOM      8  C   UNL     1      17.256  23.919  20.927  1.00  0.00     0.007 C 
ENDBRANCH   3   6
ENDBRANCH   2   3
ENDBRANCH   1   2
BRANCH   1   9
ATOM      9  C   UNL     1      20.167  25.511  25.320  1.00  0.00    -0.011 C 
ATOM     10  C   UNL     1      18.833  26.139  24.864  1.00  0.00     0.008 C 
BRANCH   9  11
ATOM     11  C   UNL     1      20.274  25.292  26.880  1.00  0.00    -0.002 C 
ATOM     12  C   UNL     1      19.968  26.558  27.748  1.00  0.00     0.005 C 
ATOM     13  C   UNL     1      21.686  24.849  27.404  1.00  0.00    -0.026 C 
ATOM     14  C   UNL     1      21.281  27.019  28.389  1.00  0.00     0.005 C 
ATOM     15  C   UNL     1      22.349  26.203  27.686  1.00  0.00    -0.001 C 
ATOM     16  C   UNL     1      22.628  24.059  26.452  1.00  0.00     0.007 C 
ATOM     17  C   UNL     1      21.451  23.997  28.695  1.00  0.00     0.012 C 
ATOM     18  C   UNL     1      23.734  26.101  28.369  1.00  0.00     0.000 C 
ATOM     19  C   UNL     1      24.046  23.907  27.050  1.00  0.00     0.005 C 
ATOM     20  C   UNL     1      24.690  25.272  27.466  1.00  0.00     0.003 C 
ATOM     21  C   UNL     1      24.334  27.501  28.553  1.00  0.00     0.031 C 
ATOM     22  C   UNL     1      26.143  25.140  28.089  1.00  0.00    -0.008 C 
ATOM     23  C   UNL     1      25.716  27.424  29.119  1.00  0.00    -0.027 C 
ATOM     24  C   UNL     1      26.564  26.408  28.861  1.00  0.00    -0.065 C 
ATOM     25  C   UNL     1      26.238  23.944  29.089  1.00  0.00     0.014 C 
ATOM     26  C   UNL     1      27.141  24.914  26.923  1.00  0.00     0.016 C 
ATOM     27  C   UNL     1      27.887  26.373  29.594  1.00  0.00     0.063 C 
ATOM     28  C   UNL     1      27.558  23.889  29.886  1.00  0.00     0.033 C 
ATOM     29  C   UNL     1      27.873  25.219  30.595  1.00  0.00     0.118 C 
BRANCH  29  30
ATOM     30  O   UNL     1      29.125  25.137  31.224  1.00  0.00    -0.393 OA
ATOM     31  H   UNL     1      29.677  25.873  30.857  1.00  0.00     0.210 HD
ENDBRANCH  29  30
ENDBRANCH   9  11
ENDBRANCH   1   9
TORSDOF 7
ENDMDL
