MODEL 1
REMARK VINA RESULT:    -7.476      0.000      0.000
REMARK INTER + INTRA:         -12.960
REMARK INTER:                 -10.972
REMARK INTRA:                  -1.988
REMARK UNBOUND:                -1.988
REMARK SMILES O=c1c(O[C@@H]2O[C@H](CO)[C@H](O)[C@H](O)[C@H]2O)c(-c2ccc(O)c(O)c2)oc2cc(O)cc(O)c12
REMARK SMILES IDX 4 1 3 2 16 3 25 4 2 5 26 6 1 7 33 8 27 9 31 10 28 11 30 12
REMARK SMILES IDX 17 13 18 14 19 15 20 16 24 17 22 18 21 19 23 21 32 23 29 25
REMARK SMILES IDX 5 27 14 28 6 29 12 30 7 31 10 32 15 33 13 35 8 37 9 38 11 40
REMARK H PARENT 21 20 23 22 32 24 29 26 15 34 13 36 9 39 11 41
REMARK Flexibility Score: inf
ROOT
ATOM      1  O   UNL     1       0.742 -21.558  26.394  1.00  0.00    -0.454 OA
ENDROOT
BRANCH   1   2
ATOM      2  C   UNL     1       1.182 -22.473  27.360  1.00  0.00     0.214 A 
ATOM      3  C   UNL     1       1.163 -22.166  28.737  1.00  0.00     0.180 A 
ATOM      4  O   UNL     1       1.668 -23.029  29.613  1.00  0.00    -0.452 OA
ATOM      5  C   UNL     1       1.661 -23.723  26.953  1.00  0.00     0.239 A 
ATOM      6  C   UNL     1       2.166 -24.211  29.267  1.00  0.00     0.146 A 
ATOM      7  O   UNL     1       1.643 -24.019  25.728  1.00  0.00    -0.285 OA
ATOM      8  C   UNL     1       2.172 -24.621  27.912  1.00  0.00     0.111 A 
ATOM      9  C   UNL     1       2.675 -25.053  30.258  1.00  0.00     0.094 A 
ATOM     10  C   UNL     1       2.695 -25.894  27.579  1.00  0.00     0.134 A 
ATOM     11  C   UNL     1       3.192 -26.309  29.924  1.00  0.00     0.123 A 
ATOM     12  C   UNL     1       3.199 -26.725  28.590  1.00  0.00     0.093 A 
BRANCH   3  13
ATOM     13  C   UNL     1       0.580 -20.909  29.256  1.00  0.00     0.025 A 
ATOM     14  C   UNL     1       1.424 -19.874  29.680  1.00  0.00     0.016 A 
ATOM     15  C   UNL     1       0.887 -18.683  30.170  1.00  0.00     0.051 A 
ATOM     16  C   UNL     1      -0.499 -18.506  30.258  1.00  0.00     0.157 A 
ATOM     17  C   UNL     1      -0.810 -20.747  29.369  1.00  0.00     0.062 A 
ATOM     18  C   UNL     1      -1.359 -19.555  29.855  1.00  0.00     0.158 A 
BRANCH  16  19
ATOM     19  O   UNL     1      -0.971 -17.287  30.746  1.00  0.00    -0.504 OA
ATOM     20  H   UNL     1      -1.569 -16.663  30.224  1.00  0.00     0.293 HD
ENDBRANCH  16  19
BRANCH  18  21
ATOM     21  O   UNL     1      -2.751 -19.458  29.926  1.00  0.00    -0.504 OA
ATOM     22  H   UNL     1      -3.241 -18.770  30.479  1.00  0.00     0.293 HD
ENDBRANCH  18  21
ENDBRANCH   3  13
BRANCH  10  23
ATOM     23  O   UNL     1       2.718 -26.337  26.256  1.00  0.00    -0.507 OA
ATOM     24  H   UNL     1       2.580 -25.702  25.478  1.00  0.00     0.293 HD
ENDBRANCH  10  23
BRANCH  11  25
ATOM     25  O   UNL     1       3.700 -27.153  30.909  1.00  0.00    -0.508 OA
ATOM     26  H   UNL     1       3.097 -27.772  31.439  1.00  0.00     0.293 HD
ENDBRANCH  11  25
ENDBRANCH   1   2
BRANCH   1  27
ATOM     27  C   UNL     1       1.576 -20.521  25.871  1.00  0.00     0.339 C 
ATOM     28  C   UNL     1       2.038 -20.844  24.441  1.00  0.00     0.214 C 
ATOM     29  O   UNL     1       0.940 -19.258  25.971  1.00  0.00    -0.332 OA
ATOM     30  C   UNL     1       0.862 -20.788  23.458  1.00  0.00     0.180 C 
ATOM     31  C   UNL     1      -0.179 -19.087  25.108  1.00  0.00     0.179 C 
ATOM     32  C   UNL     1       0.097 -19.463  23.622  1.00  0.00     0.177 C 
BRANCH  28  33
ATOM     33  O   UNL     1       3.028 -19.922  24.062  1.00  0.00    -0.384 OA
ATOM     34  H   UNL     1       3.850 -20.157  24.568  1.00  0.00     0.211 HD
ENDBRANCH  28  33
BRANCH  30  35
ATOM     35  O   UNL     1       0.023 -21.895  23.658  1.00  0.00    -0.387 OA
ATOM     36  H   UNL     1      -0.098 -21.999  24.638  1.00  0.00     0.211 HD
ENDBRANCH  30  35
BRANCH  31  37
ATOM     37  C   UNL     1      -1.497 -19.612  25.726  1.00  0.00     0.191 C 
BRANCH  37  38
ATOM     38  O   UNL     1      -1.858 -20.875  25.237  1.00  0.00    -0.394 OA
ATOM     39  H   UNL     1      -2.739 -20.776  24.790  1.00  0.00     0.210 HD
ENDBRANCH  37  38
ENDBRANCH  31  37
BRANCH  32  40
ATOM     40  O   UNL     1      -1.092 -19.496  22.875  1.00  0.00    -0.387 OA
ATOM     41  H   UNL     1      -1.345 -18.552  22.695  1.00  0.00     0.211 HD
ENDBRANCH  32  40
ENDBRANCH   1  27
TORSDOF 12
ENDMDL
MODEL 2
REMARK VINA RESULT:    -6.878      2.583      6.707
REMARK INTER + INTRA:         -12.083
REMARK INTER:                 -10.046
REMARK INTRA:                  -2.037
REMARK UNBOUND:                -1.988
REMARK SMILES O=c1c(O[C@@H]2O[C@H](CO)[C@H](O)[C@H](O)[C@H]2O)c(-c2ccc(O)c(O)c2)oc2cc(O)cc(O)c12
REMARK SMILES IDX 4 1 3 2 16 3 25 4 2 5 26 6 1 7 33 8 27 9 31 10 28 11 30 12
REMARK SMILES IDX 17 13 18 14 19 15 20 16 24 17 22 18 21 19 23 21 32 23 29 25
REMARK SMILES IDX 5 27 14 28 6 29 12 30 7 31 10 32 15 33 13 35 8 37 9 38 11 40
REMARK H PARENT 21 20 23 22 32 24 29 26 15 34 13 36 9 39 11 41
REMARK Flexibility Score: inf
ROOT
ATOM      1  O   UNL     1       0.793 -20.416  26.527  1.00  0.00    -0.454 OA
ENDROOT
BRANCH   1   2
ATOM      2  C   UNL     1       0.030 -19.267  26.776  1.00  0.00     0.214 A 
ATOM      3  C   UNL     1      -0.670 -19.089  27.988  1.00  0.00     0.180 A 
ATOM      4  O   UNL     1      -1.450 -18.024  28.149  1.00  0.00    -0.452 OA
ATOM      5  C   UNL     1      -0.050 -18.271  25.797  1.00  0.00     0.239 A 
ATOM      6  C   UNL     1      -1.583 -17.072  27.231  1.00  0.00     0.146 A 
ATOM      7  O   UNL     1       0.607 -18.405  24.728  1.00  0.00    -0.285 OA
ATOM      8  C   UNL     1      -0.872 -17.146  26.010  1.00  0.00     0.111 A 
ATOM      9  C   UNL     1      -2.426 -15.989  27.491  1.00  0.00     0.094 A 
ATOM     10  C   UNL     1      -1.023 -16.107  25.060  1.00  0.00     0.134 A 
ATOM     11  C   UNL     1      -2.573 -14.965  26.549  1.00  0.00     0.123 A 
ATOM     12  C   UNL     1      -1.873 -15.026  25.341  1.00  0.00     0.093 A 
BRANCH   3  13
ATOM     13  C   UNL     1      -0.558 -20.046  29.111  1.00  0.00     0.025 A 
ATOM     14  C   UNL     1       0.480 -19.909  30.040  1.00  0.00     0.016 A 
ATOM     15  C   UNL     1       0.596 -20.804  31.104  1.00  0.00     0.051 A 
ATOM     16  C   UNL     1      -0.313 -21.857  31.255  1.00  0.00     0.157 A 
ATOM     17  C   UNL     1      -1.456 -21.118  29.241  1.00  0.00     0.062 A 
ATOM     18  C   UNL     1      -1.351 -22.019  30.307  1.00  0.00     0.158 A 
BRANCH  16  19
ATOM     19  O   UNL     1      -0.148 -22.711  32.347  1.00  0.00    -0.504 OA
ATOM     20  H   UNL     1       0.731 -22.856  32.823  1.00  0.00     0.293 HD
ENDBRANCH  16  19
BRANCH  18  21
ATOM     21  O   UNL     1      -2.288 -23.052  30.383  1.00  0.00    -0.504 OA
ATOM     22  H   UNL     1      -3.093 -23.041  30.993  1.00  0.00     0.293 HD
ENDBRANCH  18  21
ENDBRANCH   3  13
BRANCH  10  23
ATOM     23  O   UNL     1      -0.339 -16.139  23.845  1.00  0.00    -0.507 OA
ATOM     24  H   UNL     1       0.668 -16.048  23.797  1.00  0.00     0.293 HD
ENDBRANCH  10  23
BRANCH  11  25
ATOM     25  O   UNL     1      -3.412 -13.883  26.802  1.00  0.00    -0.508 OA
ATOM     26  H   UNL     1      -4.326 -13.809  26.372  1.00  0.00     0.293 HD
ENDBRANCH  11  25
ENDBRANCH   1   2
BRANCH   1  27
ATOM     27  C   UNL     1       0.227 -21.631  26.031  1.00  0.00     0.339 C 
ATOM     28  C   UNL     1       0.438 -21.768  24.515  1.00  0.00     0.214 C 
ATOM     29  O   UNL     1       0.709 -22.750  26.757  1.00  0.00    -0.332 OA
ATOM     30  C   UNL     1       1.920 -21.988  24.185  1.00  0.00     0.180 C 
ATOM     31  C   UNL     1       2.082 -23.051  26.539  1.00  0.00     0.179 C 
ATOM     32  C   UNL     1       2.488 -23.136  25.038  1.00  0.00     0.177 C 
BRANCH  28  33
ATOM     33  O   UNL     1      -0.327 -22.848  24.043  1.00  0.00    -0.384 OA
ATOM     34  H   UNL     1      -0.624 -23.361  24.840  1.00  0.00     0.211 HD
ENDBRANCH  28  33
BRANCH  30  35
ATOM     35  O   UNL     1       2.633 -20.796  24.385  1.00  0.00    -0.387 OA
ATOM     36  H   UNL     1       3.228 -20.937  25.167  1.00  0.00     0.211 HD
ENDBRANCH  30  35
BRANCH  31  37
ATOM     37  C   UNL     1       3.025 -22.252  27.471  1.00  0.00     0.191 C 
BRANCH  37  38
ATOM     38  O   UNL     1       3.633 -21.167  26.825  1.00  0.00    -0.394 OA
ATOM     39  H   UNL     1       4.101 -21.525  26.027  1.00  0.00     0.210 HD
ENDBRANCH  37  38
ENDBRANCH  31  37
BRANCH  32  40
ATOM     40  O   UNL     1       3.883 -23.204  24.891  1.00  0.00    -0.387 OA
ATOM     41  H   UNL     1       4.278 -22.910  25.753  1.00  0.00     0.211 HD
ENDBRANCH  32  40
ENDBRANCH   1  27
TORSDOF 12
ENDMDL
MODEL 3
REMARK VINA RESULT:    -6.758      2.520      6.642
REMARK INTER + INTRA:         -11.907
REMARK INTER:                  -9.924
REMARK INTRA:                  -1.983
REMARK UNBOUND:                -1.988
REMARK SMILES O=c1c(O[C@@H]2O[C@H](CO)[C@H](O)[C@H](O)[C@H]2O)c(-c2ccc(O)c(O)c2)oc2cc(O)cc(O)c12
REMARK SMILES IDX 4 1 3 2 16 3 25 4 2 5 26 6 1 7 33 8 27 9 31 10 28 11 30 12
REMARK SMILES IDX 17 13 18 14 19 15 20 16 24 17 22 18 21 19 23 21 32 23 29 25
REMARK SMILES IDX 5 27 14 28 6 29 12 30 7 31 10 32 15 33 13 35 8 37 9 38 11 40
REMARK H PARENT 21 20 23 22 32 24 29 26 15 34 13 36 9 39 11 41
REMARK Flexibility Score: inf
ROOT
ATOM      1  O   UNL     1       0.467 -20.617  26.324  1.00  0.00    -0.454 OA
ENDROOT
BRANCH   1   2
ATOM      2  C   UNL     1      -0.183 -19.405  26.595  1.00  0.00     0.214 A 
ATOM      3  C   UNL     1      -0.791 -19.151  27.842  1.00  0.00     0.180 A 
ATOM      4  O   UNL     1      -1.470 -18.023  28.028  1.00  0.00    -0.452 OA
ATOM      5  C   UNL     1      -0.240 -18.421  25.602  1.00  0.00     0.239 A 
ATOM      6  C   UNL     1      -1.580 -17.078  27.101  1.00  0.00     0.146 A 
ATOM      7  O   UNL     1       0.337 -18.625  24.499  1.00  0.00    -0.285 OA
ATOM      8  C   UNL     1      -0.953 -17.229  25.841  1.00  0.00     0.111 A 
ATOM      9  C   UNL     1      -2.314 -15.924  27.388  1.00  0.00     0.094 A 
ATOM     10  C   UNL     1      -1.076 -16.195  24.881  1.00  0.00     0.134 A 
ATOM     11  C   UNL     1      -2.434 -14.907  26.436  1.00  0.00     0.123 A 
ATOM     12  C   UNL     1      -1.816 -15.044  25.190  1.00  0.00     0.093 A 
BRANCH   3  13
ATOM     13  C   UNL     1      -0.689 -20.096  28.976  1.00  0.00     0.025 A 
ATOM     14  C   UNL     1       0.250 -19.868  29.989  1.00  0.00     0.016 A 
ATOM     15  C   UNL     1       0.355 -20.752  31.065  1.00  0.00     0.051 A 
ATOM     16  C   UNL     1      -0.465 -21.884  31.143  1.00  0.00     0.157 A 
ATOM     17  C   UNL     1      -1.494 -21.246  29.034  1.00  0.00     0.062 A 
ATOM     18  C   UNL     1      -1.400 -22.136  30.111  1.00  0.00     0.158 A 
BRANCH  16  19
ATOM     19  O   UNL     1      -0.318 -22.721  32.249  1.00  0.00    -0.504 OA
ATOM     20  H   UNL     1      -0.951 -23.475  32.476  1.00  0.00     0.293 HD
ENDBRANCH  16  19
BRANCH  18  21
ATOM     21  O   UNL     1      -2.242 -23.250  30.112  1.00  0.00    -0.504 OA
ATOM     22  H   UNL     1      -2.448 -23.801  30.932  1.00  0.00     0.293 HD
ENDBRANCH  18  21
ENDBRANCH   3  13
BRANCH  10  23
ATOM     23  O   UNL     1      -0.473 -16.303  23.628  1.00  0.00    -0.507 OA
ATOM     24  H   UNL     1       0.499 -16.570  23.525  1.00  0.00     0.293 HD
ENDBRANCH  10  23
BRANCH  11  25
ATOM     25  O   UNL     1      -3.164 -13.755  26.717  1.00  0.00    -0.508 OA
ATOM     26  H   UNL     1      -3.375 -13.480  27.669  1.00  0.00     0.293 HD
ENDBRANCH  11  25
ENDBRANCH   1   2
BRANCH   1  27
ATOM     27  C   UNL     1       1.875 -20.798  26.498  1.00  0.00     0.339 C 
ATOM     28  C   UNL     1       2.173 -21.924  27.500  1.00  0.00     0.214 C 
ATOM     29  O   UNL     1       2.521 -20.986  25.250  1.00  0.00    -0.332 OA
ATOM     30  C   UNL     1       1.779 -23.290  26.924  1.00  0.00     0.180 C 
ATOM     31  C   UNL     1       2.225 -22.222  24.609  1.00  0.00     0.179 C 
ATOM     32  C   UNL     1       2.391 -23.472  25.523  1.00  0.00     0.177 C 
BRANCH  28  33
ATOM     33  O   UNL     1       3.544 -21.908  27.809  1.00  0.00    -0.384 OA
ATOM     34  H   UNL     1       3.958 -21.202  27.247  1.00  0.00     0.211 HD
ENDBRANCH  28  33
BRANCH  30  35
ATOM     35  O   UNL     1       0.381 -23.407  26.894  1.00  0.00    -0.387 OA
ATOM     36  H   UNL     1       0.061 -22.903  26.102  1.00  0.00     0.211 HD
ENDBRANCH  30  35
BRANCH  31  37
ATOM     37  C   UNL     1       0.943 -22.156  23.745  1.00  0.00     0.191 C 
BRANCH  37  38
ATOM     38  O   UNL     1      -0.168 -22.729  24.380  1.00  0.00    -0.394 OA
ATOM     39  H   UNL     1      -0.216 -23.676  24.090  1.00  0.00     0.210 HD
ENDBRANCH  37  38
ENDBRANCH  31  37
BRANCH  32  40
ATOM     40  O   UNL     1       1.867 -24.623  24.913  1.00  0.00    -0.387 OA
ATOM     41  H   UNL     1       2.205 -24.632  23.979  1.00  0.00     0.211 HD
ENDBRANCH  32  40
ENDBRANCH   1  27
TORSDOF 12
ENDMDL
MODEL 4
REMARK VINA RESULT:    -6.745      3.036      7.135
REMARK INTER + INTRA:         -11.888
REMARK INTER:                  -9.971
REMARK INTRA:                  -1.917
REMARK UNBOUND:                -1.988
REMARK SMILES O=c1c(O[C@@H]2O[C@H](CO)[C@H](O)[C@H](O)[C@H]2O)c(-c2ccc(O)c(O)c2)oc2cc(O)cc(O)c12
REMARK SMILES IDX 4 1 3 2 16 3 25 4 2 5 26 6 1 7 33 8 27 9 31 10 28 11 30 12
REMARK SMILES IDX 17 13 18 14 19 15 20 16 24 17 22 18 21 19 23 21 32 23 29 25
REMARK SMILES IDX 5 27 14 28 6 29 12 30 7 31 10 32 15 33 13 35 8 37 9 38 11 40
REMARK H PARENT 21 20 23 22 32 24 29 26 15 34 13 36 9 39 11 41
REMARK Flexibility Score: inf
ROOT
ATOM      1  O   UNL     1       0.390 -19.071  26.709  1.00  0.00    -0.454 OA
ENDROOT
BRANCH   1   2
ATOM      2  C   UNL     1      -0.420 -18.032  27.187  1.00  0.00     0.214 A 
ATOM      3  C   UNL     1      -0.967 -18.056  28.488  1.00  0.00     0.180 A 
ATOM      4  O   UNL     1      -1.799 -17.091  28.871  1.00  0.00    -0.452 OA
ATOM      5  C   UNL     1      -0.702 -16.944  26.355  1.00  0.00     0.239 A 
ATOM      6  C   UNL     1      -2.123 -16.059  28.100  1.00  0.00     0.146 A 
ATOM      7  O   UNL     1      -0.183 -16.897  25.207  1.00  0.00    -0.285 OA
ATOM      8  C   UNL     1      -1.574 -15.930  26.802  1.00  0.00     0.111 A 
ATOM      9  C   UNL     1      -3.005 -15.093  28.590  1.00  0.00     0.094 A 
ATOM     10  C   UNL     1      -1.926 -14.809  26.012  1.00  0.00     0.134 A 
ATOM     11  C   UNL     1      -3.352 -13.988  27.806  1.00  0.00     0.123 A 
ATOM     12  C   UNL     1      -2.812 -13.849  26.524  1.00  0.00     0.093 A 
BRANCH   3  13
ATOM     13  C   UNL     1      -0.637 -19.118  29.463  1.00  0.00     0.025 A 
ATOM     14  C   UNL     1       0.639 -19.161  30.038  1.00  0.00     0.016 A 
ATOM     15  C   UNL     1       0.963 -20.157  30.961  1.00  0.00     0.051 A 
ATOM     16  C   UNL     1       0.025 -21.134  31.316  1.00  0.00     0.157 A 
ATOM     17  C   UNL     1      -1.572 -20.113  29.794  1.00  0.00     0.062 A 
ATOM     18  C   UNL     1      -1.258 -21.114  30.721  1.00  0.00     0.158 A 
BRANCH  16  19
ATOM     19  O   UNL     1       0.409 -22.096  32.252  1.00  0.00    -0.504 OA
ATOM     20  H   UNL     1       0.765 -21.878  33.172  1.00  0.00     0.293 HD
ENDBRANCH  16  19
BRANCH  18  21
ATOM     21  O   UNL     1      -2.241 -22.061  31.015  1.00  0.00    -0.504 OA
ATOM     22  H   UNL     1      -2.523 -22.310  31.952  1.00  0.00     0.293 HD
ENDBRANCH  18  21
ENDBRANCH   3  13
BRANCH  10  23
ATOM     23  O   UNL     1      -1.406 -14.643  24.729  1.00  0.00    -0.507 OA
ATOM     24  H   UNL     1      -0.410 -14.565  24.562  1.00  0.00     0.293 HD
ENDBRANCH  10  23
BRANCH  11  25
ATOM     25  O   UNL     1      -4.230 -13.022  28.289  1.00  0.00    -0.508 OA
ATOM     26  H   UNL     1      -3.952 -12.053  28.384  1.00  0.00     0.293 HD
ENDBRANCH  11  25
ENDBRANCH   1   2
BRANCH   1  27
ATOM     27  C   UNL     1      -0.106 -20.387  26.456  1.00  0.00     0.339 C 
ATOM     28  C   UNL     1      -0.740 -20.486  25.059  1.00  0.00     0.214 C 
ATOM     29  O   UNL     1       0.902 -21.362  26.673  1.00  0.00    -0.332 OA
ATOM     30  C   UNL     1       0.326 -20.368  23.963  1.00  0.00     0.180 C 
ATOM     31  C   UNL     1       1.957 -21.345  25.719  1.00  0.00     0.179 C 
ATOM     32  C   UNL     1       1.480 -21.349  24.236  1.00  0.00     0.177 C 
BRANCH  28  33
ATOM     33  O   UNL     1      -1.411 -21.716  24.948  1.00  0.00    -0.384 OA
ATOM     34  H   UNL     1      -0.854 -22.298  24.367  1.00  0.00     0.211 HD
ENDBRANCH  28  33
BRANCH  30  35
ATOM     35  O   UNL     1       0.784 -19.043  23.887  1.00  0.00    -0.387 OA
ATOM     36  H   UNL     1       0.542 -18.600  24.742  1.00  0.00     0.211 HD
ENDBRANCH  30  35
BRANCH  31  37
ATOM     37  C   UNL     1       3.080 -20.345  26.086  1.00  0.00     0.191 C 
BRANCH  37  38
ATOM     38  O   UNL     1       3.032 -19.172  25.320  1.00  0.00    -0.394 OA
ATOM     39  H   UNL     1       2.313 -19.290  24.646  1.00  0.00     0.210 HD
ENDBRANCH  37  38
ENDBRANCH  31  37
BRANCH  32  40
ATOM     40  O   UNL     1       2.546 -21.099  23.357  1.00  0.00    -0.387 OA
ATOM     41  H   UNL     1       2.675 -21.924  22.820  1.00  0.00     0.211 HD
ENDBRANCH  32  40
ENDBRANCH   1  27
TORSDOF 12
ENDMDL
MODEL 5
REMARK VINA RESULT:    -6.729      2.947      8.335
REMARK INTER + INTRA:         -11.864
REMARK INTER:                 -10.133
REMARK INTRA:                  -1.731
REMARK UNBOUND:                -1.988
REMARK SMILES O=c1c(O[C@@H]2O[C@H](CO)[C@H](O)[C@H](O)[C@H]2O)c(-c2ccc(O)c(O)c2)oc2cc(O)cc(O)c12
REMARK SMILES IDX 4 1 3 2 16 3 25 4 2 5 26 6 1 7 33 8 27 9 31 10 28 11 30 12
REMARK SMILES IDX 17 13 18 14 19 15 20 16 24 17 22 18 21 19 23 21 32 23 29 25
REMARK SMILES IDX 5 27 14 28 6 29 12 30 7 31 10 32 15 33 13 35 8 37 9 38 11 40
REMARK H PARENT 21 20 23 22 32 24 29 26 15 34 13 36 9 39 11 41
REMARK Flexibility Score: inf
ROOT
ATOM      1  O   UNL     1      -0.807 -19.973  28.225  1.00  0.00    -0.454 OA
ENDROOT
BRANCH   1   2
ATOM      2  C   UNL     1      -1.019 -18.762  27.550  1.00  0.00     0.214 A 
ATOM      3  C   UNL     1      -0.520 -18.540  26.250  1.00  0.00     0.180 A 
ATOM      4  O   UNL     1      -0.671 -17.348  25.680  1.00  0.00    -0.452 OA
ATOM      5  C   UNL     1      -1.738 -17.742  28.182  1.00  0.00     0.239 A 
ATOM      6  C   UNL     1      -1.315 -16.340  26.259  1.00  0.00     0.146 A 
ATOM      7  O   UNL     1      -2.222 -17.950  29.328  1.00  0.00    -0.285 OA
ATOM      8  C   UNL     1      -1.895 -16.497  27.541  1.00  0.00     0.111 A 
ATOM      9  C   UNL     1      -1.423 -15.123  25.582  1.00  0.00     0.094 A 
ATOM     10  C   UNL     1      -2.588 -15.409  28.122  1.00  0.00     0.134 A 
ATOM     11  C   UNL     1      -2.109 -14.049  26.161  1.00  0.00     0.123 A 
ATOM     12  C   UNL     1      -2.688 -14.196  27.424  1.00  0.00     0.093 A 
BRANCH   3  13
ATOM     13  C   UNL     1       0.162 -19.599  25.475  1.00  0.00     0.025 A 
ATOM     14  C   UNL     1      -0.481 -20.824  25.257  1.00  0.00     0.016 A 
ATOM     15  C   UNL     1       0.151 -21.832  24.526  1.00  0.00     0.051 A 
ATOM     16  C   UNL     1       1.439 -21.641  24.011  1.00  0.00     0.157 A 
ATOM     17  C   UNL     1       1.465 -19.414  24.985  1.00  0.00     0.062 A 
ATOM     18  C   UNL     1       2.106 -20.416  24.248  1.00  0.00     0.158 A 
BRANCH  16  19
ATOM     19  O   UNL     1       2.010 -22.684  23.281  1.00  0.00    -0.504 OA
ATOM     20  H   UNL     1       1.477 -23.394  22.799  1.00  0.00     0.293 HD
ENDBRANCH  16  19
BRANCH  18  21
ATOM     21  O   UNL     1       3.396 -20.157  23.778  1.00  0.00    -0.504 OA
ATOM     22  H   UNL     1       4.047 -19.531  24.231  1.00  0.00     0.293 HD
ENDBRANCH  18  21
ENDBRANCH   3  13
BRANCH  10  23
ATOM     23  O   UNL     1      -3.176 -15.522  29.382  1.00  0.00    -0.507 OA
ATOM     24  H   UNL     1      -4.180 -15.588  29.499  1.00  0.00     0.293 HD
ENDBRANCH  10  23
BRANCH  11  25
ATOM     25  O   UNL     1      -2.221 -12.834  25.491  1.00  0.00    -0.508 OA
ATOM     26  H   UNL     1      -2.600 -12.012  25.945  1.00  0.00     0.293 HD
ENDBRANCH  11  25
ENDBRANCH   1   2
BRANCH   1  27
ATOM     27  C   UNL     1       0.486 -20.403  28.657  1.00  0.00     0.339 C 
ATOM     28  C   UNL     1       0.855 -19.787  30.015  1.00  0.00     0.214 C 
ATOM     29  O   UNL     1       0.578 -21.819  28.652  1.00  0.00    -0.332 OA
ATOM     30  C   UNL     1      -0.025 -20.358  31.135  1.00  0.00     0.180 C 
ATOM     31  C   UNL     1      -0.206 -22.468  29.647  1.00  0.00     0.179 C 
ATOM     32  C   UNL     1      -0.018 -21.896  31.083  1.00  0.00     0.177 C 
BRANCH  28  33
ATOM     33  O   UNL     1       2.208 -20.051  30.284  1.00  0.00    -0.384 OA
ATOM     34  H   UNL     1       2.528 -20.668  29.574  1.00  0.00     0.211 HD
ENDBRANCH  28  33
BRANCH  30  35
ATOM     35  O   UNL     1      -1.327 -19.845  31.023  1.00  0.00    -0.387 OA
ATOM     36  H   UNL     1      -1.914 -20.594  30.742  1.00  0.00     0.211 HD
ENDBRANCH  30  35
BRANCH  31  37
ATOM     37  C   UNL     1      -1.660 -22.728  29.186  1.00  0.00     0.191 C 
BRANCH  37  38
ATOM     38  O   UNL     1      -2.568 -21.793  29.703  1.00  0.00    -0.394 OA
ATOM     39  H   UNL     1      -2.678 -21.083  29.018  1.00  0.00     0.210 HD
ENDBRANCH  37  38
ENDBRANCH  31  37
BRANCH  32  40
ATOM     40  O   UNL     1      -0.977 -22.414  31.968  1.00  0.00    -0.387 OA
ATOM     41  H   UNL     1      -1.441 -21.637  32.377  1.00  0.00     0.211 HD
ENDBRANCH  32  40
ENDBRANCH   1  27
TORSDOF 12
ENDMDL
MODEL 6
REMARK VINA RESULT:    -6.690      6.912     11.966
REMARK INTER + INTRA:         -11.806
REMARK INTER:                  -9.860
REMARK INTRA:                  -1.946
REMARK UNBOUND:                -1.988
REMARK SMILES O=c1c(O[C@@H]2O[C@H](CO)[C@H](O)[C@H](O)[C@H]2O)c(-c2ccc(O)c(O)c2)oc2cc(O)cc(O)c12
REMARK SMILES IDX 4 1 3 2 16 3 25 4 2 5 26 6 1 7 33 8 27 9 31 10 28 11 30 12
REMARK SMILES IDX 17 13 18 14 19 15 20 16 24 17 22 18 21 19 23 21 32 23 29 25
REMARK SMILES IDX 5 27 14 28 6 29 12 30 7 31 10 32 15 33 13 35 8 37 9 38 11 40
REMARK H PARENT 21 20 23 22 32 24 29 26 15 34 13 36 9 39 11 41
REMARK Flexibility Score: inf
ROOT
ATOM      1  O   UNL     1      -3.838 -12.848  30.987  1.00  0.00    -0.454 OA
ENDROOT
BRANCH   1   2
ATOM      2  C   UNL     1      -2.542 -12.333  31.135  1.00  0.00     0.214 A 
ATOM      3  C   UNL     1      -1.429 -12.933  30.510  1.00  0.00     0.180 A 
ATOM      4  O   UNL     1      -0.207 -12.462  30.746  1.00  0.00    -0.452 OA
ATOM      5  C   UNL     1      -2.342 -11.198  31.928  1.00  0.00     0.239 A 
ATOM      6  C   UNL     1       0.031 -11.410  31.521  1.00  0.00     0.146 A 
ATOM      7  O   UNL     1      -3.339 -10.633  32.456  1.00  0.00    -0.285 OA
ATOM      8  C   UNL     1      -1.035 -10.716  32.141  1.00  0.00     0.111 A 
ATOM      9  C   UNL     1       1.350 -10.988  31.709  1.00  0.00     0.094 A 
ATOM     10  C   UNL     1      -0.747  -9.589  32.947  1.00  0.00     0.134 A 
ATOM     11  C   UNL     1       1.629  -9.874  32.508  1.00  0.00     0.123 A 
ATOM     12  C   UNL     1       0.583  -9.179  33.121  1.00  0.00     0.093 A 
BRANCH   3  13
ATOM     13  C   UNL     1      -1.568 -14.072  29.577  1.00  0.00     0.025 A 
ATOM     14  C   UNL     1      -1.473 -13.856  28.197  1.00  0.00     0.016 A 
ATOM     15  C   UNL     1      -1.600 -14.923  27.306  1.00  0.00     0.051 A 
ATOM     16  C   UNL     1      -1.837 -16.220  27.774  1.00  0.00     0.157 A 
ATOM     17  C   UNL     1      -1.834 -15.368  30.050  1.00  0.00     0.062 A 
ATOM     18  C   UNL     1      -1.959 -16.445  29.165  1.00  0.00     0.158 A 
BRANCH  16  19
ATOM     19  O   UNL     1      -1.943 -17.244  26.831  1.00  0.00    -0.504 OA
ATOM     20  H   UNL     1      -1.171 -17.825  26.538  1.00  0.00     0.293 HD
ENDBRANCH  16  19
BRANCH  18  21
ATOM     21  O   UNL     1      -2.208 -17.708  29.707  1.00  0.00    -0.504 OA
ATOM     22  H   UNL     1      -3.045 -17.949  30.217  1.00  0.00     0.293 HD
ENDBRANCH  18  21
ENDBRANCH   3  13
BRANCH  10  23
ATOM     23  O   UNL     1      -1.769  -8.875  33.575  1.00  0.00    -0.507 OA
ATOM     24  H   UNL     1      -2.569  -8.527  33.062  1.00  0.00     0.293 HD
ENDBRANCH  10  23
BRANCH  11  25
ATOM     25  O   UNL     1       2.941  -9.448  32.699  1.00  0.00    -0.508 OA
ATOM     26  H   UNL     1       3.312  -9.275  33.625  1.00  0.00     0.293 HD
ENDBRANCH  11  25
ENDBRANCH   1   2
BRANCH   1  27
ATOM     27  C   UNL     1      -4.757 -12.364  30.005  1.00  0.00     0.339 C 
ATOM     28  C   UNL     1      -5.185 -13.483  29.042  1.00  0.00     0.214 C 
ATOM     29  O   UNL     1      -5.859 -11.714  30.617  1.00  0.00    -0.332 OA
ATOM     30  C   UNL     1      -6.055 -14.523  29.760  1.00  0.00     0.180 C 
ATOM     31  C   UNL     1      -6.740 -12.579  31.325  1.00  0.00     0.179 C 
ATOM     32  C   UNL     1      -7.201 -13.826  30.514  1.00  0.00     0.177 C 
BRANCH  28  33
ATOM     33  O   UNL     1      -5.896 -12.915  27.971  1.00  0.00    -0.384 OA
ATOM     34  H   UNL     1      -6.577 -12.309  28.366  1.00  0.00     0.211 HD
ENDBRANCH  28  33
BRANCH  30  35
ATOM     35  O   UNL     1      -5.260 -15.290  30.625  1.00  0.00    -0.387 OA
ATOM     36  H   UNL     1      -5.300 -16.229  30.306  1.00  0.00     0.211 HD
ENDBRANCH  30  35
BRANCH  31  37
ATOM     37  C   UNL     1      -6.289 -12.826  32.785  1.00  0.00     0.191 C 
BRANCH  37  38
ATOM     38  O   UNL     1      -5.817 -14.129  32.993  1.00  0.00    -0.394 OA
ATOM     39  H   UNL     1      -4.907 -14.053  33.383  1.00  0.00     0.210 HD
ENDBRANCH  37  38
ENDBRANCH  31  37
BRANCH  32  40
ATOM     40  O   UNL     1      -7.871 -14.748  31.334  1.00  0.00    -0.387 OA
ATOM     41  H   UNL     1      -7.406 -15.619  31.227  1.00  0.00     0.211 HD
ENDBRANCH  32  40
ENDBRANCH   1  27
TORSDOF 12
ENDMDL
MODEL 7
REMARK VINA RESULT:    -6.564      2.671      5.120
REMARK INTER + INTRA:         -11.621
REMARK INTER:                  -9.801
REMARK INTRA:                  -1.821
REMARK UNBOUND:                -1.988
REMARK SMILES O=c1c(O[C@@H]2O[C@H](CO)[C@H](O)[C@H](O)[C@H]2O)c(-c2ccc(O)c(O)c2)oc2cc(O)cc(O)c12
REMARK SMILES IDX 4 1 3 2 16 3 25 4 2 5 26 6 1 7 33 8 27 9 31 10 28 11 30 12
REMARK SMILES IDX 17 13 18 14 19 15 20 16 24 17 22 18 21 19 23 21 32 23 29 25
REMARK SMILES IDX 5 27 14 28 6 29 12 30 7 31 10 32 15 33 13 35 8 37 9 38 11 40
REMARK H PARENT 21 20 23 22 32 24 29 26 15 34 13 36 9 39 11 41
REMARK Flexibility Score: inf
ROOT
ATOM      1  O   UNL     1      -0.614 -20.137  28.199  1.00  0.00    -0.454 OA
ENDROOT
BRANCH   1   2
ATOM      2  C   UNL     1      -0.694 -21.446  28.694  1.00  0.00     0.214 A 
ATOM      3  C   UNL     1      -0.152 -22.541  27.989  1.00  0.00     0.180 A 
ATOM      4  O   UNL     1      -0.324 -23.775  28.453  1.00  0.00    -0.452 OA
ATOM      5  C   UNL     1      -1.333 -21.679  29.916  1.00  0.00     0.239 A 
ATOM      6  C   UNL     1      -0.956 -24.045  29.590  1.00  0.00     0.146 A 
ATOM      7  O   UNL     1      -1.784 -20.700  30.572  1.00  0.00    -0.285 OA
ATOM      8  C   UNL     1      -1.481 -22.999  30.387  1.00  0.00     0.111 A 
ATOM      9  C   UNL     1      -1.088 -25.374  29.998  1.00  0.00     0.094 A 
ATOM     10  C   UNL     1      -2.134 -23.320  31.602  1.00  0.00     0.134 A 
ATOM     11  C   UNL     1      -1.735 -25.686  31.198  1.00  0.00     0.123 A 
ATOM     12  C   UNL     1      -2.253 -24.661  31.994  1.00  0.00     0.093 A 
BRANCH   3  13
ATOM     13  C   UNL     1       0.626 -22.369  26.742  1.00  0.00     0.025 A 
ATOM     14  C   UNL     1       2.017 -22.529  26.762  1.00  0.00     0.016 A 
ATOM     15  C   UNL     1       2.762 -22.371  25.593  1.00  0.00     0.051 A 
ATOM     16  C   UNL     1       2.135 -22.038  24.386  1.00  0.00     0.157 A 
ATOM     17  C   UNL     1      -0.004 -22.007  25.540  1.00  0.00     0.062 A 
ATOM     18  C   UNL     1       0.733 -21.850  24.360  1.00  0.00     0.158 A 
BRANCH  16  19
ATOM     19  O   UNL     1       2.936 -21.905  23.251  1.00  0.00    -0.504 OA
ATOM     20  H   UNL     1       3.477 -22.658  22.849  1.00  0.00     0.293 HD
ENDBRANCH  16  19
BRANCH  18  21
ATOM     21  O   UNL     1       0.039 -21.504  23.199  1.00  0.00    -0.504 OA
ATOM     22  H   UNL     1       0.311 -21.797  22.271  1.00  0.00     0.293 HD
ENDBRANCH  18  21
ENDBRANCH   3  13
BRANCH  10  23
ATOM     23  O   UNL     1      -2.664 -22.320  32.417  1.00  0.00    -0.507 OA
ATOM     24  H   UNL     1      -2.079 -21.608  32.838  1.00  0.00     0.293 HD
ENDBRANCH  10  23
BRANCH  11  25
ATOM     25  O   UNL     1      -1.869 -27.009  31.610  1.00  0.00    -0.508 OA
ATOM     26  H   UNL     1      -1.362 -27.759  31.155  1.00  0.00     0.293 HD
ENDBRANCH  11  25
ENDBRANCH   1   2
BRANCH   1  27
ATOM     27  C   UNL     1       0.569 -19.342  28.297  1.00  0.00     0.339 C 
ATOM     28  C   UNL     1       1.059 -18.895  26.910  1.00  0.00     0.214 C 
ATOM     29  O   UNL     1       0.379 -18.255  29.189  1.00  0.00    -0.332 OA
ATOM     30  C   UNL     1       0.088 -17.887  26.284  1.00  0.00     0.180 C 
ATOM     31  C   UNL     1      -0.514 -17.251  28.719  1.00  0.00     0.179 C 
ATOM     32  C   UNL     1      -0.210 -16.749  27.276  1.00  0.00     0.177 C 
BRANCH  28  33
ATOM     33  O   UNL     1       2.335 -18.321  27.040  1.00  0.00    -0.384 OA
ATOM     34  H   UNL     1       2.199 -17.374  27.309  1.00  0.00     0.211 HD
ENDBRANCH  28  33
BRANCH  30  35
ATOM     35  O   UNL     1      -1.086 -18.544  25.885  1.00  0.00    -0.387 OA
ATOM     36  H   UNL     1      -1.504 -17.992  25.173  1.00  0.00     0.211 HD
ENDBRANCH  30  35
BRANCH  31  37
ATOM     37  C   UNL     1      -1.993 -17.564  29.050  1.00  0.00     0.191 C 
BRANCH  37  38
ATOM     38  O   UNL     1      -2.642 -18.261  28.022  1.00  0.00    -0.394 OA
ATOM     39  H   UNL     1      -2.552 -17.717  27.196  1.00  0.00     0.210 HD
ENDBRANCH  37  38
ENDBRANCH  31  37
BRANCH  32  40
ATOM     40  O   UNL     1      -1.249 -15.941  26.789  1.00  0.00    -0.387 OA
ATOM     41  H   UNL     1      -1.499 -16.301  25.897  1.00  0.00     0.211 HD
ENDBRANCH  32  40
ENDBRANCH   1  27
TORSDOF 12
ENDMDL
MODEL 8
REMARK VINA RESULT:    -6.555      0.837      2.110
REMARK INTER + INTRA:         -11.608
REMARK INTER:                  -9.979
REMARK INTRA:                  -1.629
REMARK UNBOUND:                -1.988
REMARK SMILES O=c1c(O[C@@H]2O[C@H](CO)[C@H](O)[C@H](O)[C@H]2O)c(-c2ccc(O)c(O)c2)oc2cc(O)cc(O)c12
REMARK SMILES IDX 4 1 3 2 16 3 25 4 2 5 26 6 1 7 33 8 27 9 31 10 28 11 30 12
REMARK SMILES IDX 17 13 18 14 19 15 20 16 24 17 22 18 21 19 23 21 32 23 29 25
REMARK SMILES IDX 5 27 14 28 6 29 12 30 7 31 10 32 15 33 13 35 8 37 9 38 11 40
REMARK H PARENT 21 20 23 22 32 24 29 26 15 34 13 36 9 39 11 41
REMARK Flexibility Score: inf
ROOT
ATOM      1  O   UNL     1       0.827 -21.243  26.441  1.00  0.00    -0.454 OA
ENDROOT
BRANCH   1   2
ATOM      2  C   UNL     1       1.178 -22.247  27.354  1.00  0.00     0.214 A 
ATOM      3  C   UNL     1       1.123 -22.035  28.748  1.00  0.00     0.180 A 
ATOM      4  O   UNL     1       1.545 -22.985  29.577  1.00  0.00    -0.452 OA
ATOM      5  C   UNL     1       1.603 -23.491  26.876  1.00  0.00     0.239 A 
ATOM      6  C   UNL     1       1.990 -24.167  29.164  1.00  0.00     0.146 A 
ATOM      7  O   UNL     1       1.617 -23.700  25.632  1.00  0.00    -0.285 OA
ATOM      8  C   UNL     1       2.027 -24.481  27.785  1.00  0.00     0.111 A 
ATOM      9  C   UNL     1       2.414 -25.103  30.111  1.00  0.00     0.094 A 
ATOM     10  C   UNL     1       2.491 -25.756  27.380  1.00  0.00     0.134 A 
ATOM     11  C   UNL     1       2.873 -26.361  29.706  1.00  0.00     0.123 A 
ATOM     12  C   UNL     1       2.909 -26.683  28.346  1.00  0.00     0.093 A 
BRANCH   3  13
ATOM     13  C   UNL     1       0.590 -20.786  29.335  1.00  0.00     0.025 A 
ATOM     14  C   UNL     1       1.474 -19.811  29.812  1.00  0.00     0.016 A 
ATOM     15  C   UNL     1       0.985 -18.627  30.367  1.00  0.00     0.051 A 
ATOM     16  C   UNL     1      -0.393 -18.400  30.466  1.00  0.00     0.157 A 
ATOM     17  C   UNL     1      -0.793 -20.575  29.458  1.00  0.00     0.062 A 
ATOM     18  C   UNL     1      -1.294 -19.390  30.009  1.00  0.00     0.158 A 
BRANCH  16  19
ATOM     19  O   UNL     1      -0.816 -17.191  31.020  1.00  0.00    -0.504 OA
ATOM     20  H   UNL     1      -0.403 -16.770  31.840  1.00  0.00     0.293 HD
ENDBRANCH  16  19
BRANCH  18  21
ATOM     21  O   UNL     1      -2.680 -19.242  30.086  1.00  0.00    -0.504 OA
ATOM     22  H   UNL     1      -3.313 -19.979  30.362  1.00  0.00     0.293 HD
ENDBRANCH  18  21
ENDBRANCH   3  13
BRANCH  10  23
ATOM     23  O   UNL     1       2.541 -26.107  26.031  1.00  0.00    -0.507 OA
ATOM     24  H   UNL     1       1.877 -25.741  25.359  1.00  0.00     0.293 HD
ENDBRANCH  10  23
BRANCH  11  25
ATOM     25  O   UNL     1       3.295 -27.299  30.645  1.00  0.00    -0.508 OA
ATOM     26  H   UNL     1       2.857 -27.372  31.555  1.00  0.00     0.293 HD
ENDBRANCH  11  25
ENDBRANCH   1   2
BRANCH   1  27
ATOM     27  C   UNL     1      -0.459 -21.173  25.822  1.00  0.00     0.339 C 
ATOM     28  C   UNL     1      -1.303 -20.033  26.414  1.00  0.00     0.214 C 
ATOM     29  O   UNL     1      -0.342 -21.094  24.411  1.00  0.00    -0.332 OA
ATOM     30  C   UNL     1      -0.725 -18.665  26.027  1.00  0.00     0.180 C 
ATOM     31  C   UNL     1       0.194 -19.867  23.928  1.00  0.00     0.179 C 
ATOM     32  C   UNL     1      -0.496 -18.597  24.508  1.00  0.00     0.177 C 
BRANCH  28  33
ATOM     33  O   UNL     1      -2.622 -20.150  25.945  1.00  0.00    -0.384 OA
ATOM     34  H   UNL     1      -3.220 -19.950  26.713  1.00  0.00     0.211 HD
ENDBRANCH  28  33
BRANCH  30  35
ATOM     35  O   UNL     1       0.462 -18.433  26.739  1.00  0.00    -0.387 OA
ATOM     36  H   UNL     1       0.523 -17.456  26.898  1.00  0.00     0.211 HD
ENDBRANCH  30  35
BRANCH  31  37
ATOM     37  C   UNL     1       1.741 -19.864  23.890  1.00  0.00     0.191 C 
BRANCH  37  38
ATOM     38  O   UNL     1       2.304 -18.998  24.837  1.00  0.00    -0.394 OA
ATOM     39  H   UNL     1       1.572 -18.706  25.440  1.00  0.00     0.210 HD
ENDBRANCH  37  38
ENDBRANCH  31  37
BRANCH  32  40
ATOM     40  O   UNL     1       0.219 -17.434  24.178  1.00  0.00    -0.387 OA
ATOM     41  H   UNL     1       0.097 -17.288  23.204  1.00  0.00     0.211 HD
ENDBRANCH  32  40
ENDBRANCH   1  27
TORSDOF 12
ENDMDL
MODEL 9
REMARK VINA RESULT:    -6.405      2.733      6.875
REMARK INTER + INTRA:         -11.389
REMARK INTER:                  -9.560
REMARK INTRA:                  -1.828
REMARK UNBOUND:                -1.988
REMARK SMILES O=c1c(O[C@@H]2O[C@H](CO)[C@H](O)[C@H](O)[C@H]2O)c(-c2ccc(O)c(O)c2)oc2cc(O)cc(O)c12
REMARK SMILES IDX 4 1 3 2 16 3 25 4 2 5 26 6 1 7 33 8 27 9 31 10 28 11 30 12
REMARK SMILES IDX 17 13 18 14 19 15 20 16 24 17 22 18 21 19 23 21 32 23 29 25
REMARK SMILES IDX 5 27 14 28 6 29 12 30 7 31 10 32 15 33 13 35 8 37 9 38 11 40
REMARK H PARENT 21 20 23 22 32 24 29 26 15 34 13 36 9 39 11 41
REMARK Flexibility Score: inf
ROOT
ATOM      1  O   UNL     1       0.281 -20.995  29.633  1.00  0.00    -0.454 OA
ENDROOT
BRANCH   1   2
ATOM      2  C   UNL     1       0.245 -20.049  28.599  1.00  0.00     0.214 A 
ATOM      3  C   UNL     1       0.714 -18.731  28.782  1.00  0.00     0.180 A 
ATOM      4  O   UNL     1       0.583 -17.842  27.802  1.00  0.00    -0.452 OA
ATOM      5  C   UNL     1      -0.274 -20.414  27.353  1.00  0.00     0.239 A 
ATOM      6  C   UNL     1       0.064 -18.137  26.615  1.00  0.00     0.146 A 
ATOM      7  O   UNL     1      -0.656 -21.602  27.170  1.00  0.00    -0.285 OA
ATOM      8  C   UNL     1      -0.379 -19.451  26.330  1.00  0.00     0.111 A 
ATOM      9  C   UNL     1      -0.032 -17.136  25.645  1.00  0.00     0.094 A 
ATOM     10  C   UNL     1      -0.913 -19.736  25.050  1.00  0.00     0.134 A 
ATOM     11  C   UNL     1      -0.561 -17.422  24.382  1.00  0.00     0.123 A 
ATOM     12  C   UNL     1      -0.997 -18.717  24.089  1.00  0.00     0.093 A 
BRANCH   3  13
ATOM     13  C   UNL     1       1.367 -18.293  30.035  1.00  0.00     0.025 A 
ATOM     14  C   UNL     1       2.667 -18.725  30.328  1.00  0.00     0.016 A 
ATOM     15  C   UNL     1       3.296 -18.318  31.506  1.00  0.00     0.051 A 
ATOM     16  C   UNL     1       2.636 -17.485  32.418  1.00  0.00     0.157 A 
ATOM     17  C   UNL     1       0.691 -17.481  30.960  1.00  0.00     0.062 A 
ATOM     18  C   UNL     1       1.314 -17.064  32.142  1.00  0.00     0.158 A 
BRANCH  16  19
ATOM     19  O   UNL     1       3.325 -17.106  33.571  1.00  0.00    -0.504 OA
ATOM     20  H   UNL     1       4.329 -17.150  33.669  1.00  0.00     0.293 HD
ENDBRANCH  16  19
BRANCH  18  21
ATOM     21  O   UNL     1       0.587 -16.244  33.008  1.00  0.00    -0.504 OA
ATOM     22  H   UNL     1      -0.371 -16.414  33.275  1.00  0.00     0.293 HD
ENDBRANCH  18  21
ENDBRANCH   3  13
BRANCH  10  23
ATOM     23  O   UNL     1      -1.359 -21.017  24.727  1.00  0.00    -0.507 OA
ATOM     24  H   UNL     1      -2.328 -21.202  24.496  1.00  0.00     0.293 HD
ENDBRANCH  10  23
BRANCH  11  25
ATOM     25  O   UNL     1      -0.658 -16.428  23.412  1.00  0.00    -0.508 OA
ATOM     26  H   UNL     1      -1.253 -15.618  23.540  1.00  0.00     0.293 HD
ENDBRANCH  11  25
ENDBRANCH   1   2
BRANCH   1  27
ATOM     27  C   UNL     1      -0.435 -20.830  30.859  1.00  0.00     0.339 C 
ATOM     28  C   UNL     1      -1.901 -21.267  30.714  1.00  0.00     0.214 C 
ATOM     29  O   UNL     1       0.230 -21.484  31.928  1.00  0.00    -0.332 OA
ATOM     30  C   UNL     1      -2.005 -22.786  30.524  1.00  0.00     0.180 C 
ATOM     31  C   UNL     1       0.209 -22.905  31.859  1.00  0.00     0.179 C 
ATOM     32  C   UNL     1      -1.205 -23.513  31.619  1.00  0.00     0.177 C 
BRANCH  28  33
ATOM     33  O   UNL     1      -2.610 -20.874  31.861  1.00  0.00    -0.384 OA
ATOM     34  H   UNL     1      -2.676 -21.673  32.448  1.00  0.00     0.211 HD
ENDBRANCH  28  33
BRANCH  30  35
ATOM     35  O   UNL     1      -1.558 -23.135  29.241  1.00  0.00    -0.387 OA
ATOM     36  H   UNL     1      -0.868 -23.840  29.352  1.00  0.00     0.211 HD
ENDBRANCH  30  35
BRANCH  31  37
ATOM     37  C   UNL     1       1.367 -23.479  31.008  1.00  0.00     0.191 C 
BRANCH  37  38
ATOM     38  O   UNL     1       0.956 -23.867  29.725  1.00  0.00    -0.394 OA
ATOM     39  H   UNL     1       1.197 -23.131  29.105  1.00  0.00     0.210 HD
ENDBRANCH  37  38
ENDBRANCH  31  37
BRANCH  32  40
ATOM     40  O   UNL     1      -1.127 -24.885  31.331  1.00  0.00    -0.387 OA
ATOM     41  H   UNL     1      -0.162 -25.120  31.309  1.00  0.00     0.211 HD
ENDBRANCH  32  40
ENDBRANCH   1  27
TORSDOF 12
ENDMDL
