MODEL 1
REMARK VINA RESULT:    -4.414      0.000      0.000
REMARK INTER + INTRA:          -4.856
REMARK INTER:                  -4.672
REMARK INTRA:                  -0.184
REMARK UNBOUND:                -0.184
REMARK SMILES C=C1CC[C@]2(C(C)C)C[C@H]12
REMARK SMILES IDX 5 1 4 2 3 3 2 4 1 5 10 6 9 7 6 8 7 9 8 10
REMARK H PARENT
REMARK Flexibility Score: inf
ROOT
ATOM      1  C   UNL     1       4.919  -2.686  18.140  1.00  0.00    -0.020 C 
ATOM      2  C   UNL     1       4.629  -2.284  16.683  1.00  0.00     0.012 C 
ATOM      3  C   UNL     1       5.964  -2.286  15.937  1.00  0.00     0.031 C 
ATOM      4  C   UNL     1       6.987  -2.593  16.978  1.00  0.00    -0.074 C 
ATOM      5  C   UNL     1       8.299  -2.628  16.727  1.00  0.00     0.008 C 
ATOM      6  C   UNL     1       6.418  -2.848  18.327  1.00  0.00     0.021 C 
ATOM      7  C   UNL     1       5.694  -1.677  18.982  1.00  0.00     0.016 C 
ENDROOT
BRANCH   1   8
ATOM      8  C   UNL     1       4.016  -3.686  18.903  1.00  0.00    -0.011 C 
ATOM      9  C   UNL     1       2.832  -4.108  18.027  1.00  0.00     0.008 C 
ATOM     10  C   UNL     1       4.806  -4.914  19.377  1.00  0.00     0.008 C 
ENDBRANCH   1   8
TORSDOF 1
ENDMDL
MODEL 2
REMARK VINA RESULT:    -4.317      8.064      9.881
REMARK INTER + INTRA:          -4.753
REMARK INTER:                  -4.588
REMARK INTRA:                  -0.165
REMARK UNBOUND:                -0.184
REMARK SMILES C=C1CC[C@]2(C(C)C)C[C@H]12
REMARK SMILES IDX 5 1 4 2 3 3 2 4 1 5 10 6 9 7 6 8 7 9 8 10
REMARK H PARENT
REMARK Flexibility Score: inf
ROOT
ATOM      1  C   UNL     1      -0.494  -5.254  11.716  1.00  0.00    -0.020 C 
ATOM      2  C   UNL     1      -0.111  -4.603  10.374  1.00  0.00     0.012 C 
ATOM      3  C   UNL     1      -0.785  -5.415   9.268  1.00  0.00     0.031 C 
ATOM      4  C   UNL     1      -1.454  -6.548   9.972  1.00  0.00    -0.074 C 
ATOM      5  C   UNL     1      -2.110  -7.521   9.334  1.00  0.00     0.008 C 
ATOM      6  C   UNL     1      -1.317  -6.504  11.451  1.00  0.00     0.021 C 
ATOM      7  C   UNL     1       0.101  -6.630  11.998  1.00  0.00     0.016 C 
ENDROOT
BRANCH   1   8
ATOM      8  C   UNL     1      -0.904  -4.405  12.944  1.00  0.00    -0.011 C 
ATOM      9  C   UNL     1       0.276  -3.549  13.416  1.00  0.00     0.008 C 
ATOM     10  C   UNL     1      -2.125  -3.525  12.641  1.00  0.00     0.008 C 
ENDBRANCH   1   8
TORSDOF 1
ENDMDL
MODEL 3
REMARK VINA RESULT:    -4.285      7.649      9.678
REMARK INTER + INTRA:          -4.719
REMARK INTER:                  -4.420
REMARK INTRA:                  -0.300
REMARK UNBOUND:                -0.184
REMARK SMILES C=C1CC[C@]2(C(C)C)C[C@H]12
REMARK SMILES IDX 5 1 4 2 3 3 2 4 1 5 10 6 9 7 6 8 7 9 8 10
REMARK H PARENT
REMARK Flexibility Score: inf
ROOT
ATOM      1  C   UNL     1      -0.616  -4.700  12.046  1.00  0.00    -0.020 C 
ATOM      2  C   UNL     1      -0.137  -6.077  12.543  1.00  0.00     0.012 C 
ATOM      3  C   UNL     1      -0.636  -7.119  11.542  1.00  0.00     0.031 C 
ATOM      4  C   UNL     1      -1.452  -6.351  10.558  1.00  0.00    -0.074 C 
ATOM      5  C   UNL     1      -2.112  -6.924   9.548  1.00  0.00     0.008 C 
ATOM      6  C   UNL     1      -1.475  -4.885  10.806  1.00  0.00     0.021 C 
ATOM      7  C   UNL     1      -2.117  -4.437  12.115  1.00  0.00     0.016 C 
ENDROOT
BRANCH   1   8
ATOM      8  C   UNL     1       0.313  -3.462  12.063  1.00  0.00    -0.011 C 
ATOM      9  C   UNL     1       1.415  -3.639  13.113  1.00  0.00     0.008 C 
ATOM     10  C   UNL     1       0.921  -3.190  10.680  1.00  0.00     0.008 C 
ENDBRANCH   1   8
TORSDOF 1
ENDMDL
MODEL 4
REMARK VINA RESULT:    -4.272      1.378      3.957
REMARK INTER + INTRA:          -4.705
REMARK INTER:                  -4.397
REMARK INTRA:                  -0.308
REMARK UNBOUND:                -0.184
REMARK SMILES C=C1CC[C@]2(C(C)C)C[C@H]12
REMARK SMILES IDX 5 1 4 2 3 3 2 4 1 5 10 6 9 7 6 8 7 9 8 10
REMARK H PARENT
REMARK Flexibility Score: inf
ROOT
ATOM      1  C   UNL     1       4.470  -3.125  18.242  1.00  0.00    -0.020 C 
ATOM      2  C   UNL     1       3.980  -2.531  16.908  1.00  0.00     0.012 C 
ATOM      3  C   UNL     1       2.515  -2.137  17.099  1.00  0.00     0.031 C 
ATOM      4  C   UNL     1       2.170  -2.585  18.478  1.00  0.00    -0.074 C 
ATOM      5  C   UNL     1       0.947  -2.468  19.002  1.00  0.00     0.008 C 
ATOM      6  C   UNL     1       3.309  -3.186  19.221  1.00  0.00     0.021 C 
ATOM      7  C   UNL     1       3.882  -4.475  18.642  1.00  0.00     0.016 C 
ENDROOT
BRANCH   1   8
ATOM      8  C   UNL     1       5.854  -2.762  18.833  1.00  0.00    -0.011 C 
ATOM      9  C   UNL     1       6.891  -2.623  17.714  1.00  0.00     0.008 C 
ATOM     10  C   UNL     1       5.791  -1.480  19.676  1.00  0.00     0.008 C 
ENDBRANCH   1   8
TORSDOF 1
ENDMDL
MODEL 5
REMARK VINA RESULT:    -4.267      1.492      3.165
REMARK INTER + INTRA:          -4.700
REMARK INTER:                  -4.448
REMARK INTRA:                  -0.252
REMARK UNBOUND:                -0.184
REMARK SMILES C=C1CC[C@]2(C(C)C)C[C@H]12
REMARK SMILES IDX 5 1 4 2 3 3 2 4 1 5 10 6 9 7 6 8 7 9 8 10
REMARK H PARENT
REMARK Flexibility Score: inf
ROOT
ATOM      1  C   UNL     1       5.215  -3.209  18.795  1.00  0.00    -0.020 C 
ATOM      2  C   UNL     1       5.265  -3.952  20.143  1.00  0.00     0.012 C 
ATOM      3  C   UNL     1       5.865  -2.991  21.169  1.00  0.00     0.031 C 
ATOM      4  C   UNL     1       6.226  -1.770  20.391  1.00  0.00    -0.074 C 
ATOM      5  C   UNL     1       6.836  -0.711  20.931  1.00  0.00     0.008 C 
ATOM      6  C   UNL     1       5.855  -1.840  18.953  1.00  0.00     0.021 C 
ATOM      7  C   UNL     1       6.557  -2.915  18.131  1.00  0.00     0.016 C 
ENDROOT
BRANCH   1   8
ATOM      8  C   UNL     1       3.978  -3.290  17.868  1.00  0.00    -0.011 C 
ATOM      9  C   UNL     1       3.041  -4.411  18.328  1.00  0.00     0.008 C 
ATOM     10  C   UNL     1       3.230  -1.950  17.803  1.00  0.00     0.008 C 
ENDBRANCH   1   8
TORSDOF 1
ENDMDL
MODEL 6
REMARK VINA RESULT:    -4.092      2.873      4.837
REMARK INTER + INTRA:          -4.515
REMARK INTER:                  -4.208
REMARK INTRA:                  -0.307
REMARK UNBOUND:                -0.184
REMARK SMILES C=C1CC[C@]2(C(C)C)C[C@H]12
REMARK SMILES IDX 5 1 4 2 3 3 2 4 1 5 10 6 9 7 6 8 7 9 8 10
REMARK H PARENT
REMARK Flexibility Score: inf
ROOT
ATOM      1  C   UNL     1       3.192  -1.555  14.740  1.00  0.00    -0.020 C 
ATOM      2  C   UNL     1       4.653  -1.901  15.083  1.00  0.00     0.012 C 
ATOM      3  C   UNL     1       4.673  -2.399  16.529  1.00  0.00     0.031 C 
ATOM      4  C   UNL     1       3.270  -2.247  17.010  1.00  0.00    -0.074 C 
ATOM      5  C   UNL     1       2.889  -2.526  18.260  1.00  0.00     0.008 C 
ATOM      6  C   UNL     1       2.328  -1.745  15.975  1.00  0.00     0.021 C 
ATOM      7  C   UNL     1       2.598  -0.340  15.447  1.00  0.00     0.016 C 
ENDROOT
BRANCH   1   8
ATOM      8  C   UNL     1       2.559  -1.955  13.386  1.00  0.00    -0.011 C 
ATOM      9  C   UNL     1       3.579  -1.797  12.254  1.00  0.00     0.008 C 
ATOM     10  C   UNL     1       2.005  -3.387  13.420  1.00  0.00     0.008 C 
ENDBRANCH   1   8
TORSDOF 1
ENDMDL
MODEL 7
REMARK VINA RESULT:    -4.090      3.025      4.896
REMARK INTER + INTRA:          -4.513
REMARK INTER:                  -4.208
REMARK INTRA:                  -0.305
REMARK UNBOUND:                -0.184
REMARK SMILES C=C1CC[C@]2(C(C)C)C[C@H]12
REMARK SMILES IDX 5 1 4 2 3 3 2 4 1 5 10 6 9 7 6 8 7 9 8 10
REMARK H PARENT
REMARK Flexibility Score: inf
ROOT
ATOM      1  C   UNL     1       1.423  -1.894  16.275  1.00  0.00    -0.020 C 
ATOM      2  C   UNL     1       2.861  -1.342  16.283  1.00  0.00     0.012 C 
ATOM      3  C   UNL     1       3.726  -2.342  17.052  1.00  0.00     0.031 C 
ATOM      4  C   UNL     1       2.775  -3.381  17.540  1.00  0.00    -0.074 C 
ATOM      5  C   UNL     1       3.144  -4.408  18.310  1.00  0.00     0.008 C 
ATOM      6  C   UNL     1       1.370  -3.168  17.102  1.00  0.00     0.021 C 
ATOM      7  C   UNL     1       0.692  -1.903  17.614  1.00  0.00     0.016 C 
ENDROOT
BRANCH   1   8
ATOM      8  C   UNL     1       0.547  -1.861  15.000  1.00  0.00    -0.011 C 
ATOM      9  C   UNL     1       1.003  -0.732  14.070  1.00  0.00     0.008 C 
ATOM     10  C   UNL     1       0.565  -3.209  14.265  1.00  0.00     0.008 C 
ENDBRANCH   1   8
TORSDOF 1
ENDMDL
MODEL 8
REMARK VINA RESULT:    -4.086      3.363      4.517
REMARK INTER + INTRA:          -4.508
REMARK INTER:                  -4.225
REMARK INTRA:                  -0.283
REMARK UNBOUND:                -0.184
REMARK SMILES C=C1CC[C@]2(C(C)C)C[C@H]12
REMARK SMILES IDX 5 1 4 2 3 3 2 4 1 5 10 6 9 7 6 8 7 9 8 10
REMARK H PARENT
REMARK Flexibility Score: inf
ROOT
ATOM      1  C   UNL     1       1.647  -2.088  17.132  1.00  0.00    -0.020 C 
ATOM      2  C   UNL     1       0.577  -1.270  16.385  1.00  0.00     0.012 C 
ATOM      3  C   UNL     1       0.662  -1.654  14.908  1.00  0.00     0.031 C 
ATOM      4  C   UNL     1       1.814  -2.597  14.819  1.00  0.00    -0.074 C 
ATOM      5  C   UNL     1       2.248  -3.117  13.668  1.00  0.00     0.008 C 
ATOM      6  C   UNL     1       2.448  -2.901  16.129  1.00  0.00     0.021 C 
ATOM      7  C   UNL     1       3.101  -1.726  16.847  1.00  0.00     0.016 C 
ENDROOT
BRANCH   1   8
ATOM      8  C   UNL     1       1.349  -2.768  18.491  1.00  0.00    -0.011 C 
ATOM      9  C   UNL     1       0.114  -2.136  19.141  1.00  0.00     0.008 C 
ATOM     10  C   UNL     1       1.165  -4.284  18.337  1.00  0.00     0.008 C 
ENDBRANCH   1   8
TORSDOF 1
ENDMDL
MODEL 9
REMARK VINA RESULT:    -4.065      2.762      4.122
REMARK INTER + INTRA:          -4.486
REMARK INTER:                  -4.175
REMARK INTRA:                  -0.311
REMARK UNBOUND:                -0.184
REMARK SMILES C=C1CC[C@]2(C(C)C)C[C@H]12
REMARK SMILES IDX 5 1 4 2 3 3 2 4 1 5 10 6 9 7 6 8 7 9 8 10
REMARK H PARENT
REMARK Flexibility Score: inf
ROOT
ATOM      1  C   UNL     1       2.727  -1.777  15.996  1.00  0.00    -0.020 C 
ATOM      2  C   UNL     1       1.883  -2.930  15.423  1.00  0.00     0.012 C 
ATOM      3  C   UNL     1       2.250  -3.069  13.945  1.00  0.00     0.031 C 
ATOM      4  C   UNL     1       3.209  -1.959  13.678  1.00  0.00    -0.074 C 
ATOM      5  C   UNL     1       3.721  -1.707  12.470  1.00  0.00     0.008 C 
ATOM      6  C   UNL     1       3.539  -1.145  14.878  1.00  0.00     0.021 C 
ATOM      7  C   UNL     1       2.383  -0.374  15.504  1.00  0.00     0.016 C 
ENDROOT
BRANCH   1   8
ATOM      8  C   UNL     1       3.418  -1.884  17.377  1.00  0.00    -0.011 C 
ATOM      9  C   UNL     1       2.544  -2.682  18.349  1.00  0.00     0.008 C 
ATOM     10  C   UNL     1       4.815  -2.512  17.263  1.00  0.00     0.008 C 
ENDBRANCH   1   8
TORSDOF 1
ENDMDL
