MODEL 1
REMARK VINA RESULT:    -6.623      0.000      0.000
REMARK INTER + INTRA:         -11.220
REMARK INTER:                 -10.301
REMARK INTRA:                  -0.919
REMARK UNBOUND:                -0.919
REMARK SMILES COc1cc(CNC(=O)CCCCC=CC(C)C)ccc1O
REMARK SMILES IDX 11 1 12 2 13 3 14 4 15 5 16 6 17 7 18 8 10 9 8 10 9 11 7 12
REMARK SMILES IDX 6 14 5 15 4 16 19 17 3 18 20 19 21 20 2 21 1 22 22 23
REMARK H PARENT 7 13 22 24
REMARK Flexibility Score: inf
ROOT
ATOM      1  C   UNL     1      -6.528 -24.189 -18.236  1.00  0.00     0.010 C 
ENDROOT
BRANCH   1   2
ATOM      2  C   UNL     1      -7.795 -23.440 -18.684  1.00  0.00     0.005 C 
BRANCH   2   3
ATOM      3  C   UNL     1      -7.482 -22.015 -19.169  1.00  0.00     0.027 C 
BRANCH   3   4
ATOM      4  C   UNL     1      -7.846 -21.811 -20.616  1.00  0.00    -0.031 C 
ATOM      5  C   UNL     1      -7.218 -22.473 -21.599  1.00  0.00    -0.028 C 
BRANCH   5   6
ATOM      6  C   UNL     1      -7.597 -22.274 -23.049  1.00  0.00     0.005 C 
ATOM      7  C   UNL     1      -7.287 -20.840 -23.491  1.00  0.00     0.012 C 
ATOM      8  C   UNL     1      -9.082 -22.590 -23.266  1.00  0.00     0.012 C 
ENDBRANCH   5   6
ENDBRANCH   3   4
ENDBRANCH   2   3
ENDBRANCH   1   2
BRANCH   1   9
ATOM      9  C   UNL     1      -6.406 -25.569 -18.894  1.00  0.00     0.100 C 
BRANCH   9  10
ATOM     10  C   UNL     1      -5.319 -25.597 -19.930  1.00  0.00     0.220 C 
ATOM     11  O   UNL     1      -4.763 -24.518 -20.270  1.00  0.00    -0.275 OA
ATOM     12  N   UNL     1      -4.942 -26.835 -20.548  1.00  0.00    -0.352 N 
ATOM     13  H   UNL     1      -5.450 -27.710 -20.287  1.00  0.00     0.163 HD
BRANCH  12  14
ATOM     14  C   UNL     1      -3.887 -26.919 -21.555  1.00  0.00     0.151 C 
BRANCH  14  15
ATOM     15  C   UNL     1      -4.189 -28.018 -22.539  1.00  0.00    -0.025 A 
ATOM     16  C   UNL     1      -5.470 -28.590 -22.579  1.00  0.00     0.056 A 
ATOM     17  C   UNL     1      -3.192 -28.498 -23.401  1.00  0.00     0.009 A 
ATOM     18  C   UNL     1      -5.762 -29.634 -23.480  1.00  0.00     0.160 A 
ATOM     19  C   UNL     1      -3.474 -29.530 -24.296  1.00  0.00     0.050 A 
ATOM     20  C   UNL     1      -4.752 -30.101 -24.340  1.00  0.00     0.157 A 
BRANCH  18  21
ATOM     21  O   UNL     1      -7.033 -30.227 -23.543  1.00  0.00    -0.493 OA
ATOM     22  C   UNL     1      -8.262 -29.507 -23.549  1.00  0.00     0.278 C 
ENDBRANCH  18  21
BRANCH  20  23
ATOM     23  O   UNL     1      -4.995 -31.132 -25.247  1.00  0.00    -0.504 OA
ATOM     24  H   UNL     1      -5.903 -31.576 -25.330  1.00  0.00     0.293 HD
ENDBRANCH  20  23
ENDBRANCH  14  15
ENDBRANCH  12  14
ENDBRANCH   9  10
ENDBRANCH   1   9
TORSDOF 10
ENDMDL
MODEL 2
REMARK VINA RESULT:    -6.314      3.799      7.646
REMARK INTER + INTRA:         -10.740
REMARK INTER:                  -9.914
REMARK INTRA:                  -0.826
REMARK UNBOUND:                -0.919
REMARK SMILES COc1cc(CNC(=O)CCCCC=CC(C)C)ccc1O
REMARK SMILES IDX 11 1 12 2 13 3 14 4 15 5 16 6 17 7 18 8 10 9 8 10 9 11 7 12
REMARK SMILES IDX 6 14 5 15 4 16 19 17 3 18 20 19 21 20 2 21 1 22 22 23
REMARK H PARENT 7 13 22 24
REMARK Flexibility Score: inf
ROOT
ATOM      1  C   UNL     1      -2.461 -28.487 -23.851  1.00  0.00     0.010 C 
ENDROOT
BRANCH   1   2
ATOM      2  C   UNL     1      -3.096 -29.868 -24.088  1.00  0.00     0.005 C 
BRANCH   2   3
ATOM      3  C   UNL     1      -4.222 -29.814 -25.133  1.00  0.00     0.027 C 
BRANCH   3   4
ATOM      4  C   UNL     1      -5.550 -30.239 -24.564  1.00  0.00    -0.031 C 
ATOM      5  C   UNL     1      -6.113 -29.592 -23.531  1.00  0.00    -0.028 C 
BRANCH   5   6
ATOM      6  C   UNL     1      -7.452 -30.016 -22.974  1.00  0.00     0.005 C 
ATOM      7  C   UNL     1      -7.577 -31.543 -22.982  1.00  0.00     0.012 C 
ATOM      8  C   UNL     1      -8.595 -29.383 -23.777  1.00  0.00     0.012 C 
ENDBRANCH   5   6
ENDBRANCH   3   4
ENDBRANCH   2   3
ENDBRANCH   1   2
BRANCH   1   9
ATOM      9  C   UNL     1      -3.165 -27.707 -22.734  1.00  0.00     0.100 C 
BRANCH   9  10
ATOM     10  C   UNL     1      -2.687 -26.286 -22.662  1.00  0.00     0.220 C 
ATOM     11  O   UNL     1      -2.976 -25.587 -21.653  1.00  0.00    -0.275 OA
ATOM     12  N   UNL     1      -1.935 -25.719 -23.745  1.00  0.00    -0.352 N 
ATOM     13  H   UNL     1      -1.749 -26.301 -24.593  1.00  0.00     0.163 HD
BRANCH  12  14
ATOM     14  C   UNL     1      -1.439 -24.346 -23.722  1.00  0.00     0.151 C 
BRANCH  14  15
ATOM     15  C   UNL     1      -2.165 -23.511 -24.743  1.00  0.00    -0.025 A 
ATOM     16  C   UNL     1      -3.215 -22.671 -24.344  1.00  0.00     0.056 A 
ATOM     17  C   UNL     1      -1.819 -23.585 -26.100  1.00  0.00     0.009 A 
ATOM     18  C   UNL     1      -3.919 -21.900 -25.292  1.00  0.00     0.160 A 
ATOM     19  C   UNL     1      -2.509 -22.823 -27.044  1.00  0.00     0.050 A 
ATOM     20  C   UNL     1      -3.555 -21.982 -26.648  1.00  0.00     0.157 A 
BRANCH  18  21
ATOM     21  O   UNL     1      -4.975 -21.051 -24.923  1.00  0.00    -0.493 OA
ATOM     22  C   UNL     1      -6.181 -21.486 -24.303  1.00  0.00     0.278 C 
ENDBRANCH  18  21
BRANCH  20  23
ATOM     23  O   UNL     1      -4.224 -21.238 -27.621  1.00  0.00    -0.504 OA
ATOM     24  H   UNL     1      -4.607 -20.320 -27.429  1.00  0.00     0.293 HD
ENDBRANCH  20  23
ENDBRANCH  14  15
ENDBRANCH  12  14
ENDBRANCH   9  10
ENDBRANCH   1   9
TORSDOF 10
ENDMDL
MODEL 3
REMARK VINA RESULT:    -6.200      2.863      7.547
REMARK INTER + INTRA:         -10.563
REMARK INTER:                  -9.583
REMARK INTRA:                  -0.980
REMARK UNBOUND:                -0.919
REMARK SMILES COc1cc(CNC(=O)CCCCC=CC(C)C)ccc1O
REMARK SMILES IDX 11 1 12 2 13 3 14 4 15 5 16 6 17 7 18 8 10 9 8 10 9 11 7 12
REMARK SMILES IDX 6 14 5 15 4 16 19 17 3 18 20 19 21 20 2 21 1 22 22 23
REMARK H PARENT 7 13 22 24
REMARK Flexibility Score: inf
ROOT
ATOM      1  C   UNL     1      -1.919 -25.715 -22.223  1.00  0.00     0.010 C 
ENDROOT
BRANCH   1   2
ATOM      2  C   UNL     1      -2.934 -26.771 -22.694  1.00  0.00     0.005 C 
BRANCH   2   3
ATOM      3  C   UNL     1      -2.252 -27.947 -23.411  1.00  0.00     0.027 C 
BRANCH   3   4
ATOM      4  C   UNL     1      -3.246 -28.874 -24.060  1.00  0.00    -0.031 C 
ATOM      5  C   UNL     1      -4.240 -29.442 -23.359  1.00  0.00    -0.028 C 
BRANCH   5   6
ATOM      6  C   UNL     1      -5.242 -30.361 -24.019  1.00  0.00     0.005 C 
ATOM      7  C   UNL     1      -4.911 -30.535 -25.505  1.00  0.00     0.012 C 
ATOM      8  C   UNL     1      -6.666 -29.817 -23.849  1.00  0.00     0.012 C 
ENDBRANCH   5   6
ENDBRANCH   3   4
ENDBRANCH   2   3
ENDBRANCH   1   2
BRANCH   1   9
ATOM      9  C   UNL     1      -1.210 -25.025 -23.395  1.00  0.00     0.100 C 
BRANCH   9  10
ATOM     10  C   UNL     1      -2.155 -24.175 -24.194  1.00  0.00     0.220 C 
ATOM     11  O   UNL     1      -2.276 -24.381 -25.432  1.00  0.00    -0.275 OA
ATOM     12  N   UNL     1      -2.887 -23.117 -23.560  1.00  0.00    -0.352 N 
ATOM     13  H   UNL     1      -2.734 -22.931 -22.542  1.00  0.00     0.163 HD
BRANCH  12  14
ATOM     14  C   UNL     1      -3.825 -22.266 -24.288  1.00  0.00     0.151 C 
BRANCH  14  15
ATOM     15  C   UNL     1      -5.154 -22.230 -23.582  1.00  0.00    -0.025 A 
ATOM     16  C   UNL     1      -5.335 -22.947 -22.390  1.00  0.00     0.056 A 
ATOM     17  C   UNL     1      -6.228 -21.506 -24.121  1.00  0.00     0.009 A 
ATOM     18  C   UNL     1      -6.581 -22.941 -21.730  1.00  0.00     0.160 A 
ATOM     19  C   UNL     1      -7.463 -21.493 -23.472  1.00  0.00     0.050 A 
ATOM     20  C   UNL     1      -7.646 -22.205 -22.281  1.00  0.00     0.157 A 
BRANCH  18  21
ATOM     21  O   UNL     1      -6.793 -23.649 -20.536  1.00  0.00    -0.493 OA
ATOM     22  C   UNL     1      -5.780 -24.352 -19.823  1.00  0.00     0.278 C 
ENDBRANCH  18  21
BRANCH  20  23
ATOM     23  O   UNL     1      -8.896 -22.171 -21.663  1.00  0.00    -0.504 OA
ATOM     24  H   UNL     1      -9.756 -22.322 -22.176  1.00  0.00     0.293 HD
ENDBRANCH  20  23
ENDBRANCH  14  15
ENDBRANCH  12  14
ENDBRANCH   9  10
ENDBRANCH   1   9
TORSDOF 10
ENDMDL
MODEL 4
REMARK VINA RESULT:    -6.193      4.521      7.567
REMARK INTER + INTRA:         -10.551
REMARK INTER:                  -9.582
REMARK INTRA:                  -0.969
REMARK UNBOUND:                -0.919
REMARK SMILES COc1cc(CNC(=O)CCCCC=CC(C)C)ccc1O
REMARK SMILES IDX 11 1 12 2 13 3 14 4 15 5 16 6 17 7 18 8 10 9 8 10 9 11 7 12
REMARK SMILES IDX 6 14 5 15 4 16 19 17 3 18 20 19 21 20 2 21 1 22 22 23
REMARK H PARENT 7 13 22 24
REMARK Flexibility Score: inf
ROOT
ATOM      1  C   UNL     1      -2.697 -28.294 -24.182  1.00  0.00     0.010 C 
ENDROOT
BRANCH   1   2
ATOM      2  C   UNL     1      -3.141 -29.756 -24.365  1.00  0.00     0.005 C 
BRANCH   2   3
ATOM      3  C   UNL     1      -4.352 -29.879 -25.303  1.00  0.00     0.027 C 
BRANCH   3   4
ATOM      4  C   UNL     1      -5.594 -30.324 -24.577  1.00  0.00    -0.031 C 
ATOM      5  C   UNL     1      -6.221 -29.525 -23.700  1.00  0.00    -0.028 C 
BRANCH   5   6
ATOM      6  C   UNL     1      -7.475 -29.972 -22.986  1.00  0.00     0.005 C 
ATOM      7  C   UNL     1      -7.580 -31.502 -22.995  1.00  0.00     0.012 C 
ATOM      8  C   UNL     1      -8.717 -29.349 -23.633  1.00  0.00     0.012 C 
ENDBRANCH   5   6
ENDBRANCH   3   4
ENDBRANCH   2   3
ENDBRANCH   1   2
BRANCH   1   9
ATOM      9  C   UNL     1      -2.897 -27.801 -22.744  1.00  0.00     0.100 C 
BRANCH   9  10
ATOM     10  C   UNL     1      -2.799 -26.306 -22.650  1.00  0.00     0.220 C 
ATOM     11  O   UNL     1      -3.493 -25.693 -21.794  1.00  0.00    -0.275 OA
ATOM     12  N   UNL     1      -1.948 -25.579 -23.547  1.00  0.00    -0.352 N 
ATOM     13  H   UNL     1      -1.419 -26.102 -24.282  1.00  0.00     0.163 HD
BRANCH  12  14
ATOM     14  C   UNL     1      -1.809 -24.126 -23.494  1.00  0.00     0.151 C 
BRANCH  14  15
ATOM     15  C   UNL     1      -2.514 -23.491 -24.663  1.00  0.00    -0.025 A 
ATOM     16  C   UNL     1      -2.848 -24.264 -25.785  1.00  0.00     0.056 A 
ATOM     17  C   UNL     1      -2.817 -22.121 -24.655  1.00  0.00     0.009 A 
ATOM     18  C   UNL     1      -3.488 -23.679 -26.896  1.00  0.00     0.160 A 
ATOM     19  C   UNL     1      -3.452 -21.535 -25.750  1.00  0.00     0.050 A 
ATOM     20  C   UNL     1      -3.789 -22.305 -26.869  1.00  0.00     0.157 A 
BRANCH  18  21
ATOM     21  O   UNL     1      -3.834 -24.426 -28.033  1.00  0.00    -0.493 OA
ATOM     22  C   UNL     1      -2.935 -24.755 -29.088  1.00  0.00     0.278 C 
ENDBRANCH  18  21
BRANCH  20  23
ATOM     23  O   UNL     1      -4.421 -21.683 -27.946  1.00  0.00    -0.504 OA
ATOM     24  H   UNL     1      -4.070 -20.827 -28.358  1.00  0.00     0.293 HD
ENDBRANCH  20  23
ENDBRANCH  14  15
ENDBRANCH  12  14
ENDBRANCH   9  10
ENDBRANCH   1   9
TORSDOF 10
ENDMDL
MODEL 5
REMARK VINA RESULT:    -6.175      1.873      7.673
REMARK INTER + INTRA:         -10.523
REMARK INTER:                  -9.578
REMARK INTRA:                  -0.946
REMARK UNBOUND:                -0.919
REMARK SMILES COc1cc(CNC(=O)CCCCC=CC(C)C)ccc1O
REMARK SMILES IDX 11 1 12 2 13 3 14 4 15 5 16 6 17 7 18 8 10 9 8 10 9 11 7 12
REMARK SMILES IDX 6 14 5 15 4 16 19 17 3 18 20 19 21 20 2 21 1 22 22 23
REMARK H PARENT 7 13 22 24
REMARK Flexibility Score: inf
ROOT
ATOM      1  C   UNL     1      -3.101 -28.317 -22.893  1.00  0.00     0.010 C 
ENDROOT
BRANCH   1   2
ATOM      2  C   UNL     1      -2.968 -28.636 -24.392  1.00  0.00     0.005 C 
BRANCH   2   3
ATOM      3  C   UNL     1      -3.884 -29.793 -24.819  1.00  0.00     0.027 C 
BRANCH   3   4
ATOM      4  C   UNL     1      -4.989 -30.043 -23.828  1.00  0.00    -0.031 C 
ATOM      5  C   UNL     1      -6.263 -29.718 -24.098  1.00  0.00    -0.028 C 
BRANCH   5   6
ATOM      6  C   UNL     1      -7.370 -29.984 -23.104  1.00  0.00     0.005 C 
ATOM      7  C   UNL     1      -7.577 -31.492 -22.925  1.00  0.00     0.012 C 
ATOM      8  C   UNL     1      -8.674 -29.317 -23.558  1.00  0.00     0.012 C 
ENDBRANCH   5   6
ENDBRANCH   3   4
ENDBRANCH   2   3
ENDBRANCH   1   2
BRANCH   1   9
ATOM      9  C   UNL     1      -3.497 -26.857 -22.641  1.00  0.00     0.100 C 
BRANCH   9  10
ATOM     10  C   UNL     1      -4.469 -26.732 -21.504  1.00  0.00     0.220 C 
ATOM     11  O   UNL     1      -5.339 -27.629 -21.335  1.00  0.00    -0.275 OA
ATOM     12  N   UNL     1      -4.428 -25.589 -20.639  1.00  0.00    -0.352 N 
ATOM     13  H   UNL     1      -3.731 -24.833 -20.828  1.00  0.00     0.163 HD
BRANCH  12  14
ATOM     14  C   UNL     1      -5.345 -25.422 -19.514  1.00  0.00     0.151 C 
BRANCH  14  15
ATOM     15  C   UNL     1      -6.136 -24.150 -19.669  1.00  0.00    -0.025 A 
ATOM     16  C   UNL     1      -6.392 -23.635 -20.948  1.00  0.00     0.056 A 
ATOM     17  C   UNL     1      -6.599 -23.457 -18.541  1.00  0.00     0.009 A 
ATOM     18  C   UNL     1      -7.112 -22.434 -21.108  1.00  0.00     0.160 A 
ATOM     19  C   UNL     1      -7.314 -22.269 -18.691  1.00  0.00     0.050 A 
ATOM     20  C   UNL     1      -7.573 -21.753 -19.966  1.00  0.00     0.157 A 
BRANCH  18  21
ATOM     21  O   UNL     1      -7.383 -21.892 -22.374  1.00  0.00    -0.493 OA
ATOM     22  C   UNL     1      -8.362 -22.397 -23.277  1.00  0.00     0.278 C 
ENDBRANCH  18  21
BRANCH  20  23
ATOM     23  O   UNL     1      -8.289 -20.561 -20.076  1.00  0.00    -0.504 OA
ATOM     24  H   UNL     1      -8.179 -19.802 -19.415  1.00  0.00     0.293 HD
ENDBRANCH  20  23
ENDBRANCH  14  15
ENDBRANCH  12  14
ENDBRANCH   9  10
ENDBRANCH   1   9
TORSDOF 10
ENDMDL
MODEL 6
REMARK VINA RESULT:    -6.105      3.295      8.181
REMARK INTER + INTRA:         -10.414
REMARK INTER:                  -9.653
REMARK INTRA:                  -0.761
REMARK UNBOUND:                -0.919
REMARK SMILES COc1cc(CNC(=O)CCCCC=CC(C)C)ccc1O
REMARK SMILES IDX 11 1 12 2 13 3 14 4 15 5 16 6 17 7 18 8 10 9 8 10 9 11 7 12
REMARK SMILES IDX 6 14 5 15 4 16 19 17 3 18 20 19 21 20 2 21 1 22 22 23
REMARK H PARENT 7 13 22 24
REMARK Flexibility Score: inf
ROOT
ATOM      1  C   UNL     1      -2.286 -25.479 -25.661  1.00  0.00     0.010 C 
ENDROOT
BRANCH   1   2
ATOM      2  C   UNL     1      -1.998 -26.978 -25.857  1.00  0.00     0.005 C 
BRANCH   2   3
ATOM      3  C   UNL     1      -2.127 -27.767 -24.545  1.00  0.00     0.027 C 
BRANCH   3   4
ATOM      4  C   UNL     1      -3.061 -28.941 -24.673  1.00  0.00    -0.031 C 
ATOM      5  C   UNL     1      -4.175 -29.039 -23.932  1.00  0.00    -0.028 C 
BRANCH   5   6
ATOM      6  C   UNL     1      -5.115 -30.213 -24.076  1.00  0.00     0.005 C 
ATOM      7  C   UNL     1      -5.008 -30.815 -25.482  1.00  0.00     0.012 C 
ATOM      8  C   UNL     1      -6.559 -29.787 -23.788  1.00  0.00     0.012 C 
ENDBRANCH   5   6
ENDBRANCH   3   4
ENDBRANCH   2   3
ENDBRANCH   1   2
BRANCH   1   9
ATOM      9  C   UNL     1      -2.978 -24.856 -26.880  1.00  0.00     0.100 C 
BRANCH   9  10
ATOM     10  C   UNL     1      -3.517 -23.488 -26.574  1.00  0.00     0.220 C 
ATOM     11  O   UNL     1      -3.879 -22.741 -27.522  1.00  0.00    -0.275 OA
ATOM     12  N   UNL     1      -3.588 -23.025 -25.218  1.00  0.00    -0.352 N 
ATOM     13  H   UNL     1      -3.236 -23.642 -24.451  1.00  0.00     0.163 HD
BRANCH  12  14
ATOM     14  C   UNL     1      -4.111 -21.708 -24.865  1.00  0.00     0.151 C 
BRANCH  14  15
ATOM     15  C   UNL     1      -5.309 -21.846 -23.963  1.00  0.00    -0.025 A 
ATOM     16  C   UNL     1      -5.260 -22.713 -22.860  1.00  0.00     0.056 A 
ATOM     17  C   UNL     1      -6.488 -21.134 -24.229  1.00  0.00     0.009 A 
ATOM     18  C   UNL     1      -6.381 -22.869 -22.020  1.00  0.00     0.160 A 
ATOM     19  C   UNL     1      -7.600 -21.282 -23.400  1.00  0.00     0.050 A 
ATOM     20  C   UNL     1      -7.554 -22.144 -22.298  1.00  0.00     0.157 A 
BRANCH  18  21
ATOM     21  O   UNL     1      -6.364 -23.730 -20.910  1.00  0.00    -0.493 OA
ATOM     22  C   UNL     1      -5.443 -23.634 -19.828  1.00  0.00     0.278 C 
ENDBRANCH  18  21
BRANCH  20  23
ATOM     23  O   UNL     1      -8.687 -22.268 -21.494  1.00  0.00    -0.504 OA
ATOM     24  H   UNL     1      -9.625 -22.250 -21.876  1.00  0.00     0.293 HD
ENDBRANCH  20  23
ENDBRANCH  14  15
ENDBRANCH  12  14
ENDBRANCH   9  10
ENDBRANCH   1   9
TORSDOF 10
ENDMDL
MODEL 7
REMARK VINA RESULT:    -6.057      2.461      7.759
REMARK INTER + INTRA:         -10.340
REMARK INTER:                  -9.373
REMARK INTRA:                  -0.967
REMARK UNBOUND:                -0.919
REMARK SMILES COc1cc(CNC(=O)CCCCC=CC(C)C)ccc1O
REMARK SMILES IDX 11 1 12 2 13 3 14 4 15 5 16 6 17 7 18 8 10 9 8 10 9 11 7 12
REMARK SMILES IDX 6 14 5 15 4 16 19 17 3 18 20 19 21 20 2 21 1 22 22 23
REMARK H PARENT 7 13 22 24
REMARK Flexibility Score: inf
ROOT
ATOM      1  C   UNL     1      -2.373 -26.213 -23.657  1.00  0.00     0.010 C 
ENDROOT
BRANCH   1   2
ATOM      2  C   UNL     1      -1.522 -27.365 -24.219  1.00  0.00     0.005 C 
BRANCH   2   3
ATOM      3  C   UNL     1      -1.850 -28.707 -23.545  1.00  0.00     0.027 C 
BRANCH   3   4
ATOM      4  C   UNL     1      -3.019 -29.401 -24.193  1.00  0.00    -0.031 C 
ATOM      5  C   UNL     1      -4.068 -29.830 -23.475  1.00  0.00    -0.028 C 
BRANCH   5   6
ATOM      6  C   UNL     1      -5.245 -30.514 -24.132  1.00  0.00     0.005 C 
ATOM      7  C   UNL     1      -5.050 -30.570 -25.652  1.00  0.00     0.012 C 
ATOM      8  C   UNL     1      -6.551 -29.788 -23.789  1.00  0.00     0.012 C 
ENDBRANCH   5   6
ENDBRANCH   3   4
ENDBRANCH   2   3
ENDBRANCH   1   2
BRANCH   1   9
ATOM      9  C   UNL     1      -2.549 -26.308 -22.136  1.00  0.00     0.100 C 
BRANCH   9  10
ATOM     10  C   UNL     1      -3.945 -25.949 -21.715  1.00  0.00     0.220 C 
ATOM     11  O   UNL     1      -4.886 -26.757 -21.942  1.00  0.00    -0.275 OA
ATOM     12  N   UNL     1      -4.209 -24.685 -21.089  1.00  0.00    -0.352 N 
ATOM     13  H   UNL     1      -3.423 -24.010 -20.955  1.00  0.00     0.163 HD
BRANCH  12  14
ATOM     14  C   UNL     1      -5.546 -24.290 -20.653  1.00  0.00     0.151 C 
BRANCH  14  15
ATOM     15  C   UNL     1      -6.091 -23.212 -21.551  1.00  0.00    -0.025 A 
ATOM     16  C   UNL     1      -5.411 -22.870 -22.730  1.00  0.00     0.056 A 
ATOM     17  C   UNL     1      -7.263 -22.522 -21.207  1.00  0.00     0.009 A 
ATOM     18  C   UNL     1      -5.897 -21.848 -23.569  1.00  0.00     0.160 A 
ATOM     19  C   UNL     1      -7.752 -21.510 -22.034  1.00  0.00     0.050 A 
ATOM     20  C   UNL     1      -7.077 -21.169 -23.211  1.00  0.00     0.157 A 
BRANCH  18  21
ATOM     21  O   UNL     1      -5.239 -21.483 -24.754  1.00  0.00    -0.493 OA
ATOM     22  C   UNL     1      -4.001 -22.034 -25.194  1.00  0.00     0.278 C 
ENDBRANCH  18  21
BRANCH  20  23
ATOM     23  O   UNL     1      -7.594 -20.150 -24.011  1.00  0.00    -0.504 OA
ATOM     24  H   UNL     1      -7.918 -20.318 -24.957  1.00  0.00     0.293 HD
ENDBRANCH  20  23
ENDBRANCH  14  15
ENDBRANCH  12  14
ENDBRANCH   9  10
ENDBRANCH   1   9
TORSDOF 10
ENDMDL
MODEL 8
REMARK VINA RESULT:    -6.050      3.872      5.099
REMARK INTER + INTRA:         -10.329
REMARK INTER:                  -8.991
REMARK INTRA:                  -1.338
REMARK UNBOUND:                -0.919
REMARK SMILES COc1cc(CNC(=O)CCCCC=CC(C)C)ccc1O
REMARK SMILES IDX 11 1 12 2 13 3 14 4 15 5 16 6 17 7 18 8 10 9 8 10 9 11 7 12
REMARK SMILES IDX 6 14 5 15 4 16 19 17 3 18 20 19 21 20 2 21 1 22 22 23
REMARK H PARENT 7 13 22 24
REMARK Flexibility Score: inf
ROOT
ATOM      1  C   UNL     1      -5.226 -24.773 -19.302  1.00  0.00     0.010 C 
ENDROOT
BRANCH   1   2
ATOM      2  C   UNL     1      -5.616 -23.296 -19.487  1.00  0.00     0.005 C 
BRANCH   2   3
ATOM      3  C   UNL     1      -7.139 -23.095 -19.467  1.00  0.00     0.027 C 
BRANCH   3   4
ATOM      4  C   UNL     1      -7.671 -22.627 -20.795  1.00  0.00    -0.031 C 
ATOM      5  C   UNL     1      -6.864 -22.443 -21.851  1.00  0.00    -0.028 C 
BRANCH   5   6
ATOM      6  C   UNL     1      -7.407 -21.986 -23.186  1.00  0.00     0.005 C 
ATOM      7  C   UNL     1      -7.255 -20.468 -23.333  1.00  0.00     0.012 C 
ATOM      8  C   UNL     1      -8.877 -22.392 -23.338  1.00  0.00     0.012 C 
ENDBRANCH   5   6
ENDBRANCH   3   4
ENDBRANCH   2   3
ENDBRANCH   1   2
BRANCH   1   9
ATOM      9  C   UNL     1      -5.620 -25.634 -20.509  1.00  0.00     0.100 C 
BRANCH   9  10
ATOM     10  C   UNL     1      -4.513 -25.713 -21.521  1.00  0.00     0.220 C 
ATOM     11  O   UNL     1      -4.066 -26.842 -21.860  1.00  0.00    -0.275 OA
ATOM     12  N   UNL     1      -3.950 -24.514 -22.071  1.00  0.00    -0.352 N 
ATOM     13  H   UNL     1      -4.302 -23.587 -21.738  1.00  0.00     0.163 HD
BRANCH  12  14
ATOM     14  C   UNL     1      -2.878 -24.534 -23.063  1.00  0.00     0.151 C 
BRANCH  14  15
ATOM     15  C   UNL     1      -3.257 -23.699 -24.258  1.00  0.00    -0.025 A 
ATOM     16  C   UNL     1      -3.016 -24.181 -25.554  1.00  0.00     0.056 A 
ATOM     17  C   UNL     1      -3.824 -22.428 -24.089  1.00  0.00     0.009 A 
ATOM     18  C   UNL     1      -3.345 -23.402 -26.682  1.00  0.00     0.160 A 
ATOM     19  C   UNL     1      -4.154 -21.652 -25.200  1.00  0.00     0.050 A 
ATOM     20  C   UNL     1      -3.918 -22.130 -26.494  1.00  0.00     0.157 A 
BRANCH  18  21
ATOM     21  O   UNL     1      -3.115 -23.855 -27.991  1.00  0.00    -0.493 OA
ATOM     22  C   UNL     1      -4.037 -24.629 -28.751  1.00  0.00     0.278 C 
ENDBRANCH  18  21
BRANCH  20  23
ATOM     23  O   UNL     1      -4.258 -21.325 -27.581  1.00  0.00    -0.504 OA
ATOM     24  H   UNL     1      -3.790 -21.400 -28.476  1.00  0.00     0.293 HD
ENDBRANCH  20  23
ENDBRANCH  14  15
ENDBRANCH  12  14
ENDBRANCH   9  10
ENDBRANCH   1   9
TORSDOF 10
ENDMDL
MODEL 9
REMARK VINA RESULT:    -6.016      3.449      5.240
REMARK INTER + INTRA:         -10.277
REMARK INTER:                  -9.284
REMARK INTRA:                  -0.992
REMARK UNBOUND:                -0.919
REMARK SMILES COc1cc(CNC(=O)CCCCC=CC(C)C)ccc1O
REMARK SMILES IDX 11 1 12 2 13 3 14 4 15 5 16 6 17 7 18 8 10 9 8 10 9 11 7 12
REMARK SMILES IDX 6 14 5 15 4 16 19 17 3 18 20 19 21 20 2 21 1 22 22 23
REMARK H PARENT 7 13 22 24
REMARK Flexibility Score: inf
ROOT
ATOM      1  C   UNL     1      -5.168 -25.990 -19.608  1.00  0.00     0.010 C 
ENDROOT
BRANCH   1   2
ATOM      2  C   UNL     1      -6.495 -25.598 -18.936  1.00  0.00     0.005 C 
BRANCH   2   3
ATOM      3  C   UNL     1      -6.395 -24.252 -18.200  1.00  0.00     0.027 C 
BRANCH   3   4
ATOM      4  C   UNL     1      -7.073 -23.138 -18.953  1.00  0.00    -0.031 C 
ATOM      5  C   UNL     1      -6.747 -22.845 -20.221  1.00  0.00    -0.028 C 
BRANCH   5   6
ATOM      6  C   UNL     1      -7.441 -21.734 -20.975  1.00  0.00     0.005 C 
ATOM      7  C   UNL     1      -8.095 -20.751 -19.997  1.00  0.00     0.012 C 
ATOM      8  C   UNL     1      -8.490 -22.307 -21.936  1.00  0.00     0.012 C 
ENDBRANCH   5   6
ENDBRANCH   3   4
ENDBRANCH   2   3
ENDBRANCH   1   2
BRANCH   1   9
ATOM      9  C   UNL     1      -5.377 -26.595 -21.001  1.00  0.00     0.100 C 
BRANCH   9  10
ATOM     10  C   UNL     1      -4.203 -26.337 -21.901  1.00  0.00     0.220 C 
ATOM     11  O   UNL     1      -3.614 -27.312 -22.442  1.00  0.00    -0.275 OA
ATOM     12  N   UNL     1      -3.738 -24.998 -22.117  1.00  0.00    -0.352 N 
ATOM     13  H   UNL     1      -4.210 -24.209 -21.620  1.00  0.00     0.163 HD
BRANCH  12  14
ATOM     14  C   UNL     1      -2.606 -24.691 -22.989  1.00  0.00     0.151 C 
BRANCH  14  15
ATOM     15  C   UNL     1      -3.074 -23.944 -24.209  1.00  0.00    -0.025 A 
ATOM     16  C   UNL     1      -3.786 -22.744 -24.066  1.00  0.00     0.056 A 
ATOM     17  C   UNL     1      -2.827 -24.451 -25.494  1.00  0.00     0.009 A 
ATOM     18  C   UNL     1      -4.250 -22.044 -25.199  1.00  0.00     0.160 A 
ATOM     19  C   UNL     1      -3.280 -23.763 -26.619  1.00  0.00     0.050 A 
ATOM     20  C   UNL     1      -3.989 -22.564 -26.480  1.00  0.00     0.157 A 
BRANCH  18  21
ATOM     21  O   UNL     1      -4.966 -20.842 -25.088  1.00  0.00    -0.493 OA
ATOM     22  C   UNL     1      -6.039 -20.622 -24.177  1.00  0.00     0.278 C 
ENDBRANCH  18  21
BRANCH  20  23
ATOM     23  O   UNL     1      -4.429 -21.906 -27.629  1.00  0.00    -0.504 OA
ATOM     24  H   UNL     1      -5.161 -22.282 -28.220  1.00  0.00     0.293 HD
ENDBRANCH  20  23
ENDBRANCH  14  15
ENDBRANCH  12  14
ENDBRANCH   9  10
ENDBRANCH   1   9
TORSDOF 10
ENDMDL
