MODEL 1
REMARK VINA RESULT:    -1.948      0.000      0.000
REMARK INTER + INTRA:          -2.735
REMARK INTER:                  -2.518
REMARK INTRA:                  -0.217
REMARK UNBOUND:                -0.217
REMARK SMILES CCCCCCC(=O)[O-]
REMARK SMILES IDX 5 1 6 2 7 3 8 4 9 5 4 6 3 7 2 8 1 9
REMARK H PARENT
REMARK Flexibility Score: inf
ROOT
ATOM      1  C   UNL     1      86.934  65.306 109.194  1.00  0.00     0.006 C 
ENDROOT
BRANCH   1   2
ATOM      2  C   UNL     1      87.789  64.532 110.207  1.00  0.00     0.053 C 
BRANCH   2   3
ATOM      3  C   UNL     1      87.744  63.055 109.960  1.00  0.00     0.041 C 
ATOM      4  O   UNL     1      87.401  62.268 110.881  1.00  0.00    -0.550 OA
ATOM      5  O   UNL     1      88.053  62.551 108.703  1.00  0.00    -0.550 OA
ENDBRANCH   2   3
ENDBRANCH   1   2
BRANCH   1   6
ATOM      6  C   UNL     1      86.034  66.352 109.876  1.00  0.00     0.000 C 
BRANCH   6   7
ATOM      7  C   UNL     1      86.687  66.969 111.124  1.00  0.00    -0.000 C 
BRANCH   7   8
ATOM      8  C   UNL     1      86.771  68.501 111.052  1.00  0.00    -0.003 C 
ATOM      9  C   UNL     1      88.125  68.952 110.513  1.00  0.00     0.004 C 
ENDBRANCH   7   8
ENDBRANCH   6   7
ENDBRANCH   1   6
TORSDOF 5
ENDMDL
MODEL 2
REMARK VINA RESULT:    -1.656     17.303     18.278
REMARK INTER + INTRA:          -2.357
REMARK INTER:                  -2.589
REMARK INTRA:                   0.232
REMARK UNBOUND:                -0.217
REMARK SMILES CCCCCCC(=O)[O-]
REMARK SMILES IDX 5 1 6 2 7 3 8 4 9 5 4 6 3 7 2 8 1 9
REMARK H PARENT
REMARK Flexibility Score: inf
ROOT
ATOM      1  C   UNL     1      75.147  62.888  96.521  1.00  0.00     0.006 C 
ENDROOT
BRANCH   1   2
ATOM      2  C   UNL     1      74.885  64.293  97.082  1.00  0.00     0.053 C 
BRANCH   2   3
ATOM      3  C   UNL     1      74.371  64.243  98.489  1.00  0.00     0.041 C 
ATOM      4  O   UNL     1      73.139  64.356  98.718  1.00  0.00    -0.550 OA
ATOM      5  O   UNL     1      75.252  64.041  99.544  1.00  0.00    -0.550 OA
ENDBRANCH   2   3
ENDBRANCH   1   2
BRANCH   1   6
ATOM      6  C   UNL     1      75.422  61.862  97.633  1.00  0.00     0.000 C 
BRANCH   6   7
ATOM      7  C   UNL     1      75.433  60.415  97.112  1.00  0.00    -0.000 C 
BRANCH   7   8
ATOM      8  C   UNL     1      76.853  59.879  96.882  1.00  0.00    -0.003 C 
ATOM      9  C   UNL     1      77.297  60.100  95.439  1.00  0.00     0.004 C 
ENDBRANCH   7   8
ENDBRANCH   6   7
ENDBRANCH   1   6
TORSDOF 5
ENDMDL
MODEL 3
REMARK VINA RESULT:    -1.287     17.096     17.872
REMARK INTER + INTRA:          -1.881
REMARK INTER:                  -1.827
REMARK INTRA:                  -0.053
REMARK UNBOUND:                -0.217
REMARK SMILES CCCCCCC(=O)[O-]
REMARK SMILES IDX 5 1 6 2 7 3 8 4 9 5 4 6 3 7 2 8 1 9
REMARK H PARENT
REMARK Flexibility Score: inf
ROOT
ATOM      1  C   UNL     1      74.957  61.026  98.054  1.00  0.00     0.006 C 
ENDROOT
BRANCH   1   2
ATOM      2  C   UNL     1      75.281  60.114  96.863  1.00  0.00     0.053 C 
BRANCH   2   3
ATOM      3  C   UNL     1      76.748  60.095  96.559  1.00  0.00     0.041 C 
ATOM      4  O   UNL     1      77.586  59.952  97.487  1.00  0.00    -0.550 OA
ATOM      5  O   UNL     1      77.187  60.206  95.246  1.00  0.00    -0.550 OA
ENDBRANCH   2   3
ENDBRANCH   1   2
BRANCH   1   6
ATOM      6  C   UNL     1      75.662  62.390  97.948  1.00  0.00     0.000 C 
BRANCH   6   7
ATOM      7  C   UNL     1      74.804  63.542  98.494  1.00  0.00    -0.000 C 
BRANCH   7   8
ATOM      8  C   UNL     1      74.538  64.632  97.446  1.00  0.00    -0.003 C 
ATOM      9  C   UNL     1      74.760  64.101  96.033  1.00  0.00     0.004 C 
ENDBRANCH   7   8
ENDBRANCH   6   7
ENDBRANCH   1   6
TORSDOF 5
ENDMDL
MODEL 4
REMARK VINA RESULT:    -1.251     17.146     18.259
REMARK INTER + INTRA:          -1.834
REMARK INTER:                  -1.683
REMARK INTRA:                  -0.151
REMARK UNBOUND:                -0.217
REMARK SMILES CCCCCCC(=O)[O-]
REMARK SMILES IDX 5 1 6 2 7 3 8 4 9 5 4 6 3 7 2 8 1 9
REMARK H PARENT
REMARK Flexibility Score: inf
ROOT
ATOM      1  C   UNL     1      76.111  62.696  98.000  1.00  0.00     0.006 C 
ENDROOT
BRANCH   1   2
ATOM      2  C   UNL     1      75.289  63.580  98.948  1.00  0.00     0.053 C 
BRANCH   2   3
ATOM      3  C   UNL     1      74.244  64.363  98.214  1.00  0.00     0.041 C 
ATOM      4  O   UNL     1      74.560  65.064  97.217  1.00  0.00    -0.550 OA
ATOM      5  O   UNL     1      72.915  64.294  98.613  1.00  0.00    -0.550 OA
ENDBRANCH   2   3
ENDBRANCH   1   2
BRANCH   1   6
ATOM      6  C   UNL     1      75.218  61.801  97.124  1.00  0.00     0.000 C 
BRANCH   6   7
ATOM      7  C   UNL     1      75.490  60.303  97.340  1.00  0.00    -0.000 C 
BRANCH   7   8
ATOM      8  C   UNL     1      76.926  59.902  96.973  1.00  0.00    -0.003 C 
ATOM      9  C   UNL     1      77.200  60.139  95.491  1.00  0.00     0.004 C 
ENDBRANCH   7   8
ENDBRANCH   6   7
ENDBRANCH   1   6
TORSDOF 5
ENDMDL
MODEL 5
REMARK VINA RESULT:    -1.090     16.818     17.769
REMARK INTER + INTRA:          -1.626
REMARK INTER:                  -1.962
REMARK INTRA:                   0.336
REMARK UNBOUND:                -0.217
REMARK SMILES CCCCCCC(=O)[O-]
REMARK SMILES IDX 5 1 6 2 7 3 8 4 9 5 4 6 3 7 2 8 1 9
REMARK H PARENT
REMARK Flexibility Score: inf
ROOT
ATOM      1  C   UNL     1      75.263  61.983  97.690  1.00  0.00     0.006 C 
ENDROOT
BRANCH   1   2
ATOM      2  C   UNL     1      75.364  60.517  97.245  1.00  0.00     0.053 C 
BRANCH   2   3
ATOM      3  C   UNL     1      76.734  60.183  96.740  1.00  0.00     0.041 C 
ATOM      4  O   UNL     1      77.650  59.875  97.548  1.00  0.00    -0.550 OA
ATOM      5  O   UNL     1      76.992  60.182  95.376  1.00  0.00    -0.550 OA
ENDBRANCH   2   3
ENDBRANCH   1   2
BRANCH   1   6
ATOM      6  C   UNL     1      75.367  62.957  96.505  1.00  0.00     0.000 C 
BRANCH   6   7
ATOM      7  C   UNL     1      74.877  64.371  96.858  1.00  0.00    -0.000 C 
BRANCH   7   8
ATOM      8  C   UNL     1      73.874  64.378  98.021  1.00  0.00    -0.003 C 
ATOM      9  C   UNL     1      74.594  64.394  99.367  1.00  0.00     0.004 C 
ENDBRANCH   7   8
ENDBRANCH   6   7
ENDBRANCH   1   6
TORSDOF 5
ENDMDL
MODEL 6
REMARK VINA RESULT:    -0.521     24.434     25.467
REMARK INTER + INTRA:          -0.890
REMARK INTER:                  -0.709
REMARK INTRA:                  -0.181
REMARK UNBOUND:                -0.217
REMARK SMILES CCCCCCC(=O)[O-]
REMARK SMILES IDX 5 1 6 2 7 3 8 4 9 5 4 6 3 7 2 8 1 9
REMARK H PARENT
REMARK Flexibility Score: inf
ROOT
ATOM      1  C   UNL     1      69.081  79.468  99.750  1.00  0.00     0.006 C 
ENDROOT
BRANCH   1   2
ATOM      2  C   UNL     1      68.531  80.125 101.023  1.00  0.00     0.053 C 
BRANCH   2   3
ATOM      3  C   UNL     1      69.035  79.448 102.261  1.00  0.00     0.041 C 
ATOM      4  O   UNL     1      69.616  80.116 103.157  1.00  0.00    -0.550 OA
ATOM      5  O   UNL     1      68.837  78.085 102.438  1.00  0.00    -0.550 OA
ENDBRANCH   2   3
ENDBRANCH   1   2
BRANCH   1   6
ATOM      6  C   UNL     1      68.284  79.874  98.498  1.00  0.00     0.000 C 
BRANCH   6   7
ATOM      7  C   UNL     1      67.897  78.667  97.628  1.00  0.00    -0.000 C 
BRANCH   7   8
ATOM      8  C   UNL     1      68.031  77.331  98.373  1.00  0.00    -0.003 C 
ATOM      9  C   UNL     1      68.264  76.180  97.400  1.00  0.00     0.004 C 
ENDBRANCH   7   8
ENDBRANCH   6   7
ENDBRANCH   1   6
TORSDOF 5
ENDMDL
MODEL 7
REMARK VINA RESULT:    -0.371     27.259     27.734
REMARK INTER + INTRA:          -0.697
REMARK INTER:                  -0.553
REMARK INTRA:                  -0.144
REMARK UNBOUND:                -0.217
REMARK SMILES CCCCCCC(=O)[O-]
REMARK SMILES IDX 5 1 6 2 7 3 8 4 9 5 4 6 3 7 2 8 1 9
REMARK H PARENT
REMARK Flexibility Score: inf
ROOT
ATOM      1  C   UNL     1      68.814  75.142  92.222  1.00  0.00     0.006 C 
ENDROOT
BRANCH   1   2
ATOM      2  C   UNL     1      69.410  74.449  90.989  1.00  0.00     0.053 C 
BRANCH   2   3
ATOM      3  C   UNL     1      69.077  72.988  90.956  1.00  0.00     0.041 C 
ATOM      4  O   UNL     1      67.876  72.611  90.974  1.00  0.00    -0.550 OA
ATOM      5  O   UNL     1      70.094  72.045  90.877  1.00  0.00    -0.550 OA
ENDBRANCH   2   3
ENDBRANCH   1   2
BRANCH   1   6
ATOM      6  C   UNL     1      67.972  76.373  91.844  1.00  0.00     0.000 C 
BRANCH   6   7
ATOM      7  C   UNL     1      68.126  77.525  92.850  1.00  0.00    -0.000 C 
BRANCH   7   8
ATOM      8  C   UNL     1      67.913  77.076  94.303  1.00  0.00    -0.003 C 
ATOM      9  C   UNL     1      67.880  78.272  95.249  1.00  0.00     0.004 C 
ENDBRANCH   7   8
ENDBRANCH   6   7
ENDBRANCH   1   6
TORSDOF 5
ENDMDL
MODEL 8
REMARK VINA RESULT:    -0.059      3.502      5.198
REMARK INTER + INTRA:          -0.294
REMARK INTER:                  -0.133
REMARK INTRA:                  -0.161
REMARK UNBOUND:                -0.217
REMARK SMILES CCCCCCC(=O)[O-]
REMARK SMILES IDX 5 1 6 2 7 3 8 4 9 5 4 6 3 7 2 8 1 9
REMARK H PARENT
REMARK Flexibility Score: inf
ROOT
ATOM      1  C   UNL     1      87.201  66.557 109.624  1.00  0.00     0.006 C 
ENDROOT
BRANCH   1   2
ATOM      2  C   UNL     1      88.053  67.413 110.571  1.00  0.00     0.053 C 
BRANCH   2   3
ATOM      3  C   UNL     1      87.432  68.754 110.819  1.00  0.00     0.041 C 
ATOM      4  O   UNL     1      88.125  69.801 110.728  1.00  0.00    -0.550 OA
ATOM      5  O   UNL     1      86.079  68.848 111.122  1.00  0.00    -0.550 OA
ENDBRANCH   2   3
ENDBRANCH   1   2
BRANCH   1   6
ATOM      6  C   UNL     1      87.155  65.082 110.060  1.00  0.00     0.000 C 
BRANCH   6   7
ATOM      7  C   UNL     1      87.512  64.117 108.918  1.00  0.00    -0.000 C 
BRANCH   7   8
ATOM      8  C   UNL     1      88.063  62.777 109.426  1.00  0.00    -0.003 C 
ATOM      9  C   UNL     1      88.018  62.706 110.950  1.00  0.00     0.004 C 
ENDBRANCH   7   8
ENDBRANCH   6   7
ENDBRANCH   1   6
TORSDOF 5
ENDMDL
