MODEL 1
REMARK VINA RESULT:    -4.877      0.000      0.000
REMARK INTER + INTRA:          -4.856
REMARK INTER:                  -5.304
REMARK INTRA:                   0.448
REMARK UNBOUND:                 0.448
REMARK SMILES Cc1ccc(C(C)C)c(O)c1
REMARK SMILES IDX 1 1 2 2 11 3 9 4 5 5 4 6 3 7 10 8 6 10 7 11 8 12
REMARK H PARENT 10 9
REMARK Flexibility Score: inf
ROOT
ATOM      1  C   UNL     1       7.621   7.820  17.875  1.00  0.00     0.044 C 
ATOM      2  C   UNL     1       7.554   6.346  18.146  1.00  0.00    -0.047 A 
ATOM      3  C   UNL     1       8.698   5.550  18.003  1.00  0.00     0.049 A 
ATOM      4  C   UNL     1       8.655   4.178  18.289  1.00  0.00     0.119 A 
ATOM      5  C   UNL     1       7.451   3.587  18.737  1.00  0.00    -0.004 A 
ATOM      6  C   UNL     1       6.312   4.402  18.895  1.00  0.00     0.008 A 
ATOM      7  C   UNL     1       6.367   5.767  18.608  1.00  0.00     0.004 A 
ENDROOT
BRANCH   4   8
ATOM      8  O   UNL     1       9.805   3.405  18.130  1.00  0.00    -0.508 OA
ATOM      9  H   UNL     1       9.867   2.682  17.423  1.00  0.00     0.293 HD
ENDBRANCH   4   8
BRANCH   5  10
ATOM     10  C   UNL     1       7.378   2.100  19.055  1.00  0.00     0.017 C 
ATOM     11  C   UNL     1       8.089   1.269  17.980  1.00  0.00     0.012 C 
ATOM     12  C   UNL     1       5.925   1.645  19.232  1.00  0.00     0.012 C 
ENDBRANCH   5  10
TORSDOF 2
ENDMDL
MODEL 2
REMARK VINA RESULT:    -3.466      1.479      2.094
REMARK INTER + INTRA:          -3.322
REMARK INTER:                  -3.633
REMARK INTRA:                   0.311
REMARK UNBOUND:                 0.448
REMARK SMILES Cc1ccc(C(C)C)c(O)c1
REMARK SMILES IDX 1 1 2 2 11 3 9 4 5 5 4 6 3 7 10 8 6 10 7 11 8 12
REMARK H PARENT 10 9
REMARK Flexibility Score: inf
ROOT
ATOM      1  C   UNL     1       7.477   7.919  17.969  1.00  0.00     0.044 C 
ATOM      2  C   UNL     1       7.656   6.448  18.205  1.00  0.00    -0.047 A 
ATOM      3  C   UNL     1       6.593   5.676  18.694  1.00  0.00     0.049 A 
ATOM      4  C   UNL     1       6.741   4.295  18.883  1.00  0.00     0.119 A 
ATOM      5  C   UNL     1       7.966   3.665  18.569  1.00  0.00    -0.004 A 
ATOM      6  C   UNL     1       9.022   4.448  18.060  1.00  0.00     0.008 A 
ATOM      7  C   UNL     1       8.865   5.823  17.875  1.00  0.00     0.004 A 
ENDROOT
BRANCH   4   8
ATOM      8  O   UNL     1       5.670   3.551  19.379  1.00  0.00    -0.508 OA
ATOM      9  H   UNL     1       5.681   2.537  19.380  1.00  0.00     0.293 HD
ENDBRANCH   4   8
BRANCH   5  10
ATOM     10  C   UNL     1       8.151   2.167  18.765  1.00  0.00     0.017 C 
ATOM     11  C   UNL     1       9.510   1.702  18.228  1.00  0.00     0.012 C 
ATOM     12  C   UNL     1       7.004   1.380  18.119  1.00  0.00     0.012 C 
ENDBRANCH   5  10
TORSDOF 2
ENDMDL
MODEL 3
REMARK VINA RESULT:    -2.122      1.184      4.024
REMARK INTER + INTRA:          -1.860
REMARK INTER:                  -2.222
REMARK INTRA:                   0.362
REMARK UNBOUND:                 0.448
REMARK SMILES Cc1ccc(C(C)C)c(O)c1
REMARK SMILES IDX 1 1 2 2 11 3 9 4 5 5 4 6 3 7 10 8 6 10 7 11 8 12
REMARK H PARENT 10 9
REMARK Flexibility Score: inf
ROOT
ATOM      1  C   UNL     1       8.657   0.631  18.335  1.00  0.00     0.044 C 
ATOM      2  C   UNL     1       8.370   2.101  18.250  1.00  0.00    -0.047 A 
ATOM      3  C   UNL     1       9.420   3.019  18.118  1.00  0.00     0.049 A 
ATOM      4  C   UNL     1       9.159   4.392  18.000  1.00  0.00     0.119 A 
ATOM      5  C   UNL     1       7.826   4.861  18.002  1.00  0.00    -0.004 A 
ATOM      6  C   UNL     1       6.778   3.926  18.116  1.00  0.00     0.008 A 
ATOM      7  C   UNL     1       7.048   2.561  18.232  1.00  0.00     0.004 A 
ENDROOT
BRANCH   4   8
ATOM      8  O   UNL     1      10.223   5.286  17.879  1.00  0.00    -0.508 OA
ATOM      9  H   UNL     1      11.085   5.027  17.413  1.00  0.00     0.293 HD
ENDBRANCH   4   8
BRANCH   5  10
ATOM     10  C   UNL     1       7.517   6.345  17.875  1.00  0.00     0.017 C 
ATOM     11  C   UNL     1       8.383   7.175  18.831  1.00  0.00     0.012 C 
ATOM     12  C   UNL     1       6.025   6.620  18.105  1.00  0.00     0.012 C 
ENDBRANCH   5  10
TORSDOF 2
ENDMDL
MODEL 4
REMARK VINA RESULT:    -1.987      1.729      4.500
REMARK INTER + INTRA:          -1.713
REMARK INTER:                  -2.046
REMARK INTRA:                   0.333
REMARK UNBOUND:                 0.448
REMARK SMILES Cc1ccc(C(C)C)c(O)c1
REMARK SMILES IDX 1 1 2 2 11 3 9 4 5 5 4 6 3 7 10 8 6 10 7 11 8 12
REMARK H PARENT 10 9
REMARK Flexibility Score: inf
ROOT
ATOM      1  C   UNL     1       8.087   1.078  18.286  1.00  0.00     0.044 C 
ATOM      2  C   UNL     1       8.034   2.577  18.236  1.00  0.00    -0.047 A 
ATOM      3  C   UNL     1       6.864   3.254  18.603  1.00  0.00     0.049 A 
ATOM      4  C   UNL     1       6.817   4.656  18.594  1.00  0.00     0.119 A 
ATOM      5  C   UNL     1       7.960   5.399  18.224  1.00  0.00    -0.004 A 
ATOM      6  C   UNL     1       9.137   4.706  17.875  1.00  0.00     0.008 A 
ATOM      7  C   UNL     1       9.174   3.311  17.888  1.00  0.00     0.004 A 
ENDROOT
BRANCH   4   8
ATOM      8  O   UNL     1       5.637   5.306  18.955  1.00  0.00    -0.508 OA
ATOM      9  H   UNL     1       4.908   4.834  19.479  1.00  0.00     0.293 HD
ENDBRANCH   4   8
BRANCH   5  10
ATOM     10  C   UNL     1       7.934   6.921  18.207  1.00  0.00     0.017 C 
ATOM     11  C   UNL     1       9.329   7.495  17.931  1.00  0.00     0.012 C 
ATOM     12  C   UNL     1       7.358   7.478  19.514  1.00  0.00     0.012 C 
ENDBRANCH   5  10
TORSDOF 2
ENDMDL
