MODEL 1
REMARK VINA RESULT:    -3.927      0.000      0.000
REMARK INTER + INTRA:          -4.199
REMARK INTER:                  -4.845
REMARK INTRA:                   0.646
REMARK UNBOUND:                 0.646
REMARK SMILES C=C1[C@@H]2CC[C@H]3[C@@H]2C(C)(C)CCC[C@@]13C
REMARK SMILES IDX 14 1 6 2 7 3 3 4 2 5 1 6 4 7 5 8 15 9 8 10 9 11 10 12 11 13
REMARK SMILES IDX 13 15 12 16
REMARK H PARENT
REMARK Flexibility Score: 80.00
ROOT
ATOM      1  C   UNL     1       0.984  13.070  15.161  1.00  0.00    -0.008 C 
ATOM      2  C   UNL     1       2.281  13.863  15.586  1.00  0.00     0.003 C 
ATOM      3  C   UNL     1       1.877  15.349  15.497  1.00  0.00     0.006 C 
ATOM      4  C   UNL     1       1.349  15.222  14.067  1.00  0.00     0.019 C 
ATOM      5  C   UNL     1       0.402  14.060  14.183  1.00  0.00    -0.068 C 
ATOM      6  C   UNL     1      -0.715  13.903  13.464  1.00  0.00     0.009 C 
ATOM      7  C   UNL     1       2.607  14.695  13.336  1.00  0.00     0.008 C 
ATOM      8  C   UNL     1       3.308  13.839  14.420  1.00  0.00     0.005 C 
ATOM      9  C   UNL     1       1.285  11.718  14.458  1.00  0.00     0.016 C 
ENDROOT
BRANCH   3  10
ATOM     10  C   UNL     1       0.958  15.990  16.625  1.00  0.00    -0.032 C 
ATOM     11  C   UNL     1      -0.121  16.923  16.017  1.00  0.00     0.011 C 
ATOM     12  C   UNL     1       1.857  16.891  17.516  1.00  0.00     0.011 C 
BRANCH  10  13
ATOM     13  C   UNL     1       0.309  14.967  17.600  1.00  0.00     0.007 CG0
ATOM     14  G   UNL     1      -0.666  13.974  16.971  1.00  0.00     0.000 G0
ENDBRANCH  10  13
ENDBRANCH   3  10
BRANCH   1  15
ATOM     15  C   UNL     1       0.044  12.769  16.360  1.00  0.00     0.011 C 
BRANCH  15  16
ATOM     16  C   UNL     1      -0.665  13.974  16.971  1.00  0.00     0.001 CG0
ATOM     17  G   UNL     1       0.311  14.974  17.586  1.00  0.00     0.000 G0
ENDBRANCH  15  16
ENDBRANCH   1  15
TORSDOF 0
ENDMDL
MODEL 2
REMARK VINA RESULT:    -3.853      1.864      3.504
REMARK INTER + INTRA:          -4.108
REMARK INTER:                  -4.746
REMARK INTRA:                   0.638
REMARK UNBOUND:                 0.646
REMARK SMILES C=C1[C@@H]2CC[C@H]3[C@@H]2C(C)(C)CCC[C@@]13C
REMARK SMILES IDX 14 1 6 2 7 3 3 4 2 5 1 6 4 7 5 8 15 9 8 10 9 11 10 12 11 13
REMARK SMILES IDX 13 15 12 16
REMARK H PARENT
REMARK Flexibility Score: 80.00
ROOT
ATOM      1  C   UNL     1       0.104  14.101  15.761  1.00  0.00    -0.008 C 
ATOM      2  C   UNL     1      -0.631  15.354  16.382  1.00  0.00     0.003 C 
ATOM      3  C   UNL     1       0.135  16.571  15.824  1.00  0.00     0.006 C 
ATOM      4  C   UNL     1       1.500  16.040  16.267  1.00  0.00     0.019 C 
ATOM      5  C   UNL     1       1.504  14.656  15.679  1.00  0.00    -0.068 C 
ATOM      6  C   UNL     1       2.592  14.007  15.249  1.00  0.00     0.009 C 
ATOM      7  C   UNL     1       1.271  15.874  17.787  1.00  0.00     0.008 C 
ATOM      8  C   UNL     1      -0.231  15.502  17.876  1.00  0.00     0.005 C 
ATOM      9  C   UNL     1       0.065  12.845  16.673  1.00  0.00     0.016 C 
ENDROOT
BRANCH   3  10
ATOM     10  C   UNL     1      -0.086  17.025  14.317  1.00  0.00    -0.032 C 
ATOM     11  C   UNL     1       1.252  17.413  13.637  1.00  0.00     0.011 C 
ATOM     12  C   UNL     1      -0.954  18.313  14.330  1.00  0.00     0.011 C 
BRANCH  10  13
ATOM     13  C   UNL     1      -0.870  16.011  13.436  1.00  0.00     0.007 CG0
ATOM     14  G   UNL     1      -0.205  14.652  13.232  1.00  0.00     0.000 G0
ENDBRANCH  10  13
ENDBRANCH   3  10
BRANCH   1  15
ATOM     15  C   UNL     1      -0.473  13.689  14.380  1.00  0.00     0.011 C 
BRANCH  15  16
ATOM     16  C   UNL     1      -0.205  14.655  13.230  1.00  0.00     0.001 CG0
ATOM     17  G   UNL     1      -0.880  16.008  13.436  1.00  0.00     0.000 G0
ENDBRANCH  15  16
ENDBRANCH   1  15
TORSDOF 0
ENDMDL
MODEL 3
REMARK VINA RESULT:    -3.750      1.317      3.132
REMARK INTER + INTRA:          -3.981
REMARK INTER:                  -4.626
REMARK INTRA:                   0.646
REMARK UNBOUND:                 0.646
REMARK SMILES C=C1[C@@H]2CC[C@H]3[C@@H]2C(C)(C)CCC[C@@]13C
REMARK SMILES IDX 14 1 6 2 7 3 3 4 2 5 1 6 4 7 5 8 15 9 8 10 9 11 10 12 11 13
REMARK SMILES IDX 13 15 12 16
REMARK H PARENT
REMARK Flexibility Score: 80.00
ROOT
ATOM      1  C   UNL     1      -0.224  14.493  14.937  1.00  0.00    -0.008 C 
ATOM      2  C   UNL     1      -0.798  13.116  15.453  1.00  0.00     0.003 C 
ATOM      3  C   UNL     1       0.180  12.677  16.562  1.00  0.00     0.006 C 
ATOM      4  C   UNL     1       1.415  12.840  15.675  1.00  0.00     0.019 C 
ATOM      5  C   UNL     1       1.247  14.242  15.158  1.00  0.00    -0.068 C 
ATOM      6  C   UNL     1       2.249  15.077  14.860  1.00  0.00     0.009 C 
ATOM      7  C   UNL     1       1.063  11.892  14.504  1.00  0.00     0.008 C 
ATOM      8  C   UNL     1      -0.481  12.001  14.419  1.00  0.00     0.005 C 
ATOM      9  C   UNL     1      -0.514  14.763  13.435  1.00  0.00     0.016 C 
ENDROOT
BRANCH   3  10
ATOM     10  C   UNL     1       0.130  13.380  17.987  1.00  0.00    -0.032 C 
ATOM     11  C   UNL     1       1.554  13.657  18.534  1.00  0.00     0.011 C 
ATOM     12  C   UNL     1      -0.531  12.389  18.984  1.00  0.00     0.011 C 
BRANCH  10  13
ATOM     13  C   UNL     1      -0.739  14.667  18.052  1.00  0.00     0.007 CG0
ATOM     14  G   UNL     1      -0.273  15.831  17.180  1.00  0.00     0.000 G0
ENDBRANCH  10  13
ENDBRANCH   3  10
BRANCH   1  15
ATOM     15  C   UNL     1      -0.764  15.708  15.738  1.00  0.00     0.011 C 
BRANCH  15  16
ATOM     16  C   UNL     1      -0.274  15.830  17.178  1.00  0.00     0.001 CG0
ATOM     17  G   UNL     1      -0.747  14.672  18.054  1.00  0.00     0.000 G0
ENDBRANCH  15  16
ENDBRANCH   1  15
TORSDOF 0
ENDMDL
MODEL 4
REMARK VINA RESULT:    -3.742      1.828      3.546
REMARK INTER + INTRA:          -3.971
REMARK INTER:                  -4.601
REMARK INTRA:                   0.630
REMARK UNBOUND:                 0.646
REMARK SMILES C=C1[C@@H]2CC[C@H]3[C@@H]2C(C)(C)CCC[C@@]13C
REMARK SMILES IDX 14 1 6 2 7 3 3 4 2 5 1 6 4 7 5 8 15 9 8 10 9 11 10 12 11 13
REMARK SMILES IDX 13 15 12 16
REMARK H PARENT
REMARK Flexibility Score: 80.00
ROOT
ATOM      1  C   UNL     1       1.508  15.355  17.016  1.00  0.00    -0.008 C 
ATOM      2  C   UNL     1       1.929  14.781  15.606  1.00  0.00     0.003 C 
ATOM      3  C   UNL     1       0.714  15.056  14.695  1.00  0.00     0.006 C 
ATOM      4  C   UNL     1      -0.279  14.398  15.654  1.00  0.00     0.019 C 
ATOM      5  C   UNL     1       0.023  15.100  16.949  1.00  0.00    -0.068 C 
ATOM      6  C   UNL     1      -0.871  15.361  17.910  1.00  0.00     0.009 C 
ATOM      7  C   UNL     1       0.322  12.978  15.771  1.00  0.00     0.008 C 
ATOM      8  C   UNL     1       1.844  13.230  15.631  1.00  0.00     0.005 C 
ATOM      9  C   UNL     1       2.142  14.592  18.210  1.00  0.00     0.016 C 
ENDROOT
BRANCH   3  10
ATOM     10  C   UNL     1       0.442  16.528  14.160  1.00  0.00    -0.032 C 
ATOM     11  C   UNL     1      -1.067  16.880  14.210  1.00  0.00     0.011 C 
ATOM     12  C   UNL     1       0.846  16.572  12.661  1.00  0.00     0.011 C 
BRANCH  10  13
ATOM     13  C   UNL     1       1.285  17.641  14.845  1.00  0.00     0.007 CG0
ATOM     14  G   UNL     1       1.049  17.829  16.341  1.00  0.00     0.000 G0
ENDBRANCH  10  13
ENDBRANCH   3  10
BRANCH   1  15
ATOM     15  C   UNL     1       1.864  16.857  17.184  1.00  0.00     0.011 C 
BRANCH  15  16
ATOM     16  C   UNL     1       1.053  17.834  16.339  1.00  0.00     0.001 CG0
ATOM     17  G   UNL     1       1.290  17.646  14.843  1.00  0.00     0.000 G0
ENDBRANCH  15  16
ENDBRANCH   1  15
TORSDOF 0
ENDMDL
MODEL 5
REMARK VINA RESULT:    -3.520      1.800      4.186
REMARK INTER + INTRA:          -3.697
REMARK INTER:                  -4.335
REMARK INTRA:                   0.638
REMARK UNBOUND:                 0.646
REMARK SMILES C=C1[C@@H]2CC[C@H]3[C@@H]2C(C)(C)CCC[C@@]13C
REMARK SMILES IDX 14 1 6 2 7 3 3 4 2 5 1 6 4 7 5 8 15 9 8 10 9 11 10 12 11 13
REMARK SMILES IDX 13 15 12 16
REMARK H PARENT
REMARK Flexibility Score: 80.00
ROOT
ATOM      1  C   UNL     1       1.219  14.998  16.216  1.00  0.00    -0.008 C 
ATOM      2  C   UNL     1       1.554  13.486  16.525  1.00  0.00     0.003 C 
ATOM      3  C   UNL     1       0.498  12.684  15.735  1.00  0.00     0.006 C 
ATOM      4  C   UNL     1      -0.678  13.464  16.323  1.00  0.00     0.019 C 
ATOM      5  C   UNL     1      -0.277  14.888  16.054  1.00  0.00    -0.068 C 
ATOM      6  C   UNL     1      -1.124  15.893  15.809  1.00  0.00     0.009 C 
ATOM      7  C   UNL     1      -0.464  13.223  17.836  1.00  0.00     0.008 C 
ATOM      8  C   UNL     1       1.077  13.132  17.961  1.00  0.00     0.005 C 
ATOM      9  C   UNL     1       1.575  15.962  17.380  1.00  0.00     0.016 C 
ENDROOT
BRANCH   3  10
ATOM     10  C   UNL     1       0.636  12.528  14.160  1.00  0.00    -0.032 C 
ATOM     11  C   UNL     1      -0.734  12.680  13.451  1.00  0.00     0.011 C 
ATOM     12  C   UNL     1       1.117  11.080  13.865  1.00  0.00     0.011 C 
BRANCH  10  13
ATOM     13  C   UNL     1       1.697  13.454  13.500  1.00  0.00     0.007 CG0
ATOM     14  G   UNL     1       1.431  14.953  13.606  1.00  0.00     0.000 G0
ENDBRANCH  10  13
ENDBRANCH   3  10
BRANCH   1  15
ATOM     15  C   UNL     1       1.935  15.524  14.943  1.00  0.00     0.011 C 
BRANCH  15  16
ATOM     16  C   UNL     1       1.442  14.955  13.616  1.00  0.00     0.001 CG0
ATOM     17  G   UNL     1       1.705  13.457  13.491  1.00  0.00     0.000 G0
ENDBRANCH  15  16
ENDBRANCH   1  15
TORSDOF 0
ENDMDL
MODEL 6
REMARK VINA RESULT:    -3.432      1.310      3.779
REMARK INTER + INTRA:          -3.589
REMARK INTER:                  -4.221
REMARK INTRA:                   0.632
REMARK UNBOUND:                 0.646
REMARK SMILES C=C1[C@@H]2CC[C@H]3[C@@H]2C(C)(C)CCC[C@@]13C
REMARK SMILES IDX 14 1 6 2 7 3 3 4 2 5 1 6 4 7 5 8 15 9 8 10 9 11 10 12 11 13
REMARK SMILES IDX 13 15 12 16
REMARK H PARENT
REMARK Flexibility Score: 80.00
ROOT
ATOM      1  C   UNL     1      -0.231  15.073  16.839  1.00  0.00    -0.008 C 
ATOM      2  C   UNL     1      -0.569  15.534  15.368  1.00  0.00     0.003 C 
ATOM      3  C   UNL     1       0.772  15.440  14.611  1.00  0.00     0.006 C 
ATOM      4  C   UNL     1       1.526  16.277  15.645  1.00  0.00     0.019 C 
ATOM      5  C   UNL     1       1.191  15.568  16.928  1.00  0.00    -0.068 C 
ATOM      6  C   UNL     1       1.996  15.483  17.993  1.00  0.00     0.009 C 
ATOM      7  C   UNL     1       0.695  17.581  15.631  1.00  0.00     0.008 C 
ATOM      8  C   UNL     1      -0.740  17.077  15.334  1.00  0.00     0.005 C 
ATOM      9  C   UNL     1      -1.115  15.751  17.921  1.00  0.00     0.016 C 
ENDROOT
BRANCH   3  10
ATOM     10  C   UNL     1       1.339  14.021  14.176  1.00  0.00    -0.032 C 
ATOM     11  C   UNL     1       2.870  13.927  14.401  1.00  0.00     0.011 C 
ATOM     12  C   UNL     1       1.118  13.869  12.645  1.00  0.00     0.011 C 
BRANCH  10  13
ATOM     13  C   UNL     1       0.618  12.802  14.817  1.00  0.00     0.007 CG0
ATOM     14  G   UNL     1       0.707  12.699  16.338  1.00  0.00     0.000 G0
ENDBRANCH  10  13
ENDBRANCH   3  10
BRANCH   1  15
ATOM     15  C   UNL     1      -0.357  13.538  17.033  1.00  0.00     0.011 C 
BRANCH  15  16
ATOM     16  C   UNL     1       0.699  12.687  16.335  1.00  0.00     0.001 CG0
ATOM     17  G   UNL     1       0.619  12.793  14.814  1.00  0.00     0.000 G0
ENDBRANCH  15  16
ENDBRANCH   1  15
TORSDOF 0
ENDMDL
MODEL 7
REMARK VINA RESULT:    -3.419      1.761      3.560
REMARK INTER + INTRA:          -3.573
REMARK INTER:                  -4.207
REMARK INTRA:                   0.634
REMARK UNBOUND:                 0.646
REMARK SMILES C=C1[C@@H]2CC[C@H]3[C@@H]2C(C)(C)CCC[C@@]13C
REMARK SMILES IDX 14 1 6 2 7 3 3 4 2 5 1 6 4 7 5 8 15 9 8 10 9 11 10 12 11 13
REMARK SMILES IDX 13 15 12 16
REMARK H PARENT
REMARK Flexibility Score: 80.00
ROOT
ATOM      1  C   UNL     1       1.291  16.160  13.731  1.00  0.00    -0.008 C 
ATOM      2  C   UNL     1       1.418  16.729  15.199  1.00  0.00     0.003 C 
ATOM      3  C   UNL     1       0.669  15.706  16.079  1.00  0.00     0.006 C 
ATOM      4  C   UNL     1      -0.597  15.748  15.223  1.00  0.00     0.019 C 
ATOM      5  C   UNL     1      -0.055  15.489  13.846  1.00  0.00    -0.068 C 
ATOM      6  C   UNL     1      -0.709  14.851  12.868  1.00  0.00     0.009 C 
ATOM      7  C   UNL     1      -0.944  17.255  15.285  1.00  0.00     0.008 C 
ATOM      8  C   UNL     1       0.448  17.930  15.376  1.00  0.00     0.005 C 
ATOM      9  C   UNL     1       1.262  17.264  12.639  1.00  0.00     0.016 C 
ENDROOT
BRANCH   3  10
ATOM     10  C   UNL     1       1.346  14.309  16.422  1.00  0.00    -0.032 C 
ATOM     11  C   UNL     1       0.323  13.147  16.345  1.00  0.00     0.011 C 
ATOM     12  C   UNL     1       1.829  14.364  17.898  1.00  0.00     0.011 C 
BRANCH  10  13
ATOM     13  C   UNL     1       2.616  13.974  15.588  1.00  0.00     0.007 CG0
ATOM     14  G   UNL     1       2.407  13.844  14.081  1.00  0.00     0.000 G0
ENDBRANCH  10  13
ENDBRANCH   3  10
BRANCH   1  15
ATOM     15  C   UNL     1       2.436  15.177  13.366  1.00  0.00     0.011 C 
BRANCH  15  16
ATOM     16  C   UNL     1       2.411  13.829  14.079  1.00  0.00     0.001 CG0
ATOM     17  G   UNL     1       2.609  13.963  15.587  1.00  0.00     0.000 G0
ENDBRANCH  15  16
ENDBRANCH   1  15
TORSDOF 0
ENDMDL
MODEL 8
REMARK VINA RESULT:    -3.251      1.742      4.129
REMARK INTER + INTRA:          -3.365
REMARK INTER:                  -4.003
REMARK INTRA:                   0.637
REMARK UNBOUND:                 0.646
REMARK SMILES C=C1[C@@H]2CC[C@H]3[C@@H]2C(C)(C)CCC[C@@]13C
REMARK SMILES IDX 14 1 6 2 7 3 3 4 2 5 1 6 4 7 5 8 15 9 8 10 9 11 10 12 11 13
REMARK SMILES IDX 13 15 12 16
REMARK H PARENT
REMARK Flexibility Score: 80.00
ROOT
ATOM      1  C   UNL     1       1.763  14.206  17.189  1.00  0.00    -0.008 C 
ATOM      2  C   UNL     1       0.644  13.093  17.248  1.00  0.00     0.003 C 
ATOM      3  C   UNL     1      -0.403  13.537  16.206  1.00  0.00     0.006 C 
ATOM      4  C   UNL     1      -0.529  14.946  16.789  1.00  0.00     0.019 C 
ATOM      5  C   UNL     1       0.905  15.395  16.838  1.00  0.00    -0.068 C 
ATOM      6  C   UNL     1       1.321  16.658  16.687  1.00  0.00     0.009 C 
ATOM      7  C   UNL     1      -0.942  14.626  18.245  1.00  0.00     0.008 C 
ATOM      8  C   UNL     1      -0.214  13.288  18.528  1.00  0.00     0.005 C 
ATOM      9  C   UNL     1       2.485  14.432  18.545  1.00  0.00     0.016 C 
ENDROOT
BRANCH   3  10
ATOM     10  C   UNL     1      -0.111  13.346  14.656  1.00  0.00    -0.032 C 
ATOM     11  C   UNL     1      -0.568  14.578  13.834  1.00  0.00     0.011 C 
ATOM     12  C   UNL     1      -0.967  12.150  14.154  1.00  0.00     0.011 C 
BRANCH  10  13
ATOM     13  C   UNL     1       1.358  12.972  14.308  1.00  0.00     0.007 CG0
ATOM     14  G   UNL     1       2.412  14.019  14.657  1.00  0.00     0.000 G0
ENDBRANCH  10  13
ENDBRANCH   3  10
BRANCH   1  15
ATOM     15  C   UNL     1       2.856  13.904  16.128  1.00  0.00     0.011 C 
BRANCH  15  16
ATOM     16  C   UNL     1       2.415  14.002  14.670  1.00  0.00     0.001 CG0
ATOM     17  G   UNL     1       1.341  12.978  14.316  1.00  0.00     0.000 G0
ENDBRANCH  15  16
ENDBRANCH   1  15
TORSDOF 0
ENDMDL
MODEL 9
REMARK VINA RESULT:    -3.058      2.303      4.617
REMARK INTER + INTRA:          -3.128
REMARK INTER:                  -3.761
REMARK INTRA:                   0.634
REMARK UNBOUND:                 0.646
REMARK SMILES C=C1[C@@H]2CC[C@H]3[C@@H]2C(C)(C)CCC[C@@]13C
REMARK SMILES IDX 14 1 6 2 7 3 3 4 2 5 1 6 4 7 5 8 15 9 8 10 9 11 10 12 11 13
REMARK SMILES IDX 13 15 12 16
REMARK H PARENT
REMARK Flexibility Score: 80.00
ROOT
ATOM      1  C   UNL     1       1.144  17.364  15.541  1.00  0.00    -0.008 C 
ATOM      2  C   UNL     1       1.370  15.849  15.923  1.00  0.00     0.003 C 
ATOM      3  C   UNL     1       0.296  15.081  15.124  1.00  0.00     0.006 C 
ATOM      4  C   UNL     1      -0.849  15.958  15.632  1.00  0.00     0.019 C 
ATOM      5  C   UNL     1      -0.348  17.341  15.323  1.00  0.00    -0.068 C 
ATOM      6  C   UNL     1      -1.120  18.386  15.003  1.00  0.00     0.009 C 
ATOM      7  C   UNL     1      -0.709  15.768  17.160  1.00  0.00     0.008 C 
ATOM      8  C   UNL     1       0.818  15.586  17.351  1.00  0.00     0.005 C 
ATOM      9  C   UNL     1       1.517  18.353  16.679  1.00  0.00     0.016 C 
ENDROOT
BRANCH   3  10
ATOM     10  C   UNL     1       0.484  14.851  13.562  1.00  0.00    -0.032 C 
ATOM     11  C   UNL     1      -0.848  15.050  12.794  1.00  0.00     0.011 C 
ATOM     12  C   UNL     1       0.891  13.367  13.345  1.00  0.00     0.011 C 
BRANCH  10  13
ATOM     13  C   UNL     1       1.621  15.687  12.909  1.00  0.00     0.007 CG0
ATOM     14  G   UNL     1       1.455  17.203  12.974  1.00  0.00     0.000 G0
ENDBRANCH  10  13
ENDBRANCH   3  10
BRANCH   1  15
ATOM     15  C   UNL     1       1.941  17.791  14.278  1.00  0.00     0.011 C 
BRANCH  15  16
ATOM     16  C   UNL     1       1.468  17.192  12.957  1.00  0.00     0.001 CG0
ATOM     17  G   UNL     1       1.630  15.675  12.913  1.00  0.00     0.000 G0
ENDBRANCH  15  16
ENDBRANCH   1  15
TORSDOF 0
ENDMDL
