MODEL 1
REMARK VINA RESULT:    11.671      0.000      0.000
REMARK INTER + INTRA:          24.797
REMARK INTER:                  25.316
REMARK INTRA:                  -0.519
REMARK UNBOUND:                -0.519
REMARK SMILES CCCCCCCCCCCCCCCCCCCCCC(=O)[O-]
REMARK SMILES IDX 12 1 11 2 10 3 9 4 8 5 7 6 6 7 5 8 4 9 3 10 2 11 1 12 13 13
REMARK SMILES IDX 14 14 15 15 16 16 17 17 18 18 19 19 20 20 21 21 22 22 23 23
REMARK SMILES IDX 24 24
REMARK H PARENT
REMARK Flexibility Score: inf
ROOT
ATOM      1  C   UNL     1      55.610 144.551  -1.938  1.00  0.00     0.000 C 
ENDROOT
BRANCH   1   2
ATOM      2  C   UNL     1      55.613 146.070  -1.676  1.00  0.00     0.000 C 
BRANCH   2   3
ATOM      3  C   UNL     1      55.123 146.940  -2.851  1.00  0.00     0.000 C 
BRANCH   3   4
ATOM      4  C   UNL     1      54.220 148.125  -2.454  1.00  0.00    -0.000 C 
BRANCH   4   5
ATOM      5  C   UNL     1      53.118 147.784  -1.434  1.00  0.00    -0.000 C 
BRANCH   5   6
ATOM      6  C   UNL     1      53.659 147.645  -0.000  1.00  0.00    -0.000 C 
BRANCH   6   7
ATOM      7  C   UNL     1      52.552 147.801   1.063  1.00  0.00    -0.000 C 
BRANCH   7   8
ATOM      8  C   UNL     1      51.151 148.039   0.469  1.00  0.00    -0.000 C 
BRANCH   8   9
ATOM      9  C   UNL     1      49.993 147.447   1.291  1.00  0.00    -0.000 C 
BRANCH   9  10
ATOM     10  C   UNL     1      48.647 148.123   0.989  1.00  0.00    -0.000 C 
BRANCH  10  11
ATOM     11  C   UNL     1      47.845 147.314  -0.037  1.00  0.00    -0.003 C 
ATOM     12  C   UNL     1      47.732 148.064  -1.362  1.00  0.00     0.004 C 
ENDBRANCH  10  11
ENDBRANCH   9  10
ENDBRANCH   8   9
ENDBRANCH   7   8
ENDBRANCH   6   7
ENDBRANCH   5   6
ENDBRANCH   4   5
ENDBRANCH   3   4
ENDBRANCH   2   3
ENDBRANCH   1   2
BRANCH   1  13
ATOM     13  C   UNL     1      54.763 143.723  -0.953  1.00  0.00     0.000 C 
BRANCH  13  14
ATOM     14  C   UNL     1      55.556 142.580  -0.296  1.00  0.00     0.000 C 
BRANCH  14  15
ATOM     15  C   UNL     1      55.466 141.264  -1.100  1.00  0.00     0.000 C 
BRANCH  15  16
ATOM     16  C   UNL     1      54.479 140.242  -0.506  1.00  0.00     0.000 C 
BRANCH  16  17
ATOM     17  C   UNL     1      53.174 140.850   0.044  1.00  0.00     0.000 C 
BRANCH  17  18
ATOM     18  C   UNL     1      52.966 140.675   1.561  1.00  0.00     0.000 C 
BRANCH  18  19
ATOM     19  C   UNL     1      52.565 139.256   2.009  1.00  0.00     0.000 C 
BRANCH  19  20
ATOM     20  C   UNL     1      52.056 138.337   0.883  1.00  0.00     0.006 C 
BRANCH  20  21
ATOM     21  C   UNL     1      50.557 138.509   0.604  1.00  0.00     0.053 C 
BRANCH  21  22
ATOM     22  C   UNL     1      49.918 137.188   0.317  1.00  0.00     0.041 C 
ATOM     23  O   UNL     1      49.073 136.707   1.117  1.00  0.00    -0.550 OA
ATOM     24  O   UNL     1      50.265 136.479  -0.827  1.00  0.00    -0.550 OA
ENDBRANCH  21  22
ENDBRANCH  20  21
ENDBRANCH  19  20
ENDBRANCH  18  19
ENDBRANCH  17  18
ENDBRANCH  16  17
ENDBRANCH  15  16
ENDBRANCH  14  15
ENDBRANCH  13  14
ENDBRANCH   1  13
TORSDOF 20
ENDMDL
MODEL 2
REMARK VINA RESULT:    11.970      1.254      2.176
REMARK INTER + INTRA:          25.447
REMARK INTER:                  24.624
REMARK INTRA:                   0.823
REMARK UNBOUND:                -0.519
REMARK SMILES CCCCCCCCCCCCCCCCCCCCCC(=O)[O-]
REMARK SMILES IDX 12 1 11 2 10 3 9 4 8 5 7 6 6 7 5 8 4 9 3 10 2 11 1 12 13 13
REMARK SMILES IDX 14 14 15 15 16 16 17 17 18 18 19 19 20 20 21 21 22 22 23 23
REMARK SMILES IDX 24 24
REMARK H PARENT
REMARK Flexibility Score: inf
ROOT
ATOM      1  C   UNL     1      55.343 146.942  -1.421  1.00  0.00     0.000 C 
ENDROOT
BRANCH   1   2
ATOM      2  C   UNL     1      54.568 147.596  -2.582  1.00  0.00     0.000 C 
BRANCH   2   3
ATOM      3  C   UNL     1      53.041 147.385  -2.553  1.00  0.00     0.000 C 
BRANCH   3   4
ATOM      4  C   UNL     1      52.336 147.896  -1.281  1.00  0.00    -0.000 C 
BRANCH   4   5
ATOM      5  C   UNL     1      53.125 147.687   0.024  1.00  0.00    -0.000 C 
BRANCH   5   6
ATOM      6  C   UNL     1      52.219 147.650   1.267  1.00  0.00    -0.000 C 
BRANCH   6   7
ATOM      7  C   UNL     1      50.721 147.625   0.901  1.00  0.00    -0.000 C 
BRANCH   7   8
ATOM      8  C   UNL     1      49.790 147.403   2.108  1.00  0.00    -0.000 C 
BRANCH   8   9
ATOM      9  C   UNL     1      48.433 148.119   2.018  1.00  0.00    -0.000 C 
BRANCH   9  10
ATOM     10  C   UNL     1      47.664 147.770   0.735  1.00  0.00    -0.000 C 
BRANCH  10  11
ATOM     11  C   UNL     1      48.588 147.815  -0.487  1.00  0.00    -0.003 C 
ATOM     12  C   UNL     1      47.800 147.627  -1.781  1.00  0.00     0.004 C 
ENDBRANCH  10  11
ENDBRANCH   9  10
ENDBRANCH   8   9
ENDBRANCH   7   8
ENDBRANCH   6   7
ENDBRANCH   5   6
ENDBRANCH   4   5
ENDBRANCH   3   4
ENDBRANCH   2   3
ENDBRANCH   1   2
BRANCH   1  13
ATOM     13  C   UNL     1      56.100 145.653  -1.791  1.00  0.00     0.000 C 
BRANCH  13  14
ATOM     14  C   UNL     1      55.725 144.460  -0.895  1.00  0.00     0.000 C 
BRANCH  14  15
ATOM     15  C   UNL     1      55.482 143.168  -1.708  1.00  0.00     0.000 C 
BRANCH  15  16
ATOM     16  C   UNL     1      56.022 141.897  -1.026  1.00  0.00     0.000 C 
BRANCH  16  17
ATOM     17  C   UNL     1      55.068 140.688  -1.070  1.00  0.00     0.000 C 
BRANCH  17  18
ATOM     18  C   UNL     1      54.361 140.370   0.263  1.00  0.00     0.000 C 
BRANCH  18  19
ATOM     19  C   UNL     1      53.267 141.372   0.679  1.00  0.00     0.000 C 
BRANCH  19  20
ATOM     20  C   UNL     1      51.855 140.775   0.821  1.00  0.00     0.006 C 
BRANCH  20  21
ATOM     21  C   UNL     1      51.757 139.735   1.945  1.00  0.00     0.053 C 
BRANCH  21  22
ATOM     22  C   UNL     1      52.061 138.365   1.428  1.00  0.00     0.041 C 
ATOM     23  O   UNL     1      52.892 137.633   2.026  1.00  0.00    -0.550 OA
ATOM     24  O   UNL     1      51.439 137.902   0.274  1.00  0.00    -0.550 OA
ENDBRANCH  21  22
ENDBRANCH  20  21
ENDBRANCH  19  20
ENDBRANCH  18  19
ENDBRANCH  17  18
ENDBRANCH  16  17
ENDBRANCH  15  16
ENDBRANCH  14  15
ENDBRANCH  13  14
ENDBRANCH   1  13
TORSDOF 20
ENDMDL
MODEL 3
REMARK VINA RESULT:    12.340      2.310      3.801
REMARK INTER + INTRA:          26.248
REMARK INTER:                  25.484
REMARK INTRA:                   0.764
REMARK UNBOUND:                -0.519
REMARK SMILES CCCCCCCCCCCCCCCCCCCCCC(=O)[O-]
REMARK SMILES IDX 12 1 11 2 10 3 9 4 8 5 7 6 6 7 5 8 4 9 3 10 2 11 1 12 13 13
REMARK SMILES IDX 14 14 15 15 16 16 17 17 18 18 19 19 20 20 21 21 22 22 23 23
REMARK SMILES IDX 24 24
REMARK H PARENT
REMARK Flexibility Score: inf
ROOT
ATOM      1  C   UNL     1      54.530 142.583   0.118  1.00  0.00     0.000 C 
ENDROOT
BRANCH   1   2
ATOM      2  C   UNL     1      53.304 143.512   0.225  1.00  0.00     0.000 C 
BRANCH   2   3
ATOM      3  C   UNL     1      53.623 145.021   0.234  1.00  0.00     0.000 C 
BRANCH   3   4
ATOM      4  C   UNL     1      52.625 145.895   1.020  1.00  0.00    -0.000 C 
BRANCH   4   5
ATOM      5  C   UNL     1      53.187 147.244   1.502  1.00  0.00    -0.000 C 
BRANCH   5   6
ATOM      6  C   UNL     1      53.690 148.125   0.344  1.00  0.00    -0.000 C 
BRANCH   6   7
ATOM      7  C   UNL     1      54.141 147.293  -0.874  1.00  0.00    -0.000 C 
BRANCH   7   8
ATOM      8  C   UNL     1      54.165 148.088  -2.193  1.00  0.00    -0.000 C 
BRANCH   8   9
ATOM      9  C   UNL     1      53.698 147.301  -3.429  1.00  0.00    -0.000 C 
BRANCH   9  10
ATOM     10  C   UNL     1      54.740 147.298  -4.557  1.00  0.00    -0.000 C 
BRANCH  10  11
ATOM     11  C   UNL     1      54.257 148.125  -5.753  1.00  0.00    -0.003 C 
ATOM     12  C   UNL     1      52.734 148.113  -5.852  1.00  0.00     0.004 C 
ENDBRANCH  10  11
ENDBRANCH   9  10
ENDBRANCH   8   9
ENDBRANCH   7   8
ENDBRANCH   6   7
ENDBRANCH   5   6
ENDBRANCH   4   5
ENDBRANCH   3   4
ENDBRANCH   2   3
ENDBRANCH   1   2
BRANCH   1  13
ATOM     13  C   UNL     1      55.328 142.710  -1.192  1.00  0.00     0.000 C 
BRANCH  13  14
ATOM     14  C   UNL     1      55.889 141.364  -1.684  1.00  0.00     0.000 C 
BRANCH  14  15
ATOM     15  C   UNL     1      55.973 140.314  -0.554  1.00  0.00     0.000 C 
BRANCH  15  16
ATOM     16  C   UNL     1      54.790 139.327  -0.537  1.00  0.00     0.000 C 
BRANCH  16  17
ATOM     17  C   UNL     1      53.508 139.870   0.123  1.00  0.00     0.000 C 
BRANCH  17  18
ATOM     18  C   UNL     1      52.762 138.860   1.018  1.00  0.00     0.000 C 
BRANCH  18  19
ATOM     19  C   UNL     1      51.252 139.123   1.184  1.00  0.00     0.000 C 
BRANCH  19  20
ATOM     20  C   UNL     1      50.336 138.204   0.356  1.00  0.00     0.006 C 
BRANCH  20  21
ATOM     21  C   UNL     1      50.438 136.729   0.770  1.00  0.00     0.053 C 
BRANCH  21  22
ATOM     22  C   UNL     1      49.201 135.984   0.381  1.00  0.00     0.041 C 
ATOM     23  O   UNL     1      48.143 136.611   0.111  1.00  0.00    -0.550 OA
ATOM     24  O   UNL     1      49.210 134.595   0.332  1.00  0.00    -0.550 OA
ENDBRANCH  21  22
ENDBRANCH  20  21
ENDBRANCH  19  20
ENDBRANCH  18  19
ENDBRANCH  17  18
ENDBRANCH  16  17
ENDBRANCH  15  16
ENDBRANCH  14  15
ENDBRANCH  13  14
ENDBRANCH   1  13
TORSDOF 20
ENDMDL
MODEL 4
REMARK VINA RESULT:    12.370      3.416      8.133
REMARK INTER + INTRA:          26.313
REMARK INTER:                  27.163
REMARK INTRA:                  -0.850
REMARK UNBOUND:                -0.519
REMARK SMILES CCCCCCCCCCCCCCCCCCCCCC(=O)[O-]
REMARK SMILES IDX 12 1 11 2 10 3 9 4 8 5 7 6 6 7 5 8 4 9 3 10 2 11 1 12 13 13
REMARK SMILES IDX 14 14 15 15 16 16 17 17 18 18 19 19 20 20 21 21 22 22 23 23
REMARK SMILES IDX 24 24
REMARK H PARENT
REMARK Flexibility Score: inf
ROOT
ATOM      1  C   UNL     1      54.949 145.154  -1.057  1.00  0.00     0.000 C 
ENDROOT
BRANCH   1   2
ATOM      2  C   UNL     1      54.740 143.725  -1.597  1.00  0.00     0.000 C 
BRANCH   2   3
ATOM      3  C   UNL     1      55.725 142.669  -1.056  1.00  0.00     0.000 C 
BRANCH   3   4
ATOM      4  C   UNL     1      56.050 141.520  -2.031  1.00  0.00    -0.000 C 
BRANCH   4   5
ATOM      5  C   UNL     1      55.457 140.154  -1.639  1.00  0.00    -0.000 C 
BRANCH   5   6
ATOM      6  C   UNL     1      54.901 140.137  -0.205  1.00  0.00    -0.000 C 
BRANCH   6   7
ATOM      7  C   UNL     1      53.577 139.354  -0.097  1.00  0.00    -0.000 C 
BRANCH   7   8
ATOM      8  C   UNL     1      52.713 139.758   1.112  1.00  0.00    -0.000 C 
BRANCH   8   9
ATOM      9  C   UNL     1      51.252 139.283   1.050  1.00  0.00    -0.000 C 
BRANCH   9  10
ATOM     10  C   UNL     1      51.062 138.074   0.122  1.00  0.00    -0.000 C 
BRANCH  10  11
ATOM     11  C   UNL     1      49.604 137.601   0.128  1.00  0.00    -0.003 C 
ATOM     12  C   UNL     1      49.475 136.225   0.777  1.00  0.00     0.004 C 
ENDBRANCH  10  11
ENDBRANCH   9  10
ENDBRANCH   8   9
ENDBRANCH   7   8
ENDBRANCH   6   7
ENDBRANCH   5   6
ENDBRANCH   4   5
ENDBRANCH   3   4
ENDBRANCH   2   3
ENDBRANCH   1   2
BRANCH   1  13
ATOM     13  C   UNL     1      56.048 145.963  -1.771  1.00  0.00     0.000 C 
BRANCH  13  14
ATOM     14  C   UNL     1      55.600 147.388  -2.139  1.00  0.00     0.000 C 
BRANCH  14  15
ATOM     15  C   UNL     1      54.062 147.519  -2.214  1.00  0.00     0.000 C 
BRANCH  15  16
ATOM     16  C   UNL     1      53.423 148.058  -0.921  1.00  0.00     0.000 C 
BRANCH  16  17
ATOM     17  C   UNL     1      54.322 147.975   0.327  1.00  0.00     0.000 C 
BRANCH  17  18
ATOM     18  C   UNL     1      53.583 148.124   1.672  1.00  0.00     0.000 C 
BRANCH  18  19
ATOM     19  C   UNL     1      52.936 146.833   2.210  1.00  0.00     0.000 C 
BRANCH  19  20
ATOM     20  C   UNL     1      51.498 146.573   1.726  1.00  0.00     0.006 C 
BRANCH  20  21
ATOM     21  C   UNL     1      50.609 147.823   1.796  1.00  0.00     0.053 C 
BRANCH  21  22
ATOM     22  C   UNL     1      49.542 147.772   0.749  1.00  0.00     0.041 C 
ATOM     23  O   UNL     1      48.328 147.779   1.082  1.00  0.00    -0.550 OA
ATOM     24  O   UNL     1      49.887 147.701  -0.595  1.00  0.00    -0.550 OA
ENDBRANCH  21  22
ENDBRANCH  20  21
ENDBRANCH  19  20
ENDBRANCH  18  19
ENDBRANCH  17  18
ENDBRANCH  16  17
ENDBRANCH  15  16
ENDBRANCH  14  15
ENDBRANCH  13  14
ENDBRANCH   1  13
TORSDOF 20
ENDMDL
MODEL 5
REMARK VINA RESULT:    12.959      1.610      4.538
REMARK INTER + INTRA:          27.591
REMARK INTER:                  27.989
REMARK INTRA:                  -0.398
REMARK UNBOUND:                -0.519
REMARK SMILES CCCCCCCCCCCCCCCCCCCCCC(=O)[O-]
REMARK SMILES IDX 12 1 11 2 10 3 9 4 8 5 7 6 6 7 5 8 4 9 3 10 2 11 1 12 13 13
REMARK SMILES IDX 14 14 15 15 16 16 17 17 18 18 19 19 20 20 21 21 22 22 23 23
REMARK SMILES IDX 24 24
REMARK H PARENT
REMARK Flexibility Score: inf
ROOT
ATOM      1  C   UNL     1      51.880 147.020   1.732  1.00  0.00     0.000 C 
ENDROOT
BRANCH   1   2
ATOM      2  C   UNL     1      50.361 146.839   1.535  1.00  0.00     0.000 C 
BRANCH   2   3
ATOM      3  C   UNL     1      49.645 148.017   0.843  1.00  0.00     0.000 C 
BRANCH   3   4
ATOM      4  C   UNL     1      48.222 147.709   0.338  1.00  0.00    -0.000 C 
BRANCH   4   5
ATOM      5  C   UNL     1      48.146 147.217  -1.119  1.00  0.00    -0.000 C 
BRANCH   5   6
ATOM      6  C   UNL     1      46.992 147.864  -1.905  1.00  0.00    -0.000 C 
BRANCH   6   7
ATOM      7  C   UNL     1      46.947 147.398  -3.374  1.00  0.00    -0.000 C 
BRANCH   7   8
ATOM      8  C   UNL     1      48.317 147.436  -4.079  1.00  0.00    -0.000 C 
BRANCH   8   9
ATOM      9  C   UNL     1      49.445 148.091  -3.264  1.00  0.00    -0.000 C 
BRANCH   9  10
ATOM     10  C   UNL     1      50.842 147.682  -3.753  1.00  0.00    -0.000 C 
BRANCH  10  11
ATOM     11  C   UNL     1      51.922 148.125  -2.760  1.00  0.00    -0.003 C 
ATOM     12  C   UNL     1      53.302 147.635  -3.193  1.00  0.00     0.004 C 
ENDBRANCH  10  11
ENDBRANCH   9  10
ENDBRANCH   8   9
ENDBRANCH   7   8
ENDBRANCH   6   7
ENDBRANCH   5   6
ENDBRANCH   4   5
ENDBRANCH   3   4
ENDBRANCH   2   3
ENDBRANCH   1   2
BRANCH   1  13
ATOM     13  C   UNL     1      52.754 146.453   0.598  1.00  0.00     0.000 C 
BRANCH  13  14
ATOM     14  C   UNL     1      52.910 144.924   0.670  1.00  0.00     0.000 C 
BRANCH  14  15
ATOM     15  C   UNL     1      53.562 144.340  -0.603  1.00  0.00     0.000 C 
BRANCH  15  16
ATOM     16  C   UNL     1      54.469 143.125  -0.332  1.00  0.00     0.000 C 
BRANCH  16  17
ATOM     17  C   UNL     1      53.720 141.800  -0.095  1.00  0.00     0.000 C 
BRANCH  17  18
ATOM     18  C   UNL     1      54.608 140.540  -0.120  1.00  0.00     0.000 C 
BRANCH  18  19
ATOM     19  C   UNL     1      53.844 139.202  -0.186  1.00  0.00     0.000 C 
BRANCH  19  20
ATOM     20  C   UNL     1      52.754 139.021   0.885  1.00  0.00     0.006 C 
BRANCH  20  21
ATOM     21  C   UNL     1      52.152 137.609   0.891  1.00  0.00     0.053 C 
BRANCH  21  22
ATOM     22  C   UNL     1      50.703 137.651   0.522  1.00  0.00     0.041 C 
ATOM     23  O   UNL     1      49.854 137.036   1.219  1.00  0.00    -0.550 OA
ATOM     24  O   UNL     1      50.290 138.355  -0.603  1.00  0.00    -0.550 OA
ENDBRANCH  21  22
ENDBRANCH  20  21
ENDBRANCH  19  20
ENDBRANCH  18  19
ENDBRANCH  17  18
ENDBRANCH  16  17
ENDBRANCH  15  16
ENDBRANCH  14  15
ENDBRANCH  13  14
ENDBRANCH   1  13
TORSDOF 20
ENDMDL
MODEL 6
REMARK VINA RESULT:    13.591      3.551      8.840
REMARK INTER + INTRA:          28.962
REMARK INTER:                  28.485
REMARK INTRA:                   0.477
REMARK UNBOUND:                -0.519
REMARK SMILES CCCCCCCCCCCCCCCCCCCCCC(=O)[O-]
REMARK SMILES IDX 12 1 11 2 10 3 9 4 8 5 7 6 6 7 5 8 4 9 3 10 2 11 1 12 13 13
REMARK SMILES IDX 14 14 15 15 16 16 17 17 18 18 19 19 20 20 21 21 22 22 23 23
REMARK SMILES IDX 24 24
REMARK H PARENT
REMARK Flexibility Score: inf
ROOT
ATOM      1  C   UNL     1      54.443 142.627   0.062  1.00  0.00     0.000 C 
ENDROOT
BRANCH   1   2
ATOM      2  C   UNL     1      53.602 141.339   0.174  1.00  0.00     0.000 C 
BRANCH   2   3
ATOM      3  C   UNL     1      54.297 140.056  -0.324  1.00  0.00     0.000 C 
BRANCH   3   4
ATOM      4  C   UNL     1      53.492 138.757  -0.124  1.00  0.00    -0.000 C 
BRANCH   4   5
ATOM      5  C   UNL     1      53.399 138.273   1.335  1.00  0.00    -0.000 C 
BRANCH   5   6
ATOM      6  C   UNL     1      52.082 138.689   2.015  1.00  0.00    -0.000 C 
BRANCH   6   7
ATOM      7  C   UNL     1      51.285 139.709   1.177  1.00  0.00    -0.000 C 
BRANCH   7   8
ATOM      8  C   UNL     1      50.394 139.066   0.098  1.00  0.00    -0.000 C 
BRANCH   8   9
ATOM      9  C   UNL     1      50.475 137.532   0.025  1.00  0.00    -0.000 C 
BRANCH   9  10
ATOM     10  C   UNL     1      49.354 136.841   0.815  1.00  0.00    -0.000 C 
BRANCH  10  11
ATOM     11  C   UNL     1      48.754 135.680   0.016  1.00  0.00    -0.003 C 
ATOM     12  C   UNL     1      49.412 134.354   0.392  1.00  0.00     0.004 C 
ENDBRANCH  10  11
ENDBRANCH   9  10
ENDBRANCH   8   9
ENDBRANCH   7   8
ENDBRANCH   6   7
ENDBRANCH   5   6
ENDBRANCH   4   5
ENDBRANCH   3   4
ENDBRANCH   2   3
ENDBRANCH   1   2
BRANCH   1  13
ATOM     13  C   UNL     1      55.684 142.516  -0.843  1.00  0.00     0.000 C 
BRANCH  13  14
ATOM     14  C   UNL     1      55.803 143.681  -1.840  1.00  0.00     0.000 C 
BRANCH  14  15
ATOM     15  C   UNL     1      54.990 144.918  -1.398  1.00  0.00     0.000 C 
BRANCH  15  16
ATOM     16  C   UNL     1      55.686 146.258  -1.703  1.00  0.00     0.000 C 
BRANCH  16  17
ATOM     17  C   UNL     1      54.755 147.358  -2.248  1.00  0.00     0.000 C 
BRANCH  17  18
ATOM     18  C   UNL     1      53.808 147.983  -1.204  1.00  0.00     0.000 C 
BRANCH  18  19
ATOM     19  C   UNL     1      53.866 147.345   0.198  1.00  0.00     0.000 C 
BRANCH  19  20
ATOM     20  C   UNL     1      53.094 148.104   1.292  1.00  0.00     0.006 C 
BRANCH  20  21
ATOM     21  C   UNL     1      52.016 147.246   1.967  1.00  0.00     0.053 C 
BRANCH  21  22
ATOM     22  C   UNL     1      50.650 147.674   1.533  1.00  0.00     0.041 C 
ATOM     23  O   UNL     1      50.468 148.125   0.372  1.00  0.00    -0.550 OA
ATOM     24  O   UNL     1      49.580 147.592   2.416  1.00  0.00    -0.550 OA
ENDBRANCH  21  22
ENDBRANCH  20  21
ENDBRANCH  19  20
ENDBRANCH  18  19
ENDBRANCH  17  18
ENDBRANCH  16  17
ENDBRANCH  15  16
ENDBRANCH  14  15
ENDBRANCH  13  14
ENDBRANCH   1  13
TORSDOF 20
ENDMDL
