MODEL 1
REMARK VINA RESULT:    -3.251      0.000      0.000
REMARK INTER + INTRA:          -4.683
REMARK INTER:                  -4.391
REMARK INTRA:                  -0.292
REMARK UNBOUND:                -0.292
REMARK SMILES CCCCCCCC(=O)[O-]
REMARK SMILES IDX 5 1 6 2 7 3 8 4 9 5 10 6 4 7 3 8 2 9 1 10
REMARK H PARENT
REMARK Flexibility Score: inf
ROOT
ATOM      1  C   UNL     1      -4.633 -70.613 -11.922  1.00  0.00     0.000 C 
ENDROOT
BRANCH   1   2
ATOM      2  C   UNL     1      -4.132 -72.055 -12.103  1.00  0.00     0.006 C 
BRANCH   2   3
ATOM      3  C   UNL     1      -5.271 -73.082 -12.080  1.00  0.00     0.053 C 
BRANCH   3   4
ATOM      4  C   UNL     1      -4.777 -74.398 -11.566  1.00  0.00     0.041 C 
ATOM      5  O   UNL     1      -5.505 -75.422 -11.644  1.00  0.00    -0.550 OA
ATOM      6  O   UNL     1      -3.495 -74.502 -11.045  1.00  0.00    -0.550 OA
ENDBRANCH   3   4
ENDBRANCH   2   3
ENDBRANCH   1   2
BRANCH   1   7
ATOM      7  C   UNL     1      -3.929 -69.885 -10.764  1.00  0.00     0.000 C 
BRANCH   7   8
ATOM      8  C   UNL     1      -4.902 -69.069  -9.893  1.00  0.00    -0.000 C 
BRANCH   8   9
ATOM      9  C   UNL     1      -6.378 -69.492 -10.007  1.00  0.00    -0.003 C 
ATOM     10  C   UNL     1      -7.290 -68.356 -10.468  1.00  0.00     0.004 C 
ENDBRANCH   8   9
ENDBRANCH   7   8
ENDBRANCH   1   7
TORSDOF 6
ENDMDL
MODEL 2
REMARK VINA RESULT:    -3.227      3.181      5.094
REMARK INTER + INTRA:          -4.651
REMARK INTER:                  -4.380
REMARK INTRA:                  -0.271
REMARK UNBOUND:                -0.292
REMARK SMILES CCCCCCCC(=O)[O-]
REMARK SMILES IDX 5 1 6 2 7 3 8 4 9 5 10 6 4 7 3 8 2 9 1 10
REMARK H PARENT
REMARK Flexibility Score: inf
ROOT
ATOM      1  C   UNL     1      -4.187 -69.846 -12.448  1.00  0.00     0.000 C 
ENDROOT
BRANCH   1   2
ATOM      2  C   UNL     1      -3.896 -68.791 -11.368  1.00  0.00     0.006 C 
BRANCH   2   3
ATOM      3  C   UNL     1      -3.637 -69.414  -9.990  1.00  0.00     0.053 C 
BRANCH   3   4
ATOM      4  C   UNL     1      -4.546 -68.811  -8.966  1.00  0.00     0.041 C 
ATOM      5  O   UNL     1      -5.632 -69.376  -8.672  1.00  0.00    -0.550 OA
ATOM      6  O   UNL     1      -4.171 -67.651  -8.302  1.00  0.00    -0.550 OA
ENDBRANCH   3   4
ENDBRANCH   2   3
ENDBRANCH   1   2
BRANCH   1   7
ATOM      7  C   UNL     1      -4.534 -71.221 -11.852  1.00  0.00     0.000 C 
BRANCH   7   8
ATOM      8  C   UNL     1      -3.579 -72.333 -12.321  1.00  0.00    -0.000 C 
BRANCH   8   9
ATOM      9  C   UNL     1      -3.835 -73.712 -11.685  1.00  0.00    -0.003 C 
ATOM     10  C   UNL     1      -5.287 -74.168 -11.815  1.00  0.00     0.004 C 
ENDBRANCH   8   9
ENDBRANCH   7   8
ENDBRANCH   1   7
TORSDOF 6
ENDMDL
MODEL 3
REMARK VINA RESULT:    -3.210     16.176     17.088
REMARK INTER + INTRA:          -4.628
REMARK INTER:                  -4.160
REMARK INTRA:                  -0.469
REMARK UNBOUND:                -0.292
REMARK SMILES CCCCCCCC(=O)[O-]
REMARK SMILES IDX 5 1 6 2 7 3 8 4 9 5 10 6 4 7 3 8 2 9 1 10
REMARK H PARENT
REMARK Flexibility Score: inf
ROOT
ATOM      1  C   UNL     1      -7.632 -75.262   6.513  1.00  0.00     0.000 C 
ENDROOT
BRANCH   1   2
ATOM      2  C   UNL     1      -7.094 -74.352   5.396  1.00  0.00     0.006 C 
BRANCH   2   3
ATOM      3  C   UNL     1      -8.032 -73.177   5.091  1.00  0.00     0.053 C 
BRANCH   3   4
ATOM      4  C   UNL     1      -8.758 -73.411   3.804  1.00  0.00     0.041 C 
ATOM      5  O   UNL     1      -8.356 -74.292   3.000  1.00  0.00    -0.550 OA
ATOM      6  O   UNL     1      -9.908 -72.688   3.514  1.00  0.00    -0.550 OA
ENDBRANCH   3   4
ENDBRANCH   2   3
ENDBRANCH   1   2
BRANCH   1   7
ATOM      7  C   UNL     1      -7.969 -76.676   6.011  1.00  0.00     0.000 C 
BRANCH   7   8
ATOM      8  C   UNL     1      -6.965 -77.194   4.965  1.00  0.00    -0.000 C 
BRANCH   8   9
ATOM      9  C   UNL     1      -7.570 -78.123   3.897  1.00  0.00    -0.003 C 
ATOM     10  C   UNL     1      -9.026 -77.793   3.574  1.00  0.00     0.004 C 
ENDBRANCH   8   9
ENDBRANCH   7   8
ENDBRANCH   1   7
TORSDOF 6
ENDMDL
MODEL 4
REMARK VINA RESULT:    -3.171      7.131      7.891
REMARK INTER + INTRA:          -4.576
REMARK INTER:                  -4.304
REMARK INTRA:                  -0.272
REMARK UNBOUND:                -0.292
REMARK SMILES CCCCCCCC(=O)[O-]
REMARK SMILES IDX 5 1 6 2 7 3 8 4 9 5 10 6 4 7 3 8 2 9 1 10
REMARK H PARENT
REMARK Flexibility Score: inf
ROOT
ATOM      1  C   UNL     1      -5.233 -65.149  -6.587  1.00  0.00     0.000 C 
ENDROOT
BRANCH   1   2
ATOM      2  C   UNL     1      -4.950 -66.460  -7.339  1.00  0.00     0.006 C 
BRANCH   2   3
ATOM      3  C   UNL     1      -4.678 -67.635  -6.392  1.00  0.00     0.053 C 
BRANCH   3   4
ATOM      4  C   UNL     1      -3.785 -67.207  -5.271  1.00  0.00     0.041 C 
ATOM      5  O   UNL     1      -4.197 -67.245  -4.082  1.00  0.00    -0.550 OA
ATOM      6  O   UNL     1      -2.481 -66.810  -5.535  1.00  0.00    -0.550 OA
ENDBRANCH   3   4
ENDBRANCH   2   3
ENDBRANCH   1   2
BRANCH   1   7
ATOM      7  C   UNL     1      -6.373 -64.336  -7.224  1.00  0.00     0.000 C 
BRANCH   7   8
ATOM      8  C   UNL     1      -7.261 -65.182  -8.156  1.00  0.00    -0.000 C 
BRANCH   8   9
ATOM      9  C   UNL     1      -8.769 -64.890  -8.047  1.00  0.00    -0.003 C 
ATOM     10  C   UNL     1      -9.149 -64.194  -6.742  1.00  0.00     0.004 C 
ENDBRANCH   8   9
ENDBRANCH   7   8
ENDBRANCH   1   7
TORSDOF 6
ENDMDL
MODEL 5
REMARK VINA RESULT:    -3.147     14.185     15.368
REMARK INTER + INTRA:          -4.543
REMARK INTER:                  -4.316
REMARK INTRA:                  -0.227
REMARK UNBOUND:                -0.292
REMARK SMILES CCCCCCCC(=O)[O-]
REMARK SMILES IDX 5 1 6 2 7 3 8 4 9 5 10 6 4 7 3 8 2 9 1 10
REMARK H PARENT
REMARK Flexibility Score: inf
ROOT
ATOM      1  C   UNL     1      -6.853 -65.182   2.250  1.00  0.00     0.000 C 
ENDROOT
BRANCH   1   2
ATOM      2  C   UNL     1      -8.363 -65.197   1.963  1.00  0.00     0.006 C 
BRANCH   2   3
ATOM      3  C   UNL     1      -8.679 -65.098   0.465  1.00  0.00     0.053 C 
BRANCH   3   4
ATOM      4  C   UNL     1      -9.072 -63.700   0.106  1.00  0.00     0.041 C 
ATOM      5  O   UNL     1      -8.655 -63.179  -0.961  1.00  0.00    -0.550 OA
ATOM      6  O   UNL     1      -9.938 -62.990   0.927  1.00  0.00    -0.550 OA
ENDBRANCH   3   4
ENDBRANCH   2   3
ENDBRANCH   1   2
BRANCH   1   7
ATOM      7  C   UNL     1      -6.495 -65.883   3.571  1.00  0.00     0.000 C 
BRANCH   7   8
ATOM      8  C   UNL     1      -5.114 -66.564   3.530  1.00  0.00    -0.000 C 
BRANCH   8   9
ATOM      9  C   UNL     1      -4.315 -66.322   2.237  1.00  0.00    -0.003 C 
ATOM     10  C   UNL     1      -2.804 -66.308   2.464  1.00  0.00     0.004 C 
ENDBRANCH   8   9
ENDBRANCH   7   8
ENDBRANCH   1   7
TORSDOF 6
ENDMDL
MODEL 6
REMARK VINA RESULT:    -3.078      1.457      1.979
REMARK INTER + INTRA:          -4.450
REMARK INTER:                  -4.328
REMARK INTRA:                  -0.123
REMARK UNBOUND:                -0.292
REMARK SMILES CCCCCCCC(=O)[O-]
REMARK SMILES IDX 5 1 6 2 7 3 8 4 9 5 10 6 4 7 3 8 2 9 1 10
REMARK H PARENT
REMARK Flexibility Score: inf
ROOT
ATOM      1  C   UNL     1      -4.520 -70.591 -11.870  1.00  0.00     0.000 C 
ENDROOT
BRANCH   1   2
ATOM      2  C   UNL     1      -4.014 -72.027 -12.074  1.00  0.00     0.006 C 
BRANCH   2   3
ATOM      3  C   UNL     1      -5.154 -73.052 -12.126  1.00  0.00     0.053 C 
BRANCH   3   4
ATOM      4  C   UNL     1      -4.698 -74.368 -11.577  1.00  0.00     0.041 C 
ATOM      5  O   UNL     1      -5.461 -75.368 -11.613  1.00  0.00    -0.550 OA
ATOM      6  O   UNL     1      -3.413 -74.500 -11.069  1.00  0.00    -0.550 OA
ENDBRANCH   3   4
ENDBRANCH   2   3
ENDBRANCH   1   2
BRANCH   1   7
ATOM      7  C   UNL     1      -3.893 -69.913 -10.640  1.00  0.00     0.000 C 
BRANCH   7   8
ATOM      8  C   UNL     1      -4.164 -68.398 -10.590  1.00  0.00    -0.000 C 
BRANCH   8   9
ATOM      9  C   UNL     1      -3.059 -67.525 -11.213  1.00  0.00    -0.003 C 
ATOM     10  C   UNL     1      -3.366 -66.030 -11.137  1.00  0.00     0.004 C 
ENDBRANCH   8   9
ENDBRANCH   7   8
ENDBRANCH   1   7
TORSDOF 6
ENDMDL
MODEL 7
REMARK VINA RESULT:    -3.049     11.958     13.688
REMARK INTER + INTRA:          -4.411
REMARK INTER:                  -4.043
REMARK INTRA:                  -0.367
REMARK UNBOUND:                -0.292
REMARK SMILES CCCCCCCC(=O)[O-]
REMARK SMILES IDX 5 1 6 2 7 3 8 4 9 5 10 6 4 7 3 8 2 9 1 10
REMARK H PARENT
REMARK Flexibility Score: inf
ROOT
ATOM      1  C   UNL     1      -7.534 -64.204  -1.836  1.00  0.00     0.000 C 
ENDROOT
BRANCH   1   2
ATOM      2  C   UNL     1      -8.544 -64.989  -0.984  1.00  0.00     0.006 C 
BRANCH   2   3
ATOM      3  C   UNL     1      -8.276 -64.855   0.521  1.00  0.00     0.053 C 
BRANCH   3   4
ATOM      4  C   UNL     1      -9.424 -64.176   1.197  1.00  0.00     0.041 C 
ATOM      5  O   UNL     1      -9.924 -64.666   2.243  1.00  0.00    -0.550 OA
ATOM      6  O   UNL     1      -9.911 -62.974   0.699  1.00  0.00    -0.550 OA
ENDBRANCH   3   4
ENDBRANCH   2   3
ENDBRANCH   1   2
BRANCH   1   7
ATOM      7  C   UNL     1      -6.269 -63.821  -1.049  1.00  0.00     0.000 C 
BRANCH   7   8
ATOM      8  C   UNL     1      -5.065 -64.723  -1.379  1.00  0.00    -0.000 C 
BRANCH   8   9
ATOM      9  C   UNL     1      -4.873 -65.018  -2.878  1.00  0.00    -0.003 C 
ATOM     10  C   UNL     1      -4.638 -66.500  -3.169  1.00  0.00     0.004 C 
ENDBRANCH   8   9
ENDBRANCH   7   8
ENDBRANCH   1   7
TORSDOF 6
ENDMDL
MODEL 8
REMARK VINA RESULT:    -3.008      8.559     10.176
REMARK INTER + INTRA:          -4.356
REMARK INTER:                  -3.967
REMARK INTRA:                  -0.389
REMARK UNBOUND:                -0.292
REMARK SMILES CCCCCCCC(=O)[O-]
REMARK SMILES IDX 5 1 6 2 7 3 8 4 9 5 10 6 4 7 3 8 2 9 1 10
REMARK H PARENT
REMARK Flexibility Score: inf
ROOT
ATOM      1  C   UNL     1      -5.831 -65.400  -7.356  1.00  0.00     0.000 C 
ENDROOT
BRANCH   1   2
ATOM      2  C   UNL     1      -5.706 -63.930  -6.928  1.00  0.00     0.006 C 
BRANCH   2   3
ATOM      3  C   UNL     1      -6.415 -63.641  -5.598  1.00  0.00     0.053 C 
BRANCH   3   4
ATOM      4  C   UNL     1      -7.160 -62.345  -5.675  1.00  0.00     0.041 C 
ATOM      5  O   UNL     1      -7.268 -61.615  -4.655  1.00  0.00    -0.550 OA
ATOM      6  O   UNL     1      -7.693 -61.922  -6.885  1.00  0.00    -0.550 OA
ENDBRANCH   3   4
ENDBRANCH   2   3
ENDBRANCH   1   2
BRANCH   1   7
ATOM      7  C   UNL     1      -4.515 -66.179  -7.187  1.00  0.00     0.000 C 
BRANCH   7   8
ATOM      8  C   UNL     1      -4.645 -67.367  -6.216  1.00  0.00    -0.000 C 
BRANCH   8   9
ATOM      9  C   UNL     1      -3.705 -67.308  -4.999  1.00  0.00    -0.003 C 
ATOM     10  C   UNL     1      -4.279 -66.493  -3.841  1.00  0.00     0.004 C 
ENDBRANCH   8   9
ENDBRANCH   7   8
ENDBRANCH   1   7
TORSDOF 6
ENDMDL
MODEL 9
REMARK VINA RESULT:    -2.966      2.733      4.745
REMARK INTER + INTRA:          -4.299
REMARK INTER:                  -4.040
REMARK INTRA:                  -0.259
REMARK UNBOUND:                -0.292
REMARK SMILES CCCCCCCC(=O)[O-]
REMARK SMILES IDX 5 1 6 2 7 3 8 4 9 5 10 6 4 7 3 8 2 9 1 10
REMARK H PARENT
REMARK Flexibility Score: inf
ROOT
ATOM      1  C   UNL     1      -5.655 -70.596 -11.288  1.00  0.00     0.000 C 
ENDROOT
BRANCH   1   2
ATOM      2  C   UNL     1      -7.148 -70.240 -11.219  1.00  0.00     0.006 C 
BRANCH   2   3
ATOM      3  C   UNL     1      -7.630 -69.995  -9.783  1.00  0.00     0.053 C 
BRANCH   3   4
ATOM      4  C   UNL     1      -8.099 -71.274  -9.165  1.00  0.00     0.041 C 
ATOM      5  O   UNL     1      -8.083 -71.417  -7.914  1.00  0.00    -0.550 OA
ATOM      6  O   UNL     1      -8.599 -72.291  -9.968  1.00  0.00    -0.550 OA
ENDBRANCH   3   4
ENDBRANCH   2   3
ENDBRANCH   1   2
BRANCH   1   7
ATOM      7  C   UNL     1      -5.371 -71.773 -12.237  1.00  0.00     0.000 C 
BRANCH   7   8
ATOM      8  C   UNL     1      -3.957 -72.356 -12.058  1.00  0.00    -0.000 C 
BRANCH   8   9
ATOM      9  C   UNL     1      -3.920 -73.829 -11.611  1.00  0.00    -0.003 C 
ATOM     10  C   UNL     1      -5.289 -74.505 -11.672  1.00  0.00     0.004 C 
ENDBRANCH   8   9
ENDBRANCH   7   8
ENDBRANCH   1   7
TORSDOF 6
ENDMDL
