MODEL 1
REMARK VINA RESULT:    -3.916      0.000      0.000
REMARK INTER + INTRA:          -7.072
REMARK INTER:                  -5.634
REMARK INTRA:                  -1.438
REMARK UNBOUND:                -1.438
REMARK SMILES O=C(CO)[C@H](O)[C@@H](O)[C@H](O)CO
REMARK SMILES IDX 7 1 9 2 11 3 12 4 10 6 5 8 2 9 1 10 3 11 4 12 6 14 8 16
REMARK H PARENT 12 5 10 7 4 13 6 15 8 17
REMARK Flexibility Score: inf
ROOT
ATOM      1  C   UNL     1     -58.196 -76.471 215.038  1.00  0.00     0.181 C 
ENDROOT
BRANCH   1   2
ATOM      2  C   UNL     1     -56.711 -76.694 214.664  1.00  0.00     0.171 C 
BRANCH   2   3
ATOM      3  C   UNL     1     -56.562 -77.441 213.329  1.00  0.00     0.190 C 
BRANCH   3   4
ATOM      4  O   UNL     1     -56.793 -76.576 212.250  1.00  0.00    -0.394 OA
ATOM      5  H   UNL     1     -56.670 -75.657 212.603  1.00  0.00     0.210 HD
ENDBRANCH   3   4
ENDBRANCH   2   3
BRANCH   2   6
ATOM      6  O   UNL     1     -56.037 -75.463 214.601  1.00  0.00    -0.388 OA
ATOM      7  H   UNL     1     -56.081 -75.063 215.508  1.00  0.00     0.211 HD
ENDBRANCH   2   6
ENDBRANCH   1   2
BRANCH   1   8
ATOM      8  C   UNL     1     -58.353 -76.012 216.511  1.00  0.00     0.214 C 
BRANCH   8   9
ATOM      9  C   UNL     1     -59.156 -74.726 216.603  1.00  0.00     0.189 C 
ATOM     10  O   UNL     1     -60.377 -74.789 216.579  1.00  0.00    -0.294 OA
BRANCH   9  11
ATOM     11  C   UNL     1     -58.503 -73.381 216.763  1.00  0.00     0.234 C 
BRANCH  11  12
ATOM     12  O   UNL     1     -57.455 -73.255 215.844  1.00  0.00    -0.388 OA
ATOM     13  H   UNL     1     -57.649 -72.436 215.317  1.00  0.00     0.211 HD
ENDBRANCH  11  12
ENDBRANCH   9  11
ENDBRANCH   8   9
BRANCH   8  14
ATOM     14  O   UNL     1     -57.110 -75.897 217.163  1.00  0.00    -0.382 OA
ATOM     15  H   UNL     1     -57.199 -75.216 217.879  1.00  0.00     0.211 HD
ENDBRANCH   8  14
ENDBRANCH   1   8
BRANCH   1  16
ATOM     16  O   UNL     1     -58.781 -75.521 214.179  1.00  0.00    -0.387 OA
ATOM     17  H   UNL     1     -59.640 -75.241 214.588  1.00  0.00     0.211 HD
ENDBRANCH   1  16
TORSDOF 10
ENDMDL
MODEL 2
REMARK VINA RESULT:    -3.820      1.936      3.475
REMARK INTER + INTRA:          -6.934
REMARK INTER:                  -5.530
REMARK INTRA:                  -1.403
REMARK UNBOUND:                -1.438
REMARK SMILES O=C(CO)[C@H](O)[C@@H](O)[C@H](O)CO
REMARK SMILES IDX 7 1 9 2 11 3 12 4 10 6 5 8 2 9 1 10 3 11 4 12 6 14 8 16
REMARK H PARENT 12 5 10 7 4 13 6 15 8 17
REMARK Flexibility Score: inf
ROOT
ATOM      1  C   UNL     1     -58.305 -75.087 215.930  1.00  0.00     0.181 C 
ENDROOT
BRANCH   1   2
ATOM      2  C   UNL     1     -57.572 -74.586 214.662  1.00  0.00     0.171 C 
BRANCH   2   3
ATOM      3  C   UNL     1     -57.534 -73.051 214.590  1.00  0.00     0.190 C 
BRANCH   3   4
ATOM      4  O   UNL     1     -58.293 -72.488 215.626  1.00  0.00    -0.394 OA
ATOM      5  H   UNL     1     -57.804 -72.690 216.465  1.00  0.00     0.210 HD
ENDBRANCH   3   4
ENDBRANCH   2   3
BRANCH   2   6
ATOM      6  O   UNL     1     -56.264 -75.099 214.625  1.00  0.00    -0.388 OA
ATOM      7  H   UNL     1     -55.650 -74.320 214.573  1.00  0.00     0.211 HD
ENDBRANCH   2   6
ENDBRANCH   1   2
BRANCH   1   8
ATOM      8  C   UNL     1     -58.517 -76.623 215.901  1.00  0.00     0.214 C 
BRANCH   8   9
ATOM      9  C   UNL     1     -57.848 -77.292 217.088  1.00  0.00     0.189 C 
ATOM     10  O   UNL     1     -58.435 -77.319 218.160  1.00  0.00    -0.294 OA
BRANCH   9  11
ATOM     11  C   UNL     1     -56.503 -77.958 216.982  1.00  0.00     0.234 C 
BRANCH  11  12
ATOM     12  O   UNL     1     -55.546 -77.023 216.572  1.00  0.00    -0.388 OA
ATOM     13  H   UNL     1     -55.735 -76.195 217.085  1.00  0.00     0.211 HD
ENDBRANCH  11  12
ENDBRANCH   9  11
ENDBRANCH   8   9
BRANCH   8  14
ATOM     14  O   UNL     1     -58.101 -77.189 214.681  1.00  0.00    -0.382 OA
ATOM     15  H   UNL     1     -57.626 -78.037 214.880  1.00  0.00     0.211 HD
ENDBRANCH   8  14
ENDBRANCH   1   8
BRANCH   1  16
ATOM     16  O   UNL     1     -57.587 -74.728 217.086  1.00  0.00    -0.387 OA
ATOM     17  H   UNL     1     -57.012 -75.499 217.329  1.00  0.00     0.211 HD
ENDBRANCH   1  16
TORSDOF 10
ENDMDL
MODEL 3
REMARK VINA RESULT:    -3.769      1.785      3.652
REMARK INTER + INTRA:          -6.859
REMARK INTER:                  -6.642
REMARK INTRA:                  -0.218
REMARK UNBOUND:                -1.438
REMARK SMILES O=C(CO)[C@H](O)[C@@H](O)[C@H](O)CO
REMARK SMILES IDX 7 1 9 2 11 3 12 4 10 6 5 8 2 9 1 10 3 11 4 12 6 14 8 16
REMARK H PARENT 12 5 10 7 4 13 6 15 8 17
REMARK Flexibility Score: inf
ROOT
ATOM      1  C   UNL     1     -58.944 -74.902 216.257  1.00  0.00     0.181 C 
ENDROOT
BRANCH   1   2
ATOM      2  C   UNL     1     -58.097 -73.613 216.132  1.00  0.00     0.171 C 
BRANCH   2   3
ATOM      3  C   UNL     1     -57.597 -73.392 214.695  1.00  0.00     0.190 C 
BRANCH   3   4
ATOM      4  O   UNL     1     -57.974 -72.124 214.231  1.00  0.00    -0.394 OA
ATOM      5  H   UNL     1     -58.917 -71.997 214.509  1.00  0.00     0.210 HD
ENDBRANCH   3   4
ENDBRANCH   2   3
BRANCH   2   6
ATOM      6  O   UNL     1     -58.844 -72.499 216.555  1.00  0.00    -0.388 OA
ATOM      7  H   UNL     1     -59.713 -72.845 216.888  1.00  0.00     0.211 HD
ENDBRANCH   2   6
ENDBRANCH   1   2
BRANCH   1   8
ATOM      8  C   UNL     1     -58.460 -75.795 217.430  1.00  0.00     0.214 C 
BRANCH   8   9
ATOM      9  C   UNL     1     -57.157 -76.493 217.086  1.00  0.00     0.189 C 
ATOM     10  O   UNL     1     -56.355 -76.720 217.981  1.00  0.00    -0.294 OA
BRANCH   9  11
ATOM     11  C   UNL     1     -56.833 -76.950 215.690  1.00  0.00     0.234 C 
BRANCH  11  12
ATOM     12  O   UNL     1     -55.506 -76.625 215.385  1.00  0.00    -0.388 OA
ATOM     13  H   UNL     1     -55.023 -76.605 216.250  1.00  0.00     0.211 HD
ENDBRANCH  11  12
ENDBRANCH   9  11
ENDBRANCH   8   9
BRANCH   8  14
ATOM     14  O   UNL     1     -59.450 -76.710 217.837  1.00  0.00    -0.382 OA
ATOM     15  H   UNL     1     -60.315 -76.423 217.446  1.00  0.00     0.211 HD
ENDBRANCH   8  14
ENDBRANCH   1   8
BRANCH   1  16
ATOM     16  O   UNL     1     -60.303 -74.580 216.434  1.00  0.00    -0.387 OA
ATOM     17  H   UNL     1     -60.810 -75.433 216.446  1.00  0.00     0.211 HD
ENDBRANCH   1  16
TORSDOF 10
ENDMDL
MODEL 4
REMARK VINA RESULT:    -3.756      1.429      4.103
REMARK INTER + INTRA:          -6.841
REMARK INTER:                  -5.673
REMARK INTRA:                  -1.167
REMARK UNBOUND:                -1.438
REMARK SMILES O=C(CO)[C@H](O)[C@@H](O)[C@H](O)CO
REMARK SMILES IDX 7 1 9 2 11 3 12 4 10 6 5 8 2 9 1 10 3 11 4 12 6 14 8 16
REMARK H PARENT 12 5 10 7 4 13 6 15 8 17
REMARK Flexibility Score: inf
ROOT
ATOM      1  C   UNL     1     -57.785 -74.842 214.781  1.00  0.00     0.181 C 
ENDROOT
BRANCH   1   2
ATOM      2  C   UNL     1     -57.945 -74.763 216.318  1.00  0.00     0.171 C 
BRANCH   2   3
ATOM      3  C   UNL     1     -58.578 -73.434 216.762  1.00  0.00     0.190 C 
BRANCH   3   4
ATOM      4  O   UNL     1     -58.370 -72.440 215.796  1.00  0.00    -0.394 OA
ATOM      5  H   UNL     1     -58.265 -71.589 216.295  1.00  0.00     0.210 HD
ENDBRANCH   3   4
ENDBRANCH   2   3
BRANCH   2   6
ATOM      6  O   UNL     1     -58.720 -75.840 216.780  1.00  0.00    -0.388 OA
ATOM      7  H   UNL     1     -59.505 -75.451 217.248  1.00  0.00     0.211 HD
ENDBRANCH   2   6
ENDBRANCH   1   2
BRANCH   1   8
ATOM      8  C   UNL     1     -56.844 -76.000 214.360  1.00  0.00     0.214 C 
BRANCH   8   9
ATOM      9  C   UNL     1     -57.634 -77.187 213.838  1.00  0.00     0.189 C 
ATOM     10  O   UNL     1     -58.319 -77.831 214.620  1.00  0.00    -0.294 OA
BRANCH   9  11
ATOM     11  C   UNL     1     -57.634 -77.576 212.385  1.00  0.00     0.234 C 
BRANCH  11  12
ATOM     12  O   UNL     1     -58.719 -76.973 211.737  1.00  0.00    -0.388 OA
ATOM     13  H   UNL     1     -58.332 -76.430 211.002  1.00  0.00     0.211 HD
ENDBRANCH  11  12
ENDBRANCH   9  11
ENDBRANCH   8   9
BRANCH   8  14
ATOM     14  O   UNL     1     -55.970 -76.372 215.399  1.00  0.00    -0.382 OA
ATOM     15  H   UNL     1     -55.335 -77.046 215.042  1.00  0.00     0.211 HD
ENDBRANCH   8  14
ENDBRANCH   1   8
BRANCH   1  16
ATOM     16  O   UNL     1     -59.041 -75.002 214.165  1.00  0.00    -0.387 OA
ATOM     17  H   UNL     1     -58.877 -75.259 213.221  1.00  0.00     0.211 HD
ENDBRANCH   1  16
TORSDOF 10
ENDMDL
MODEL 5
REMARK VINA RESULT:    -3.703      1.428      4.185
REMARK INTER + INTRA:          -6.765
REMARK INTER:                  -5.547
REMARK INTRA:                  -1.219
REMARK UNBOUND:                -1.438
REMARK SMILES O=C(CO)[C@H](O)[C@@H](O)[C@H](O)CO
REMARK SMILES IDX 7 1 9 2 11 3 12 4 10 6 5 8 2 9 1 10 3 11 4 12 6 14 8 16
REMARK H PARENT 12 5 10 7 4 13 6 15 8 17
REMARK Flexibility Score: inf
ROOT
ATOM      1  C   UNL     1     -57.996 -75.932 215.973  1.00  0.00     0.181 C 
ENDROOT
BRANCH   1   2
ATOM      2  C   UNL     1     -58.174 -74.439 215.610  1.00  0.00     0.171 C 
BRANCH   2   3
ATOM      3  C   UNL     1     -58.611 -73.602 216.823  1.00  0.00     0.190 C 
BRANCH   3   4
ATOM      4  O   UNL     1     -58.671 -72.241 216.489  1.00  0.00    -0.394 OA
ATOM      5  H   UNL     1     -57.739 -71.906 216.532  1.00  0.00     0.210 HD
ENDBRANCH   3   4
ENDBRANCH   2   3
BRANCH   2   6
ATOM      6  O   UNL     1     -56.979 -73.923 215.080  1.00  0.00    -0.388 OA
ATOM      7  H   UNL     1     -57.070 -73.941 214.091  1.00  0.00     0.211 HD
ENDBRANCH   2   6
ENDBRANCH   1   2
BRANCH   1   8
ATOM      8  C   UNL     1     -57.752 -76.803 214.713  1.00  0.00     0.214 C 
BRANCH   8   9
ATOM      9  C   UNL     1     -56.441 -77.562 214.815  1.00  0.00     0.189 C 
ATOM     10  O   UNL     1     -56.407 -78.597 215.465  1.00  0.00    -0.294 OA
BRANCH   9  11
ATOM     11  C   UNL     1     -55.192 -77.106 214.112  1.00  0.00     0.234 C 
BRANCH  11  12
ATOM     12  O   UNL     1     -54.876 -75.803 214.513  1.00  0.00    -0.388 OA
ATOM     13  H   UNL     1     -54.518 -75.880 215.436  1.00  0.00     0.211 HD
ENDBRANCH  11  12
ENDBRANCH   9  11
ENDBRANCH   8   9
BRANCH   8  14
ATOM     14  O   UNL     1     -57.826 -76.047 213.527  1.00  0.00    -0.382 OA
ATOM     15  H   UNL     1     -58.696 -76.240 213.092  1.00  0.00     0.211 HD
ENDBRANCH   8  14
ENDBRANCH   1   8
BRANCH   1  16
ATOM     16  O   UNL     1     -56.928 -76.094 216.876  1.00  0.00    -0.387 OA
ATOM     17  H   UNL     1     -56.850 -77.064 217.071  1.00  0.00     0.211 HD
ENDBRANCH   1  16
TORSDOF 10
ENDMDL
MODEL 6
REMARK VINA RESULT:    -3.702     11.111     13.225
REMARK INTER + INTRA:          -6.763
REMARK INTER:                  -5.376
REMARK INTRA:                  -1.387
REMARK UNBOUND:                -1.438
REMARK SMILES O=C(CO)[C@H](O)[C@@H](O)[C@H](O)CO
REMARK SMILES IDX 7 1 9 2 11 3 12 4 10 6 5 8 2 9 1 10 3 11 4 12 6 14 8 16
REMARK H PARENT 12 5 10 7 4 13 6 15 8 17
REMARK Flexibility Score: inf
ROOT
ATOM      1  C   UNL     1     -65.728 -78.836 226.005  1.00  0.00     0.181 C 
ENDROOT
BRANCH   1   2
ATOM      2  C   UNL     1     -66.545 -78.468 224.744  1.00  0.00     0.171 C 
BRANCH   2   3
ATOM      3  C   UNL     1     -67.920 -77.879 225.102  1.00  0.00     0.190 C 
BRANCH   3   4
ATOM      4  O   UNL     1     -67.794 -76.545 225.514  1.00  0.00    -0.394 OA
ATOM      5  H   UNL     1     -67.857 -76.556 226.504  1.00  0.00     0.210 HD
ENDBRANCH   3   4
ENDBRANCH   2   3
BRANCH   2   6
ATOM      6  O   UNL     1     -65.828 -77.556 223.951  1.00  0.00    -0.388 OA
ATOM      7  H   UNL     1     -66.369 -77.397 223.134  1.00  0.00     0.211 HD
ENDBRANCH   2   6
ENDBRANCH   1   2
BRANCH   1   8
ATOM      8  C   UNL     1     -64.646 -79.904 225.697  1.00  0.00     0.214 C 
BRANCH   8   9
ATOM      9  C   UNL     1     -63.251 -79.360 225.948  1.00  0.00     0.189 C 
ATOM     10  O   UNL     1     -62.828 -79.328 227.094  1.00  0.00    -0.294 OA
BRANCH   9  11
ATOM     11  C   UNL     1     -62.356 -78.897 224.831  1.00  0.00     0.234 C 
BRANCH  11  12
ATOM     12  O   UNL     1     -63.051 -77.997 224.015  1.00  0.00    -0.388 OA
ATOM     13  H   UNL     1     -64.014 -78.184 224.159  1.00  0.00     0.211 HD
ENDBRANCH  11  12
ENDBRANCH   9  11
ENDBRANCH   8   9
BRANCH   8  14
ATOM     14  O   UNL     1     -64.777 -80.424 224.395  1.00  0.00    -0.382 OA
ATOM     15  H   UNL     1     -64.322 -79.803 223.768  1.00  0.00     0.211 HD
ENDBRANCH   8  14
ENDBRANCH   1   8
BRANCH   1  16
ATOM     16  O   UNL     1     -65.121 -77.688 226.549  1.00  0.00    -0.387 OA
ATOM     17  H   UNL     1     -64.818 -77.919 227.465  1.00  0.00     0.211 HD
ENDBRANCH   1  16
TORSDOF 10
ENDMDL
MODEL 7
REMARK VINA RESULT:    -3.676      9.677     11.507
REMARK INTER + INTRA:          -6.726
REMARK INTER:                  -5.530
REMARK INTRA:                  -1.196
REMARK UNBOUND:                -1.438
REMARK SMILES O=C(CO)[C@H](O)[C@@H](O)[C@H](O)CO
REMARK SMILES IDX 7 1 9 2 11 3 12 4 10 6 5 8 2 9 1 10 3 11 4 12 6 14 8 16
REMARK H PARENT 12 5 10 7 4 13 6 15 8 17
REMARK Flexibility Score: inf
ROOT
ATOM      1  C   UNL     1     -68.794 -75.660 216.000  1.00  0.00     0.181 C 
ENDROOT
BRANCH   1   2
ATOM      2  C   UNL     1     -67.528 -74.794 216.199  1.00  0.00     0.171 C 
BRANCH   2   3
ATOM      3  C   UNL     1     -66.239 -75.600 215.966  1.00  0.00     0.190 C 
BRANCH   3   4
ATOM      4  O   UNL     1     -65.141 -74.742 215.812  1.00  0.00    -0.394 OA
ATOM      5  H   UNL     1     -64.773 -74.925 214.909  1.00  0.00     0.210 HD
ENDBRANCH   3   4
ENDBRANCH   2   3
BRANCH   2   6
ATOM      6  O   UNL     1     -67.559 -73.684 215.337  1.00  0.00    -0.388 OA
ATOM      7  H   UNL     1     -68.144 -73.004 215.764  1.00  0.00     0.211 HD
ENDBRANCH   2   6
ENDBRANCH   1   2
BRANCH   1   8
ATOM      8  C   UNL     1     -69.998 -75.110 216.809  1.00  0.00     0.214 C 
BRANCH   8   9
ATOM      9  C   UNL     1     -71.187 -74.836 215.906  1.00  0.00     0.189 C 
ATOM     10  O   UNL     1     -71.885 -75.774 215.547  1.00  0.00    -0.294 OA
BRANCH   9  11
ATOM     11  C   UNL     1     -71.561 -73.446 215.470  1.00  0.00     0.234 C 
BRANCH  11  12
ATOM     12  O   UNL     1     -70.419 -72.769 215.027  1.00  0.00    -0.388 OA
ATOM     13  H   UNL     1     -70.725 -71.866 214.751  1.00  0.00     0.211 HD
ENDBRANCH  11  12
ENDBRANCH   9  11
ENDBRANCH   8   9
BRANCH   8  14
ATOM     14  O   UNL     1     -69.648 -73.978 217.569  1.00  0.00    -0.382 OA
ATOM     15  H   UNL     1     -69.892 -73.169 217.048  1.00  0.00     0.211 HD
ENDBRANCH   8  14
ENDBRANCH   1   8
BRANCH   1  16
ATOM     16  O   UNL     1     -69.132 -75.730 214.635  1.00  0.00    -0.387 OA
ATOM     17  H   UNL     1     -68.310 -75.533 214.116  1.00  0.00     0.211 HD
ENDBRANCH   1  16
TORSDOF 10
ENDMDL
MODEL 8
REMARK VINA RESULT:    -3.600      1.522      4.041
REMARK INTER + INTRA:          -6.616
REMARK INTER:                  -6.261
REMARK INTRA:                  -0.356
REMARK UNBOUND:                -1.438
REMARK SMILES O=C(CO)[C@H](O)[C@@H](O)[C@H](O)CO
REMARK SMILES IDX 7 1 9 2 11 3 12 4 10 6 5 8 2 9 1 10 3 11 4 12 6 14 8 16
REMARK H PARENT 12 5 10 7 4 13 6 15 8 17
REMARK Flexibility Score: inf
ROOT
ATOM      1  C   UNL     1     -57.992 -74.858 214.578  1.00  0.00     0.181 C 
ENDROOT
BRANCH   1   2
ATOM      2  C   UNL     1     -57.886 -73.428 215.158  1.00  0.00     0.171 C 
BRANCH   2   3
ATOM      3  C   UNL     1     -58.402 -73.356 216.605  1.00  0.00     0.190 C 
BRANCH   3   4
ATOM      4  O   UNL     1     -59.010 -72.118 216.852  1.00  0.00    -0.394 OA
ATOM      5  H   UNL     1     -58.290 -71.439 216.784  1.00  0.00     0.210 HD
ENDBRANCH   3   4
ENDBRANCH   2   3
BRANCH   2   6
ATOM      6  O   UNL     1     -56.555 -72.980 215.103  1.00  0.00    -0.388 OA
ATOM      7  H   UNL     1     -56.541 -72.067 215.493  1.00  0.00     0.211 HD
ENDBRANCH   2   6
ENDBRANCH   1   2
BRANCH   1   8
ATOM      8  C   UNL     1     -57.499 -75.926 215.588  1.00  0.00     0.214 C 
BRANCH   8   9
ATOM      9  C   UNL     1     -56.262 -76.640 215.073  1.00  0.00     0.189 C 
ATOM     10  O   UNL     1     -55.977 -76.546 213.888  1.00  0.00    -0.294 OA
BRANCH   9  11
ATOM     11  C   UNL     1     -55.352 -77.425 215.978  1.00  0.00     0.234 C 
BRANCH  11  12
ATOM     12  O   UNL     1     -55.543 -77.020 217.304  1.00  0.00    -0.388 OA
ATOM     13  H   UNL     1     -55.191 -77.755 217.869  1.00  0.00     0.211 HD
ENDBRANCH  11  12
ENDBRANCH   9  11
ENDBRANCH   8   9
BRANCH   8  14
ATOM     14  O   UNL     1     -58.518 -76.834 215.934  1.00  0.00    -0.382 OA
ATOM     15  H   UNL     1     -58.096 -77.709 216.138  1.00  0.00     0.211 HD
ENDBRANCH   8  14
ENDBRANCH   1   8
BRANCH   1  16
ATOM     16  O   UNL     1     -59.320 -75.137 214.201  1.00  0.00    -0.387 OA
ATOM     17  H   UNL     1     -59.322 -76.028 213.763  1.00  0.00     0.211 HD
ENDBRANCH   1  16
TORSDOF 10
ENDMDL
MODEL 9
REMARK VINA RESULT:    -3.586      9.577     11.929
REMARK INTER + INTRA:          -6.596
REMARK INTER:                  -5.199
REMARK INTRA:                  -1.397
REMARK UNBOUND:                -1.438
REMARK SMILES O=C(CO)[C@H](O)[C@@H](O)[C@H](O)CO
REMARK SMILES IDX 7 1 9 2 11 3 12 4 10 6 5 8 2 9 1 10 3 11 4 12 6 14 8 16
REMARK H PARENT 12 5 10 7 4 13 6 15 8 17
REMARK Flexibility Score: inf
ROOT
ATOM      1  C   UNL     1     -65.543 -78.482 224.117  1.00  0.00     0.181 C 
ENDROOT
BRANCH   1   2
ATOM      2  C   UNL     1     -66.823 -77.766 223.625  1.00  0.00     0.171 C 
BRANCH   2   3
ATOM      3  C   UNL     1     -67.918 -77.742 224.703  1.00  0.00     0.190 C 
BRANCH   3   4
ATOM      4  O   UNL     1     -67.784 -76.610 225.519  1.00  0.00    -0.394 OA
ATOM      5  H   UNL     1     -66.898 -76.691 225.958  1.00  0.00     0.210 HD
ENDBRANCH   3   4
ENDBRANCH   2   3
BRANCH   2   6
ATOM      6  O   UNL     1     -66.519 -76.453 223.223  1.00  0.00    -0.388 OA
ATOM      7  H   UNL     1     -65.529 -76.376 223.215  1.00  0.00     0.211 HD
ENDBRANCH   2   6
ENDBRANCH   1   2
BRANCH   1   8
ATOM      8  C   UNL     1     -64.542 -78.729 222.958  1.00  0.00     0.214 C 
BRANCH   8   9
ATOM      9  C   UNL     1     -63.232 -78.000 223.201  1.00  0.00     0.189 C 
ATOM     10  O   UNL     1     -62.411 -78.498 223.958  1.00  0.00    -0.294 OA
BRANCH   9  11
ATOM     11  C   UNL     1     -62.891 -76.708 222.511  1.00  0.00     0.234 C 
BRANCH  11  12
ATOM     12  O   UNL     1     -63.823 -75.726 222.866  1.00  0.00    -0.388 OA
ATOM     13  H   UNL     1     -63.932 -75.148 222.067  1.00  0.00     0.211 HD
ENDBRANCH  11  12
ENDBRANCH   9  11
ENDBRANCH   8   9
BRANCH   8  14
ATOM     14  O   UNL     1     -65.095 -78.402 221.706  1.00  0.00    -0.382 OA
ATOM     15  H   UNL     1     -65.923 -77.877 221.862  1.00  0.00     0.211 HD
ENDBRANCH   8  14
ENDBRANCH   1   8
BRANCH   1  16
ATOM     16  O   UNL     1     -64.920 -77.732 225.132  1.00  0.00    -0.387 OA
ATOM     17  H   UNL     1     -65.623 -77.188 225.573  1.00  0.00     0.211 HD
ENDBRANCH   1  16
TORSDOF 10
ENDMDL
