MODEL 1
REMARK VINA RESULT:    -7.572      0.000      0.000
REMARK INTER + INTRA:         -21.246
REMARK INTER:                 -19.081
REMARK INTRA:                  -2.165
REMARK UNBOUND:                -2.165
REMARK SMILES CCCCCCCCCCCCCCCCCCCCCCCCCCCC(=O)[O-]
REMARK SMILES IDX 15 1 16 2 17 3 18 4 19 5 20 6 21 7 22 8 23 9 24 10 25 11
REMARK SMILES IDX 26 12 27 13 28 14 29 15 30 16 14 17 13 18 12 19 11 20 10 21
REMARK SMILES IDX 9 22 8 23 7 24 6 25 5 26 4 27 3 28 2 29 1 30
REMARK H PARENT
REMARK Flexibility Score: inf
ROOT
ATOM      1  C   UNL     1      -2.911  -1.008   7.096  1.00  0.00     0.000 C 
ENDROOT
BRANCH   1   2
ATOM      2  C   UNL     1      -2.938  -2.427   6.508  1.00  0.00     0.000 C 
BRANCH   2   3
ATOM      3  C   UNL     1      -4.179  -2.625   5.623  1.00  0.00     0.000 C 
BRANCH   3   4
ATOM      4  C   UNL     1      -4.831  -1.294   5.214  1.00  0.00     0.000 C 
BRANCH   4   5
ATOM      5  C   UNL     1      -6.051  -1.497   4.300  1.00  0.00     0.000 C 
BRANCH   5   6
ATOM      6  C   UNL     1      -6.244  -0.351   3.288  1.00  0.00     0.000 C 
BRANCH   6   7
ATOM      7  C   UNL     1      -5.107   0.688   3.243  1.00  0.00     0.000 C 
BRANCH   7   8
ATOM      8  C   UNL     1      -4.201   0.536   2.011  1.00  0.00     0.000 C 
BRANCH   8   9
ATOM      9  C   UNL     1      -4.999   0.349   0.711  1.00  0.00     0.000 C 
BRANCH   9  10
ATOM     10  C   UNL     1      -4.105   0.024  -0.499  1.00  0.00     0.000 C 
BRANCH  10  11
ATOM     11  C   UNL     1      -4.883   0.098  -1.831  1.00  0.00     0.000 C 
BRANCH  11  12
ATOM     12  C   UNL     1      -4.026  -0.234  -3.063  1.00  0.00     0.006 C 
BRANCH  12  13
ATOM     13  C   UNL     1      -4.425  -1.557  -3.729  1.00  0.00     0.053 C 
BRANCH  13  14
ATOM     14  C   UNL     1      -3.707  -2.705  -3.090  1.00  0.00     0.041 C 
ATOM     15  O   UNL     1      -4.281  -3.819  -2.962  1.00  0.00    -0.550 OA
ATOM     16  O   UNL     1      -2.391  -2.555  -2.669  1.00  0.00    -0.550 OA
ENDBRANCH  13  14
ENDBRANCH  12  13
ENDBRANCH  11  12
ENDBRANCH  10  11
ENDBRANCH   9  10
ENDBRANCH   8   9
ENDBRANCH   7   8
ENDBRANCH   6   7
ENDBRANCH   5   6
ENDBRANCH   4   5
ENDBRANCH   3   4
ENDBRANCH   2   3
ENDBRANCH   1   2
BRANCH   1  17
ATOM     17  C   UNL     1      -1.754  -0.793   8.089  1.00  0.00     0.000 C 
BRANCH  17  18
ATOM     18  C   UNL     1      -1.853   0.486   8.946  1.00  0.00     0.000 C 
BRANCH  18  19
ATOM     19  C   UNL     1      -1.844   1.806   8.154  1.00  0.00     0.000 C 
BRANCH  19  20
ATOM     20  C   UNL     1      -2.988   2.751   8.560  1.00  0.00     0.000 C 
BRANCH  20  21
ATOM     21  C   UNL     1      -3.688   3.385   7.346  1.00  0.00     0.000 C 
BRANCH  21  22
ATOM     22  C   UNL     1      -3.045   2.962   6.014  1.00  0.00    -0.000 C 
BRANCH  22  23
ATOM     23  C   UNL     1      -3.607   3.742   4.814  1.00  0.00    -0.000 C 
BRANCH  23  24
ATOM     24  C   UNL     1      -4.266   5.071   5.226  1.00  0.00    -0.000 C 
BRANCH  24  25
ATOM     25  C   UNL     1      -5.521   5.386   4.395  1.00  0.00    -0.000 C 
BRANCH  25  26
ATOM     26  C   UNL     1      -5.237   6.382   3.256  1.00  0.00    -0.000 C 
BRANCH  26  27
ATOM     27  C   UNL     1      -6.440   6.568   2.317  1.00  0.00    -0.000 C 
BRANCH  27  28
ATOM     28  C   UNL     1      -7.692   5.754   2.701  1.00  0.00    -0.000 C 
BRANCH  28  29
ATOM     29  C   UNL     1      -8.878   5.941   1.732  1.00  0.00    -0.003 C 
ATOM     30  C   UNL     1     -10.223   5.607   2.381  1.00  0.00     0.004 C 
ENDBRANCH  28  29
ENDBRANCH  27  28
ENDBRANCH  26  27
ENDBRANCH  25  26
ENDBRANCH  24  25
ENDBRANCH  23  24
ENDBRANCH  22  23
ENDBRANCH  21  22
ENDBRANCH  20  21
ENDBRANCH  19  20
ENDBRANCH  18  19
ENDBRANCH  17  18
ENDBRANCH   1  17
TORSDOF 26
ENDMDL
MODEL 2
REMARK VINA RESULT:    -7.485      1.135      1.865
REMARK INTER + INTRA:         -21.026
REMARK INTER:                 -19.170
REMARK INTRA:                  -1.856
REMARK UNBOUND:                -2.165
REMARK SMILES CCCCCCCCCCCCCCCCCCCCCCCCCCCC(=O)[O-]
REMARK SMILES IDX 15 1 16 2 17 3 18 4 19 5 20 6 21 7 22 8 23 9 24 10 25 11
REMARK SMILES IDX 26 12 27 13 28 14 29 15 30 16 14 17 13 18 12 19 11 20 10 21
REMARK SMILES IDX 9 22 8 23 7 24 6 25 5 26 4 27 3 28 2 29 1 30
REMARK H PARENT
REMARK Flexibility Score: inf
ROOT
ATOM      1  C   UNL     1      -2.361  -2.222   6.754  1.00  0.00     0.000 C 
ENDROOT
BRANCH   1   2
ATOM      2  C   UNL     1      -3.643  -2.664   6.033  1.00  0.00     0.000 C 
BRANCH   2   3
ATOM      3  C   UNL     1      -4.281  -1.482   5.285  1.00  0.00     0.000 C 
BRANCH   3   4
ATOM      4  C   UNL     1      -5.666  -1.824   4.713  1.00  0.00     0.000 C 
BRANCH   4   5
ATOM      5  C   UNL     1      -6.093  -0.857   3.596  1.00  0.00     0.000 C 
BRANCH   5   6
ATOM      6  C   UNL     1      -5.235   0.422   3.544  1.00  0.00     0.000 C 
BRANCH   6   7
ATOM      7  C   UNL     1      -4.294   0.536   2.330  1.00  0.00     0.000 C 
BRANCH   7   8
ATOM      8  C   UNL     1      -5.032   0.427   0.985  1.00  0.00     0.000 C 
BRANCH   8   9
ATOM      9  C   UNL     1      -4.093   0.061  -0.175  1.00  0.00     0.000 C 
BRANCH   9  10
ATOM     10  C   UNL     1      -4.784   0.126  -1.549  1.00  0.00     0.000 C 
BRANCH  10  11
ATOM     11  C   UNL     1      -3.772   0.321  -2.698  1.00  0.00     0.000 C 
BRANCH  11  12
ATOM     12  C   UNL     1      -3.612  -0.919  -3.594  1.00  0.00     0.006 C 
BRANCH  12  13
ATOM     13  C   UNL     1      -2.202  -1.055  -4.181  1.00  0.00     0.053 C 
BRANCH  13  14
ATOM     14  C   UNL     1      -1.651  -2.421  -3.915  1.00  0.00     0.041 C 
ATOM     15  O   UNL     1      -1.767  -2.941  -2.772  1.00  0.00    -0.550 OA
ATOM     16  O   UNL     1      -1.041  -3.137  -4.938  1.00  0.00    -0.550 OA
ENDBRANCH  13  14
ENDBRANCH  12  13
ENDBRANCH  11  12
ENDBRANCH  10  11
ENDBRANCH   9  10
ENDBRANCH   8   9
ENDBRANCH   7   8
ENDBRANCH   6   7
ENDBRANCH   5   6
ENDBRANCH   4   5
ENDBRANCH   3   4
ENDBRANCH   2   3
ENDBRANCH   1   2
BRANCH   1  17
ATOM     17  C   UNL     1      -2.517  -0.874   7.483  1.00  0.00     0.000 C 
BRANCH  17  18
ATOM     18  C   UNL     1      -1.401  -0.541   8.495  1.00  0.00     0.000 C 
BRANCH  18  19
ATOM     19  C   UNL     1      -1.608   0.758   9.293  1.00  0.00     0.000 C 
BRANCH  19  20
ATOM     20  C   UNL     1      -1.699   2.002   8.391  1.00  0.00     0.000 C 
BRANCH  20  21
ATOM     21  C   UNL     1      -2.882   2.912   8.760  1.00  0.00     0.000 C 
BRANCH  21  22
ATOM     22  C   UNL     1      -3.702   3.336   7.529  1.00  0.00    -0.000 C 
BRANCH  22  23
ATOM     23  C   UNL     1      -2.935   3.134   6.212  1.00  0.00    -0.000 C 
BRANCH  23  24
ATOM     24  C   UNL     1      -3.521   3.957   5.051  1.00  0.00    -0.000 C 
BRANCH  24  25
ATOM     25  C   UNL     1      -4.754   4.774   5.473  1.00  0.00    -0.000 C 
BRANCH  25  26
ATOM     26  C   UNL     1      -5.044   5.940   4.510  1.00  0.00    -0.000 C 
BRANCH  26  27
ATOM     27  C   UNL     1      -6.513   5.987   4.061  1.00  0.00    -0.000 C 
BRANCH  27  28
ATOM     28  C   UNL     1      -6.721   6.028   2.535  1.00  0.00    -0.000 C 
BRANCH  28  29
ATOM     29  C   UNL     1      -5.707   6.923   1.792  1.00  0.00    -0.003 C 
ATOM     30  C   UNL     1      -5.820   6.800   0.271  1.00  0.00     0.004 C 
ENDBRANCH  28  29
ENDBRANCH  27  28
ENDBRANCH  26  27
ENDBRANCH  25  26
ENDBRANCH  24  25
ENDBRANCH  23  24
ENDBRANCH  22  23
ENDBRANCH  21  22
ENDBRANCH  20  21
ENDBRANCH  19  20
ENDBRANCH  18  19
ENDBRANCH  17  18
ENDBRANCH   1  17
TORSDOF 26
ENDMDL
MODEL 3
REMARK VINA RESULT:    -7.145      3.160      7.566
REMARK INTER + INTRA:         -20.170
REMARK INTER:                 -18.171
REMARK INTRA:                  -1.999
REMARK UNBOUND:                -2.165
REMARK SMILES CCCCCCCCCCCCCCCCCCCCCCCCCCCC(=O)[O-]
REMARK SMILES IDX 15 1 16 2 17 3 18 4 19 5 20 6 21 7 22 8 23 9 24 10 25 11
REMARK SMILES IDX 26 12 27 13 28 14 29 15 30 16 14 17 13 18 12 19 11 20 10 21
REMARK SMILES IDX 9 22 8 23 7 24 6 25 5 26 4 27 3 28 2 29 1 30
REMARK H PARENT
REMARK Flexibility Score: inf
ROOT
ATOM      1  C   UNL     1      -1.834  -1.007   7.725  1.00  0.00     0.000 C 
ENDROOT
BRANCH   1   2
ATOM      2  C   UNL     1      -2.031   0.014   8.855  1.00  0.00     0.000 C 
BRANCH   2   3
ATOM      3  C   UNL     1      -1.589   1.415   8.406  1.00  0.00     0.000 C 
BRANCH   3   4
ATOM      4  C   UNL     1      -2.547   2.519   8.883  1.00  0.00     0.000 C 
BRANCH   4   5
ATOM      5  C   UNL     1      -3.343   3.144   7.726  1.00  0.00     0.000 C 
BRANCH   5   6
ATOM      6  C   UNL     1      -2.888   2.645   6.341  1.00  0.00     0.000 C 
BRANCH   6   7
ATOM      7  C   UNL     1      -3.130   3.623   5.176  1.00  0.00     0.000 C 
BRANCH   7   8
ATOM      8  C   UNL     1      -4.238   4.647   5.470  1.00  0.00     0.000 C 
BRANCH   8   9
ATOM      9  C   UNL     1      -4.169   5.874   4.547  1.00  0.00     0.000 C 
BRANCH   9  10
ATOM     10  C   UNL     1      -5.558   6.401   4.146  1.00  0.00     0.000 C 
BRANCH  10  11
ATOM     11  C   UNL     1      -6.342   5.380   3.293  1.00  0.00     0.000 C 
BRANCH  11  12
ATOM     12  C   UNL     1      -7.432   6.019   2.416  1.00  0.00     0.006 C 
BRANCH  12  13
ATOM     13  C   UNL     1      -8.810   6.030   3.090  1.00  0.00     0.053 C 
BRANCH  13  14
ATOM     14  C   UNL     1      -9.855   5.501   2.157  1.00  0.00     0.041 C 
ATOM     15  O   UNL     1      -9.900   5.901   0.963  1.00  0.00    -0.550 OA
ATOM     16  O   UNL     1     -10.757   4.539   2.596  1.00  0.00    -0.550 OA
ENDBRANCH  13  14
ENDBRANCH  12  13
ENDBRANCH  11  12
ENDBRANCH  10  11
ENDBRANCH   9  10
ENDBRANCH   8   9
ENDBRANCH   7   8
ENDBRANCH   6   7
ENDBRANCH   5   6
ENDBRANCH   4   5
ENDBRANCH   3   4
ENDBRANCH   2   3
ENDBRANCH   1   2
BRANCH   1  17
ATOM     17  C   UNL     1      -3.023  -1.054   6.747  1.00  0.00     0.000 C 
BRANCH  17  18
ATOM     18  C   UNL     1      -3.533  -2.469   6.400  1.00  0.00     0.000 C 
BRANCH  18  19
ATOM     19  C   UNL     1      -4.508  -2.539   5.212  1.00  0.00     0.000 C 
BRANCH  19  20
ATOM     20  C   UNL     1      -5.210  -1.197   4.938  1.00  0.00     0.000 C 
BRANCH  20  21
ATOM     21  C   UNL     1      -6.462  -1.356   4.060  1.00  0.00     0.000 C 
BRANCH  21  22
ATOM     22  C   UNL     1      -6.578  -0.247   3.000  1.00  0.00    -0.000 C 
BRANCH  22  23
ATOM     23  C   UNL     1      -5.391   0.729   3.035  1.00  0.00    -0.000 C 
BRANCH  23  24
ATOM     24  C   UNL     1      -4.362   0.454   1.925  1.00  0.00    -0.000 C 
BRANCH  24  25
ATOM     25  C   UNL     1      -5.014   0.320   0.539  1.00  0.00    -0.000 C 
BRANCH  25  26
ATOM     26  C   UNL     1      -3.989  -0.002  -0.565  1.00  0.00    -0.000 C 
BRANCH  26  27
ATOM     27  C   UNL     1      -4.534   0.268  -1.977  1.00  0.00    -0.000 C 
BRANCH  27  28
ATOM     28  C   UNL     1      -3.553  -0.054  -3.120  1.00  0.00    -0.000 C 
BRANCH  28  29
ATOM     29  C   UNL     1      -3.362  -1.565  -3.371  1.00  0.00    -0.003 C 
ATOM     30  C   UNL     1      -1.980  -1.896  -3.939  1.00  0.00     0.004 C 
ENDBRANCH  28  29
ENDBRANCH  27  28
ENDBRANCH  26  27
ENDBRANCH  25  26
ENDBRANCH  24  25
ENDBRANCH  23  24
ENDBRANCH  22  23
ENDBRANCH  21  22
ENDBRANCH  20  21
ENDBRANCH  19  20
ENDBRANCH  18  19
ENDBRANCH  17  18
ENDBRANCH   1  17
TORSDOF 26
ENDMDL
MODEL 4
REMARK VINA RESULT:    -7.068      4.651      7.696
REMARK INTER + INTRA:         -19.977
REMARK INTER:                 -18.772
REMARK INTRA:                  -1.204
REMARK UNBOUND:                -2.165
REMARK SMILES CCCCCCCCCCCCCCCCCCCCCCCCCCCC(=O)[O-]
REMARK SMILES IDX 15 1 16 2 17 3 18 4 19 5 20 6 21 7 22 8 23 9 24 10 25 11
REMARK SMILES IDX 26 12 27 13 28 14 29 15 30 16 14 17 13 18 12 19 11 20 10 21
REMARK SMILES IDX 9 22 8 23 7 24 6 25 5 26 4 27 3 28 2 29 1 30
REMARK H PARENT
REMARK Flexibility Score: inf
ROOT
ATOM      1  C   UNL     1      -3.934  -0.294  -0.923  1.00  0.00     0.000 C 
ENDROOT
BRANCH   1   2
ATOM      2  C   UNL     1      -4.147   0.279  -2.332  1.00  0.00     0.000 C 
BRANCH   2   3
ATOM      3  C   UNL     1      -3.774  -0.758  -3.403  1.00  0.00     0.000 C 
BRANCH   3   4
ATOM      4  C   UNL     1      -2.282  -0.714  -3.772  1.00  0.00     0.000 C 
BRANCH   4   5
ATOM      5  C   UNL     1      -1.690  -2.118  -3.983  1.00  0.00     0.000 C 
BRANCH   5   6
ATOM      6  C   UNL     1      -0.919  -2.255  -5.310  1.00  0.00     0.000 C 
BRANCH   6   7
ATOM      7  C   UNL     1      -0.152  -3.578  -5.493  1.00  0.00     0.000 C 
BRANCH   7   8
ATOM      8  C   UNL     1      -0.219  -4.119  -6.931  1.00  0.00     0.000 C 
BRANCH   8   9
ATOM      9  C   UNL     1       1.134  -4.656  -7.423  1.00  0.00     0.000 C 
BRANCH   9  10
ATOM     10  C   UNL     1       2.010  -3.568  -8.070  1.00  0.00     0.000 C 
BRANCH  10  11
ATOM     11  C   UNL     1       3.503  -3.740  -7.715  1.00  0.00     0.000 C 
BRANCH  11  12
ATOM     12  C   UNL     1       4.250  -2.407  -7.537  1.00  0.00     0.006 C 
BRANCH  12  13
ATOM     13  C   UNL     1       5.439  -2.513  -6.574  1.00  0.00     0.053 C 
BRANCH  13  14
ATOM     14  C   UNL     1       5.168  -1.743  -5.319  1.00  0.00     0.041 C 
ATOM     15  O   UNL     1       6.053  -1.654  -4.425  1.00  0.00    -0.550 OA
ATOM     16  O   UNL     1       3.952  -1.092  -5.150  1.00  0.00    -0.550 OA
ENDBRANCH  13  14
ENDBRANCH  12  13
ENDBRANCH  11  12
ENDBRANCH  10  11
ENDBRANCH   9  10
ENDBRANCH   8   9
ENDBRANCH   7   8
ENDBRANCH   6   7
ENDBRANCH   5   6
ENDBRANCH   4   5
ENDBRANCH   3   4
ENDBRANCH   2   3
ENDBRANCH   1   2
BRANCH   1  17
ATOM     17  C   UNL     1      -4.759   0.438   0.152  1.00  0.00     0.000 C 
BRANCH  17  18
ATOM     18  C   UNL     1      -4.281   0.225   1.604  1.00  0.00     0.000 C 
BRANCH  18  19
ATOM     19  C   UNL     1      -5.030   1.051   2.666  1.00  0.00     0.000 C 
BRANCH  19  20
ATOM     20  C   UNL     1      -4.231   1.203   3.972  1.00  0.00     0.000 C 
BRANCH  20  21
ATOM     21  C   UNL     1      -3.544   2.574   4.086  1.00  0.00     0.000 C 
BRANCH  21  22
ATOM     22  C   UNL     1      -3.363   3.019   5.547  1.00  0.00    -0.000 C 
BRANCH  22  23
ATOM     23  C   UNL     1      -4.018   4.379   5.835  1.00  0.00    -0.000 C 
BRANCH  23  24
ATOM     24  C   UNL     1      -3.951   5.337   4.633  1.00  0.00    -0.000 C 
BRANCH  24  25
ATOM     25  C   UNL     1      -5.155   6.292   4.574  1.00  0.00    -0.000 C 
BRANCH  25  26
ATOM     26  C   UNL     1      -6.294   5.749   3.691  1.00  0.00    -0.000 C 
BRANCH  26  27
ATOM     27  C   UNL     1      -6.411   6.493   2.350  1.00  0.00    -0.000 C 
BRANCH  27  28
ATOM     28  C   UNL     1      -7.640   6.109   1.504  1.00  0.00    -0.000 C 
BRANCH  28  29
ATOM     29  C   UNL     1      -8.861   5.673   2.341  1.00  0.00    -0.003 C 
ATOM     30  C   UNL     1     -10.185   6.150   1.739  1.00  0.00     0.004 C 
ENDBRANCH  28  29
ENDBRANCH  27  28
ENDBRANCH  26  27
ENDBRANCH  25  26
ENDBRANCH  24  25
ENDBRANCH  23  24
ENDBRANCH  22  23
ENDBRANCH  21  22
ENDBRANCH  20  21
ENDBRANCH  19  20
ENDBRANCH  18  19
ENDBRANCH  17  18
ENDBRANCH   1  17
TORSDOF 26
ENDMDL
MODEL 5
REMARK VINA RESULT:    -7.053      4.937      8.368
REMARK INTER + INTRA:         -19.938
REMARK INTER:                 -18.629
REMARK INTRA:                  -1.309
REMARK UNBOUND:                -2.165
REMARK SMILES CCCCCCCCCCCCCCCCCCCCCCCCCCCC(=O)[O-]
REMARK SMILES IDX 15 1 16 2 17 3 18 4 19 5 20 6 21 7 22 8 23 9 24 10 25 11
REMARK SMILES IDX 26 12 27 13 28 14 29 15 30 16 14 17 13 18 12 19 11 20 10 21
REMARK SMILES IDX 9 22 8 23 7 24 6 25 5 26 4 27 3 28 2 29 1 30
REMARK H PARENT
REMARK Flexibility Score: inf
ROOT
ATOM      1  C   UNL     1      -4.921  -0.435  -2.670  1.00  0.00     0.000 C 
ENDROOT
BRANCH   1   2
ATOM      2  C   UNL     1      -4.161  -1.683  -3.144  1.00  0.00     0.000 C 
BRANCH   2   3
ATOM      3  C   UNL     1      -2.650  -1.515  -2.927  1.00  0.00     0.000 C 
BRANCH   3   4
ATOM      4  C   UNL     1      -1.857  -1.550  -4.243  1.00  0.00     0.000 C 
BRANCH   4   5
ATOM      5  C   UNL     1      -1.293  -2.948  -4.549  1.00  0.00     0.000 C 
BRANCH   5   6
ATOM      6  C   UNL     1      -0.269  -2.947  -5.701  1.00  0.00     0.000 C 
BRANCH   6   7
ATOM      7  C   UNL     1       0.071  -4.333  -6.282  1.00  0.00     0.000 C 
BRANCH   7   8
ATOM      8  C   UNL     1       0.349  -4.300  -7.794  1.00  0.00     0.000 C 
BRANCH   8   9
ATOM      9  C   UNL     1       1.472  -3.320  -8.166  1.00  0.00     0.000 C 
BRANCH   9  10
ATOM     10  C   UNL     1       2.846  -3.745  -7.618  1.00  0.00     0.000 C 
BRANCH  10  11
ATOM     11  C   UNL     1       3.923  -2.664  -7.850  1.00  0.00     0.000 C 
BRANCH  11  12
ATOM     12  C   UNL     1       4.975  -2.593  -6.731  1.00  0.00     0.006 C 
BRANCH  12  13
ATOM     13  C   UNL     1       4.665  -1.511  -5.688  1.00  0.00     0.053 C 
BRANCH  13  14
ATOM     14  C   UNL     1       5.688  -1.526  -4.595  1.00  0.00     0.041 C 
ATOM     15  O   UNL     1       6.913  -1.423  -4.871  1.00  0.00    -0.550 OA
ATOM     16  O   UNL     1       5.287  -1.618  -3.267  1.00  0.00    -0.550 OA
ENDBRANCH  13  14
ENDBRANCH  12  13
ENDBRANCH  11  12
ENDBRANCH  10  11
ENDBRANCH   9  10
ENDBRANCH   8   9
ENDBRANCH   7   8
ENDBRANCH   6   7
ENDBRANCH   5   6
ENDBRANCH   4   5
ENDBRANCH   3   4
ENDBRANCH   2   3
ENDBRANCH   1   2
BRANCH   1  17
ATOM     17  C   UNL     1      -4.267   0.236  -1.447  1.00  0.00     0.000 C 
BRANCH  17  18
ATOM     18  C   UNL     1      -5.153   0.308  -0.186  1.00  0.00     0.000 C 
BRANCH  18  19
ATOM     19  C   UNL     1      -4.388   0.372   1.148  1.00  0.00     0.000 C 
BRANCH  19  20
ATOM     20  C   UNL     1      -5.320   0.520   2.363  1.00  0.00     0.000 C 
BRANCH  20  21
ATOM     21  C   UNL     1      -4.695  -0.030   3.656  1.00  0.00     0.000 C 
BRANCH  21  22
ATOM     22  C   UNL     1      -3.681   0.946   4.277  1.00  0.00    -0.000 C 
BRANCH  22  23
ATOM     23  C   UNL     1      -4.016   2.415   3.975  1.00  0.00    -0.000 C 
BRANCH  23  24
ATOM     24  C   UNL     1      -3.312   3.394   4.932  1.00  0.00    -0.000 C 
BRANCH  24  25
ATOM     25  C   UNL     1      -4.239   4.527   5.403  1.00  0.00    -0.000 C 
BRANCH  25  26
ATOM     26  C   UNL     1      -4.159   5.768   4.495  1.00  0.00    -0.000 C 
BRANCH  26  27
ATOM     27  C   UNL     1      -5.537   6.393   4.222  1.00  0.00    -0.000 C 
BRANCH  27  28
ATOM     28  C   UNL     1      -6.444   5.571   3.285  1.00  0.00    -0.000 C 
BRANCH  28  29
ATOM     29  C   UNL     1      -6.899   6.340   2.026  1.00  0.00    -0.003 C 
ATOM     30  C   UNL     1      -5.724   6.926   1.240  1.00  0.00     0.004 C 
ENDBRANCH  28  29
ENDBRANCH  27  28
ENDBRANCH  26  27
ENDBRANCH  25  26
ENDBRANCH  24  25
ENDBRANCH  23  24
ENDBRANCH  22  23
ENDBRANCH  21  22
ENDBRANCH  20  21
ENDBRANCH  19  20
ENDBRANCH  18  19
ENDBRANCH  17  18
ENDBRANCH   1  17
TORSDOF 26
ENDMDL
MODEL 6
REMARK VINA RESULT:    -6.992      3.320      8.978
REMARK INTER + INTRA:         -19.785
REMARK INTER:                 -17.690
REMARK INTRA:                  -2.095
REMARK UNBOUND:                -2.165
REMARK SMILES CCCCCCCCCCCCCCCCCCCCCCCCCCCC(=O)[O-]
REMARK SMILES IDX 15 1 16 2 17 3 18 4 19 5 20 6 21 7 22 8 23 9 24 10 25 11
REMARK SMILES IDX 26 12 27 13 28 14 29 15 30 16 14 17 13 18 12 19 11 20 10 21
REMARK SMILES IDX 9 22 8 23 7 24 6 25 5 26 4 27 3 28 2 29 1 30
REMARK H PARENT
REMARK Flexibility Score: inf
ROOT
ATOM      1  C   UNL     1      -5.978  -1.512   5.112  1.00  0.00     0.000 C 
ENDROOT
BRANCH   1   2
ATOM      2  C   UNL     1      -4.841  -2.543   5.169  1.00  0.00     0.000 C 
BRANCH   2   3
ATOM      3  C   UNL     1      -3.484  -1.846   5.350  1.00  0.00     0.000 C 
BRANCH   3   4
ATOM      4  C   UNL     1      -2.676  -2.422   6.524  1.00  0.00     0.000 C 
BRANCH   4   5
ATOM      5  C   UNL     1      -2.110  -1.324   7.440  1.00  0.00     0.000 C 
BRANCH   5   6
ATOM      6  C   UNL     1      -2.905  -0.005   7.364  1.00  0.00     0.000 C 
BRANCH   6   7
ATOM      7  C   UNL     1      -2.418   1.112   8.307  1.00  0.00     0.000 C 
BRANCH   7   8
ATOM      8  C   UNL     1      -2.567   2.517   7.702  1.00  0.00     0.000 C 
BRANCH   8   9
ATOM      9  C   UNL     1      -3.084   2.486   6.255  1.00  0.00     0.000 C 
BRANCH   9  10
ATOM     10  C   UNL     1      -3.147   3.882   5.611  1.00  0.00     0.000 C 
BRANCH  10  11
ATOM     11  C   UNL     1      -4.404   4.058   4.732  1.00  0.00     0.000 C 
BRANCH  11  12
ATOM     12  C   UNL     1      -5.221   5.316   5.072  1.00  0.00     0.006 C 
BRANCH  12  13
ATOM     13  C   UNL     1      -5.214   6.356   3.945  1.00  0.00     0.053 C 
BRANCH  13  14
ATOM     14  C   UNL     1      -6.398   6.168   3.049  1.00  0.00     0.041 C 
ATOM     15  O   UNL     1      -7.417   5.552   3.464  1.00  0.00    -0.550 OA
ATOM     16  O   UNL     1      -6.394   6.704   1.767  1.00  0.00    -0.550 OA
ENDBRANCH  13  14
ENDBRANCH  12  13
ENDBRANCH  11  12
ENDBRANCH  10  11
ENDBRANCH   9  10
ENDBRANCH   8   9
ENDBRANCH   7   8
ENDBRANCH   6   7
ENDBRANCH   5   6
ENDBRANCH   4   5
ENDBRANCH   3   4
ENDBRANCH   2   3
ENDBRANCH   1   2
BRANCH   1  17
ATOM     17  C   UNL     1      -6.632  -1.418   3.721  1.00  0.00     0.000 C 
BRANCH  17  18
ATOM     18  C   UNL     1      -6.564  -0.027   3.056  1.00  0.00     0.000 C 
BRANCH  18  19
ATOM     19  C   UNL     1      -5.211   0.694   3.190  1.00  0.00     0.000 C 
BRANCH  19  20
ATOM     20  C   UNL     1      -4.243   0.361   2.041  1.00  0.00     0.000 C 
BRANCH  20  21
ATOM     21  C   UNL     1      -4.916   0.446   0.661  1.00  0.00     0.000 C 
BRANCH  21  22
ATOM     22  C   UNL     1      -4.013  -0.090  -0.464  1.00  0.00    -0.000 C 
BRANCH  22  23
ATOM     23  C   UNL     1      -4.670   0.019  -1.850  1.00  0.00    -0.000 C 
BRANCH  23  24
ATOM     24  C   UNL     1      -3.660  -0.142  -3.000  1.00  0.00    -0.000 C 
BRANCH  24  25
ATOM     25  C   UNL     1      -3.452  -1.612  -3.400  1.00  0.00    -0.000 C 
BRANCH  25  26
ATOM     26  C   UNL     1      -2.211  -2.233  -2.732  1.00  0.00    -0.000 C 
BRANCH  26  27
ATOM     27  C   UNL     1      -1.433  -3.164  -3.676  1.00  0.00    -0.000 C 
BRANCH  27  28
ATOM     28  C   UNL     1      -1.005  -2.521  -5.009  1.00  0.00    -0.000 C 
BRANCH  28  29
ATOM     29  C   UNL     1       0.094  -3.308  -5.755  1.00  0.00    -0.003 C 
ATOM     30  C   UNL     1      -0.462  -4.133  -6.918  1.00  0.00     0.004 C 
ENDBRANCH  28  29
ENDBRANCH  27  28
ENDBRANCH  26  27
ENDBRANCH  25  26
ENDBRANCH  24  25
ENDBRANCH  23  24
ENDBRANCH  22  23
ENDBRANCH  21  22
ENDBRANCH  20  21
ENDBRANCH  19  20
ENDBRANCH  18  19
ENDBRANCH  17  18
ENDBRANCH   1  17
TORSDOF 26
ENDMDL
MODEL 7
REMARK VINA RESULT:    -6.983      1.967      4.877
REMARK INTER + INTRA:         -19.761
REMARK INTER:                 -17.789
REMARK INTRA:                  -1.972
REMARK UNBOUND:                -2.165
REMARK SMILES CCCCCCCCCCCCCCCCCCCCCCCCCCCC(=O)[O-]
REMARK SMILES IDX 15 1 16 2 17 3 18 4 19 5 20 6 21 7 22 8 23 9 24 10 25 11
REMARK SMILES IDX 26 12 27 13 28 14 29 15 30 16 14 17 13 18 12 19 11 20 10 21
REMARK SMILES IDX 9 22 8 23 7 24 6 25 5 26 4 27 3 28 2 29 1 30
REMARK H PARENT
REMARK Flexibility Score: inf
ROOT
ATOM      1  C   UNL     1      -6.323  -0.550   3.213  1.00  0.00     0.000 C 
ENDROOT
BRANCH   1   2
ATOM      2  C   UNL     1      -5.351   0.631   3.072  1.00  0.00     0.000 C 
BRANCH   2   3
ATOM      3  C   UNL     1      -4.357   0.384   1.927  1.00  0.00     0.000 C 
BRANCH   3   4
ATOM      4  C   UNL     1      -5.043   0.327   0.552  1.00  0.00     0.000 C 
BRANCH   4   5
ATOM      5  C   UNL     1      -4.059  -0.016  -0.579  1.00  0.00     0.000 C 
BRANCH   5   6
ATOM      6  C   UNL     1      -4.600   0.340  -1.978  1.00  0.00     0.000 C 
BRANCH   6   7
ATOM      7  C   UNL     1      -5.410  -0.771  -2.672  1.00  0.00     0.000 C 
BRANCH   7   8
ATOM      8  C   UNL     1      -4.634  -1.464  -3.804  1.00  0.00     0.000 C 
BRANCH   8   9
ATOM      9  C   UNL     1      -3.988  -2.784  -3.355  1.00  0.00     0.000 C 
BRANCH   9  10
ATOM     10  C   UNL     1      -2.553  -2.599  -2.830  1.00  0.00     0.000 C 
BRANCH  10  11
ATOM     11  C   UNL     1      -1.801  -1.478  -3.579  1.00  0.00     0.000 C 
BRANCH  11  12
ATOM     12  C   UNL     1      -1.263  -1.910  -4.954  1.00  0.00     0.006 C 
BRANCH  12  13
ATOM     13  C   UNL     1      -0.527  -3.255  -4.911  1.00  0.00     0.053 C 
BRANCH  13  14
ATOM     14  C   UNL     1      -0.171  -3.704  -6.294  1.00  0.00     0.041 C 
ATOM     15  O   UNL     1       0.780  -3.156  -6.914  1.00  0.00    -0.550 OA
ATOM     16  O   UNL     1      -0.866  -4.751  -6.887  1.00  0.00    -0.550 OA
ENDBRANCH  13  14
ENDBRANCH  12  13
ENDBRANCH  11  12
ENDBRANCH  10  11
ENDBRANCH   9  10
ENDBRANCH   8   9
ENDBRANCH   7   8
ENDBRANCH   6   7
ENDBRANCH   5   6
ENDBRANCH   4   5
ENDBRANCH   3   4
ENDBRANCH   2   3
ENDBRANCH   1   2
BRANCH   1  17
ATOM     17  C   UNL     1      -6.007  -1.444   4.427  1.00  0.00     0.000 C 
BRANCH  17  18
ATOM     18  C   UNL     1      -4.530  -1.871   4.562  1.00  0.00     0.000 C 
BRANCH  18  19
ATOM     19  C   UNL     1      -4.180  -2.608   5.866  1.00  0.00     0.000 C 
BRANCH  19  20
ATOM     20  C   UNL     1      -3.009  -1.957   6.622  1.00  0.00     0.000 C 
BRANCH  20  21
ATOM     21  C   UNL     1      -3.250  -0.465   6.910  1.00  0.00     0.000 C 
BRANCH  21  22
ATOM     22  C   UNL     1      -2.310   0.080   7.998  1.00  0.00    -0.000 C 
BRANCH  22  23
ATOM     23  C   UNL     1      -1.888   1.535   7.738  1.00  0.00    -0.000 C 
BRANCH  23  24
ATOM     24  C   UNL     1      -2.800   2.554   8.445  1.00  0.00    -0.000 C 
BRANCH  24  25
ATOM     25  C   UNL     1      -3.652   3.366   7.455  1.00  0.00    -0.000 C 
BRANCH  25  26
ATOM     26  C   UNL     1      -3.147   3.242   6.006  1.00  0.00    -0.000 C 
BRANCH  26  27
ATOM     27  C   UNL     1      -3.398   4.514   5.180  1.00  0.00    -0.000 C 
BRANCH  27  28
ATOM     28  C   UNL     1      -4.845   4.683   4.676  1.00  0.00    -0.000 C 
BRANCH  28  29
ATOM     29  C   UNL     1      -5.233   6.146   4.375  1.00  0.00    -0.003 C 
ATOM     30  C   UNL     1      -6.036   6.285   3.080  1.00  0.00     0.004 C 
ENDBRANCH  28  29
ENDBRANCH  27  28
ENDBRANCH  26  27
ENDBRANCH  25  26
ENDBRANCH  24  25
ENDBRANCH  23  24
ENDBRANCH  22  23
ENDBRANCH  21  22
ENDBRANCH  20  21
ENDBRANCH  19  20
ENDBRANCH  18  19
ENDBRANCH  17  18
ENDBRANCH   1  17
TORSDOF 26
ENDMDL
MODEL 8
REMARK VINA RESULT:    -6.977      3.685      6.327
REMARK INTER + INTRA:         -19.747
REMARK INTER:                 -18.107
REMARK INTRA:                  -1.640
REMARK UNBOUND:                -2.165
REMARK SMILES CCCCCCCCCCCCCCCCCCCCCCCCCCCC(=O)[O-]
REMARK SMILES IDX 15 1 16 2 17 3 18 4 19 5 20 6 21 7 22 8 23 9 24 10 25 11
REMARK SMILES IDX 26 12 27 13 28 14 29 15 30 16 14 17 13 18 12 19 11 20 10 21
REMARK SMILES IDX 9 22 8 23 7 24 6 25 5 26 4 27 3 28 2 29 1 30
REMARK H PARENT
REMARK Flexibility Score: inf
ROOT
ATOM      1  C   UNL     1      -4.298   0.378   0.828  1.00  0.00     0.000 C 
ENDROOT
BRANCH   1   2
ATOM      2  C   UNL     1      -5.101   0.365  -0.481  1.00  0.00     0.000 C 
BRANCH   2   3
ATOM      3  C   UNL     1      -4.230  -0.127  -1.648  1.00  0.00     0.000 C 
BRANCH   3   4
ATOM      4  C   UNL     1      -5.034  -0.921  -2.690  1.00  0.00     0.000 C 
BRANCH   4   5
ATOM      5  C   UNL     1      -4.143  -1.491  -3.806  1.00  0.00     0.000 C 
BRANCH   5   6
ATOM      6  C   UNL     1      -2.952  -0.577  -4.154  1.00  0.00     0.000 C 
BRANCH   6   7
ATOM      7  C   UNL     1      -1.597  -1.292  -4.314  1.00  0.00     0.000 C 
BRANCH   7   8
ATOM      8  C   UNL     1      -1.601  -2.722  -3.750  1.00  0.00     0.000 C 
BRANCH   8   9
ATOM      9  C   UNL     1      -0.687  -3.671  -4.540  1.00  0.00     0.000 C 
BRANCH   9  10
ATOM     10  C   UNL     1      -0.364  -3.153  -5.953  1.00  0.00     0.000 C 
BRANCH  10  11
ATOM     11  C   UNL     1      -0.226  -4.302  -6.975  1.00  0.00     0.000 C 
BRANCH  11  12
ATOM     12  C   UNL     1       1.224  -4.566  -7.413  1.00  0.00     0.006 C 
BRANCH  12  13
ATOM     13  C   UNL     1       1.808  -3.428  -8.260  1.00  0.00     0.053 C 
BRANCH  13  14
ATOM     14  C   UNL     1       3.258  -3.229  -7.944  1.00  0.00     0.041 C 
ATOM     15  O   UNL     1       4.104  -4.107  -8.262  1.00  0.00    -0.550 OA
ATOM     16  O   UNL     1       3.681  -2.056  -7.330  1.00  0.00    -0.550 OA
ENDBRANCH  13  14
ENDBRANCH  12  13
ENDBRANCH  11  12
ENDBRANCH  10  11
ENDBRANCH   9  10
ENDBRANCH   8   9
ENDBRANCH   7   8
ENDBRANCH   6   7
ENDBRANCH   5   6
ENDBRANCH   4   5
ENDBRANCH   3   4
ENDBRANCH   2   3
ENDBRANCH   1   2
BRANCH   1  17
ATOM     17  C   UNL     1      -5.193   0.341   2.081  1.00  0.00     0.000 C 
BRANCH  17  18
ATOM     18  C   UNL     1      -5.025   1.535   3.044  1.00  0.00     0.000 C 
BRANCH  18  19
ATOM     19  C   UNL     1      -3.808   1.450   3.983  1.00  0.00     0.000 C 
BRANCH  19  20
ATOM     20  C   UNL     1      -3.092   2.801   4.152  1.00  0.00     0.000 C 
BRANCH  20  21
ATOM     21  C   UNL     1      -3.118   3.303   5.606  1.00  0.00     0.000 C 
BRANCH  21  22
ATOM     22  C   UNL     1      -4.219   4.351   5.843  1.00  0.00    -0.000 C 
BRANCH  22  23
ATOM     23  C   UNL     1      -4.319   5.372   4.699  1.00  0.00    -0.000 C 
BRANCH  23  24
ATOM     24  C   UNL     1      -5.759   5.550   4.186  1.00  0.00    -0.000 C 
BRANCH  24  25
ATOM     25  C   UNL     1      -5.815   6.284   2.835  1.00  0.00    -0.000 C 
BRANCH  25  26
ATOM     26  C   UNL     1      -7.205   6.202   2.179  1.00  0.00    -0.000 C 
BRANCH  26  27
ATOM     27  C   UNL     1      -8.335   6.014   3.205  1.00  0.00    -0.000 C 
BRANCH  27  28
ATOM     28  C   UNL     1      -9.628   5.399   2.637  1.00  0.00    -0.000 C 
BRANCH  28  29
ATOM     29  C   UNL     1     -10.372   6.318   1.645  1.00  0.00    -0.003 C 
ATOM     30  C   UNL     1     -10.189   5.882   0.190  1.00  0.00     0.004 C 
ENDBRANCH  28  29
ENDBRANCH  27  28
ENDBRANCH  26  27
ENDBRANCH  25  26
ENDBRANCH  24  25
ENDBRANCH  23  24
ENDBRANCH  22  23
ENDBRANCH  21  22
ENDBRANCH  20  21
ENDBRANCH  19  20
ENDBRANCH  18  19
ENDBRANCH  17  18
ENDBRANCH   1  17
TORSDOF 26
ENDMDL
MODEL 9
REMARK VINA RESULT:    -6.829      5.569     12.177
REMARK INTER + INTRA:         -19.372
REMARK INTER:                 -17.758
REMARK INTRA:                  -1.614
REMARK UNBOUND:                -2.165
REMARK SMILES CCCCCCCCCCCCCCCCCCCCCCCCCCCC(=O)[O-]
REMARK SMILES IDX 15 1 16 2 17 3 18 4 19 5 20 6 21 7 22 8 23 9 24 10 25 11
REMARK SMILES IDX 26 12 27 13 28 14 29 15 30 16 14 17 13 18 12 19 11 20 10 21
REMARK SMILES IDX 9 22 8 23 7 24 6 25 5 26 4 27 3 28 2 29 1 30
REMARK H PARENT
REMARK Flexibility Score: inf
ROOT
ATOM      1  C   UNL     1      -4.973  -0.688  -2.569  1.00  0.00     0.000 C 
ENDROOT
BRANCH   1   2
ATOM      2  C   UNL     1      -4.266   0.158  -1.499  1.00  0.00     0.000 C 
BRANCH   2   3
ATOM      3  C   UNL     1      -5.174   0.356  -0.275  1.00  0.00     0.000 C 
BRANCH   3   4
ATOM      4  C   UNL     1      -4.390   0.358   1.047  1.00  0.00     0.000 C 
BRANCH   4   5
ATOM      5  C   UNL     1      -5.314   0.344   2.276  1.00  0.00     0.000 C 
BRANCH   5   6
ATOM      6  C   UNL     1      -5.016   1.484   3.269  1.00  0.00     0.000 C 
BRANCH   6   7
ATOM      7  C   UNL     1      -3.564   1.549   3.780  1.00  0.00     0.000 C 
BRANCH   7   8
ATOM      8  C   UNL     1      -3.092   2.983   4.070  1.00  0.00     0.000 C 
BRANCH   8   9
ATOM      9  C   UNL     1      -3.465   3.453   5.484  1.00  0.00     0.000 C 
BRANCH   9  10
ATOM     10  C   UNL     1      -4.447   4.639   5.482  1.00  0.00     0.000 C 
BRANCH  10  11
ATOM     11  C   UNL     1      -3.992   5.766   4.530  1.00  0.00     0.000 C 
BRANCH  11  12
ATOM     12  C   UNL     1      -5.127   6.331   3.660  1.00  0.00     0.006 C 
BRANCH  12  13
ATOM     13  C   UNL     1      -6.512   5.820   4.078  1.00  0.00     0.053 C 
BRANCH  13  14
ATOM     14  C   UNL     1      -7.464   5.878   2.924  1.00  0.00     0.041 C 
ATOM     15  O   UNL     1      -7.068   6.272   1.794  1.00  0.00    -0.550 OA
ATOM     16  O   UNL     1      -8.780   5.463   3.086  1.00  0.00    -0.550 OA
ENDBRANCH  13  14
ENDBRANCH  12  13
ENDBRANCH  11  12
ENDBRANCH  10  11
ENDBRANCH   9  10
ENDBRANCH   8   9
ENDBRANCH   7   8
ENDBRANCH   6   7
ENDBRANCH   5   6
ENDBRANCH   4   5
ENDBRANCH   3   4
ENDBRANCH   2   3
ENDBRANCH   1   2
BRANCH   1  17
ATOM     17  C   UNL     1      -3.989  -1.455  -3.473  1.00  0.00     0.000 C 
BRANCH  17  18
ATOM     18  C   UNL     1      -2.500  -1.103  -3.270  1.00  0.00     0.000 C 
BRANCH  18  19
ATOM     19  C   UNL     1      -1.623  -1.226  -4.528  1.00  0.00     0.000 C 
BRANCH  19  20
ATOM     20  C   UNL     1      -0.998  -2.623  -4.684  1.00  0.00     0.000 C 
BRANCH  20  21
ATOM     21  C   UNL     1      -0.388  -2.844  -6.078  1.00  0.00     0.000 C 
BRANCH  21  22
ATOM     22  C   UNL     1       0.575  -4.043  -6.112  1.00  0.00    -0.000 C 
BRANCH  22  23
ATOM     23  C   UNL     1       1.060  -4.370  -7.533  1.00  0.00    -0.000 C 
BRANCH  23  24
ATOM     24  C   UNL     1       2.124  -3.381  -8.040  1.00  0.00    -0.000 C 
BRANCH  24  25
ATOM     25  C   UNL     1       3.541  -3.977  -8.015  1.00  0.00    -0.000 C 
BRANCH  25  26
ATOM     26  C   UNL     1       4.540  -3.087  -7.252  1.00  0.00    -0.000 C 
BRANCH  26  27
ATOM     27  C   UNL     1       3.844  -2.040  -6.366  1.00  0.00    -0.000 C 
BRANCH  27  28
ATOM     28  C   UNL     1       4.793  -1.027  -5.697  1.00  0.00    -0.000 C 
BRANCH  28  29
ATOM     29  C   UNL     1       5.729  -1.654  -4.641  1.00  0.00    -0.003 C 
ATOM     30  C   UNL     1       5.047  -1.827  -3.282  1.00  0.00     0.004 C 
ENDBRANCH  28  29
ENDBRANCH  27  28
ENDBRANCH  26  27
ENDBRANCH  25  26
ENDBRANCH  24  25
ENDBRANCH  23  24
ENDBRANCH  22  23
ENDBRANCH  21  22
ENDBRANCH  20  21
ENDBRANCH  19  20
ENDBRANCH  18  19
ENDBRANCH  17  18
ENDBRANCH   1  17
TORSDOF 26
ENDMDL
