MODEL 1
REMARK VINA RESULT:    20.785      0.000      0.000
REMARK INTER + INTRA:          46.050
REMARK INTER:                  47.517
REMARK INTRA:                  -1.468
REMARK UNBOUND:                -1.468
REMARK SMILES CCCCCCCCCCCCCCCCCCCCCCCC(=O)[O-]
REMARK SMILES IDX 13 1 14 2 15 3 16 4 17 5 18 6 19 7 20 8 21 9 22 10 23 11
REMARK SMILES IDX 24 12 25 13 26 14 12 15 11 16 10 17 9 18 8 19 7 20 6 21 5 22
REMARK SMILES IDX 4 23 3 24 2 25 1 26
REMARK H PARENT
REMARK Flexibility Score: inf
ROOT
ATOM      1  C   UNL     1     -11.986  -0.206 -18.215  1.00  0.00     0.000 C 
ENDROOT
BRANCH   1   2
ATOM      2  C   UNL     1     -12.178  -1.563 -17.520  1.00  0.00     0.000 C 
BRANCH   2   3
ATOM      3  C   UNL     1     -13.270  -1.529 -16.438  1.00  0.00     0.000 C 
BRANCH   3   4
ATOM      4  C   UNL     1     -14.161  -2.785 -16.449  1.00  0.00     0.000 C 
BRANCH   4   5
ATOM      5  C   UNL     1     -14.745  -3.192 -15.080  1.00  0.00     0.000 C 
BRANCH   5   6
ATOM      6  C   UNL     1     -14.136  -4.462 -14.457  1.00  0.00     0.000 C 
BRANCH   6   7
ATOM      7  C   UNL     1     -13.825  -4.299 -12.958  1.00  0.00     0.000 C 
BRANCH   7   8
ATOM      8  C   UNL     1     -15.024  -3.760 -12.160  1.00  0.00     0.000 C 
BRANCH   8   9
ATOM      9  C   UNL     1     -14.623  -3.265 -10.759  1.00  0.00     0.000 C 
BRANCH   9  10
ATOM     10  C   UNL     1     -15.094  -1.825 -10.480  1.00  0.00     0.006 C 
BRANCH  10  11
ATOM     11  C   UNL     1     -14.009  -0.900  -9.907  1.00  0.00     0.053 C 
BRANCH  11  12
ATOM     12  C   UNL     1     -14.009   0.445 -10.568  1.00  0.00     0.041 C 
ATOM     13  O   UNL     1     -14.961   0.782 -11.320  1.00  0.00    -0.550 OA
ATOM     14  O   UNL     1     -12.975   1.340 -10.323  1.00  0.00    -0.550 OA
ENDBRANCH  11  12
ENDBRANCH  10  11
ENDBRANCH   9  10
ENDBRANCH   8   9
ENDBRANCH   7   8
ENDBRANCH   6   7
ENDBRANCH   5   6
ENDBRANCH   4   5
ENDBRANCH   3   4
ENDBRANCH   2   3
ENDBRANCH   1   2
BRANCH   1  15
ATOM     15  C   UNL     1     -12.783   0.925 -17.540  1.00  0.00     0.000 C 
BRANCH  15  16
ATOM     16  C   UNL     1     -12.017   2.260 -17.520  1.00  0.00     0.000 C 
BRANCH  16  17
ATOM     17  C   UNL     1     -12.842   3.496 -17.932  1.00  0.00     0.000 C 
BRANCH  17  18
ATOM     18  C   UNL     1     -14.321   3.218 -18.269  1.00  0.00    -0.000 C 
BRANCH  18  19
ATOM     19  C   UNL     1     -15.139   4.460 -18.667  1.00  0.00    -0.000 C 
BRANCH  19  20
ATOM     20  C   UNL     1     -14.280   5.552 -19.324  1.00  0.00    -0.000 C 
BRANCH  20  21
ATOM     21  C   UNL     1     -15.102   6.516 -20.198  1.00  0.00    -0.000 C 
BRANCH  21  22
ATOM     22  C   UNL     1     -14.999   8.003 -19.805  1.00  0.00    -0.000 C 
BRANCH  22  23
ATOM     23  C   UNL     1     -15.085   8.230 -18.286  1.00  0.00    -0.000 C 
BRANCH  23  24
ATOM     24  C   UNL     1     -13.733   8.626 -17.672  1.00  0.00    -0.000 C 
BRANCH  24  25
ATOM     25  C   UNL     1     -13.565   8.119 -16.232  1.00  0.00    -0.003 C 
ATOM     26  C   UNL     1     -12.442   7.089 -16.141  1.00  0.00     0.004 C 
ENDBRANCH  24  25
ENDBRANCH  23  24
ENDBRANCH  22  23
ENDBRANCH  21  22
ENDBRANCH  20  21
ENDBRANCH  19  20
ENDBRANCH  18  19
ENDBRANCH  17  18
ENDBRANCH  16  17
ENDBRANCH  15  16
ENDBRANCH   1  15
TORSDOF 22
ENDMDL
MODEL 2
REMARK VINA RESULT:    20.814      0.813      2.307
REMARK INTER + INTRA:          46.116
REMARK INTER:                  47.359
REMARK INTRA:                  -1.243
REMARK UNBOUND:                -1.468
REMARK SMILES CCCCCCCCCCCCCCCCCCCCCCCC(=O)[O-]
REMARK SMILES IDX 13 1 14 2 15 3 16 4 17 5 18 6 19 7 20 8 21 9 22 10 23 11
REMARK SMILES IDX 24 12 25 13 26 14 12 15 11 16 10 17 9 18 8 19 7 20 6 21 5 22
REMARK SMILES IDX 4 23 3 24 2 25 1 26
REMARK H PARENT
REMARK Flexibility Score: inf
ROOT
ATOM      1  C   UNL     1     -11.464  -0.052 -17.783  1.00  0.00     0.000 C 
ENDROOT
BRANCH   1   2
ATOM      2  C   UNL     1     -12.202  -1.395 -17.673  1.00  0.00     0.000 C 
BRANCH   2   3
ATOM      3  C   UNL     1     -13.377  -1.350 -16.682  1.00  0.00     0.000 C 
BRANCH   3   4
ATOM      4  C   UNL     1     -14.079  -2.711 -16.525  1.00  0.00     0.000 C 
BRANCH   4   5
ATOM      5  C   UNL     1     -14.626  -3.014 -15.114  1.00  0.00     0.000 C 
BRANCH   5   6
ATOM      6  C   UNL     1     -14.186  -4.361 -14.513  1.00  0.00     0.000 C 
BRANCH   6   7
ATOM      7  C   UNL     1     -13.841  -4.261 -13.016  1.00  0.00     0.000 C 
BRANCH   7   8
ATOM      8  C   UNL     1     -15.057  -3.890 -12.152  1.00  0.00     0.000 C 
BRANCH   8   9
ATOM      9  C   UNL     1     -14.654  -3.336 -10.774  1.00  0.00     0.000 C 
BRANCH   9  10
ATOM     10  C   UNL     1     -15.059  -1.863 -10.583  1.00  0.00     0.006 C 
BRANCH  10  11
ATOM     11  C   UNL     1     -13.999  -0.996  -9.885  1.00  0.00     0.053 C 
BRANCH  11  12
ATOM     12  C   UNL     1     -13.976   0.404 -10.419  1.00  0.00     0.041 C 
ATOM     13  O   UNL     1     -13.077   1.207 -10.054  1.00  0.00    -0.550 OA
ATOM     14  O   UNL     1     -14.927   0.810 -11.348  1.00  0.00    -0.550 OA
ENDBRANCH  11  12
ENDBRANCH  10  11
ENDBRANCH   9  10
ENDBRANCH   8   9
ENDBRANCH   7   8
ENDBRANCH   6   7
ENDBRANCH   5   6
ENDBRANCH   4   5
ENDBRANCH   3   4
ENDBRANCH   2   3
ENDBRANCH   1   2
BRANCH   1  15
ATOM     15  C   UNL     1     -12.228   1.103 -17.109  1.00  0.00     0.000 C 
BRANCH  15  16
ATOM     16  C   UNL     1     -12.826   2.092 -18.127  1.00  0.00     0.000 C 
BRANCH  16  17
ATOM     17  C   UNL     1     -12.542   3.580 -17.839  1.00  0.00     0.000 C 
BRANCH  17  18
ATOM     18  C   UNL     1     -11.704   3.858 -16.575  1.00  0.00    -0.000 C 
BRANCH  18  19
ATOM     19  C   UNL     1     -11.378   5.342 -16.327  1.00  0.00    -0.000 C 
BRANCH  19  20
ATOM     20  C   UNL     1     -12.575   6.128 -15.766  1.00  0.00    -0.000 C 
BRANCH  20  21
ATOM     21  C   UNL     1     -12.642   7.573 -16.291  1.00  0.00    -0.000 C 
BRANCH  21  22
ATOM     22  C   UNL     1     -13.974   8.302 -16.030  1.00  0.00    -0.000 C 
BRANCH  22  23
ATOM     23  C   UNL     1     -14.493   9.063 -17.262  1.00  0.00    -0.000 C 
BRANCH  23  24
ATOM     24  C   UNL     1     -15.360   8.183 -18.177  1.00  0.00    -0.000 C 
BRANCH  24  25
ATOM     25  C   UNL     1     -14.740   7.982 -19.567  1.00  0.00    -0.003 C 
ATOM     26  C   UNL     1     -15.125   6.625 -20.148  1.00  0.00     0.004 C 
ENDBRANCH  24  25
ENDBRANCH  23  24
ENDBRANCH  22  23
ENDBRANCH  21  22
ENDBRANCH  20  21
ENDBRANCH  19  20
ENDBRANCH  18  19
ENDBRANCH  17  18
ENDBRANCH  16  17
ENDBRANCH  15  16
ENDBRANCH   1  15
TORSDOF 22
ENDMDL
MODEL 3
REMARK VINA RESULT:    20.979      2.497      9.714
REMARK INTER + INTRA:          46.492
REMARK INTER:                  47.739
REMARK INTRA:                  -1.247
REMARK UNBOUND:                -1.468
REMARK SMILES CCCCCCCCCCCCCCCCCCCCCCCC(=O)[O-]
REMARK SMILES IDX 13 1 14 2 15 3 16 4 17 5 18 6 19 7 20 8 21 9 22 10 23 11
REMARK SMILES IDX 24 12 25 13 26 14 12 15 11 16 10 17 9 18 8 19 7 20 6 21 5 22
REMARK SMILES IDX 4 23 3 24 2 25 1 26
REMARK H PARENT
REMARK Flexibility Score: inf
ROOT
ATOM      1  C   UNL     1     -12.131  -1.377 -17.540  1.00  0.00     0.000 C 
ENDROOT
BRANCH   1   2
ATOM      2  C   UNL     1     -11.753   0.009 -18.086  1.00  0.00     0.000 C 
BRANCH   2   3
ATOM      3  C   UNL     1     -12.846   1.063 -17.844  1.00  0.00     0.000 C 
BRANCH   3   4
ATOM      4  C   UNL     1     -12.304   2.347 -17.191  1.00  0.00     0.000 C 
BRANCH   4   5
ATOM      5  C   UNL     1     -12.560   3.648 -17.979  1.00  0.00     0.000 C 
BRANCH   5   6
ATOM      6  C   UNL     1     -13.914   3.719 -18.709  1.00  0.00     0.000 C 
BRANCH   6   7
ATOM      7  C   UNL     1     -14.561   5.113 -18.630  1.00  0.00     0.000 C 
BRANCH   7   8
ATOM      8  C   UNL     1     -14.886   5.695 -20.016  1.00  0.00     0.000 C 
BRANCH   8   9
ATOM      9  C   UNL     1     -14.993   7.230 -20.000  1.00  0.00     0.000 C 
BRANCH   9  10
ATOM     10  C   UNL     1     -15.106   7.804 -18.576  1.00  0.00     0.006 C 
BRANCH  10  11
ATOM     11  C   UNL     1     -13.807   8.418 -18.031  1.00  0.00     0.053 C 
BRANCH  11  12
ATOM     12  C   UNL     1     -13.656   8.201 -16.556  1.00  0.00     0.041 C 
ATOM     13  O   UNL     1     -14.428   8.782 -15.747  1.00  0.00    -0.550 OA
ATOM     14  O   UNL     1     -12.687   7.327 -16.077  1.00  0.00    -0.550 OA
ENDBRANCH  11  12
ENDBRANCH  10  11
ENDBRANCH   9  10
ENDBRANCH   8   9
ENDBRANCH   7   8
ENDBRANCH   6   7
ENDBRANCH   5   6
ENDBRANCH   4   5
ENDBRANCH   3   4
ENDBRANCH   2   3
ENDBRANCH   1   2
BRANCH   1  15
ATOM     15  C   UNL     1     -13.258  -1.317 -16.493  1.00  0.00     0.000 C 
BRANCH  15  16
ATOM     16  C   UNL     1     -14.290  -2.446 -16.667  1.00  0.00     0.000 C 
BRANCH  16  17
ATOM     17  C   UNL     1     -14.812  -3.064 -15.354  1.00  0.00     0.000 C 
BRANCH  17  18
ATOM     18  C   UNL     1     -14.060  -4.322 -14.873  1.00  0.00    -0.000 C 
BRANCH  18  19
ATOM     19  C   UNL     1     -13.864  -4.416 -13.349  1.00  0.00    -0.000 C 
BRANCH  19  20
ATOM     20  C   UNL     1     -14.688  -3.371 -12.578  1.00  0.00    -0.000 C 
BRANCH  20  21
ATOM     21  C   UNL     1     -14.997  -3.800 -11.133  1.00  0.00    -0.000 C 
BRANCH  21  22
ATOM     22  C   UNL     1     -14.516  -2.821 -10.044  1.00  0.00    -0.000 C 
BRANCH  22  23
ATOM     23  C   UNL     1     -14.697  -1.346 -10.439  1.00  0.00    -0.000 C 
BRANCH  23  24
ATOM     24  C   UNL     1     -13.674  -0.423  -9.760  1.00  0.00    -0.000 C 
BRANCH  24  25
ATOM     25  C   UNL     1     -13.532   0.930 -10.472  1.00  0.00    -0.003 C 
ATOM     26  C   UNL     1     -14.620   1.112 -11.526  1.00  0.00     0.004 C 
ENDBRANCH  24  25
ENDBRANCH  23  24
ENDBRANCH  22  23
ENDBRANCH  21  22
ENDBRANCH  20  21
ENDBRANCH  19  20
ENDBRANCH  18  19
ENDBRANCH  17  18
ENDBRANCH  16  17
ENDBRANCH  15  16
ENDBRANCH   1  15
TORSDOF 22
ENDMDL
MODEL 4
REMARK VINA RESULT:    21.151      3.233      9.974
REMARK INTER + INTRA:          46.885
REMARK INTER:                  47.529
REMARK INTRA:                  -0.643
REMARK UNBOUND:                -1.468
REMARK SMILES CCCCCCCCCCCCCCCCCCCCCCCC(=O)[O-]
REMARK SMILES IDX 13 1 14 2 15 3 16 4 17 5 18 6 19 7 20 8 21 9 22 10 23 11
REMARK SMILES IDX 24 12 25 13 26 14 12 15 11 16 10 17 9 18 8 19 7 20 6 21 5 22
REMARK SMILES IDX 4 23 3 24 2 25 1 26
REMARK H PARENT
REMARK Flexibility Score: inf
ROOT
ATOM      1  C   UNL     1     -12.578   0.841 -17.081  1.00  0.00     0.000 C 
ENDROOT
BRANCH   1   2
ATOM      2  C   UNL     1     -13.071   1.757 -18.212  1.00  0.00     0.000 C 
BRANCH   2   3
ATOM      3  C   UNL     1     -12.562   3.201 -18.073  1.00  0.00     0.000 C 
BRANCH   3   4
ATOM      4  C   UNL     1     -11.824   3.450 -16.745  1.00  0.00     0.000 C 
BRANCH   4   5
ATOM      5  C   UNL     1     -11.515   4.927 -16.428  1.00  0.00     0.000 C 
BRANCH   5   6
ATOM      6  C   UNL     1     -12.746   5.840 -16.283  1.00  0.00     0.000 C 
BRANCH   6   7
ATOM      7  C   UNL     1     -12.427   7.159 -15.554  1.00  0.00     0.000 C 
BRANCH   7   8
ATOM      8  C   UNL     1     -13.684   7.838 -14.985  1.00  0.00     0.000 C 
BRANCH   8   9
ATOM      9  C   UNL     1     -14.467   8.619 -16.055  1.00  0.00     0.000 C 
BRANCH   9  10
ATOM     10  C   UNL     1     -14.079   8.215 -17.490  1.00  0.00     0.006 C 
BRANCH  10  11
ATOM     11  C   UNL     1     -15.220   8.326 -18.513  1.00  0.00     0.053 C 
BRANCH  11  12
ATOM     12  C   UNL     1     -14.868   7.686 -19.821  1.00  0.00     0.041 C 
ATOM     13  O   UNL     1     -14.095   8.270 -20.625  1.00  0.00    -0.550 OA
ATOM     14  O   UNL     1     -15.365   6.427 -20.136  1.00  0.00    -0.550 OA
ENDBRANCH  11  12
ENDBRANCH  10  11
ENDBRANCH   9  10
ENDBRANCH   8   9
ENDBRANCH   7   8
ENDBRANCH   6   7
ENDBRANCH   5   6
ENDBRANCH   4   5
ENDBRANCH   3   4
ENDBRANCH   2   3
ENDBRANCH   1   2
BRANCH   1  15
ATOM     15  C   UNL     1     -11.786  -0.373 -17.601  1.00  0.00     0.000 C 
BRANCH  15  16
ATOM     16  C   UNL     1     -12.591  -1.683 -17.527  1.00  0.00     0.000 C 
BRANCH  16  17
ATOM     17  C   UNL     1     -13.672  -1.726 -16.427  1.00  0.00     0.000 C 
BRANCH  17  18
ATOM     18  C   UNL     1     -13.874  -3.100 -15.757  1.00  0.00    -0.000 C 
BRANCH  18  19
ATOM     19  C   UNL     1     -14.848  -3.101 -14.564  1.00  0.00    -0.000 C 
BRANCH  19  20
ATOM     20  C   UNL     1     -14.297  -3.864 -13.348  1.00  0.00    -0.000 C 
BRANCH  20  21
ATOM     21  C   UNL     1     -15.182  -3.715 -12.097  1.00  0.00    -0.000 C 
BRANCH  21  22
ATOM     22  C   UNL     1     -14.478  -3.107 -10.868  1.00  0.00    -0.000 C 
BRANCH  22  23
ATOM     23  C   UNL     1     -14.854  -1.635 -10.627  1.00  0.00    -0.000 C 
BRANCH  23  24
ATOM     24  C   UNL     1     -13.838  -0.906  -9.735  1.00  0.00    -0.000 C 
BRANCH  24  25
ATOM     25  C   UNL     1     -13.522   0.512 -10.233  1.00  0.00    -0.003 C 
ATOM     26  C   UNL     1     -14.506   0.944 -11.316  1.00  0.00     0.004 C 
ENDBRANCH  24  25
ENDBRANCH  23  24
ENDBRANCH  22  23
ENDBRANCH  21  22
ENDBRANCH  20  21
ENDBRANCH  19  20
ENDBRANCH  18  19
ENDBRANCH  17  18
ENDBRANCH  16  17
ENDBRANCH  15  16
ENDBRANCH   1  15
TORSDOF 22
ENDMDL
MODEL 5
REMARK VINA RESULT:    21.181      0.735      1.610
REMARK INTER + INTRA:          46.955
REMARK INTER:                  48.170
REMARK INTRA:                  -1.215
REMARK UNBOUND:                -1.468
REMARK SMILES CCCCCCCCCCCCCCCCCCCCCCCC(=O)[O-]
REMARK SMILES IDX 13 1 14 2 15 3 16 4 17 5 18 6 19 7 20 8 21 9 22 10 23 11
REMARK SMILES IDX 24 12 25 13 26 14 12 15 11 16 10 17 9 18 8 19 7 20 6 21 5 22
REMARK SMILES IDX 4 23 3 24 2 25 1 26
REMARK H PARENT
REMARK Flexibility Score: inf
ROOT
ATOM      1  C   UNL     1     -12.559   1.028 -17.197  1.00  0.00     0.000 C 
ENDROOT
BRANCH   1   2
ATOM      2  C   UNL     1     -11.657  -0.074 -17.777  1.00  0.00     0.000 C 
BRANCH   2   3
ATOM      3  C   UNL     1     -12.222  -1.486 -17.551  1.00  0.00     0.000 C 
BRANCH   3   4
ATOM      4  C   UNL     1     -13.484  -1.491 -16.669  1.00  0.00     0.000 C 
BRANCH   4   5
ATOM      5  C   UNL     1     -14.055  -2.886 -16.340  1.00  0.00     0.000 C 
BRANCH   5   6
ATOM      6  C   UNL     1     -14.755  -3.004 -14.974  1.00  0.00     0.000 C 
BRANCH   6   7
ATOM      7  C   UNL     1     -14.362  -4.284 -14.213  1.00  0.00     0.000 C 
BRANCH   7   8
ATOM      8  C   UNL     1     -13.901  -3.998 -12.774  1.00  0.00     0.000 C 
BRANCH   8   9
ATOM      9  C   UNL     1     -15.077  -3.704 -11.826  1.00  0.00     0.000 C 
BRANCH   9  10
ATOM     10  C   UNL     1     -14.660  -2.868 -10.602  1.00  0.00     0.006 C 
BRANCH  10  11
ATOM     11  C   UNL     1     -15.327  -1.486 -10.517  1.00  0.00     0.053 C 
BRANCH  11  12
ATOM     12  C   UNL     1     -14.328  -0.389 -10.308  1.00  0.00     0.041 C 
ATOM     13  O   UNL     1     -13.359  -0.556  -9.521  1.00  0.00    -0.550 OA
ATOM     14  O   UNL     1     -14.447   0.803 -11.012  1.00  0.00    -0.550 OA
ENDBRANCH  11  12
ENDBRANCH  10  11
ENDBRANCH   9  10
ENDBRANCH   8   9
ENDBRANCH   7   8
ENDBRANCH   6   7
ENDBRANCH   5   6
ENDBRANCH   4   5
ENDBRANCH   3   4
ENDBRANCH   2   3
ENDBRANCH   1   2
BRANCH   1  15
ATOM     15  C   UNL     1     -12.085   2.443 -17.573  1.00  0.00     0.000 C 
BRANCH  15  16
ATOM     16  C   UNL     1     -12.911   3.062 -18.715  1.00  0.00     0.000 C 
BRANCH  16  17
ATOM     17  C   UNL     1     -14.264   3.669 -18.291  1.00  0.00     0.000 C 
BRANCH  17  18
ATOM     18  C   UNL     1     -14.403   5.188 -18.516  1.00  0.00    -0.000 C 
BRANCH  18  19
ATOM     19  C   UNL     1     -15.266   5.586 -19.728  1.00  0.00    -0.000 C 
BRANCH  19  20
ATOM     20  C   UNL     1     -14.845   6.933 -20.341  1.00  0.00    -0.000 C 
BRANCH  20  21
ATOM     21  C   UNL     1     -15.130   8.127 -19.412  1.00  0.00    -0.000 C 
BRANCH  21  22
ATOM     22  C   UNL     1     -14.117   8.321 -18.268  1.00  0.00    -0.000 C 
BRANCH  22  23
ATOM     23  C   UNL     1     -14.788   8.520 -16.898  1.00  0.00    -0.000 C 
BRANCH  23  24
ATOM     24  C   UNL     1     -13.883   8.096 -15.731  1.00  0.00    -0.000 C 
BRANCH  24  25
ATOM     25  C   UNL     1     -12.468   7.710 -16.188  1.00  0.00    -0.003 C 
ATOM     26  C   UNL     1     -12.179   6.241 -15.892  1.00  0.00     0.004 C 
ENDBRANCH  24  25
ENDBRANCH  23  24
ENDBRANCH  22  23
ENDBRANCH  21  22
ENDBRANCH  20  21
ENDBRANCH  19  20
ENDBRANCH  18  19
ENDBRANCH  17  18
ENDBRANCH  16  17
ENDBRANCH  15  16
ENDBRANCH   1  15
TORSDOF 22
ENDMDL
MODEL 6
REMARK VINA RESULT:    21.231      2.371      9.829
REMARK INTER + INTRA:          47.069
REMARK INTER:                  48.287
REMARK INTRA:                  -1.218
REMARK UNBOUND:                -1.468
REMARK SMILES CCCCCCCCCCCCCCCCCCCCCCCC(=O)[O-]
REMARK SMILES IDX 13 1 14 2 15 3 16 4 17 5 18 6 19 7 20 8 21 9 22 10 23 11
REMARK SMILES IDX 24 12 25 13 26 14 12 15 11 16 10 17 9 18 8 19 7 20 6 21 5 22
REMARK SMILES IDX 4 23 3 24 2 25 1 26
REMARK H PARENT
REMARK Flexibility Score: inf
ROOT
ATOM      1  C   UNL     1     -11.621   0.000 -17.635  1.00  0.00     0.000 C 
ENDROOT
BRANCH   1   2
ATOM      2  C   UNL     1     -12.827   0.894 -17.302  1.00  0.00     0.000 C 
BRANCH   2   3
ATOM      3  C   UNL     1     -12.546   2.386 -17.544  1.00  0.00     0.000 C 
BRANCH   3   4
ATOM      4  C   UNL     1     -13.456   2.998 -18.625  1.00  0.00     0.000 C 
BRANCH   4   5
ATOM      5  C   UNL     1     -13.398   4.535 -18.745  1.00  0.00     0.000 C 
BRANCH   5   6
ATOM      6  C   UNL     1     -14.753   5.226 -18.987  1.00  0.00     0.000 C 
BRANCH   6   7
ATOM      7  C   UNL     1     -14.753   6.111 -20.247  1.00  0.00     0.000 C 
BRANCH   7   8
ATOM      8  C   UNL     1     -14.691   7.611 -19.916  1.00  0.00     0.000 C 
BRANCH   8   9
ATOM      9  C   UNL     1     -15.852   8.064 -19.013  1.00  0.00     0.000 C 
BRANCH   9  10
ATOM     10  C   UNL     1     -15.368   8.743 -17.718  1.00  0.00     0.006 C 
BRANCH  10  11
ATOM     11  C   UNL     1     -13.877   8.534 -17.408  1.00  0.00     0.053 C 
BRANCH  11  12
ATOM     12  C   UNL     1     -13.659   8.003 -16.024  1.00  0.00     0.041 C 
ATOM     13  O   UNL     1     -14.368   8.413 -15.067  1.00  0.00    -0.550 OA
ATOM     14  O   UNL     1     -12.697   7.025 -15.798  1.00  0.00    -0.550 OA
ENDBRANCH  11  12
ENDBRANCH  10  11
ENDBRANCH   9  10
ENDBRANCH   8   9
ENDBRANCH   7   8
ENDBRANCH   6   7
ENDBRANCH   5   6
ENDBRANCH   4   5
ENDBRANCH   3   4
ENDBRANCH   2   3
ENDBRANCH   1   2
BRANCH   1  15
ATOM     15  C   UNL     1     -12.014  -1.472 -17.852  1.00  0.00     0.000 C 
BRANCH  15  16
ATOM     16  C   UNL     1     -13.461  -1.770 -17.417  1.00  0.00     0.000 C 
BRANCH  16  17
ATOM     17  C   UNL     1     -13.639  -2.107 -15.923  1.00  0.00     0.000 C 
BRANCH  17  18
ATOM     18  C   UNL     1     -14.749  -3.130 -15.607  1.00  0.00    -0.000 C 
BRANCH  18  19
ATOM     19  C   UNL     1     -14.279  -4.379 -14.839  1.00  0.00    -0.000 C 
BRANCH  19  20
ATOM     20  C   UNL     1     -13.895  -4.072 -13.382  1.00  0.00    -0.000 C 
BRANCH  20  21
ATOM     21  C   UNL     1     -15.095  -3.622 -12.529  1.00  0.00    -0.000 C 
BRANCH  21  22
ATOM     22  C   UNL     1     -14.759  -3.257 -11.070  1.00  0.00    -0.000 C 
BRANCH  22  23
ATOM     23  C   UNL     1     -15.066  -1.788 -10.732  1.00  0.00    -0.000 C 
BRANCH  23  24
ATOM     24  C   UNL     1     -14.036  -1.178  -9.769  1.00  0.00    -0.000 C 
BRANCH  24  25
ATOM     25  C   UNL     1     -13.627   0.249 -10.165  1.00  0.00    -0.003 C 
ATOM     26  C   UNL     1     -14.626   0.851 -11.150  1.00  0.00     0.004 C 
ENDBRANCH  24  25
ENDBRANCH  23  24
ENDBRANCH  22  23
ENDBRANCH  21  22
ENDBRANCH  20  21
ENDBRANCH  19  20
ENDBRANCH  18  19
ENDBRANCH  17  18
ENDBRANCH  16  17
ENDBRANCH  15  16
ENDBRANCH   1  15
TORSDOF 22
ENDMDL
MODEL 7
REMARK VINA RESULT:    21.950      2.316      9.869
REMARK INTER + INTRA:          48.713
REMARK INTER:                  50.039
REMARK INTRA:                  -1.325
REMARK UNBOUND:                -1.468
REMARK SMILES CCCCCCCCCCCCCCCCCCCCCCCC(=O)[O-]
REMARK SMILES IDX 13 1 14 2 15 3 16 4 17 5 18 6 19 7 20 8 21 9 22 10 23 11
REMARK SMILES IDX 24 12 25 13 26 14 12 15 11 16 10 17 9 18 8 19 7 20 6 21 5 22
REMARK SMILES IDX 4 23 3 24 2 25 1 26
REMARK H PARENT
REMARK Flexibility Score: inf
ROOT
ATOM      1  C   UNL     1     -12.741   0.708 -18.021  1.00  0.00     0.000 C 
ENDROOT
BRANCH   1   2
ATOM      2  C   UNL     1     -12.196   2.024 -17.443  1.00  0.00     0.000 C 
BRANCH   2   3
ATOM      3  C   UNL     1     -12.807   3.266 -18.112  1.00  0.00     0.000 C 
BRANCH   3   4
ATOM      4  C   UNL     1     -14.339   3.183 -18.240  1.00  0.00     0.000 C 
BRANCH   4   5
ATOM      5  C   UNL     1     -15.049   4.515 -18.559  1.00  0.00     0.000 C 
BRANCH   5   6
ATOM      6  C   UNL     1     -14.382   5.369 -19.653  1.00  0.00     0.000 C 
BRANCH   6   7
ATOM      7  C   UNL     1     -15.311   6.469 -20.199  1.00  0.00     0.000 C 
BRANCH   7   8
ATOM      8  C   UNL     1     -15.293   7.741 -19.335  1.00  0.00     0.000 C 
BRANCH   8   9
ATOM      9  C   UNL     1     -13.937   8.466 -19.381  1.00  0.00     0.000 C 
BRANCH   9  10
ATOM     10  C   UNL     1     -13.371   8.761 -17.979  1.00  0.00     0.006 C 
BRANCH  10  11
ATOM     11  C   UNL     1     -14.410   8.699 -16.848  1.00  0.00     0.053 C 
BRANCH  11  12
ATOM     12  C   UNL     1     -13.864   8.039 -15.618  1.00  0.00     0.041 C 
ATOM     13  O   UNL     1     -12.923   7.207 -15.709  1.00  0.00    -0.550 OA
ATOM     14  O   UNL     1     -14.371   8.371 -14.367  1.00  0.00    -0.550 OA
ENDBRANCH  11  12
ENDBRANCH  10  11
ENDBRANCH   9  10
ENDBRANCH   8   9
ENDBRANCH   7   8
ENDBRANCH   6   7
ENDBRANCH   5   6
ENDBRANCH   4   5
ENDBRANCH   3   4
ENDBRANCH   2   3
ENDBRANCH   1   2
BRANCH   1  15
ATOM     15  C   UNL     1     -11.695  -0.422 -18.016  1.00  0.00     0.000 C 
BRANCH  15  16
ATOM     16  C   UNL     1     -12.230  -1.722 -17.389  1.00  0.00     0.000 C 
BRANCH  16  17
ATOM     17  C   UNL     1     -13.551  -1.578 -16.607  1.00  0.00     0.000 C 
BRANCH  17  18
ATOM     18  C   UNL     1     -14.231  -2.904 -16.213  1.00  0.00    -0.000 C 
BRANCH  18  19
ATOM     19  C   UNL     1     -14.717  -2.974 -14.753  1.00  0.00    -0.000 C 
BRANCH  19  20
ATOM     20  C   UNL     1     -14.258  -4.254 -14.034  1.00  0.00    -0.000 C 
BRANCH  20  21
ATOM     21  C   UNL     1     -13.986  -4.033 -12.535  1.00  0.00    -0.000 C 
BRANCH  21  22
ATOM     22  C   UNL     1     -15.157  -3.422 -11.742  1.00  0.00    -0.000 C 
BRANCH  22  23
ATOM     23  C   UNL     1     -14.698  -2.407 -10.681  1.00  0.00    -0.000 C 
BRANCH  23  24
ATOM     24  C   UNL     1     -15.124  -0.969 -11.017  1.00  0.00    -0.000 C 
BRANCH  24  25
ATOM     25  C   UNL     1     -14.333   0.083 -10.226  1.00  0.00    -0.003 C 
ATOM     26  C   UNL     1     -13.137  -0.548  -9.518  1.00  0.00     0.004 C 
ENDBRANCH  24  25
ENDBRANCH  23  24
ENDBRANCH  22  23
ENDBRANCH  21  22
ENDBRANCH  20  21
ENDBRANCH  19  20
ENDBRANCH  18  19
ENDBRANCH  17  18
ENDBRANCH  16  17
ENDBRANCH  15  16
ENDBRANCH   1  15
TORSDOF 22
ENDMDL
MODEL 8
REMARK VINA RESULT:    22.355      4.397     10.141
REMARK INTER + INTRA:          49.639
REMARK INTER:                  50.762
REMARK INTRA:                  -1.123
REMARK UNBOUND:                -1.468
REMARK SMILES CCCCCCCCCCCCCCCCCCCCCCCC(=O)[O-]
REMARK SMILES IDX 13 1 14 2 15 3 16 4 17 5 18 6 19 7 20 8 21 9 22 10 23 11
REMARK SMILES IDX 24 12 25 13 26 14 12 15 11 16 10 17 9 18 8 19 7 20 6 21 5 22
REMARK SMILES IDX 4 23 3 24 2 25 1 26
REMARK H PARENT
REMARK Flexibility Score: inf
ROOT
ATOM      1  C   UNL     1     -11.528   2.941 -16.813  1.00  0.00     0.000 C 
ENDROOT
BRANCH   1   2
ATOM      2  C   UNL     1     -11.163   4.371 -16.382  1.00  0.00     0.000 C 
BRANCH   2   3
ATOM      3  C   UNL     1     -12.328   5.360 -16.555  1.00  0.00     0.000 C 
BRANCH   3   4
ATOM      4  C   UNL     1     -12.132   6.659 -15.753  1.00  0.00     0.000 C 
BRANCH   4   5
ATOM      5  C   UNL     1     -12.970   7.863 -16.230  1.00  0.00     0.000 C 
BRANCH   5   6
ATOM      6  C   UNL     1     -14.210   8.181 -15.374  1.00  0.00     0.000 C 
BRANCH   6   7
ATOM      7  C   UNL     1     -15.107   9.262 -16.004  1.00  0.00     0.000 C 
BRANCH   7   8
ATOM      8  C   UNL     1     -16.256   8.666 -16.835  1.00  0.00     0.000 C 
BRANCH   8   9
ATOM      9  C   UNL     1     -15.993   8.748 -18.349  1.00  0.00     0.000 C 
BRANCH   9  10
ATOM     10  C   UNL     1     -14.624   8.166 -18.747  1.00  0.00     0.006 C 
BRANCH  10  11
ATOM     11  C   UNL     1     -14.538   7.677 -20.201  1.00  0.00     0.053 C 
BRANCH  11  12
ATOM     12  C   UNL     1     -15.123   6.308 -20.371  1.00  0.00     0.041 C 
ATOM     13  O   UNL     1     -15.763   6.017 -21.416  1.00  0.00    -0.550 OA
ATOM     14  O   UNL     1     -14.930   5.342 -19.390  1.00  0.00    -0.550 OA
ENDBRANCH  11  12
ENDBRANCH  10  11
ENDBRANCH   9  10
ENDBRANCH   8   9
ENDBRANCH   7   8
ENDBRANCH   6   7
ENDBRANCH   5   6
ENDBRANCH   4   5
ENDBRANCH   3   4
ENDBRANCH   2   3
ENDBRANCH   1   2
BRANCH   1  15
ATOM     15  C   UNL     1     -12.660   2.905 -17.855  1.00  0.00     0.000 C 
BRANCH  15  16
ATOM     16  C   UNL     1     -13.369   1.540 -17.915  1.00  0.00     0.000 C 
BRANCH  16  17
ATOM     17  C   UNL     1     -13.060   0.589 -16.741  1.00  0.00     0.000 C 
BRANCH  17  18
ATOM     18  C   UNL     1     -12.823  -0.884 -17.131  1.00  0.00    -0.000 C 
BRANCH  18  19
ATOM     19  C   UNL     1     -11.780  -1.100 -18.242  1.00  0.00    -0.000 C 
BRANCH  19  20
ATOM     20  C   UNL     1     -10.427  -0.441 -17.924  1.00  0.00    -0.000 C 
BRANCH  20  21
ATOM     21  C   UNL     1      -9.242  -1.147 -18.607  1.00  0.00    -0.000 C 
BRANCH  21  22
ATOM     22  C   UNL     1      -7.868  -0.890 -17.959  1.00  0.00    -0.000 C 
BRANCH  22  23
ATOM     23  C   UNL     1      -7.641  -1.717 -16.682  1.00  0.00    -0.000 C 
BRANCH  23  24
ATOM     24  C   UNL     1      -7.241  -0.848 -15.479  1.00  0.00    -0.000 C 
BRANCH  24  25
ATOM     25  C   UNL     1      -6.875  -1.681 -14.242  1.00  0.00    -0.003 C 
ATOM     26  C   UNL     1      -8.084  -1.865 -13.328  1.00  0.00     0.004 C 
ENDBRANCH  24  25
ENDBRANCH  23  24
ENDBRANCH  22  23
ENDBRANCH  21  22
ENDBRANCH  20  21
ENDBRANCH  19  20
ENDBRANCH  18  19
ENDBRANCH  17  18
ENDBRANCH  16  17
ENDBRANCH  15  16
ENDBRANCH   1  15
TORSDOF 22
ENDMDL
MODEL 9
REMARK VINA RESULT:    22.734      3.422      9.615
REMARK INTER + INTRA:          50.504
REMARK INTER:                  51.425
REMARK INTRA:                  -0.921
REMARK UNBOUND:                -1.468
REMARK SMILES CCCCCCCCCCCCCCCCCCCCCCCC(=O)[O-]
REMARK SMILES IDX 13 1 14 2 15 3 16 4 17 5 18 6 19 7 20 8 21 9 22 10 23 11
REMARK SMILES IDX 24 12 25 13 26 14 12 15 11 16 10 17 9 18 8 19 7 20 6 21 5 22
REMARK SMILES IDX 4 23 3 24 2 25 1 26
REMARK H PARENT
REMARK Flexibility Score: inf
ROOT
ATOM      1  C   UNL     1     -13.428  -1.799 -17.373  1.00  0.00     0.000 C 
ENDROOT
BRANCH   1   2
ATOM      2  C   UNL     1     -11.952  -1.776 -17.799  1.00  0.00     0.000 C 
BRANCH   2   3
ATOM      3  C   UNL     1     -11.472  -0.375 -18.211  1.00  0.00     0.000 C 
BRANCH   3   4
ATOM      4  C   UNL     1     -12.388   0.747 -17.690  1.00  0.00     0.000 C 
BRANCH   4   5
ATOM      5  C   UNL     1     -11.699   1.803 -16.801  1.00  0.00     0.000 C 
BRANCH   5   6
ATOM      6  C   UNL     1     -11.965   3.268 -17.193  1.00  0.00     0.000 C 
BRANCH   6   7
ATOM      7  C   UNL     1     -12.809   3.397 -18.475  1.00  0.00     0.000 C 
BRANCH   7   8
ATOM      8  C   UNL     1     -14.295   3.083 -18.239  1.00  0.00     0.000 C 
BRANCH   8   9
ATOM      9  C   UNL     1     -15.214   4.253 -18.633  1.00  0.00     0.000 C 
BRANCH   9  10
ATOM     10  C   UNL     1     -14.440   5.443 -19.229  1.00  0.00     0.006 C 
BRANCH  10  11
ATOM     11  C   UNL     1     -15.269   6.340 -20.163  1.00  0.00     0.053 C 
BRANCH  11  12
ATOM     12  C   UNL     1     -15.147   7.790 -19.806  1.00  0.00     0.041 C 
ATOM     13  O   UNL     1     -14.174   8.467 -20.229  1.00  0.00    -0.550 OA
ATOM     14  O   UNL     1     -16.129   8.402 -19.037  1.00  0.00    -0.550 OA
ENDBRANCH  11  12
ENDBRANCH  10  11
ENDBRANCH   9  10
ENDBRANCH   8   9
ENDBRANCH   7   8
ENDBRANCH   6   7
ENDBRANCH   5   6
ENDBRANCH   4   5
ENDBRANCH   3   4
ENDBRANCH   2   3
ENDBRANCH   1   2
BRANCH   1  15
ATOM     15  C   UNL     1     -13.613  -2.151 -15.887  1.00  0.00     0.000 C 
BRANCH  15  16
ATOM     16  C   UNL     1     -14.781  -3.125 -15.648  1.00  0.00     0.000 C 
BRANCH  16  17
ATOM     17  C   UNL     1     -14.488  -4.269 -14.656  1.00  0.00     0.000 C 
BRANCH  17  18
ATOM     18  C   UNL     1     -14.066  -3.823 -13.242  1.00  0.00    -0.000 C 
BRANCH  18  19
ATOM     19  C   UNL     1     -15.048  -4.209 -12.121  1.00  0.00    -0.000 C 
BRANCH  19  20
ATOM     20  C   UNL     1     -15.213  -3.101 -11.067  1.00  0.00    -0.000 C 
BRANCH  20  21
ATOM     21  C   UNL     1     -14.067  -3.077 -10.040  1.00  0.00    -0.000 C 
BRANCH  21  22
ATOM     22  C   UNL     1     -13.990  -1.802  -9.178  1.00  0.00    -0.000 C 
BRANCH  22  23
ATOM     23  C   UNL     1     -14.319  -0.523  -9.967  1.00  0.00    -0.000 C 
BRANCH  23  24
ATOM     24  C   UNL     1     -13.111   0.419 -10.094  1.00  0.00    -0.000 C 
BRANCH  24  25
ATOM     25  C   UNL     1     -13.389   1.618 -11.011  1.00  0.00    -0.003 C 
ATOM     26  C   UNL     1     -14.525   1.314 -11.983  1.00  0.00     0.004 C 
ENDBRANCH  24  25
ENDBRANCH  23  24
ENDBRANCH  22  23
ENDBRANCH  21  22
ENDBRANCH  20  21
ENDBRANCH  19  20
ENDBRANCH  18  19
ENDBRANCH  17  18
ENDBRANCH  16  17
ENDBRANCH  15  16
ENDBRANCH   1  15
TORSDOF 22
ENDMDL
