MODEL 1
REMARK VINA RESULT:    -2.667      0.000      0.000
REMARK INTER + INTRA:          -2.667
REMARK INTER:                  -2.667
REMARK INTRA:                   0.000
REMARK UNBOUND:                 0.000
REMARK SMILES CC(=O)[O-]
REMARK SMILES IDX 1 1 2 2 3 3 4 4
REMARK H PARENT
REMARK Flexibility Score: inf
ROOT
ATOM      1  C   UNL     1      16.347   1.839  55.655  1.00  0.00     0.063 C 
ATOM      2  C   UNL     1      16.623   0.508  56.265  1.00  0.00     0.038 C 
ATOM      3  O   UNL     1      16.467  -0.542  55.588  1.00  0.00    -0.550 OA
ATOM      4  O   UNL     1      17.104   0.423  57.566  1.00  0.00    -0.550 OA
ENDROOT
TORSDOF 0
ENDMDL
MODEL 2
REMARK VINA RESULT:    -2.351      1.930      2.141
REMARK INTER + INTRA:          -2.351
REMARK INTER:                  -2.351
REMARK INTRA:                   0.000
REMARK UNBOUND:                 0.000
REMARK SMILES CC(=O)[O-]
REMARK SMILES IDX 1 1 2 2 3 3 4 4
REMARK H PARENT
REMARK Flexibility Score: inf
ROOT
ATOM      1  C   UNL     1      16.544  -0.229  55.925  1.00  0.00     0.063 C 
ATOM      2  C   UNL     1      15.919   1.083  56.257  1.00  0.00     0.038 C 
ATOM      3  O   UNL     1      16.346   2.139  55.723  1.00  0.00    -0.550 OA
ATOM      4  O   UNL     1      14.828   1.137  57.116  1.00  0.00    -0.550 OA
ENDROOT
TORSDOF 0
ENDMDL
MODEL 3
REMARK VINA RESULT:    -2.340     10.340     10.819
REMARK INTER + INTRA:          -2.340
REMARK INTER:                  -2.340
REMARK INTRA:                   0.000
REMARK UNBOUND:                 0.000
REMARK SMILES CC(=O)[O-]
REMARK SMILES IDX 1 1 2 2 3 3 4 4
REMARK H PARENT
REMARK Flexibility Score: inf
ROOT
ATOM      1  C   UNL     1      22.181  -7.504  55.249  1.00  0.00     0.063 C 
ATOM      2  C   UNL     1      23.405  -7.473  54.400  1.00  0.00     0.038 C 
ATOM      3  O   UNL     1      24.502  -7.886  54.856  1.00  0.00    -0.550 OA
ATOM      4  O   UNL     1      23.328  -7.037  53.082  1.00  0.00    -0.550 OA
ENDROOT
TORSDOF 0
ENDMDL
MODEL 4
REMARK VINA RESULT:    -2.307     10.090     10.693
REMARK INTER + INTRA:          -2.307
REMARK INTER:                  -2.307
REMARK INTRA:                   0.000
REMARK UNBOUND:                 0.000
REMARK SMILES CC(=O)[O-]
REMARK SMILES IDX 1 1 2 2 3 3 4 4
REMARK H PARENT
REMARK Flexibility Score: inf
ROOT
ATOM      1  C   UNL     1      17.991  -6.319  47.428  1.00  0.00     0.063 C 
ATOM      2  C   UNL     1      16.667  -5.706  47.733  1.00  0.00     0.038 C 
ATOM      3  O   UNL     1      15.606  -6.318  47.447  1.00  0.00    -0.550 OA
ATOM      4  O   UNL     1      16.601  -4.479  48.384  1.00  0.00    -0.550 OA
ENDROOT
TORSDOF 0
ENDMDL
MODEL 5
REMARK VINA RESULT:    -2.290      6.092      6.417
REMARK INTER + INTRA:          -2.290
REMARK INTER:                  -2.290
REMARK INTRA:                   0.000
REMARK UNBOUND:                 0.000
REMARK SMILES CC(=O)[O-]
REMARK SMILES IDX 1 1 2 2 3 3 4 4
REMARK H PARENT
REMARK Flexibility Score: inf
ROOT
ATOM      1  C   UNL     1      11.038   3.355  54.172  1.00  0.00     0.063 C 
ATOM      2  C   UNL     1      12.210   4.237  53.905  1.00  0.00     0.038 C 
ATOM      3  O   UNL     1      12.209   5.006  52.909  1.00  0.00    -0.550 OA
ATOM      4  O   UNL     1      13.284   4.253  54.786  1.00  0.00    -0.550 OA
ENDROOT
TORSDOF 0
ENDMDL
MODEL 6
REMARK VINA RESULT:    -2.261      6.005      6.294
REMARK INTER + INTRA:          -2.261
REMARK INTER:                  -2.261
REMARK INTRA:                   0.000
REMARK UNBOUND:                 0.000
REMARK SMILES CC(=O)[O-]
REMARK SMILES IDX 1 1 2 2 3 3 4 4
REMARK H PARENT
REMARK Flexibility Score: inf
ROOT
ATOM      1  C   UNL     1      12.122   4.497  53.077  1.00  0.00     0.063 C 
ATOM      2  C   UNL     1      11.625   3.726  54.252  1.00  0.00     0.038 C 
ATOM      3  O   UNL     1      10.633   2.961  54.132  1.00  0.00    -0.550 OA
ATOM      4  O   UNL     1      12.288   3.809  55.470  1.00  0.00    -0.550 OA
ENDROOT
TORSDOF 0
ENDMDL
MODEL 7
REMARK VINA RESULT:    -2.250     10.192     10.608
REMARK INTER + INTRA:          -2.250
REMARK INTER:                  -2.250
REMARK INTRA:                   0.000
REMARK UNBOUND:                 0.000
REMARK SMILES CC(=O)[O-]
REMARK SMILES IDX 1 1 2 2 3 3 4 4
REMARK H PARENT
REMARK Flexibility Score: inf
ROOT
ATOM      1  C   UNL     1      24.452  -7.274  56.220  1.00  0.00     0.063 C 
ATOM      2  C   UNL     1      23.352  -7.392  55.222  1.00  0.00     0.038 C 
ATOM      3  O   UNL     1      23.612  -7.385  53.991  1.00  0.00    -0.550 OA
ATOM      4  O   UNL     1      22.040  -7.566  55.648  1.00  0.00    -0.550 OA
ENDROOT
TORSDOF 0
ENDMDL
MODEL 8
REMARK VINA RESULT:    -2.248     13.292     13.935
REMARK INTER + INTRA:          -2.248
REMARK INTER:                  -2.248
REMARK INTRA:                   0.000
REMARK UNBOUND:                 0.000
REMARK SMILES CC(=O)[O-]
REMARK SMILES IDX 1 1 2 2 3 3 4 4
REMARK H PARENT
REMARK Flexibility Score: inf
ROOT
ATOM      1  C   UNL     1      17.374  -1.985  43.514  1.00  0.00     0.063 C 
ATOM      2  C   UNL     1      17.868  -0.876  42.650  1.00  0.00     0.038 C 
ATOM      3  O   UNL     1      17.832   0.312  43.064  1.00  0.00    -0.550 OA
ATOM      4  O   UNL     1      18.419  -1.155  41.405  1.00  0.00    -0.550 OA
ENDROOT
TORSDOF 0
ENDMDL
MODEL 9
REMARK VINA RESULT:    -2.106      6.827      7.101
REMARK INTER + INTRA:          -2.106
REMARK INTER:                  -2.106
REMARK INTRA:                   0.000
REMARK UNBOUND:                 0.000
REMARK SMILES CC(=O)[O-]
REMARK SMILES IDX 1 1 2 2 3 3 4 4
REMARK H PARENT
REMARK Flexibility Score: inf
ROOT
ATOM      1  C   UNL     1       9.538   4.504  55.577  1.00  0.00     0.063 C 
ATOM      2  C   UNL     1      10.761   4.022  54.876  1.00  0.00     0.038 C 
ATOM      3  O   UNL     1      10.709   2.997  54.147  1.00  0.00    -0.550 OA
ATOM      4  O   UNL     1      11.950   4.733  54.980  1.00  0.00    -0.550 OA
ENDROOT
TORSDOF 0
ENDMDL
