MODEL 1
REMARK VINA RESULT:    -3.749      0.000      0.000
REMARK INTER + INTRA:          -3.859
REMARK INTER:                  -3.859
REMARK INTRA:                   0.000
REMARK UNBOUND:                 0.000
REMARK SMILES Cc1cccc(O)c1C
REMARK SMILES IDX 1 1 2 2 8 3 6 4 5 5 4 6 3 7 9 8 7 9
REMARK H PARENT 7 10
REMARK Flexibility Score: inf
ROOT
ATOM      1  C   UNL     1     127.981 145.211 118.637  1.00  0.00     0.045 C 
ATOM      2  C   UNL     1     128.153 145.600 120.083  1.00  0.00    -0.045 A 
ATOM      3  C   UNL     1     129.422 145.942 120.628  1.00  0.00    -0.006 A 
ATOM      4  C   UNL     1     129.510 146.298 121.997  1.00  0.00     0.118 A 
ATOM      5  C   UNL     1     128.360 146.309 122.793  1.00  0.00     0.046 A 
ATOM      6  C   UNL     1     127.122 145.973 122.254  1.00  0.00     0.004 A 
ATOM      7  C   UNL     1     127.017 145.620 120.911  1.00  0.00     0.004 A 
ATOM      8  C   UNL     1     130.678 145.937 119.785  1.00  0.00     0.048 C 
ENDROOT
BRANCH   4   9
ATOM      9  O   UNL     1     130.722 146.646 122.600  1.00  0.00    -0.508 OA
ATOM     10  H   UNL     1     131.330 147.374 122.251  1.00  0.00     0.293 HD
ENDBRANCH   4   9
TORSDOF 1
ENDMDL
MODEL 2
REMARK VINA RESULT:    -3.674      2.606      3.416
REMARK INTER + INTRA:          -3.782
REMARK INTER:                  -3.782
REMARK INTRA:                   0.000
REMARK UNBOUND:                 0.000
REMARK SMILES Cc1cccc(O)c1C
REMARK SMILES IDX 1 1 2 2 8 3 6 4 5 5 4 6 3 7 9 8 7 9
REMARK H PARENT 7 10
REMARK Flexibility Score: inf
ROOT
ATOM      1  C   UNL     1     128.193 143.445 122.782  1.00  0.00     0.045 C 
ATOM      2  C   UNL     1     127.786 144.428 121.714  1.00  0.00    -0.045 A 
ATOM      3  C   UNL     1     127.913 144.133 120.328  1.00  0.00    -0.006 A 
ATOM      4  C   UNL     1     127.510 145.106 119.378  1.00  0.00     0.118 A 
ATOM      5  C   UNL     1     126.997 146.333 119.807  1.00  0.00     0.046 A 
ATOM      6  C   UNL     1     126.875 146.615 121.165  1.00  0.00     0.004 A 
ATOM      7  C   UNL     1     127.267 145.672 122.112  1.00  0.00     0.004 A 
ATOM      8  C   UNL     1     128.465 142.812 119.842  1.00  0.00     0.048 C 
ENDROOT
BRANCH   4   9
ATOM      9  O   UNL     1     127.605 144.886 118.001  1.00  0.00    -0.508 OA
ATOM     10  H   UNL     1     127.415 143.994 117.564  1.00  0.00     0.293 HD
ENDBRANCH   4   9
TORSDOF 1
ENDMDL
MODEL 3
REMARK VINA RESULT:    -3.594      2.509      3.624
REMARK INTER + INTRA:          -3.699
REMARK INTER:                  -3.699
REMARK INTRA:                   0.000
REMARK UNBOUND:                 0.000
REMARK SMILES Cc1cccc(O)c1C
REMARK SMILES IDX 1 1 2 2 8 3 6 4 5 5 4 6 3 7 9 8 7 9
REMARK H PARENT 7 10
REMARK Flexibility Score: inf
ROOT
ATOM      1  C   UNL     1     127.045 146.401 122.648  1.00  0.00     0.045 C 
ATOM      2  C   UNL     1     127.296 145.669 121.355  1.00  0.00    -0.045 A 
ATOM      3  C   UNL     1     127.859 144.363 121.322  1.00  0.00    -0.006 A 
ATOM      4  C   UNL     1     128.067 143.734 120.069  1.00  0.00     0.118 A 
ATOM      5  C   UNL     1     127.721 144.396 118.887  1.00  0.00     0.046 A 
ATOM      6  C   UNL     1     127.171 145.674 118.926  1.00  0.00     0.004 A 
ATOM      7  C   UNL     1     126.960 146.307 120.148  1.00  0.00     0.004 A 
ATOM      8  C   UNL     1     128.240 143.628 122.588  1.00  0.00     0.048 C 
ENDROOT
BRANCH   4   9
ATOM      9  O   UNL     1     128.615 142.453 119.960  1.00  0.00    -0.508 OA
ATOM     10  H   UNL     1     128.234 141.733 119.361  1.00  0.00     0.293 HD
ENDBRANCH   4   9
TORSDOF 1
ENDMDL
MODEL 4
REMARK VINA RESULT:    -3.566      2.247      3.103
REMARK INTER + INTRA:          -3.670
REMARK INTER:                  -3.670
REMARK INTRA:                   0.000
REMARK UNBOUND:                 0.000
REMARK SMILES Cc1cccc(O)c1C
REMARK SMILES IDX 1 1 2 2 8 3 6 4 5 5 4 6 3 7 9 8 7 9
REMARK H PARENT 7 10
REMARK Flexibility Score: inf
ROOT
ATOM      1  C   UNL     1     128.464 142.239 120.128  1.00  0.00     0.045 C 
ATOM      2  C   UNL     1     127.931 143.646 120.206  1.00  0.00    -0.045 A 
ATOM      3  C   UNL     1     127.744 144.316 121.447  1.00  0.00    -0.006 A 
ATOM      4  C   UNL     1     127.239 145.640 121.444  1.00  0.00     0.118 A 
ATOM      5  C   UNL     1     126.932 146.271 120.235  1.00  0.00     0.046 A 
ATOM      6  C   UNL     1     127.118 145.610 119.024  1.00  0.00     0.004 A 
ATOM      7  C   UNL     1     127.613 144.309 119.008  1.00  0.00     0.004 A 
ATOM      8  C   UNL     1     128.069 143.653 122.766  1.00  0.00     0.048 C 
ENDROOT
BRANCH   4   9
ATOM      9  O   UNL     1     127.029 146.360 122.624  1.00  0.00    -0.508 OA
ATOM     10  H   UNL     1     126.952 145.927 123.535  1.00  0.00     0.293 HD
ENDBRANCH   4   9
TORSDOF 1
ENDMDL
MODEL 5
REMARK VINA RESULT:    -3.523      1.671      2.792
REMARK INTER + INTRA:          -3.626
REMARK INTER:                  -3.626
REMARK INTRA:                   0.000
REMARK UNBOUND:                 0.000
REMARK SMILES Cc1cccc(O)c1C
REMARK SMILES IDX 1 1 2 2 8 3 6 4 5 5 4 6 3 7 9 8 7 9
REMARK H PARENT 7 10
REMARK Flexibility Score: inf
ROOT
ATOM      1  C   UNL     1     130.653 146.581 119.601  1.00  0.00     0.045 C 
ATOM      2  C   UNL     1     129.455 145.750 119.983  1.00  0.00    -0.045 A 
ATOM      3  C   UNL     1     129.043 145.597 121.336  1.00  0.00    -0.006 A 
ATOM      4  C   UNL     1     127.906 144.801 121.623  1.00  0.00     0.118 A 
ATOM      5  C   UNL     1     127.206 144.179 120.585  1.00  0.00     0.046 A 
ATOM      6  C   UNL     1     127.615 144.333 119.263  1.00  0.00     0.004 A 
ATOM      7  C   UNL     1     128.730 145.111 118.963  1.00  0.00     0.004 A 
ATOM      8  C   UNL     1     129.785 146.261 122.475  1.00  0.00     0.048 C 
ENDROOT
BRANCH   4   9
ATOM      9  O   UNL     1     127.443 144.605 122.927  1.00  0.00    -0.508 OA
ATOM     10  H   UNL     1     127.990 144.160 123.652  1.00  0.00     0.293 HD
ENDBRANCH   4   9
TORSDOF 1
ENDMDL
MODEL 6
REMARK VINA RESULT:    -3.474      2.253      2.951
REMARK INTER + INTRA:          -3.575
REMARK INTER:                  -3.575
REMARK INTRA:                   0.000
REMARK UNBOUND:                 0.000
REMARK SMILES Cc1cccc(O)c1C
REMARK SMILES IDX 1 1 2 2 8 3 6 4 5 5 4 6 3 7 9 8 7 9
REMARK H PARENT 7 10
REMARK Flexibility Score: inf
ROOT
ATOM      1  C   UNL     1     127.787 144.889 118.221  1.00  0.00     0.045 C 
ATOM      2  C   UNL     1     127.885 144.356 119.627  1.00  0.00    -0.045 A 
ATOM      3  C   UNL     1     127.456 145.112 120.753  1.00  0.00    -0.006 A 
ATOM      4  C   UNL     1     127.577 144.548 122.048  1.00  0.00     0.118 A 
ATOM      5  C   UNL     1     128.112 143.265 122.206  1.00  0.00     0.046 A 
ATOM      6  C   UNL     1     128.529 142.531 121.099  1.00  0.00     0.004 A 
ATOM      7  C   UNL     1     128.418 143.070 119.820  1.00  0.00     0.004 A 
ATOM      8  C   UNL     1     126.875 146.501 120.606  1.00  0.00     0.048 C 
ENDROOT
BRANCH   4   9
ATOM      9  O   UNL     1     127.177 145.231 123.199  1.00  0.00    -0.508 OA
ATOM     10  H   UNL     1     127.805 145.460 123.958  1.00  0.00     0.293 HD
ENDBRANCH   4   9
TORSDOF 1
ENDMDL
MODEL 7
REMARK VINA RESULT:    -3.472      0.924      2.586
REMARK INTER + INTRA:          -3.574
REMARK INTER:                  -3.574
REMARK INTRA:                   0.000
REMARK UNBOUND:                 0.000
REMARK SMILES Cc1cccc(O)c1C
REMARK SMILES IDX 1 1 2 2 8 3 6 4 5 5 4 6 3 7 9 8 7 9
REMARK H PARENT 7 10
REMARK Flexibility Score: inf
ROOT
ATOM      1  C   UNL     1     127.527 145.215 118.971  1.00  0.00     0.045 C 
ATOM      2  C   UNL     1     128.652 145.608 119.894  1.00  0.00    -0.045 A 
ATOM      3  C   UNL     1     128.424 145.973 121.249  1.00  0.00    -0.006 A 
ATOM      4  C   UNL     1     129.530 146.331 122.060  1.00  0.00     0.118 A 
ATOM      5  C   UNL     1     130.823 146.323 121.526  1.00  0.00     0.046 A 
ATOM      6  C   UNL     1     131.038 145.964 120.199  1.00  0.00     0.004 A 
ATOM      7  C   UNL     1     129.963 145.610 119.388  1.00  0.00     0.004 A 
ATOM      8  C   UNL     1     127.036 145.988 121.848  1.00  0.00     0.048 C 
ENDROOT
BRANCH   4   9
ATOM      9  O   UNL     1     129.383 146.701 123.400  1.00  0.00    -0.508 OA
ATOM     10  H   UNL     1     129.355 146.036 124.162  1.00  0.00     0.293 HD
ENDBRANCH   4   9
TORSDOF 1
ENDMDL
MODEL 8
REMARK VINA RESULT:    -3.396      1.426      2.814
REMARK INTER + INTRA:          -3.495
REMARK INTER:                  -3.495
REMARK INTRA:                   0.000
REMARK UNBOUND:                 0.000
REMARK SMILES Cc1cccc(O)c1C
REMARK SMILES IDX 1 1 2 2 8 3 6 4 5 5 4 6 3 7 9 8 7 9
REMARK H PARENT 7 10
REMARK Flexibility Score: inf
ROOT
ATOM      1  C   UNL     1     127.467 146.871 122.983  1.00  0.00     0.045 C 
ATOM      2  C   UNL     1     127.866 146.304 121.645  1.00  0.00    -0.045 A 
ATOM      3  C   UNL     1     129.202 145.906 121.361  1.00  0.00    -0.006 A 
ATOM      4  C   UNL     1     129.506 145.381 120.080  1.00  0.00     0.118 A 
ATOM      5  C   UNL     1     128.501 145.260 119.116  1.00  0.00     0.046 A 
ATOM      6  C   UNL     1     127.195 145.651 119.400  1.00  0.00     0.004 A 
ATOM      7  C   UNL     1     126.879 146.169 120.653  1.00  0.00     0.004 A 
ATOM      8  C   UNL     1     130.305 146.029 122.388  1.00  0.00     0.048 C 
ENDROOT
BRANCH   4   9
ATOM      9  O   UNL     1     130.795 144.970 119.730  1.00  0.00    -0.508 OA
ATOM     10  H   UNL     1     131.000 144.072 119.313  1.00  0.00     0.293 HD
ENDBRANCH   4   9
TORSDOF 1
ENDMDL
MODEL 9
REMARK VINA RESULT:    -3.318     12.217     13.934
REMARK INTER + INTRA:          -3.415
REMARK INTER:                  -3.415
REMARK INTRA:                   0.000
REMARK UNBOUND:                 0.000
REMARK SMILES Cc1cccc(O)c1C
REMARK SMILES IDX 1 1 2 2 8 3 6 4 5 5 4 6 3 7 9 8 7 9
REMARK H PARENT 7 10
REMARK Flexibility Score: inf
ROOT
ATOM      1  C   UNL     1     144.892 145.217 120.125  1.00  0.00     0.045 C 
ATOM      2  C   UNL     1     143.432 145.487 119.863  1.00  0.00    -0.045 A 
ATOM      3  C   UNL     1     142.479 144.438 119.748  1.00  0.00    -0.006 A 
ATOM      4  C   UNL     1     141.121 144.765 119.501  1.00  0.00     0.118 A 
ATOM      5  C   UNL     1     140.735 146.103 119.376  1.00  0.00     0.046 A 
ATOM      6  C   UNL     1     141.673 147.125 119.491  1.00  0.00     0.004 A 
ATOM      7  C   UNL     1     143.011 146.821 119.732  1.00  0.00     0.004 A 
ATOM      8  C   UNL     1     142.874 142.984 119.880  1.00  0.00     0.048 C 
ENDROOT
BRANCH   4   9
ATOM      9  O   UNL     1     140.130 143.788 119.376  1.00  0.00    -0.508 OA
ATOM     10  H   UNL     1     139.540 143.693 118.560  1.00  0.00     0.293 HD
ENDBRANCH   4   9
TORSDOF 1
ENDMDL
