MODEL 1
REMARK VINA RESULT:    -3.929      0.000      0.000
REMARK INTER + INTRA:          -5.579
REMARK INTER:                  -5.307
REMARK INTRA:                  -0.272
REMARK UNBOUND:                -0.272
REMARK SMILES CCCCCCCC(=O)[O-]
REMARK SMILES IDX 5 1 6 2 7 3 8 4 9 5 10 6 4 7 3 8 2 9 1 10
REMARK H PARENT
REMARK Flexibility Score: inf
ROOT
ATOM      1  C   UNL     1      21.238  22.062  36.088  1.00  0.00     0.000 C 
ENDROOT
BRANCH   1   2
ATOM      2  C   UNL     1      21.481  21.697  34.618  1.00  0.00     0.006 C 
BRANCH   2   3
ATOM      3  C   UNL     1      20.466  22.392  33.705  1.00  0.00     0.053 C 
BRANCH   3   4
ATOM      4  C   UNL     1      19.703  21.382  32.907  1.00  0.00     0.041 C 
ATOM      5  O   UNL     1      18.809  21.756  32.103  1.00  0.00    -0.550 OA
ATOM      6  O   UNL     1      19.945  20.026  33.087  1.00  0.00    -0.550 OA
ENDBRANCH   3   4
ENDBRANCH   2   3
ENDBRANCH   1   2
BRANCH   1   7
ATOM      7  C   UNL     1      22.542  22.001  36.893  1.00  0.00     0.000 C 
BRANCH   7   8
ATOM      8  C   UNL     1      23.763  22.133  35.971  1.00  0.00    -0.000 C 
BRANCH   8   9
ATOM      9  C   UNL     1      25.090  21.921  36.716  1.00  0.00    -0.003 C 
ATOM     10  C   UNL     1      25.049  20.730  37.672  1.00  0.00     0.004 C 
ENDBRANCH   8   9
ENDBRANCH   7   8
ENDBRANCH   1   7
TORSDOF 6
ENDMDL
MODEL 2
REMARK VINA RESULT:    -3.901      3.660      5.881
REMARK INTER + INTRA:          -5.542
REMARK INTER:                  -5.383
REMARK INTRA:                  -0.159
REMARK UNBOUND:                -0.272
REMARK SMILES CCCCCCCC(=O)[O-]
REMARK SMILES IDX 5 1 6 2 7 3 8 4 9 5 10 6 4 7 3 8 2 9 1 10
REMARK H PARENT
REMARK Flexibility Score: inf
ROOT
ATOM      1  C   UNL     1      22.308  21.779  34.876  1.00  0.00     0.000 C 
ENDROOT
BRANCH   1   2
ATOM      2  C   UNL     1      22.749  21.979  36.332  1.00  0.00     0.006 C 
BRANCH   2   3
ATOM      3  C   UNL     1      24.261  22.209  36.421  1.00  0.00     0.053 C 
BRANCH   3   4
ATOM      4  C   UNL     1      24.806  21.624  37.686  1.00  0.00     0.041 C 
ATOM      5  O   UNL     1      24.786  22.292  38.752  1.00  0.00    -0.550 OA
ATOM      6  O   UNL     1      25.381  20.359  37.676  1.00  0.00    -0.550 OA
ENDBRANCH   3   4
ENDBRANCH   2   3
ENDBRANCH   1   2
BRANCH   1   7
ATOM      7  C   UNL     1      20.780  21.713  34.768  1.00  0.00     0.000 C 
BRANCH   7   8
ATOM      8  C   UNL     1      20.351  20.820  33.596  1.00  0.00    -0.000 C 
BRANCH   8   9
ATOM      9  C   UNL     1      19.395  21.535  32.627  1.00  0.00    -0.003 C 
ATOM     10  C   UNL     1      19.801  22.983  32.358  1.00  0.00     0.004 C 
ENDBRANCH   8   9
ENDBRANCH   7   8
ENDBRANCH   1   7
TORSDOF 6
ENDMDL
MODEL 3
REMARK VINA RESULT:    -3.899     10.061     11.575
REMARK INTER + INTRA:          -5.538
REMARK INTER:                  -5.404
REMARK INTRA:                  -0.135
REMARK UNBOUND:                -0.272
REMARK SMILES CCCCCCCC(=O)[O-]
REMARK SMILES IDX 5 1 6 2 7 3 8 4 9 5 10 6 4 7 3 8 2 9 1 10
REMARK H PARENT
REMARK Flexibility Score: inf
ROOT
ATOM      1  C   UNL     1      11.548  22.283  38.632  1.00  0.00     0.000 C 
ENDROOT
BRANCH   1   2
ATOM      2  C   UNL     1      11.348  22.216  37.112  1.00  0.00     0.006 C 
BRANCH   2   3
ATOM      3  C   UNL     1      12.690  22.079  36.387  1.00  0.00     0.053 C 
BRANCH   3   4
ATOM      4  C   UNL     1      12.481  21.604  34.984  1.00  0.00     0.041 C 
ATOM      5  O   UNL     1      11.797  22.289  34.179  1.00  0.00    -0.550 OA
ATOM      6  O   UNL     1      13.001  20.381  34.578  1.00  0.00    -0.550 OA
ENDBRANCH   3   4
ENDBRANCH   2   3
ENDBRANCH   1   2
BRANCH   1   7
ATOM      7  C   UNL     1      10.444  21.514  39.367  1.00  0.00     0.000 C 
BRANCH   7   8
ATOM      8  C   UNL     1      10.464  21.828  40.870  1.00  0.00    -0.000 C 
BRANCH   8   9
ATOM      9  C   UNL     1       9.238  22.636  41.322  1.00  0.00    -0.003 C 
ATOM     10  C   UNL     1       9.011  23.888  40.474  1.00  0.00     0.004 C 
ENDBRANCH   8   9
ENDBRANCH   7   8
ENDBRANCH   1   7
TORSDOF 6
ENDMDL
MODEL 4
REMARK VINA RESULT:    -3.898     10.211     11.827
REMARK INTER + INTRA:          -5.538
REMARK INTER:                  -5.218
REMARK INTRA:                  -0.320
REMARK UNBOUND:                -0.272
REMARK SMILES CCCCCCCC(=O)[O-]
REMARK SMILES IDX 5 1 6 2 7 3 8 4 9 5 10 6 4 7 3 8 2 9 1 10
REMARK H PARENT
REMARK Flexibility Score: inf
ROOT
ATOM      1  C   UNL     1      12.487  22.008  38.197  1.00  0.00     0.000 C 
ENDROOT
BRANCH   1   2
ATOM      2  C   UNL     1      10.965  21.932  38.379  1.00  0.00     0.006 C 
BRANCH   2   3
ATOM      3  C   UNL     1      10.507  22.814  39.544  1.00  0.00     0.053 C 
BRANCH   3   4
ATOM      4  C   UNL     1       9.775  21.998  40.563  1.00  0.00     0.041 C 
ATOM      5  O   UNL     1       9.764  20.743  40.479  1.00  0.00    -0.550 OA
ATOM      6  O   UNL     1       9.065  22.628  41.578  1.00  0.00    -0.550 OA
ENDBRANCH   3   4
ENDBRANCH   2   3
ENDBRANCH   1   2
BRANCH   1   7
ATOM      7  C   UNL     1      12.849  22.558  36.813  1.00  0.00     0.000 C 
BRANCH   7   8
ATOM      8  C   UNL     1      11.749  22.237  35.790  1.00  0.00    -0.000 C 
BRANCH   8   9
ATOM      9  C   UNL     1      12.298  21.557  34.525  1.00  0.00    -0.003 C 
ATOM     10  C   UNL     1      13.365  20.507  34.835  1.00  0.00     0.004 C 
ENDBRANCH   8   9
ENDBRANCH   7   8
ENDBRANCH   1   7
TORSDOF 6
ENDMDL
MODEL 5
REMARK VINA RESULT:    -3.864     13.482     14.840
REMARK INTER + INTRA:          -5.492
REMARK INTER:                  -5.323
REMARK INTRA:                  -0.169
REMARK UNBOUND:                -0.272
REMARK SMILES CCCCCCCC(=O)[O-]
REMARK SMILES IDX 5 1 6 2 7 3 8 4 9 5 10 6 4 7 3 8 2 9 1 10
REMARK H PARENT
REMARK Flexibility Score: inf
ROOT
ATOM      1  C   UNL     1      16.936  23.012  47.787  1.00  0.00     0.000 C 
ENDROOT
BRANCH   1   2
ATOM      2  C   UNL     1      18.310  22.436  47.421  1.00  0.00     0.006 C 
BRANCH   2   3
ATOM      3  C   UNL     1      19.202  22.317  48.660  1.00  0.00     0.053 C 
BRANCH   3   4
ATOM      4  C   UNL     1      20.114  23.499  48.764  1.00  0.00     0.041 C 
ATOM      5  O   UNL     1      21.264  23.457  48.254  1.00  0.00    -0.550 OA
ATOM      6  O   UNL     1      19.713  24.627  49.468  1.00  0.00    -0.550 OA
ENDBRANCH   3   4
ENDBRANCH   2   3
ENDBRANCH   1   2
BRANCH   1   7
ATOM      7  C   UNL     1      15.882  22.629  46.740  1.00  0.00     0.000 C 
BRANCH   7   8
ATOM      8  C   UNL     1      14.699  23.608  46.768  1.00  0.00    -0.000 C 
BRANCH   8   9
ATOM      9  C   UNL     1      13.494  23.055  47.545  1.00  0.00    -0.003 C 
ATOM     10  C   UNL     1      12.795  21.909  46.815  1.00  0.00     0.004 C 
ENDBRANCH   8   9
ENDBRANCH   7   8
ENDBRANCH   1   7
TORSDOF 6
ENDMDL
MODEL 6
REMARK VINA RESULT:    -3.809     12.981     13.838
REMARK INTER + INTRA:          -5.417
REMARK INTER:                  -5.089
REMARK INTRA:                  -0.328
REMARK UNBOUND:                -0.272
REMARK SMILES CCCCCCCC(=O)[O-]
REMARK SMILES IDX 5 1 6 2 7 3 8 4 9 5 10 6 4 7 3 8 2 9 1 10
REMARK H PARENT
REMARK Flexibility Score: inf
ROOT
ATOM      1  C   UNL     1      17.616  22.559  46.633  1.00  0.00     0.000 C 
ENDROOT
BRANCH   1   2
ATOM      2  C   UNL     1      16.307  23.318  46.386  1.00  0.00     0.006 C 
BRANCH   2   3
ATOM      3  C   UNL     1      15.396  23.259  47.616  1.00  0.00     0.053 C 
BRANCH   3   4
ATOM      4  C   UNL     1      14.033  22.775  47.235  1.00  0.00     0.041 C 
ATOM      5  O   UNL     1      13.008  23.370  47.661  1.00  0.00    -0.550 OA
ATOM      6  O   UNL     1      13.892  21.637  46.451  1.00  0.00    -0.550 OA
ENDBRANCH   3   4
ENDBRANCH   2   3
ENDBRANCH   1   2
BRANCH   1   7
ATOM      7  C   UNL     1      17.988  22.571  48.121  1.00  0.00     0.000 C 
BRANCH   7   8
ATOM      8  C   UNL     1      19.482  22.279  48.316  1.00  0.00    -0.000 C 
BRANCH   8   9
ATOM      9  C   UNL     1      20.229  23.442  48.989  1.00  0.00    -0.003 C 
ATOM     10  C   UNL     1      19.486  24.772  48.864  1.00  0.00     0.004 C 
ENDBRANCH   8   9
ENDBRANCH   7   8
ENDBRANCH   1   7
TORSDOF 6
ENDMDL
MODEL 7
REMARK VINA RESULT:    -3.766      3.895      5.879
REMARK INTER + INTRA:          -5.359
REMARK INTER:                  -5.195
REMARK INTRA:                  -0.164
REMARK UNBOUND:                -0.272
REMARK SMILES CCCCCCCC(=O)[O-]
REMARK SMILES IDX 5 1 6 2 7 3 8 4 9 5 10 6 4 7 3 8 2 9 1 10
REMARK H PARENT
REMARK Flexibility Score: inf
ROOT
ATOM      1  C   UNL     1      22.840  22.143  36.082  1.00  0.00     0.000 C 
ENDROOT
BRANCH   1   2
ATOM      2  C   UNL     1      24.363  21.990  35.969  1.00  0.00     0.006 C 
BRANCH   2   3
ATOM      3  C   UNL     1      25.082  22.943  36.929  1.00  0.00     0.053 C 
BRANCH   3   4
ATOM      4  C   UNL     1      24.636  22.703  38.337  1.00  0.00     0.041 C 
ATOM      5  O   UNL     1      24.067  23.620  38.985  1.00  0.00    -0.550 OA
ATOM      6  O   UNL     1      24.893  21.483  38.950  1.00  0.00    -0.550 OA
ENDBRANCH   3   4
ENDBRANCH   2   3
ENDBRANCH   1   2
BRANCH   1   7
ATOM      7  C   UNL     1      22.160  21.885  34.732  1.00  0.00     0.000 C 
BRANCH   7   8
ATOM      8  C   UNL     1      20.763  21.279  34.928  1.00  0.00    -0.000 C 
BRANCH   8   9
ATOM      9  C   UNL     1      20.256  20.543  33.677  1.00  0.00    -0.003 C 
ATOM     10  C   UNL     1      19.553  21.473  32.689  1.00  0.00     0.004 C 
ENDBRANCH   8   9
ENDBRANCH   7   8
ENDBRANCH   1   7
TORSDOF 6
ENDMDL
MODEL 8
REMARK VINA RESULT:    -3.739      1.256      1.805
REMARK INTER + INTRA:          -5.322
REMARK INTER:                  -5.084
REMARK INTRA:                  -0.238
REMARK UNBOUND:                -0.272
REMARK SMILES CCCCCCCC(=O)[O-]
REMARK SMILES IDX 5 1 6 2 7 3 8 4 9 5 10 6 4 7 3 8 2 9 1 10
REMARK H PARENT
REMARK Flexibility Score: inf
ROOT
ATOM      1  C   UNL     1      23.060  22.273  36.251  1.00  0.00     0.000 C 
ENDROOT
BRANCH   1   2
ATOM      2  C   UNL     1      22.487  21.853  34.892  1.00  0.00     0.006 C 
BRANCH   2   3
ATOM      3  C   UNL     1      20.978  21.609  34.984  1.00  0.00     0.053 C 
BRANCH   3   4
ATOM      4  C   UNL     1      20.347  21.709  33.631  1.00  0.00     0.041 C 
ATOM      5  O   UNL     1      20.230  22.829  33.068  1.00  0.00    -0.550 OA
ATOM      6  O   UNL     1      19.844  20.572  33.012  1.00  0.00    -0.550 OA
ENDBRANCH   3   4
ENDBRANCH   2   3
ENDBRANCH   1   2
BRANCH   1   7
ATOM      7  C   UNL     1      24.590  22.182  36.256  1.00  0.00     0.000 C 
BRANCH   7   8
ATOM      8  C   UNL     1      25.080  21.211  37.340  1.00  0.00    -0.000 C 
BRANCH   8   9
ATOM      9  C   UNL     1      24.127  21.140  38.543  1.00  0.00    -0.003 C 
ATOM     10  C   UNL     1      24.521  22.097  39.667  1.00  0.00     0.004 C 
ENDBRANCH   8   9
ENDBRANCH   7   8
ENDBRANCH   1   7
TORSDOF 6
ENDMDL
MODEL 9
REMARK VINA RESULT:    -3.733     12.914     13.893
REMARK INTER + INTRA:          -5.314
REMARK INTER:                  -5.058
REMARK INTRA:                  -0.256
REMARK UNBOUND:                -0.272
REMARK SMILES CCCCCCCC(=O)[O-]
REMARK SMILES IDX 5 1 6 2 7 3 8 4 9 5 10 6 4 7 3 8 2 9 1 10
REMARK H PARENT
REMARK Flexibility Score: inf
ROOT
ATOM      1  C   UNL     1      12.615  22.261  43.655  1.00  0.00     0.000 C 
ENDROOT
BRANCH   1   2
ATOM      2  C   UNL     1      11.912  22.944  42.475  1.00  0.00     0.006 C 
BRANCH   2   3
ATOM      3  C   UNL     1      10.399  23.011  42.701  1.00  0.00     0.053 C 
BRANCH   3   4
ATOM      4  C   UNL     1       9.666  22.564  41.475  1.00  0.00     0.041 C 
ATOM      5  O   UNL     1       9.912  21.439  40.966  1.00  0.00    -0.550 OA
ATOM      6  O   UNL     1       8.747  23.410  40.867  1.00  0.00    -0.550 OA
ENDBRANCH   3   4
ENDBRANCH   2   3
ENDBRANCH   1   2
BRANCH   1   7
ATOM      7  C   UNL     1      11.956  22.644  44.985  1.00  0.00     0.000 C 
BRANCH   7   8
ATOM      8  C   UNL     1      12.602  21.889  46.156  1.00  0.00    -0.000 C 
BRANCH   8   9
ATOM      9  C   UNL     1      12.969  22.815  47.326  1.00  0.00    -0.003 C 
ATOM     10  C   UNL     1      12.359  24.210  47.190  1.00  0.00     0.004 C 
ENDBRANCH   8   9
ENDBRANCH   7   8
ENDBRANCH   1   7
TORSDOF 6
ENDMDL
