MODEL 1
REMARK VINA RESULT:     3.085      0.000      0.000
REMARK INTER + INTRA:           4.356
REMARK INTER:                   5.249
REMARK INTRA:                  -0.892
REMARK UNBOUND:                -0.892
REMARK SMILES CCCCCCCCCCCCCC(=O)[O-]
REMARK SMILES IDX 8 1 9 2 10 3 11 4 12 5 13 6 14 7 15 8 16 9 7 10 6 11 5 12
REMARK SMILES IDX 4 13 3 14 2 15 1 16
REMARK H PARENT
REMARK Flexibility Score: inf
ROOT
ATOM      1  C   UNL     1      58.710  -0.591  -6.100  1.00  0.00     0.000 C 
ENDROOT
BRANCH   1   2
ATOM      2  C   UNL     1      59.043  -1.713  -7.095  1.00  0.00     0.000 C 
BRANCH   2   3
ATOM      3  C   UNL     1      58.991  -3.109  -6.455  1.00  0.00     0.000 C 
BRANCH   3   4
ATOM      4  C   UNL     1      59.124  -3.017  -4.930  1.00  0.00     0.000 C 
BRANCH   4   5
ATOM      5  C   UNL     1      59.015  -4.406  -4.283  1.00  0.00     0.006 C 
BRANCH   5   6
ATOM      6  C   UNL     1      59.122  -4.344  -2.753  1.00  0.00     0.053 C 
BRANCH   6   7
ATOM      7  C   UNL     1      59.075  -5.710  -2.138  1.00  0.00     0.041 C 
ATOM      8  O   UNL     1      59.056  -5.841  -0.886  1.00  0.00    -0.550 OA
ATOM      9  O   UNL     1      59.086  -6.839  -2.948  1.00  0.00    -0.550 OA
ENDBRANCH   6   7
ENDBRANCH   5   6
ENDBRANCH   4   5
ENDBRANCH   3   4
ENDBRANCH   2   3
ENDBRANCH   1   2
BRANCH   1  10
ATOM     10  C   UNL     1      57.347   0.065  -6.382  1.00  0.00     0.000 C 
BRANCH  10  11
ATOM     11  C   UNL     1      56.418   0.043  -5.158  1.00  0.00    -0.000 C 
BRANCH  11  12
ATOM     12  C   UNL     1      55.850  -1.358  -4.868  1.00  0.00    -0.000 C 
BRANCH  12  13
ATOM     13  C   UNL     1      54.369  -1.488  -5.256  1.00  0.00    -0.000 C 
BRANCH  13  14
ATOM     14  C   UNL     1      53.423  -1.159  -4.091  1.00  0.00    -0.000 C 
BRANCH  14  15
ATOM     15  C   UNL     1      51.958  -1.301  -4.518  1.00  0.00    -0.003 C 
ATOM     16  C   UNL     1      51.723  -2.612  -5.263  1.00  0.00     0.004 C 
ENDBRANCH  14  15
ENDBRANCH  13  14
ENDBRANCH  12  13
ENDBRANCH  11  12
ENDBRANCH  10  11
ENDBRANCH   1  10
TORSDOF 12
ENDMDL
MODEL 2
REMARK VINA RESULT:     4.218      3.307      5.923
REMARK INTER + INTRA:           6.285
REMARK INTER:                   6.455
REMARK INTRA:                  -0.170
REMARK UNBOUND:                -0.892
REMARK SMILES CCCCCCCCCCCCCC(=O)[O-]
REMARK SMILES IDX 8 1 9 2 10 3 11 4 12 5 13 6 14 7 15 8 16 9 7 10 6 11 5 12
REMARK SMILES IDX 4 13 3 14 2 15 1 16
REMARK H PARENT
REMARK Flexibility Score: inf
ROOT
ATOM      1  C   UNL     1      58.990  -3.997  -1.066  1.00  0.00     0.000 C 
ENDROOT
BRANCH   1   2
ATOM      2  C   UNL     1      59.113  -4.844   0.210  1.00  0.00     0.000 C 
BRANCH   2   3
ATOM      3  C   UNL     1      59.125  -6.353  -0.078  1.00  0.00     0.000 C 
BRANCH   3   4
ATOM      4  C   UNL     1      58.323  -7.120   0.981  1.00  0.00     0.000 C 
BRANCH   4   5
ATOM      5  C   UNL     1      57.464  -6.164   1.821  1.00  0.00     0.006 C 
BRANCH   5   6
ATOM      6  C   UNL     1      56.356  -5.498   0.992  1.00  0.00     0.053 C 
BRANCH   6   7
ATOM      7  C   UNL     1      55.147  -6.374   0.875  1.00  0.00     0.041 C 
ATOM      8  O   UNL     1      54.333  -6.462   1.832  1.00  0.00    -0.550 OA
ATOM      9  O   UNL     1      54.937  -7.120  -0.278  1.00  0.00    -0.550 OA
ENDBRANCH   6   7
ENDBRANCH   5   6
ENDBRANCH   4   5
ENDBRANCH   3   4
ENDBRANCH   2   3
ENDBRANCH   1   2
BRANCH   1  10
ATOM     10  C   UNL     1      59.083  -4.842  -2.348  1.00  0.00     0.000 C 
BRANCH  10  11
ATOM     11  C   UNL     1      59.116  -3.981  -3.621  1.00  0.00    -0.000 C 
BRANCH  11  12
ATOM     12  C   UNL     1      58.087  -4.433  -4.672  1.00  0.00    -0.000 C 
BRANCH  12  13
ATOM     13  C   UNL     1      57.849  -3.374  -5.760  1.00  0.00    -0.000 C 
BRANCH  13  14
ATOM     14  C   UNL     1      58.031  -1.941  -5.238  1.00  0.00    -0.000 C 
BRANCH  14  15
ATOM     15  C   UNL     1      58.604  -1.029  -6.329  1.00  0.00    -0.003 C 
ATOM     16  C   UNL     1      57.492  -0.318  -7.096  1.00  0.00     0.004 C 
ENDBRANCH  14  15
ENDBRANCH  13  14
ENDBRANCH  12  13
ENDBRANCH  11  12
ENDBRANCH  10  11
ENDBRANCH   1  10
TORSDOF 12
ENDMDL
MODEL 3
REMARK VINA RESULT:     4.862      3.246      6.290
REMARK INTER + INTRA:           7.380
REMARK INTER:                   7.764
REMARK INTRA:                  -0.384
REMARK UNBOUND:                -0.892
REMARK SMILES CCCCCCCCCCCCCC(=O)[O-]
REMARK SMILES IDX 8 1 9 2 10 3 11 4 12 5 13 6 14 7 15 8 16 9 7 10 6 11 5 12
REMARK SMILES IDX 4 13 3 14 2 15 1 16
REMARK H PARENT
REMARK Flexibility Score: inf
ROOT
ATOM      1  C   UNL     1      58.605  -0.791  -5.669  1.00  0.00     0.000 C 
ENDROOT
BRANCH   1   2
ATOM      2  C   UNL     1      57.312  -0.527  -4.880  1.00  0.00     0.000 C 
BRANCH   2   3
ATOM      3  C   UNL     1      56.174  -1.483  -5.269  1.00  0.00     0.000 C 
BRANCH   3   4
ATOM      4  C   UNL     1      54.824  -0.757  -5.268  1.00  0.00     0.000 C 
BRANCH   4   5
ATOM      5  C   UNL     1      54.186  -0.780  -3.872  1.00  0.00     0.006 C 
BRANCH   5   6
ATOM      6  C   UNL     1      52.652  -0.765  -3.932  1.00  0.00     0.053 C 
BRANCH   6   7
ATOM      7  C   UNL     1      52.120  -1.870  -4.792  1.00  0.00     0.041 C 
ATOM      8  O   UNL     1      52.570  -3.040  -4.670  1.00  0.00    -0.550 OA
ATOM      9  O   UNL     1      51.150  -1.602  -5.750  1.00  0.00    -0.550 OA
ENDBRANCH   6   7
ENDBRANCH   5   6
ENDBRANCH   4   5
ENDBRANCH   3   4
ENDBRANCH   2   3
ENDBRANCH   1   2
BRANCH   1  10
ATOM     10  C   UNL     1      58.339  -1.433  -7.042  1.00  0.00     0.000 C 
BRANCH  10  11
ATOM     11  C   UNL     1      58.260  -2.966  -6.970  1.00  0.00    -0.000 C 
BRANCH  11  12
ATOM     12  C   UNL     1      59.125  -3.554  -5.841  1.00  0.00    -0.000 C 
BRANCH  12  13
ATOM     13  C   UNL     1      58.354  -4.554  -4.965  1.00  0.00    -0.000 C 
BRANCH  13  14
ATOM     14  C   UNL     1      59.098  -4.896  -3.666  1.00  0.00    -0.000 C 
BRANCH  14  15
ATOM     15  C   UNL     1      58.805  -6.336  -3.228  1.00  0.00    -0.003 C 
ATOM     16  C   UNL     1      59.023  -6.513  -1.728  1.00  0.00     0.004 C 
ENDBRANCH  14  15
ENDBRANCH  13  14
ENDBRANCH  12  13
ENDBRANCH  11  12
ENDBRANCH  10  11
ENDBRANCH   1  10
TORSDOF 12
ENDMDL
