MODEL 1
REMARK VINA RESULT:    -3.766      0.000      0.000
REMARK INTER + INTRA:          -6.044
REMARK INTER:                  -5.748
REMARK INTRA:                  -0.296
REMARK UNBOUND:                -0.296
REMARK SMILES CC1=CCC[C@@H](C)C(=O)C[C@H](C(C)C)C(=O)C1
REMARK SMILES IDX 8 1 9 2 6 3 7 4 5 5 4 6 3 7 2 8 1 9 10 11 11 12 15 13 16 14
REMARK SMILES IDX 17 15 12 17 13 18 14 19
REMARK H PARENT
REMARK Flexibility Score: 70.00
ROOT
ATOM      1  C   UNL     1       8.065 -17.497  25.342  1.00  0.00     0.136 C 
ATOM      2  O   UNL     1       6.876 -17.451  25.617  1.00  0.00    -0.299 OA
ENDROOT
BRANCH   1   3
ATOM      3  C   UNL     1       8.947 -16.346  25.804  1.00  0.00     0.053 C 
ATOM      4  C   UNL     1       8.810 -15.072  24.954  1.00  0.00     0.016 C 
BRANCH   3   5
ATOM      5  C   UNL     1      10.410 -16.792  26.013  1.00  0.00     0.015 C 
BRANCH   5   6
ATOM      6  C   UNL     1      11.342 -16.545  24.810  1.00  0.00     0.028 C 
BRANCH   6   7
ATOM      7  C   UNL     1      12.346 -17.663  24.689  1.00  0.00    -0.028 C 
ATOM      8  C   UNL     1      12.368 -18.570  23.683  1.00  0.00    -0.070 CG0
ATOM      9  C   UNL     1      13.362 -19.700  23.770  1.00  0.00     0.039 C 
ATOM     10  G   UNL     1      11.471 -18.464  22.460  1.00  0.00     0.000 G0
ENDBRANCH   6   7
ENDBRANCH   5   6
ENDBRANCH   3   5
ENDBRANCH   1   3
BRANCH   1  11
ATOM     11  C   UNL     1       8.584 -18.683  24.551  1.00  0.00     0.087 C 
BRANCH  11  12
ATOM     12  C   UNL     1       8.926 -18.402  23.054  1.00  0.00     0.066 C 
BRANCH  12  13
ATOM     13  C   UNL     1      10.151 -19.156  22.550  1.00  0.00     0.140 C 
ATOM     14  O   UNL     1      10.044 -20.311  22.162  1.00  0.00    -0.299 OA
BRANCH  13  15
ATOM     15  C   UNL     1      11.489 -18.461  22.438  1.00  0.00     0.106 CG0
ATOM     16  G   UNL     1      12.333 -18.599  23.695  1.00  0.00     0.000 G0
ENDBRANCH  13  15
ENDBRANCH  12  13
BRANCH  12  17
ATOM     17  C   UNL     1       7.725 -18.510  22.058  1.00  0.00    -0.006 C 
ATOM     18  C   UNL     1       6.619 -19.482  22.495  1.00  0.00     0.008 C 
ATOM     19  C   UNL     1       7.112 -17.132  21.752  1.00  0.00     0.008 C 
ENDBRANCH  12  17
ENDBRANCH  11  12
ENDBRANCH   1  11
TORSDOF 1
ENDMDL
MODEL 2
REMARK VINA RESULT:    -3.618      2.338      5.181
REMARK INTER + INTRA:          -5.817
REMARK INTER:                  -5.592
REMARK INTRA:                  -0.226
REMARK UNBOUND:                -0.296
REMARK SMILES CC1=CCC[C@@H](C)C(=O)C[C@H](C(C)C)C(=O)C1
REMARK SMILES IDX 8 1 9 2 6 3 7 4 5 5 4 6 3 7 2 8 1 9 10 11 11 12 15 13 16 14
REMARK SMILES IDX 17 15 12 17 13 18 14 19
REMARK H PARENT
REMARK Flexibility Score: 70.00
ROOT
ATOM      1  C   UNL     1       9.615 -17.949  21.442  1.00  0.00     0.136 C 
ATOM      2  O   UNL     1      10.107 -17.844  20.329  1.00  0.00    -0.299 OA
ENDROOT
BRANCH   1   3
ATOM      3  C   UNL     1       8.102 -18.081  21.541  1.00  0.00     0.053 C 
ATOM      4  C   UNL     1       7.527 -19.287  20.780  1.00  0.00     0.016 C 
BRANCH   3   5
ATOM      5  C   UNL     1       7.387 -16.751  21.218  1.00  0.00     0.015 C 
BRANCH   5   6
ATOM      6  C   UNL     1       6.997 -15.909  22.449  1.00  0.00     0.028 C 
BRANCH   6   7
ATOM      7  C   UNL     1       6.669 -16.808  23.614  1.00  0.00    -0.028 C 
ATOM      8  C   UNL     1       7.414 -16.906  24.741  1.00  0.00    -0.070 CG0
ATOM      9  C   UNL     1       7.017 -17.939  25.764  1.00  0.00     0.039 C 
ATOM     10  G   UNL     1       8.591 -15.989  25.033  1.00  0.00     0.000 G0
ENDBRANCH   6   7
ENDBRANCH   5   6
ENDBRANCH   3   5
ENDBRANCH   1   3
BRANCH   1  11
ATOM     11  C   UNL     1      10.534 -17.932  22.650  1.00  0.00     0.087 C 
BRANCH  11  12
ATOM     12  C   UNL     1      10.590 -16.586  23.438  1.00  0.00     0.066 C 
BRANCH  12  13
ATOM     13  C   UNL     1       9.931 -16.647  24.810  1.00  0.00     0.140 C 
ATOM     14  O   UNL     1      10.514 -17.171  25.748  1.00  0.00    -0.299 OA
BRANCH  13  15
ATOM     15  C   UNL     1       8.593 -15.985  25.050  1.00  0.00     0.106 CG0
ATOM     16  G   UNL     1       7.417 -16.893  24.726  1.00  0.00     0.000 G0
ENDBRANCH  13  15
ENDBRANCH  12  13
BRANCH  12  17
ATOM     17  C   UNL     1      11.995 -15.900  23.497  1.00  0.00    -0.006 C 
ATOM     18  C   UNL     1      13.180 -16.855  23.292  1.00  0.00     0.008 C 
ATOM     19  C   UNL     1      12.098 -14.726  22.506  1.00  0.00     0.008 C 
ENDBRANCH  12  17
ENDBRANCH  11  12
ENDBRANCH   1  11
TORSDOF 1
ENDMDL
MODEL 3
REMARK VINA RESULT:    -3.551      1.577      1.843
REMARK INTER + INTRA:          -5.716
REMARK INTER:                  -5.469
REMARK INTRA:                  -0.246
REMARK UNBOUND:                -0.296
REMARK SMILES CC1=CCC[C@@H](C)C(=O)C[C@H](C(C)C)C(=O)C1
REMARK SMILES IDX 8 1 9 2 6 3 7 4 5 5 4 6 3 7 2 8 1 9 10 11 11 12 15 13 16 14
REMARK SMILES IDX 17 15 12 17 13 18 14 19
REMARK H PARENT
REMARK Flexibility Score: 70.00
ROOT
ATOM      1  C   UNL     1       7.412 -17.241  23.798  1.00  0.00     0.136 C 
ATOM      2  O   UNL     1       6.232 -17.557  23.806  1.00  0.00    -0.299 OA
ENDROOT
BRANCH   1   3
ATOM      3  C   UNL     1       7.762 -15.786  24.073  1.00  0.00     0.053 C 
ATOM      4  C   UNL     1       7.341 -14.819  22.954  1.00  0.00     0.016 C 
BRANCH   3   5
ATOM      5  C   UNL     1       9.234 -15.621  24.507  1.00  0.00     0.015 C 
BRANCH   5   6
ATOM      6  C   UNL     1      10.190 -15.147  23.395  1.00  0.00     0.028 C 
BRANCH   6   7
ATOM      7  C   UNL     1      11.558 -15.748  23.591  1.00  0.00    -0.028 C 
ATOM      8  C   UNL     1      12.057 -16.775  22.863  1.00  0.00    -0.070 CG0
ATOM      9  C   UNL     1      13.396 -17.341  23.262  1.00  0.00     0.039 C 
ATOM     10  G   UNL     1      11.350 -17.339  21.641  1.00  0.00     0.000 G0
ENDBRANCH   6   7
ENDBRANCH   5   6
ENDBRANCH   3   5
ENDBRANCH   1   3
BRANCH   1  11
ATOM     11  C   UNL     1       8.450 -18.310  23.504  1.00  0.00     0.087 C 
BRANCH  11  12
ATOM     12  C   UNL     1       8.971 -18.362  22.034  1.00  0.00     0.066 C 
BRANCH  12  13
ATOM     13  C   UNL     1      10.481 -18.530  21.922  1.00  0.00     0.140 C 
ATOM     14  O   UNL     1      10.983 -19.642  21.998  1.00  0.00    -0.299 OA
BRANCH  13  15
ATOM     15  C   UNL     1      11.366 -17.340  21.624  1.00  0.00     0.106 CG0
ATOM     16  G   UNL     1      12.060 -16.795  22.863  1.00  0.00     0.000 G0
ENDBRANCH  13  15
ENDBRANCH  12  13
BRANCH  12  17
ATOM     17  C   UNL     1       8.204 -19.339  21.083  1.00  0.00    -0.006 C 
ATOM     18  C   UNL     1       7.162 -20.224  21.783  1.00  0.00     0.008 C 
ATOM     19  C   UNL     1       7.546 -18.593  19.909  1.00  0.00     0.008 C 
ENDBRANCH  12  17
ENDBRANCH  11  12
ENDBRANCH   1  11
TORSDOF 1
ENDMDL
MODEL 4
REMARK VINA RESULT:    -3.533      1.903      2.457
REMARK INTER + INTRA:          -5.688
REMARK INTER:                  -5.344
REMARK INTRA:                  -0.343
REMARK UNBOUND:                -0.296
REMARK SMILES CC1=CCC[C@@H](C)C(=O)C[C@H](C(C)C)C(=O)C1
REMARK SMILES IDX 8 1 9 2 6 3 7 4 5 5 4 6 3 7 2 8 1 9 10 11 11 12 15 13 16 14
REMARK SMILES IDX 17 15 12 17 13 18 14 19
REMARK H PARENT
REMARK Flexibility Score: 70.00
ROOT
ATOM      1  C   UNL     1       9.606 -17.155  24.911  1.00  0.00     0.136 C 
ATOM      2  O   UNL     1       9.002 -17.068  25.969  1.00  0.00    -0.299 OA
ENDROOT
BRANCH   1   3
ATOM      3  C   UNL     1      10.471 -15.977  24.486  1.00  0.00     0.053 C 
ATOM      4  C   UNL     1       9.670 -14.758  23.998  1.00  0.00     0.016 C 
BRANCH   3   5
ATOM      5  C   UNL     1      11.592 -16.406  23.517  1.00  0.00     0.015 C 
BRANCH   5   6
ATOM      6  C   UNL     1      11.324 -16.085  22.033  1.00  0.00     0.028 C 
BRANCH   6   7
ATOM      7  C   UNL     1      11.867 -17.185  21.155  1.00  0.00    -0.028 C 
ATOM      8  C   UNL     1      11.109 -18.133  20.554  1.00  0.00    -0.070 CG0
ATOM      9  C   UNL     1      11.815 -19.234  19.806  1.00  0.00     0.039 C 
ATOM     10  G   UNL     1       9.589 -18.099  20.563  1.00  0.00     0.000 G0
ENDBRANCH   6   7
ENDBRANCH   5   6
ENDBRANCH   3   5
ENDBRANCH   1   3
BRANCH   1  11
ATOM     11  C   UNL     1       9.452 -18.419  24.085  1.00  0.00     0.087 C 
BRANCH  11  12
ATOM     12  C   UNL     1       8.432 -18.337  22.906  1.00  0.00     0.066 C 
BRANCH  12  13
ATOM     13  C   UNL     1       8.937 -18.963  21.611  1.00  0.00     0.140 C 
ATOM     14  O   UNL     1       8.766 -20.155  21.399  1.00  0.00    -0.299 OA
BRANCH  13  15
ATOM     15  C   UNL     1       9.569 -18.105  20.539  1.00  0.00     0.106 CG0
ATOM     16  G   UNL     1      11.089 -18.143  20.571  1.00  0.00     0.000 G0
ENDBRANCH  13  15
ENDBRANCH  12  13
BRANCH  12  17
ATOM     17  C   UNL     1       6.975 -18.794  23.245  1.00  0.00    -0.006 C 
ATOM     18  C   UNL     1       6.887 -19.979  24.217  1.00  0.00     0.008 C 
ATOM     19  C   UNL     1       6.120 -17.627  23.771  1.00  0.00     0.008 C 
ENDBRANCH  12  17
ENDBRANCH  11  12
ENDBRANCH   1  11
TORSDOF 1
ENDMDL
MODEL 5
REMARK VINA RESULT:    -3.411      1.969      3.798
REMARK INTER + INTRA:          -5.502
REMARK INTER:                  -5.592
REMARK INTRA:                   0.090
REMARK UNBOUND:                -0.296
REMARK SMILES CC1=CCC[C@@H](C)C(=O)C[C@H](C(C)C)C(=O)C1
REMARK SMILES IDX 8 1 9 2 6 3 7 4 5 5 4 6 3 7 2 8 1 9 10 11 11 12 15 13 16 14
REMARK SMILES IDX 17 15 12 17 13 18 14 19
REMARK H PARENT
REMARK Flexibility Score: 70.00
ROOT
ATOM      1  C   UNL     1      11.497 -19.576  22.856  1.00  0.00     0.136 C 
ATOM      2  O   UNL     1      12.141 -20.610  22.765  1.00  0.00    -0.299 OA
ENDROOT
BRANCH   1   3
ATOM      3  C   UNL     1      11.980 -18.521  23.840  1.00  0.00     0.053 C 
ATOM      4  C   UNL     1      13.460 -18.139  23.672  1.00  0.00     0.016 C 
BRANCH   3   5
ATOM      5  C   UNL     1      11.596 -18.872  25.294  1.00  0.00     0.015 C 
BRANCH   5   6
ATOM      6  C   UNL     1      10.390 -18.092  25.853  1.00  0.00     0.028 C 
BRANCH   6   7
ATOM      7  C   UNL     1      10.405 -16.673  25.343  1.00  0.00    -0.028 C 
ATOM      8  C   UNL     1       9.499 -16.159  24.477  1.00  0.00    -0.070 CG0
ATOM      9  C   UNL     1       9.721 -14.757  23.970  1.00  0.00     0.039 C 
ATOM     10  G   UNL     1       8.256 -16.917  24.039  1.00  0.00     0.000 G0
ENDBRANCH   6   7
ENDBRANCH   5   6
ENDBRANCH   3   5
ENDBRANCH   1   3
BRANCH   1  11
ATOM     11  C   UNL     1      10.257 -19.412  21.996  1.00  0.00     0.087 C 
BRANCH  11  12
ATOM     12  C   UNL     1       8.927 -19.149  22.770  1.00  0.00     0.066 C 
BRANCH  12  13
ATOM     13  C   UNL     1       8.476 -17.694  22.742  1.00  0.00     0.140 C 
ATOM     14  O   UNL     1       8.215 -17.152  21.678  1.00  0.00    -0.299 OA
BRANCH  13  15
ATOM     15  C   UNL     1       8.260 -16.932  24.031  1.00  0.00     0.106 CG0
ATOM     16  G   UNL     1       9.491 -16.158  24.473  1.00  0.00     0.000 G0
ENDBRANCH  13  15
ENDBRANCH  12  13
BRANCH  12  17
ATOM     17  C   UNL     1       7.752 -20.129  22.440  1.00  0.00    -0.006 C 
ATOM     18  C   UNL     1       6.490 -19.919  23.288  1.00  0.00     0.008 C 
ATOM     19  C   UNL     1       7.385 -20.094  20.946  1.00  0.00     0.008 C 
ENDBRANCH  12  17
ENDBRANCH  11  12
ENDBRANCH   1  11
TORSDOF 1
ENDMDL
MODEL 6
REMARK VINA RESULT:    -3.409      1.863      3.844
REMARK INTER + INTRA:          -5.499
REMARK INTER:                  -5.130
REMARK INTRA:                  -0.369
REMARK UNBOUND:                -0.296
REMARK SMILES CC1=CCC[C@@H](C)C(=O)C[C@H](C(C)C)C(=O)C1
REMARK SMILES IDX 8 1 9 2 6 3 7 4 5 5 4 6 3 7 2 8 1 9 10 11 11 12 15 13 16 14
REMARK SMILES IDX 17 15 12 17 13 18 14 19
REMARK H PARENT
REMARK Flexibility Score: 70.00
ROOT
ATOM      1  C   UNL     1       7.795 -17.471  21.839  1.00  0.00     0.136 C 
ATOM      2  O   UNL     1       6.892 -16.677  21.622  1.00  0.00    -0.299 OA
ENDROOT
BRANCH   1   3
ATOM      3  C   UNL     1       7.499 -18.952  21.655  1.00  0.00     0.053 C 
ATOM      4  C   UNL     1       7.117 -19.680  22.954  1.00  0.00     0.016 C 
BRANCH   3   5
ATOM      5  C   UNL     1       8.609 -19.665  20.853  1.00  0.00     0.015 C 
BRANCH   5   6
ATOM      6  C   UNL     1       9.533 -20.572  21.690  1.00  0.00     0.028 C 
BRANCH   6   7
ATOM      7  C   UNL     1      10.977 -20.215  21.444  1.00  0.00    -0.028 C 
ATOM      8  C   UNL     1      11.759 -19.538  22.318  1.00  0.00    -0.070 CG0
ATOM      9  C   UNL     1      13.148 -19.154  21.875  1.00  0.00     0.039 C 
ATOM     10  G   UNL     1      11.313 -19.199  23.731  1.00  0.00     0.000 G0
ENDBRANCH   6   7
ENDBRANCH   5   6
ENDBRANCH   3   5
ENDBRANCH   1   3
BRANCH   1  11
ATOM     11  C   UNL     1       9.143 -16.937  22.286  1.00  0.00     0.087 C 
BRANCH  11  12
ATOM     12  C   UNL     1       9.542 -17.255  23.761  1.00  0.00     0.066 C 
BRANCH  12  13
ATOM     13  C   UNL     1      10.979 -17.739  23.920  1.00  0.00     0.140 C 
ATOM     14  O   UNL     1      11.854 -16.959  24.269  1.00  0.00    -0.299 OA
BRANCH  13  15
ATOM     15  C   UNL     1      11.321 -19.200  23.738  1.00  0.00     0.106 CG0
ATOM     16  G   UNL     1      11.744 -19.535  22.317  1.00  0.00     0.000 G0
ENDBRANCH  13  15
ENDBRANCH  12  13
BRANCH  12  17
ATOM     17  C   UNL     1       9.180 -16.151  24.809  1.00  0.00    -0.006 C 
ATOM     18  C   UNL     1       9.040 -14.738  24.223  1.00  0.00     0.008 C 
ATOM     19  C   UNL     1       7.911 -16.512  25.601  1.00  0.00     0.008 C 
ENDBRANCH  12  17
ENDBRANCH  11  12
ENDBRANCH   1  11
TORSDOF 1
ENDMDL
MODEL 7
REMARK VINA RESULT:    -3.365      2.302      3.089
REMARK INTER + INTRA:          -5.433
REMARK INTER:                  -5.223
REMARK INTRA:                  -0.209
REMARK UNBOUND:                -0.296
REMARK SMILES CC1=CCC[C@@H](C)C(=O)C[C@H](C(C)C)C(=O)C1
REMARK SMILES IDX 8 1 9 2 6 3 7 4 5 5 4 6 3 7 2 8 1 9 10 11 11 12 15 13 16 14
REMARK SMILES IDX 17 15 12 17 13 18 14 19
REMARK H PARENT
REMARK Flexibility Score: 70.00
ROOT
ATOM      1  C   UNL     1      10.403 -15.652  23.509  1.00  0.00     0.136 C 
ATOM      2  O   UNL     1       9.875 -14.585  23.782  1.00  0.00    -0.299 OA
ENDROOT
BRANCH   1   3
ATOM      3  C   UNL     1      11.917 -15.680  23.359  1.00  0.00     0.053 C 
ATOM      4  C   UNL     1      12.447 -14.815  22.204  1.00  0.00     0.016 C 
BRANCH   3   5
ATOM      5  C   UNL     1      12.468 -17.121  23.352  1.00  0.00     0.015 C 
BRANCH   5   6
ATOM      6  C   UNL     1      12.852 -17.662  21.961  1.00  0.00     0.028 C 
BRANCH   6   7
ATOM      7  C   UNL     1      12.339 -19.070  21.789  1.00  0.00    -0.028 C 
ATOM      8  C   UNL     1      11.163 -19.392  21.200  1.00  0.00    -0.070 CG0
ATOM      9  C   UNL     1      10.737 -20.838  21.213  1.00  0.00     0.039 C 
ATOM     10  G   UNL     1      10.289 -18.369  20.491  1.00  0.00     0.000 G0
ENDBRANCH   6   7
ENDBRANCH   5   6
ENDBRANCH   3   5
ENDBRANCH   1   3
BRANCH   1  11
ATOM     11  C   UNL     1       9.523 -16.875  23.327  1.00  0.00     0.087 C 
BRANCH  11  12
ATOM     12  C   UNL     1       8.690 -16.918  22.007  1.00  0.00     0.066 C 
BRANCH  12  13
ATOM     13  C   UNL     1       8.938 -18.163  21.163  1.00  0.00     0.140 C 
ATOM     14  O   UNL     1       8.038 -18.968  20.978  1.00  0.00    -0.299 OA
BRANCH  13  15
ATOM     15  C   UNL     1      10.268 -18.370  20.474  1.00  0.00     0.106 CG0
ATOM     16  G   UNL     1      11.153 -19.379  21.187  1.00  0.00     0.000 G0
ENDBRANCH  13  15
ENDBRANCH  12  13
BRANCH  12  17
ATOM     17  C   UNL     1       7.163 -16.618  22.166  1.00  0.00    -0.006 C 
ATOM     18  C   UNL     1       6.636 -16.729  23.604  1.00  0.00     0.008 C 
ATOM     19  C   UNL     1       6.789 -15.243  21.582  1.00  0.00     0.008 C 
ENDBRANCH  12  17
ENDBRANCH  11  12
ENDBRANCH   1  11
TORSDOF 1
ENDMDL
MODEL 8
REMARK VINA RESULT:    -3.314      2.403      4.293
REMARK INTER + INTRA:          -5.354
REMARK INTER:                  -5.086
REMARK INTRA:                  -0.268
REMARK UNBOUND:                -0.296
REMARK SMILES CC1=CCC[C@@H](C)C(=O)C[C@H](C(C)C)C(=O)C1
REMARK SMILES IDX 8 1 9 2 6 3 7 4 5 5 4 6 3 7 2 8 1 9 10 11 11 12 15 13 16 14
REMARK SMILES IDX 17 15 12 17 13 18 14 19
REMARK H PARENT
REMARK Flexibility Score: 70.00
ROOT
ATOM      1  C   UNL     1       7.686 -17.579  19.901  1.00  0.00     0.136 C 
ATOM      2  O   UNL     1       7.198 -18.357  19.096  1.00  0.00    -0.299 OA
ENDROOT
BRANCH   1   3
ATOM      3  C   UNL     1       8.602 -16.486  19.370  1.00  0.00     0.053 C 
ATOM      4  C   UNL     1       7.958 -15.600  18.290  1.00  0.00     0.016 C 
BRANCH   3   5
ATOM      5  C   UNL     1       9.985 -17.040  18.967  1.00  0.00     0.015 C 
BRANCH   5   6
ATOM      6  C   UNL     1      10.920 -17.373  20.146  1.00  0.00     0.028 C 
BRANCH   6   7
ATOM      7  C   UNL     1      10.915 -16.248  21.149  1.00  0.00    -0.028 C 
ATOM      8  C   UNL     1      10.642 -16.396  22.468  1.00  0.00    -0.070 CG0
ATOM      9  C   UNL     1      10.560 -15.154  23.318  1.00  0.00     0.039 C 
ATOM     10  G   UNL     1      10.469 -17.756  23.125  1.00  0.00     0.000 G0
ENDBRANCH   6   7
ENDBRANCH   5   6
ENDBRANCH   3   5
ENDBRANCH   1   3
BRANCH   1  11
ATOM     11  C   UNL     1       7.361 -17.754  21.373  1.00  0.00     0.087 C 
BRANCH  11  12
ATOM     12  C   UNL     1       8.250 -18.778  22.146  1.00  0.00     0.066 C 
BRANCH  12  13
ATOM     13  C   UNL     1       9.023 -18.169  23.309  1.00  0.00     0.140 C 
ATOM     14  O   UNL     1       8.501 -18.074  24.410  1.00  0.00    -0.299 OA
BRANCH  13  15
ATOM     15  C   UNL     1      10.469 -17.759  23.139  1.00  0.00     0.106 CG0
ATOM     16  G   UNL     1      10.625 -16.411  22.453  1.00  0.00     0.000 G0
ENDBRANCH  13  15
ENDBRANCH  12  13
BRANCH  12  17
ATOM     17  C   UNL     1       7.540 -20.112  22.554  1.00  0.00    -0.006 C 
ATOM     18  C   UNL     1       6.040 -19.969  22.855  1.00  0.00     0.008 C 
ATOM     19  C   UNL     1       7.755 -21.216  21.504  1.00  0.00     0.008 C 
ENDBRANCH  12  17
ENDBRANCH  11  12
ENDBRANCH   1  11
TORSDOF 1
ENDMDL
MODEL 9
REMARK VINA RESULT:    -3.301      2.433      3.722
REMARK INTER + INTRA:          -5.334
REMARK INTER:                  -5.076
REMARK INTRA:                  -0.259
REMARK UNBOUND:                -0.296
REMARK SMILES CC1=CCC[C@@H](C)C(=O)C[C@H](C(C)C)C(=O)C1
REMARK SMILES IDX 8 1 9 2 6 3 7 4 5 5 4 6 3 7 2 8 1 9 10 11 11 12 15 13 16 14
REMARK SMILES IDX 17 15 12 17 13 18 14 19
REMARK H PARENT
REMARK Flexibility Score: 70.00
ROOT
ATOM      1  C   UNL     1       7.689 -19.939  22.089  1.00  0.00     0.136 C 
ATOM      2  O   UNL     1       6.756 -20.580  21.630  1.00  0.00    -0.299 OA
ENDROOT
BRANCH   1   3
ATOM      3  C   UNL     1       7.456 -19.171  23.382  1.00  0.00     0.053 C 
ATOM      4  C   UNL     1       6.837 -20.015  24.508  1.00  0.00     0.016 C 
BRANCH   3   5
ATOM      5  C   UNL     1       6.718 -17.838  23.135  1.00  0.00     0.015 C 
BRANCH   5   6
ATOM      6  C   UNL     1       7.634 -16.615  22.938  1.00  0.00     0.028 C 
BRANCH   6   7
ATOM      7  C   UNL     1       8.918 -16.796  23.708  1.00  0.00    -0.028 C 
ATOM      8  C   UNL     1      10.146 -16.884  23.142  1.00  0.00    -0.070 CG0
ATOM      9  C   UNL     1      11.319 -17.185  24.040  1.00  0.00     0.039 C 
ATOM     10  G   UNL     1      10.390 -16.644  21.661  1.00  0.00     0.000 G0
ENDBRANCH   6   7
ENDBRANCH   5   6
ENDBRANCH   3   5
ENDBRANCH   1   3
BRANCH   1  11
ATOM     11  C   UNL     1       9.010 -19.938  21.342  1.00  0.00     0.087 C 
BRANCH  11  12
ATOM     12  C   UNL     1       9.283 -18.684  20.452  1.00  0.00     0.066 C 
BRANCH  12  13
ATOM     13  C   UNL     1      10.527 -17.902  20.856  1.00  0.00     0.140 C 
ATOM     14  O   UNL     1      11.631 -18.262  20.473  1.00  0.00    -0.299 OA
BRANCH  13  15
ATOM     15  C   UNL     1      10.404 -16.624  21.656  1.00  0.00     0.106 CG0
ATOM     16  G   UNL     1      10.142 -16.875  23.133  1.00  0.00     0.000 G0
ENDBRANCH  13  15
ENDBRANCH  12  13
BRANCH  12  17
ATOM     17  C   UNL     1       9.226 -18.931  18.908  1.00  0.00    -0.006 C 
ATOM     18  C   UNL     1       9.574 -20.363  18.478  1.00  0.00     0.008 C 
ATOM     19  C   UNL     1       7.864 -18.528  18.317  1.00  0.00     0.008 C 
ENDBRANCH  12  17
ENDBRANCH  11  12
ENDBRANCH   1  11
TORSDOF 1
ENDMDL
