MODEL 1
REMARK VINA RESULT:    -3.640      0.000      0.000
REMARK INTER + INTRA:          -4.668
REMARK INTER:                  -4.491
REMARK INTRA:                  -0.177
REMARK UNBOUND:                -0.177
REMARK SMILES C=CC[C@H](C)C(=O)CC
REMARK SMILES IDX 4 1 5 2 6 3 7 4 8 5 9 6 3 7 2 8 1 9
REMARK H PARENT
REMARK Flexibility Score: inf
ROOT
ATOM      1  C   UNL     1      72.496  34.226  54.645  1.00  0.00     0.057 C 
ATOM      2  C   UNL     1      73.090  32.811  54.584  1.00  0.00     0.016 C 
ENDROOT
BRANCH   1   3
ATOM      3  C   UNL     1      73.514  35.253  54.193  1.00  0.00     0.135 C 
ATOM      4  O   UNL     1      74.037  35.978  55.027  1.00  0.00    -0.299 OA
BRANCH   3   5
ATOM      5  C   UNL     1      73.925  35.391  52.748  1.00  0.00     0.072 C 
ATOM      6  C   UNL     1      72.856  36.125  51.945  1.00  0.00     0.012 C 
ENDBRANCH   3   5
ENDBRANCH   1   3
BRANCH   1   7
ATOM      7  C   UNL     1      71.966  34.569  56.054  1.00  0.00     0.038 C 
BRANCH   7   8
ATOM      8  C   UNL     1      71.343  33.379  56.735  1.00  0.00    -0.034 C 
ATOM      9  C   UNL     1      71.714  32.995  57.960  1.00  0.00     0.004 C 
ENDBRANCH   7   8
ENDBRANCH   1   7
TORSDOF 4
ENDMDL
MODEL 2
REMARK VINA RESULT:    -3.608     15.993     17.319
REMARK INTER + INTRA:          -4.629
REMARK INTER:                  -4.386
REMARK INTRA:                  -0.243
REMARK UNBOUND:                -0.177
REMARK SMILES C=CC[C@H](C)C(=O)CC
REMARK SMILES IDX 4 1 5 2 6 3 7 4 8 5 9 6 3 7 2 8 1 9
REMARK H PARENT
REMARK Flexibility Score: inf
ROOT
ATOM      1  C   UNL     1      85.198  31.988  66.570  1.00  0.00     0.057 C 
ATOM      2  C   UNL     1      84.269  32.027  67.793  1.00  0.00     0.016 C 
ENDROOT
BRANCH   1   3
ATOM      3  C   UNL     1      84.627  31.089  65.493  1.00  0.00     0.135 C 
ATOM      4  O   UNL     1      85.303  30.161  65.074  1.00  0.00    -0.299 OA
BRANCH   3   5
ATOM      5  C   UNL     1      83.237  31.286  64.939  1.00  0.00     0.072 C 
ATOM      6  C   UNL     1      82.658  29.967  64.439  1.00  0.00     0.012 C 
ENDBRANCH   3   5
ENDBRANCH   1   3
BRANCH   1   7
ATOM      7  C   UNL     1      86.629  31.546  66.946  1.00  0.00     0.038 C 
BRANCH   7   8
ATOM      8  C   UNL     1      87.663  32.572  66.565  1.00  0.00    -0.034 C 
ATOM      9  C   UNL     1      87.768  33.035  65.316  1.00  0.00     0.004 C 
ENDBRANCH   7   8
ENDBRANCH   1   7
TORSDOF 4
ENDMDL
MODEL 3
REMARK VINA RESULT:    -3.534     15.218     16.402
REMARK INTER + INTRA:          -4.538
REMARK INTER:                  -4.117
REMARK INTRA:                  -0.420
REMARK UNBOUND:                -0.177
REMARK SMILES C=CC[C@H](C)C(=O)CC
REMARK SMILES IDX 4 1 5 2 6 3 7 4 8 5 9 6 3 7 2 8 1 9
REMARK H PARENT
REMARK Flexibility Score: inf
ROOT
ATOM      1  C   UNL     1      84.699  31.409  65.659  1.00  0.00     0.057 C 
ATOM      2  C   UNL     1      84.743  31.969  67.089  1.00  0.00     0.016 C 
ENDROOT
BRANCH   1   3
ATOM      3  C   UNL     1      85.788  32.030  64.808  1.00  0.00     0.135 C 
ATOM      4  O   UNL     1      85.680  33.199  64.466  1.00  0.00    -0.299 OA
BRANCH   3   5
ATOM      5  C   UNL     1      87.016  31.260  64.391  1.00  0.00     0.072 C 
ATOM      6  C   UNL     1      87.061  29.896  65.072  1.00  0.00     0.012 C 
ENDBRANCH   3   5
ENDBRANCH   1   3
BRANCH   1   7
ATOM      7  C   UNL     1      83.315  31.609  65.004  1.00  0.00     0.038 C 
BRANCH   7   8
ATOM      8  C   UNL     1      82.627  30.301  64.713  1.00  0.00    -0.034 C 
ATOM      9  C   UNL     1      83.308  29.219  64.323  1.00  0.00     0.004 C 
ENDBRANCH   7   8
ENDBRANCH   1   7
TORSDOF 4
ENDMDL
MODEL 4
REMARK VINA RESULT:    -3.529     15.390     16.623
REMARK INTER + INTRA:          -4.531
REMARK INTER:                  -4.324
REMARK INTRA:                  -0.208
REMARK UNBOUND:                -0.177
REMARK SMILES C=CC[C@H](C)C(=O)CC
REMARK SMILES IDX 4 1 5 2 6 3 7 4 8 5 9 6 3 7 2 8 1 9
REMARK H PARENT
REMARK Flexibility Score: inf
ROOT
ATOM      1  C   UNL     1      85.484  30.974  65.764  1.00  0.00     0.057 C 
ATOM      2  C   UNL     1      86.651  30.187  65.149  1.00  0.00     0.016 C 
ENDROOT
BRANCH   1   3
ATOM      3  C   UNL     1      84.660  31.641  64.682  1.00  0.00     0.135 C 
ATOM      4  O   UNL     1      85.213  32.395  63.894  1.00  0.00    -0.299 OA
BRANCH   3   5
ATOM      5  C   UNL     1      83.181  31.384  64.529  1.00  0.00     0.072 C 
ATOM      6  C   UNL     1      82.900  29.893  64.377  1.00  0.00     0.012 C 
ENDBRANCH   3   5
ENDBRANCH   1   3
BRANCH   1   7
ATOM      7  C   UNL     1      85.970  32.014  66.797  1.00  0.00     0.038 C 
BRANCH   7   8
ATOM      8  C   UNL     1      85.108  32.039  68.032  1.00  0.00    -0.034 C 
ATOM      9  C   UNL     1      83.774  32.069  67.959  1.00  0.00     0.004 C 
ENDBRANCH   7   8
ENDBRANCH   1   7
TORSDOF 4
ENDMDL
MODEL 5
REMARK VINA RESULT:    -3.517      1.614      4.634
REMARK INTER + INTRA:          -4.517
REMARK INTER:                  -4.346
REMARK INTRA:                  -0.171
REMARK UNBOUND:                -0.177
REMARK SMILES C=CC[C@H](C)C(=O)CC
REMARK SMILES IDX 4 1 5 2 6 3 7 4 8 5 9 6 3 7 2 8 1 9
REMARK H PARENT
REMARK Flexibility Score: inf
ROOT
ATOM      1  C   UNL     1      73.160  34.953  53.880  1.00  0.00     0.057 C 
ATOM      2  C   UNL     1      73.798  36.125  54.640  1.00  0.00     0.016 C 
ENDROOT
BRANCH   1   3
ATOM      3  C   UNL     1      72.650  33.903  54.845  1.00  0.00     0.135 C 
ATOM      4  O   UNL     1      73.005  32.742  54.702  1.00  0.00    -0.299 OA
BRANCH   3   5
ATOM      5  C   UNL     1      71.738  34.250  55.996  1.00  0.00     0.072 C 
ATOM      6  C   UNL     1      71.656  33.098  56.992  1.00  0.00     0.012 C 
ENDBRANCH   3   5
ENDBRANCH   1   3
BRANCH   1   7
ATOM      7  C   UNL     1      74.137  34.326  52.861  1.00  0.00     0.038 C 
BRANCH   7   8
ATOM      8  C   UNL     1      75.199  35.297  52.416  1.00  0.00    -0.034 C 
ATOM      9  C   UNL     1      76.417  34.888  52.048  1.00  0.00     0.004 C 
ENDBRANCH   7   8
ENDBRANCH   1   7
TORSDOF 4
ENDMDL
MODEL 6
REMARK VINA RESULT:    -3.495      1.371      1.520
REMARK INTER + INTRA:          -4.490
REMARK INTER:                  -4.270
REMARK INTRA:                  -0.220
REMARK UNBOUND:                -0.177
REMARK SMILES C=CC[C@H](C)C(=O)CC
REMARK SMILES IDX 4 1 5 2 6 3 7 4 8 5 9 6 3 7 2 8 1 9
REMARK H PARENT
REMARK Flexibility Score: inf
ROOT
ATOM      1  C   UNL     1      72.577  33.994  54.357  1.00  0.00     0.057 C 
ATOM      2  C   UNL     1      73.474  32.751  54.451  1.00  0.00     0.016 C 
ENDROOT
BRANCH   1   3
ATOM      3  C   UNL     1      73.160  35.002  53.388  1.00  0.00     0.135 C 
ATOM      4  O   UNL     1      72.750  35.023  52.236  1.00  0.00    -0.299 OA
BRANCH   3   5
ATOM      5  C   UNL     1      74.211  36.001  53.805  1.00  0.00     0.072 C 
ATOM      6  C   UNL     1      75.339  36.064  52.782  1.00  0.00     0.012 C 
ENDBRANCH   3   5
ENDBRANCH   1   3
BRANCH   1   7
ATOM      7  C   UNL     1      72.342  34.642  55.740  1.00  0.00     0.038 C 
BRANCH   7   8
ATOM      8  C   UNL     1      71.258  33.946  56.519  1.00  0.00    -0.034 C 
ATOM      9  C   UNL     1      71.528  33.229  57.615  1.00  0.00     0.004 C 
ENDBRANCH   7   8
ENDBRANCH   1   7
TORSDOF 4
ENDMDL
MODEL 7
REMARK VINA RESULT:    -3.465      1.948      3.013
REMARK INTER + INTRA:          -4.452
REMARK INTER:                  -4.308
REMARK INTRA:                  -0.144
REMARK UNBOUND:                -0.177
REMARK SMILES C=CC[C@H](C)C(=O)CC
REMARK SMILES IDX 4 1 5 2 6 3 7 4 8 5 9 6 3 7 2 8 1 9
REMARK H PARENT
REMARK Flexibility Score: inf
ROOT
ATOM      1  C   UNL     1      73.583  35.220  53.120  1.00  0.00     0.057 C 
ATOM      2  C   UNL     1      72.875  36.040  52.031  1.00  0.00     0.016 C 
ENDROOT
BRANCH   1   3
ATOM      3  C   UNL     1      74.923  34.717  52.623  1.00  0.00     0.135 C 
ATOM      4  O   UNL     1      75.142  33.514  52.622  1.00  0.00    -0.299 OA
BRANCH   3   5
ATOM      5  C   UNL     1      75.987  35.652  52.104  1.00  0.00     0.072 C 
ATOM      6  C   UNL     1      77.237  34.880  51.693  1.00  0.00     0.012 C 
ENDBRANCH   3   5
ENDBRANCH   1   3
BRANCH   1   7
ATOM      7  C   UNL     1      72.711  34.046  53.617  1.00  0.00     0.038 C 
BRANCH   7   8
ATOM      8  C   UNL     1      72.716  33.927  55.118  1.00  0.00    -0.034 C 
ATOM      9  C   UNL     1      71.583  33.847  55.822  1.00  0.00     0.004 C 
ENDBRANCH   7   8
ENDBRANCH   1   7
TORSDOF 4
ENDMDL
MODEL 8
REMARK VINA RESULT:    -3.411     15.281     16.562
REMARK INTER + INTRA:          -4.386
REMARK INTER:                  -4.032
REMARK INTRA:                  -0.354
REMARK UNBOUND:                -0.177
REMARK SMILES C=CC[C@H](C)C(=O)CC
REMARK SMILES IDX 4 1 5 2 6 3 7 4 8 5 9 6 3 7 2 8 1 9
REMARK H PARENT
REMARK Flexibility Score: inf
ROOT
ATOM      1  C   UNL     1      84.975  31.409  64.851  1.00  0.00     0.057 C 
ATOM      2  C   UNL     1      85.147  32.679  64.003  1.00  0.00     0.016 C 
ENDROOT
BRANCH   1   3
ATOM      3  C   UNL     1      83.517  31.192  65.198  1.00  0.00     0.135 C 
ATOM      4  O   UNL     1      83.014  31.857  66.093  1.00  0.00    -0.299 OA
BRANCH   3   5
ATOM      5  C   UNL     1      82.656  30.199  64.457  1.00  0.00     0.072 C 
ATOM      6  C   UNL     1      83.306  28.820  64.440  1.00  0.00     0.012 C 
ENDBRANCH   3   5
ENDBRANCH   1   3
BRANCH   1   7
ATOM      7  C   UNL     1      85.840  31.448  66.130  1.00  0.00     0.038 C 
BRANCH   7   8
ATOM      8  C   UNL     1      87.160  30.747  65.947  1.00  0.00    -0.034 C 
ATOM      9  C   UNL     1      87.319  29.765  65.054  1.00  0.00     0.004 C 
ENDBRANCH   7   8
ENDBRANCH   1   7
TORSDOF 4
ENDMDL
MODEL 9
REMARK VINA RESULT:    -3.326      6.079      7.978
REMARK INTER + INTRA:          -4.281
REMARK INTER:                  -3.922
REMARK INTRA:                  -0.359
REMARK UNBOUND:                -0.177
REMARK SMILES C=CC[C@H](C)C(=O)CC
REMARK SMILES IDX 4 1 5 2 6 3 7 4 8 5 9 6 3 7 2 8 1 9
REMARK H PARENT
REMARK Flexibility Score: inf
ROOT
ATOM      1  C   UNL     1      79.857  35.393  51.158  1.00  0.00     0.057 C 
ATOM      2  C   UNL     1      79.506  35.916  49.757  1.00  0.00     0.016 C 
ENDROOT
BRANCH   1   3
ATOM      3  C   UNL     1      80.320  33.952  51.091  1.00  0.00     0.135 C 
ATOM      4  O   UNL     1      80.586  33.464  50.001  1.00  0.00    -0.299 OA
BRANCH   3   5
ATOM      5  C   UNL     1      80.491  33.107  52.329  1.00  0.00     0.072 C 
ATOM      6  C   UNL     1      79.528  31.924  52.318  1.00  0.00     0.012 C 
ENDBRANCH   3   5
ENDBRANCH   1   3
BRANCH   1   7
ATOM      7  C   UNL     1      78.676  35.540  52.142  1.00  0.00     0.038 C 
BRANCH   7   8
ATOM      8  C   UNL     1      77.391  34.994  51.576  1.00  0.00    -0.034 C 
ATOM      9  C   UNL     1      76.198  35.394  52.026  1.00  0.00     0.004 C 
ENDBRANCH   7   8
ENDBRANCH   1   7
TORSDOF 4
ENDMDL
