MODEL 1
REMARK VINA RESULT:    -4.530      0.000      0.000
REMARK INTER + INTRA:          -8.428
REMARK INTER:                  -7.840
REMARK INTRA:                  -0.588
REMARK UNBOUND:                -0.588
REMARK SMILES CCCCCCCCCCCCCCO
REMARK SMILES IDX 8 1 7 2 6 3 5 4 4 5 3 6 2 7 1 8 9 9 10 10 11 11 12 12 13 13
REMARK SMILES IDX 14 14 15 15
REMARK H PARENT 15 16
REMARK Flexibility Score: inf
ROOT
ATOM      1  C   UNL     1      -0.282  23.034  23.017  1.00  0.00     0.000 C 
ENDROOT
BRANCH   1   2
ATOM      2  C   UNL     1      -0.805  23.338  24.429  1.00  0.00    -0.000 C 
BRANCH   2   3
ATOM      3  C   UNL     1      -0.100  22.502  25.513  1.00  0.00    -0.000 C 
BRANCH   3   4
ATOM      4  C   UNL     1      -0.767  21.125  25.709  1.00  0.00    -0.000 C 
BRANCH   4   5
ATOM      5  C   UNL     1      -1.603  21.021  26.997  1.00  0.00    -0.000 C 
BRANCH   5   6
ATOM      6  C   UNL     1      -3.017  20.471  26.748  1.00  0.00    -0.000 C 
BRANCH   6   7
ATOM      7  C   UNL     1      -4.093  21.567  26.812  1.00  0.00    -0.003 C 
ATOM      8  C   UNL     1      -3.722  22.709  27.757  1.00  0.00     0.004 C 
ENDBRANCH   6   7
ENDBRANCH   5   6
ENDBRANCH   4   5
ENDBRANCH   3   4
ENDBRANCH   2   3
ENDBRANCH   1   2
BRANCH   1   9
ATOM      9  C   UNL     1       0.249  24.289  22.306  1.00  0.00     0.000 C 
BRANCH   9  10
ATOM     10  C   UNL     1       0.205  24.116  20.783  1.00  0.00     0.000 C 
BRANCH  10  11
ATOM     11  C   UNL     1       0.442  25.456  20.070  1.00  0.00     0.000 C 
BRANCH  11  12
ATOM     12  C   UNL     1       1.916  25.891  20.098  1.00  0.00     0.002 C 
BRANCH  12  13
ATOM     13  C   UNL     1       2.847  24.862  19.436  1.00  0.00     0.028 C 
BRANCH  13  14
ATOM     14  C   UNL     1       3.811  25.525  18.450  1.00  0.00     0.156 C 
BRANCH  14  15
ATOM     15  O   UNL     1       5.116  25.062  18.664  1.00  0.00    -0.396 OA
ATOM     16  H   UNL     1       5.614  25.248  17.827  1.00  0.00     0.210 HD
ENDBRANCH  14  15
ENDBRANCH  13  14
ENDBRANCH  12  13
ENDBRANCH  11  12
ENDBRANCH  10  11
ENDBRANCH   9  10
ENDBRANCH   1   9
TORSDOF 13
ENDMDL
MODEL 2
REMARK VINA RESULT:    -4.287      1.547      2.661
REMARK INTER + INTRA:          -8.007
REMARK INTER:                  -6.744
REMARK INTRA:                  -1.263
REMARK UNBOUND:                -0.588
REMARK SMILES CCCCCCCCCCCCCCO
REMARK SMILES IDX 8 1 7 2 6 3 5 4 4 5 3 6 2 7 1 8 9 9 10 10 11 11 12 12 13 13
REMARK SMILES IDX 14 14 15 15
REMARK H PARENT 15 16
REMARK Flexibility Score: inf
ROOT
ATOM      1  C   UNL     1      -0.266  22.108  25.033  1.00  0.00     0.000 C 
ENDROOT
BRANCH   1   2
ATOM      2  C   UNL     1      -0.670  22.711  26.387  1.00  0.00    -0.000 C 
BRANCH   2   3
ATOM      3  C   UNL     1      -1.952  22.080  26.957  1.00  0.00    -0.000 C 
BRANCH   3   4
ATOM      4  C   UNL     1      -1.820  20.552  27.128  1.00  0.00    -0.000 C 
BRANCH   4   5
ATOM      5  C   UNL     1      -2.865  19.749  26.333  1.00  0.00    -0.000 C 
BRANCH   5   6
ATOM      6  C   UNL     1      -3.722  20.633  25.412  1.00  0.00    -0.000 C 
BRANCH   6   7
ATOM      7  C   UNL     1      -3.460  20.357  23.923  1.00  0.00    -0.003 C 
ATOM      8  C   UNL     1      -2.374  19.306  23.696  1.00  0.00     0.004 C 
ENDBRANCH   6   7
ENDBRANCH   5   6
ENDBRANCH   4   5
ENDBRANCH   3   4
ENDBRANCH   2   3
ENDBRANCH   1   2
BRANCH   1   9
ATOM      9  C   UNL     1      -0.285  23.145  23.899  1.00  0.00     0.000 C 
BRANCH   9  10
ATOM     10  C   UNL     1      -0.706  22.501  22.573  1.00  0.00     0.000 C 
BRANCH  10  11
ATOM     11  C   UNL     1      -0.751  23.542  21.445  1.00  0.00     0.000 C 
BRANCH  11  12
ATOM     12  C   UNL     1       0.297  24.653  21.621  1.00  0.00     0.002 C 
BRANCH  12  13
ATOM     13  C   UNL     1       0.820  25.190  20.278  1.00  0.00     0.028 C 
BRANCH  13  14
ATOM     14  C   UNL     1       2.349  25.226  20.240  1.00  0.00     0.156 C 
BRANCH  14  15
ATOM     15  O   UNL     1       2.847  24.041  19.683  1.00  0.00    -0.396 OA
ATOM     16  H   UNL     1       2.532  23.308  20.273  1.00  0.00     0.210 HD
ENDBRANCH  14  15
ENDBRANCH  13  14
ENDBRANCH  12  13
ENDBRANCH  11  12
ENDBRANCH  10  11
ENDBRANCH   9  10
ENDBRANCH   1   9
TORSDOF 13
ENDMDL
MODEL 3
REMARK VINA RESULT:    -4.279      1.450      2.210
REMARK INTER + INTRA:          -7.994
REMARK INTER:                  -6.708
REMARK INTRA:                  -1.286
REMARK UNBOUND:                -0.588
REMARK SMILES CCCCCCCCCCCCCCO
REMARK SMILES IDX 8 1 7 2 6 3 5 4 4 5 3 6 2 7 1 8 9 9 10 10 11 11 12 12 13 13
REMARK SMILES IDX 14 14 15 15
REMARK H PARENT 15 16
REMARK Flexibility Score: inf
ROOT
ATOM      1  C   UNL     1       0.387  22.980  24.279  1.00  0.00     0.000 C 
ENDROOT
BRANCH   1   2
ATOM      2  C   UNL     1      -0.145  22.956  25.721  1.00  0.00    -0.000 C 
BRANCH   2   3
ATOM      3  C   UNL     1      -0.704  21.579  26.121  1.00  0.00    -0.000 C 
BRANCH   3   4
ATOM      4  C   UNL     1      -1.777  21.688  27.225  1.00  0.00    -0.000 C 
BRANCH   4   5
ATOM      5  C   UNL     1      -3.182  21.259  26.765  1.00  0.00    -0.000 C 
BRANCH   5   6
ATOM      6  C   UNL     1      -3.158  20.425  25.474  1.00  0.00    -0.000 C 
BRANCH   6   7
ATOM      7  C   UNL     1      -3.910  21.106  24.320  1.00  0.00    -0.003 C 
ATOM      8  C   UNL     1      -3.970  22.626  24.466  1.00  0.00     0.004 C 
ENDBRANCH   6   7
ENDBRANCH   5   6
ENDBRANCH   4   5
ENDBRANCH   3   4
ENDBRANCH   2   3
ENDBRANCH   1   2
BRANCH   1   9
ATOM      9  C   UNL     1      -0.473  22.138  23.323  1.00  0.00     0.000 C 
BRANCH   9  10
ATOM     10  C   UNL     1      -0.720  22.886  22.007  1.00  0.00     0.000 C 
BRANCH  10  11
ATOM     11  C   UNL     1      -0.040  24.263  22.021  1.00  0.00     0.000 C 
BRANCH  11  12
ATOM     12  C   UNL     1      -0.415  25.123  20.804  1.00  0.00     0.002 C 
BRANCH  12  13
ATOM     13  C   UNL     1       0.805  25.804  20.162  1.00  0.00     0.028 C 
BRANCH  13  14
ATOM     14  C   UNL     1       1.920  24.798  19.863  1.00  0.00     0.156 C 
BRANCH  14  15
ATOM     15  O   UNL     1       3.031  25.052  20.678  1.00  0.00    -0.396 OA
ATOM     16  H   UNL     1       3.694  25.513  20.102  1.00  0.00     0.210 HD
ENDBRANCH  14  15
ENDBRANCH  13  14
ENDBRANCH  12  13
ENDBRANCH  11  12
ENDBRANCH  10  11
ENDBRANCH   9  10
ENDBRANCH   1   9
TORSDOF 13
ENDMDL
MODEL 4
REMARK VINA RESULT:    -4.271      1.408      2.194
REMARK INTER + INTRA:          -7.980
REMARK INTER:                  -7.123
REMARK INTRA:                  -0.857
REMARK UNBOUND:                -0.588
REMARK SMILES CCCCCCCCCCCCCCO
REMARK SMILES IDX 8 1 7 2 6 3 5 4 4 5 3 6 2 7 1 8 9 9 10 10 11 11 12 12 13 13
REMARK SMILES IDX 14 14 15 15
REMARK H PARENT 15 16
REMARK Flexibility Score: inf
ROOT
ATOM      1  C   UNL     1      -0.770  22.688  21.107  1.00  0.00     0.000 C 
ENDROOT
BRANCH   1   2
ATOM      2  C   UNL     1      -0.737  21.989  22.475  1.00  0.00    -0.000 C 
BRANCH   2   3
ATOM      3  C   UNL     1      -0.942  22.968  23.644  1.00  0.00    -0.000 C 
BRANCH   3   4
ATOM      4  C   UNL     1       0.204  22.889  24.674  1.00  0.00    -0.000 C 
BRANCH   4   5
ATOM      5  C   UNL     1      -0.281  22.813  26.133  1.00  0.00    -0.000 C 
BRANCH   5   6
ATOM      6  C   UNL     1      -1.807  22.666  26.247  1.00  0.00    -0.000 C 
BRANCH   6   7
ATOM      7  C   UNL     1      -2.223  21.727  27.391  1.00  0.00    -0.003 C 
ATOM      8  C   UNL     1      -1.828  20.272  27.138  1.00  0.00     0.004 C 
ENDBRANCH   6   7
ENDBRANCH   5   6
ENDBRANCH   4   5
ENDBRANCH   3   4
ENDBRANCH   2   3
ENDBRANCH   1   2
BRANCH   1   9
ATOM      9  C   UNL     1      -2.050  23.513  20.899  1.00  0.00     0.000 C 
BRANCH   9  10
ATOM     10  C   UNL     1      -1.717  24.929  20.416  1.00  0.00     0.000 C 
BRANCH  10  11
ATOM     11  C   UNL     1      -0.248  25.277  20.702  1.00  0.00     0.000 C 
BRANCH  11  12
ATOM     12  C   UNL     1       0.292  26.380  19.778  1.00  0.00     0.002 C 
BRANCH  12  13
ATOM     13  C   UNL     1       1.808  26.265  19.546  1.00  0.00     0.028 C 
BRANCH  13  14
ATOM     14  C   UNL     1       2.333  24.876  19.916  1.00  0.00     0.156 C 
BRANCH  14  15
ATOM     15  O   UNL     1       3.684  24.761  19.562  1.00  0.00    -0.396 OA
ATOM     16  H   UNL     1       3.753  25.097  18.631  1.00  0.00     0.210 HD
ENDBRANCH  14  15
ENDBRANCH  13  14
ENDBRANCH  12  13
ENDBRANCH  11  12
ENDBRANCH  10  11
ENDBRANCH   9  10
ENDBRANCH   1   9
TORSDOF 13
ENDMDL
MODEL 5
REMARK VINA RESULT:    -4.262      3.569      8.533
REMARK INTER + INTRA:          -7.964
REMARK INTER:                  -7.457
REMARK INTRA:                  -0.507
REMARK UNBOUND:                -0.588
REMARK SMILES CCCCCCCCCCCCCCO
REMARK SMILES IDX 8 1 7 2 6 3 5 4 4 5 3 6 2 7 1 8 9 9 10 10 11 11 12 12 13 13
REMARK SMILES IDX 14 14 15 15
REMARK H PARENT 15 16
REMARK Flexibility Score: inf
ROOT
ATOM      1  C   UNL     1      -0.523  22.386  23.666  1.00  0.00     0.000 C 
ENDROOT
BRANCH   1   2
ATOM      2  C   UNL     1      -0.188  22.699  22.199  1.00  0.00    -0.000 C 
BRANCH   2   3
ATOM      3  C   UNL     1       0.076  24.197  21.960  1.00  0.00    -0.000 C 
BRANCH   3   4
ATOM      4  C   UNL     1       0.067  24.555  20.459  1.00  0.00    -0.000 C 
BRANCH   4   5
ATOM      5  C   UNL     1       0.046  26.069  20.186  1.00  0.00    -0.000 C 
BRANCH   5   6
ATOM      6  C   UNL     1       1.364  26.586  19.587  1.00  0.00    -0.000 C 
BRANCH   6   7
ATOM      7  C   UNL     1       2.551  25.656  19.887  1.00  0.00    -0.003 C 
ATOM      8  C   UNL     1       3.486  25.483  18.692  1.00  0.00     0.004 C 
ENDBRANCH   6   7
ENDBRANCH   5   6
ENDBRANCH   4   5
ENDBRANCH   3   4
ENDBRANCH   2   3
ENDBRANCH   1   2
BRANCH   1   9
ATOM      9  C   UNL     1       0.504  22.980  24.643  1.00  0.00     0.000 C 
BRANCH   9  10
ATOM     10  C   UNL     1       0.006  22.882  26.089  1.00  0.00     0.000 C 
BRANCH  10  11
ATOM     11  C   UNL     1      -1.426  22.328  26.141  1.00  0.00     0.000 C 
BRANCH  11  12
ATOM     12  C   UNL     1      -1.499  20.929  26.773  1.00  0.00     0.002 C 
BRANCH  12  13
ATOM     13  C   UNL     1      -2.936  20.387  26.845  1.00  0.00     0.028 C 
BRANCH  13  14
ATOM     14  C   UNL     1      -3.099  19.107  26.021  1.00  0.00     0.156 C 
BRANCH  14  15
ATOM     15  O   UNL     1      -2.595  18.009  26.732  1.00  0.00    -0.396 OA
ATOM     16  H   UNL     1      -2.569  17.255  26.088  1.00  0.00     0.210 HD
ENDBRANCH  14  15
ENDBRANCH  13  14
ENDBRANCH  12  13
ENDBRANCH  11  12
ENDBRANCH  10  11
ENDBRANCH   9  10
ENDBRANCH   1   9
TORSDOF 13
ENDMDL
MODEL 6
REMARK VINA RESULT:    -4.197      1.757      2.828
REMARK INTER + INTRA:          -7.852
REMARK INTER:                  -6.519
REMARK INTRA:                  -1.333
REMARK UNBOUND:                -0.588
REMARK SMILES CCCCCCCCCCCCCCO
REMARK SMILES IDX 8 1 7 2 6 3 5 4 4 5 3 6 2 7 1 8 9 9 10 10 11 11 12 12 13 13
REMARK SMILES IDX 14 14 15 15
REMARK H PARENT 15 16
REMARK Flexibility Score: inf
ROOT
ATOM      1  C   UNL     1      -3.099  21.602  23.073  1.00  0.00     0.000 C 
ENDROOT
BRANCH   1   2
ATOM      2  C   UNL     1      -2.179  20.374  23.166  1.00  0.00    -0.000 C 
BRANCH   2   3
ATOM      3  C   UNL     1      -2.553  19.444  24.334  1.00  0.00    -0.000 C 
BRANCH   3   4
ATOM      4  C   UNL     1      -3.125  20.224  25.537  1.00  0.00    -0.000 C 
BRANCH   4   5
ATOM      5  C   UNL     1      -2.188  20.249  26.758  1.00  0.00    -0.000 C 
BRANCH   5   6
ATOM      6  C   UNL     1      -1.976  21.664  27.318  1.00  0.00    -0.000 C 
BRANCH   6   7
ATOM      7  C   UNL     1      -1.557  22.669  26.233  1.00  0.00    -0.003 C 
ATOM      8  C   UNL     1      -0.050  22.676  25.981  1.00  0.00     0.004 C 
ENDBRANCH   6   7
ENDBRANCH   5   6
ENDBRANCH   4   5
ENDBRANCH   3   4
ENDBRANCH   2   3
ENDBRANCH   1   2
BRANCH   1   9
ATOM      9  C   UNL     1      -2.406  22.804  22.412  1.00  0.00     0.000 C 
BRANCH   9  10
ATOM     10  C   UNL     1      -0.922  22.511  22.159  1.00  0.00     0.000 C 
BRANCH  10  11
ATOM     11  C   UNL     1      -0.047  23.702  22.577  1.00  0.00     0.000 C 
BRANCH  11  12
ATOM     12  C   UNL     1       0.116  24.740  21.455  1.00  0.00     0.002 C 
BRANCH  12  13
ATOM     13  C   UNL     1       0.995  24.230  20.301  1.00  0.00     0.028 C 
BRANCH  13  14
ATOM     14  C   UNL     1       2.163  25.177  20.019  1.00  0.00     0.156 C 
BRANCH  14  15
ATOM     15  O   UNL     1       3.371  24.465  20.012  1.00  0.00    -0.396 OA
ATOM     16  H   UNL     1       3.770  24.612  19.116  1.00  0.00     0.210 HD
ENDBRANCH  14  15
ENDBRANCH  13  14
ENDBRANCH  12  13
ENDBRANCH  11  12
ENDBRANCH  10  11
ENDBRANCH   9  10
ENDBRANCH   1   9
TORSDOF 13
ENDMDL
MODEL 7
REMARK VINA RESULT:    -4.177      1.570      2.515
REMARK INTER + INTRA:          -7.817
REMARK INTER:                  -6.856
REMARK INTRA:                  -0.961
REMARK UNBOUND:                -0.588
REMARK SMILES CCCCCCCCCCCCCCO
REMARK SMILES IDX 8 1 7 2 6 3 5 4 4 5 3 6 2 7 1 8 9 9 10 10 11 11 12 12 13 13
REMARK SMILES IDX 14 14 15 15
REMARK H PARENT 15 16
REMARK Flexibility Score: inf
ROOT
ATOM      1  C   UNL     1      -0.936  22.499  21.375  1.00  0.00     0.000 C 
ENDROOT
BRANCH   1   2
ATOM      2  C   UNL     1      -2.409  22.105  21.568  1.00  0.00    -0.000 C 
BRANCH   2   3
ATOM      3  C   UNL     1      -3.064  22.830  22.756  1.00  0.00    -0.000 C 
BRANCH   3   4
ATOM      4  C   UNL     1      -3.463  21.854  23.883  1.00  0.00    -0.000 C 
BRANCH   4   5
ATOM      5  C   UNL     1      -2.792  22.164  25.233  1.00  0.00    -0.000 C 
BRANCH   5   6
ATOM      6  C   UNL     1      -1.580  21.262  25.518  1.00  0.00    -0.000 C 
BRANCH   6   7
ATOM      7  C   UNL     1      -0.350  22.058  25.982  1.00  0.00    -0.003 C 
ATOM      8  C   UNL     1       0.198  22.988  24.899  1.00  0.00     0.004 C 
ENDBRANCH   6   7
ENDBRANCH   5   6
ENDBRANCH   4   5
ENDBRANCH   3   4
ENDBRANCH   2   3
ENDBRANCH   1   2
BRANCH   1   9
ATOM      9  C   UNL     1      -0.710  24.012  21.520  1.00  0.00     0.000 C 
BRANCH   9  10
ATOM     10  C   UNL     1       0.558  24.450  20.778  1.00  0.00     0.000 C 
BRANCH  10  11
ATOM     11  C   UNL     1       0.333  25.781  20.044  1.00  0.00     0.000 C 
BRANCH  11  12
ATOM     12  C   UNL     1       1.630  26.365  19.462  1.00  0.00     0.002 C 
BRANCH  12  13
ATOM     13  C   UNL     1       2.794  25.359  19.487  1.00  0.00     0.028 C 
BRANCH  13  14
ATOM     14  C   UNL     1       3.807  25.640  18.375  1.00  0.00     0.156 C 
BRANCH  14  15
ATOM     15  O   UNL     1       5.045  25.067  18.694  1.00  0.00    -0.396 OA
ATOM     16  H   UNL     1       5.512  25.726  19.270  1.00  0.00     0.210 HD
ENDBRANCH  14  15
ENDBRANCH  13  14
ENDBRANCH  12  13
ENDBRANCH  11  12
ENDBRANCH  10  11
ENDBRANCH   9  10
ENDBRANCH   1   9
TORSDOF 13
ENDMDL
MODEL 8
REMARK VINA RESULT:    -4.106      3.104      7.611
REMARK INTER + INTRA:          -7.694
REMARK INTER:                  -6.722
REMARK INTRA:                  -0.972
REMARK UNBOUND:                -0.588
REMARK SMILES CCCCCCCCCCCCCCO
REMARK SMILES IDX 8 1 7 2 6 3 5 4 4 5 3 6 2 7 1 8 9 9 10 10 11 11 12 12 13 13
REMARK SMILES IDX 14 14 15 15
REMARK H PARENT 15 16
REMARK Flexibility Score: inf
ROOT
ATOM      1  C   UNL     1      -1.010  21.382  26.333  1.00  0.00     0.000 C 
ENDROOT
BRANCH   1   2
ATOM      2  C   UNL     1      -0.338  22.741  26.080  1.00  0.00    -0.000 C 
BRANCH   2   3
ATOM      3  C   UNL     1       0.291  22.838  24.679  1.00  0.00    -0.000 C 
BRANCH   3   4
ATOM      4  C   UNL     1      -0.564  22.125  23.609  1.00  0.00    -0.000 C 
BRANCH   4   5
ATOM      5  C   UNL     1      -0.641  22.886  22.274  1.00  0.00    -0.000 C 
BRANCH   5   6
ATOM      6  C   UNL     1       0.097  24.234  22.311  1.00  0.00    -0.000 C 
BRANCH   6   7
ATOM      7  C   UNL     1       0.706  24.609  20.951  1.00  0.00    -0.003 C 
ATOM      8  C   UNL     1      -0.039  25.751  20.262  1.00  0.00     0.004 C 
ENDBRANCH   6   7
ENDBRANCH   5   6
ENDBRANCH   4   5
ENDBRANCH   3   4
ENDBRANCH   2   3
ENDBRANCH   1   2
BRANCH   1   9
ATOM      9  C   UNL     1      -1.975  21.418  27.528  1.00  0.00     0.000 C 
BRANCH   9  10
ATOM     10  C   UNL     1      -3.434  21.379  27.056  1.00  0.00     0.000 C 
BRANCH  10  11
ATOM     11  C   UNL     1      -3.563  20.607  25.735  1.00  0.00     0.000 C 
BRANCH  11  12
ATOM     12  C   UNL     1      -4.051  19.163  25.935  1.00  0.00     0.002 C 
BRANCH  12  13
ATOM     13  C   UNL     1      -3.256  18.149  25.096  1.00  0.00     0.028 C 
BRANCH  13  14
ATOM     14  C   UNL     1      -2.899  18.713  23.719  1.00  0.00     0.156 C 
BRANCH  14  15
ATOM     15  O   UNL     1      -1.511  18.669  23.525  1.00  0.00    -0.396 OA
ATOM     16  H   UNL     1      -1.366  18.122  22.710  1.00  0.00     0.210 HD
ENDBRANCH  14  15
ENDBRANCH  13  14
ENDBRANCH  12  13
ENDBRANCH  11  12
ENDBRANCH  10  11
ENDBRANCH   9  10
ENDBRANCH   1   9
TORSDOF 13
ENDMDL
MODEL 9
REMARK VINA RESULT:    -4.102      2.515      4.131
REMARK INTER + INTRA:          -7.687
REMARK INTER:                  -6.121
REMARK INTRA:                  -1.566
REMARK UNBOUND:                -0.588
REMARK SMILES CCCCCCCCCCCCCCO
REMARK SMILES IDX 8 1 7 2 6 3 5 4 4 5 3 6 2 7 1 8 9 9 10 10 11 11 12 12 13 13
REMARK SMILES IDX 14 14 15 15
REMARK H PARENT 15 16
REMARK Flexibility Score: inf
ROOT
ATOM      1  C   UNL     1      -1.052  21.420  25.991  1.00  0.00     0.000 C 
ENDROOT
BRANCH   1   2
ATOM      2  C   UNL     1      -1.856  21.056  27.250  1.00  0.00    -0.000 C 
BRANCH   2   3
ATOM      3  C   UNL     1      -3.021  22.027  27.508  1.00  0.00    -0.000 C 
BRANCH   3   4
ATOM      4  C   UNL     1      -4.099  21.945  26.407  1.00  0.00    -0.000 C 
BRANCH   4   5
ATOM      5  C   UNL     1      -4.081  23.139  25.436  1.00  0.00    -0.000 C 
BRANCH   5   6
ATOM      6  C   UNL     1      -4.055  22.707  23.960  1.00  0.00    -0.000 C 
BRANCH   6   7
ATOM      7  C   UNL     1      -4.125  21.181  23.793  1.00  0.00    -0.003 C 
ATOM      8  C   UNL     1      -3.016  20.631  22.897  1.00  0.00     0.004 C 
ENDBRANCH   6   7
ENDBRANCH   5   6
ENDBRANCH   4   5
ENDBRANCH   3   4
ENDBRANCH   2   3
ENDBRANCH   1   2
BRANCH   1   9
ATOM      9  C   UNL     1      -0.135  22.633  26.211  1.00  0.00     0.000 C 
BRANCH   9  10
ATOM     10  C   UNL     1       0.476  23.105  24.886  1.00  0.00     0.000 C 
BRANCH  10  11
ATOM     11  C   UNL     1      -0.581  23.133  23.772  1.00  0.00     0.000 C 
BRANCH  11  12
ATOM     12  C   UNL     1      -0.028  23.665  22.441  1.00  0.00     0.002 C 
BRANCH  12  13
ATOM     13  C   UNL     1      -0.921  23.305  21.243  1.00  0.00     0.028 C 
BRANCH  13  14
ATOM     14  C   UNL     1      -0.156  22.501  20.189  1.00  0.00     0.156 C 
BRANCH  14  15
ATOM     15  O   UNL     1       1.101  23.078  19.961  1.00  0.00    -0.396 OA
ATOM     16  H   UNL     1       1.733  22.603  20.561  1.00  0.00     0.210 HD
ENDBRANCH  14  15
ENDBRANCH  13  14
ENDBRANCH  12  13
ENDBRANCH  11  12
ENDBRANCH  10  11
ENDBRANCH   9  10
ENDBRANCH   1   9
TORSDOF 13
ENDMDL
