MODEL 1
REMARK VINA RESULT:    -2.984      0.000      0.000
REMARK INTER + INTRA:          -3.560
REMARK INTER:                  -3.508
REMARK INTRA:                  -0.052
REMARK UNBOUND:                -0.052
REMARK SMILES O=C([O-])CCC(=O)[O-]
REMARK SMILES IDX 4 1 2 2 1 3 3 4 5 5 6 6 7 7 8 8
REMARK H PARENT
REMARK Flexibility Score: inf
ROOT
ATOM      1  C   UNL     1      10.141   8.544 -13.024  1.00  0.00     0.059 C 
ENDROOT
BRANCH   1   2
ATOM      2  C   UNL     1       8.749   8.571 -13.579  1.00  0.00     0.042 C 
ATOM      3  O   UNL     1       8.099   7.502 -13.714  1.00  0.00    -0.550 OA
ATOM      4  O   UNL     1       8.157   9.783 -13.909  1.00  0.00    -0.550 OA
ENDBRANCH   1   2
BRANCH   1   5
ATOM      5  C   UNL     1      10.982   9.711 -13.554  1.00  0.00     0.059 C 
BRANCH   5   6
ATOM      6  C   UNL     1      11.969  10.187 -12.534  1.00  0.00     0.042 C 
ATOM      7  O   UNL     1      11.889   9.794 -11.341  1.00  0.00    -0.550 OA
ATOM      8  O   UNL     1      13.004  11.035 -12.911  1.00  0.00    -0.550 OA
ENDBRANCH   5   6
ENDBRANCH   1   5
TORSDOF 3
ENDMDL
MODEL 2
REMARK VINA RESULT:    -2.901      0.789      4.231
REMARK INTER + INTRA:          -3.461
REMARK INTER:                  -3.432
REMARK INTRA:                  -0.029
REMARK UNBOUND:                -0.052
REMARK SMILES O=C([O-])CCC(=O)[O-]
REMARK SMILES IDX 4 1 2 2 1 3 3 4 5 5 6 6 7 7 8 8
REMARK H PARENT
REMARK Flexibility Score: inf
ROOT
ATOM      1  C   UNL     1      11.079   9.427 -12.398  1.00  0.00     0.059 C 
ENDROOT
BRANCH   1   2
ATOM      2  C   UNL     1      12.097  10.513 -12.220  1.00  0.00     0.042 C 
ATOM      3  O   UNL     1      12.184  11.126 -11.124  1.00  0.00    -0.550 OA
ATOM      4  O   UNL     1      12.974  10.819 -13.252  1.00  0.00    -0.550 OA
ENDBRANCH   1   2
BRANCH   1   5
ATOM      5  C   UNL     1      10.462   9.459 -13.801  1.00  0.00     0.059 C 
BRANCH   5   6
ATOM      6  C   UNL     1       9.036   9.001 -13.786  1.00  0.00     0.042 C 
ATOM      7  O   UNL     1       8.100   9.837 -13.881  1.00  0.00    -0.550 OA
ATOM      8  O   UNL     1       8.742   7.645 -13.707  1.00  0.00    -0.550 OA
ENDBRANCH   5   6
ENDBRANCH   1   5
TORSDOF 3
ENDMDL
MODEL 3
REMARK VINA RESULT:    -2.860      1.908      4.061
REMARK INTER + INTRA:          -3.414
REMARK INTER:                  -3.254
REMARK INTRA:                  -0.160
REMARK UNBOUND:                -0.052
REMARK SMILES O=C([O-])CCC(=O)[O-]
REMARK SMILES IDX 4 1 2 2 1 3 3 4 5 5 6 6 7 7 8 8
REMARK H PARENT
REMARK Flexibility Score: inf
ROOT
ATOM      1  C   UNL     1       9.126   9.433 -13.772  1.00  0.00     0.059 C 
ENDROOT
BRANCH   1   2
ATOM      2  C   UNL     1      10.525   9.216 -13.277  1.00  0.00     0.042 C 
ATOM      3  O   UNL     1      11.503   9.675 -13.922  1.00  0.00    -0.550 OA
ATOM      4  O   UNL     1      10.742   8.541 -12.083  1.00  0.00    -0.550 OA
ENDBRANCH   1   2
BRANCH   1   5
ATOM      5  C   UNL     1       8.345   8.116 -13.848  1.00  0.00     0.059 C 
BRANCH   5   6
ATOM      6  C   UNL     1       9.048   7.106 -14.702  1.00  0.00     0.042 C 
ATOM      7  O   UNL     1       9.318   5.965 -14.243  1.00  0.00    -0.550 OA
ATOM      8  O   UNL     1       9.370   7.413 -16.018  1.00  0.00    -0.550 OA
ENDBRANCH   5   6
ENDBRANCH   1   5
TORSDOF 3
ENDMDL
MODEL 4
REMARK VINA RESULT:    -2.843      1.918      2.518
REMARK INTER + INTRA:          -3.394
REMARK INTER:                  -3.224
REMARK INTRA:                  -0.170
REMARK UNBOUND:                -0.052
REMARK SMILES O=C([O-])CCC(=O)[O-]
REMARK SMILES IDX 4 1 2 2 1 3 3 4 5 5 6 6 7 7 8 8
REMARK H PARENT
REMARK Flexibility Score: inf
ROOT
ATOM      1  C   UNL     1       8.351   8.058 -13.887  1.00  0.00     0.059 C 
ENDROOT
BRANCH   1   2
ATOM      2  C   UNL     1       9.100   7.075 -14.735  1.00  0.00     0.042 C 
ATOM      3  O   UNL     1       9.472   5.975 -14.251  1.00  0.00    -0.550 OA
ATOM      4  O   UNL     1       9.349   7.360 -16.071  1.00  0.00    -0.550 OA
ENDBRANCH   1   2
BRANCH   1   5
ATOM      5  C   UNL     1       9.084   9.401 -13.800  1.00  0.00     0.059 C 
BRANCH   5   6
ATOM      6  C   UNL     1      10.486   9.233 -13.300  1.00  0.00     0.042 C 
ATOM      7  O   UNL     1      11.453   9.711 -13.950  1.00  0.00    -0.550 OA
ATOM      8  O   UNL     1      10.721   8.581 -12.096  1.00  0.00    -0.550 OA
ENDBRANCH   5   6
ENDBRANCH   1   5
TORSDOF 3
ENDMDL
MODEL 5
REMARK VINA RESULT:    -2.810      1.692      4.212
REMARK INTER + INTRA:          -3.354
REMARK INTER:                  -3.234
REMARK INTRA:                  -0.121
REMARK UNBOUND:                -0.052
REMARK SMILES O=C([O-])CCC(=O)[O-]
REMARK SMILES IDX 4 1 2 2 1 3 3 4 5 5 6 6 7 7 8 8
REMARK H PARENT
REMARK Flexibility Score: inf
ROOT
ATOM      1  C   UNL     1      10.213   9.478 -13.478  1.00  0.00     0.059 C 
ENDROOT
BRANCH   1   2
ATOM      2  C   UNL     1      11.411   9.518 -14.378  1.00  0.00     0.042 C 
ATOM      3  O   UNL     1      12.424  10.190 -14.055  1.00  0.00    -0.550 OA
ATOM      4  O   UNL     1      11.420   8.780 -15.554  1.00  0.00    -0.550 OA
ENDBRANCH   1   2
BRANCH   1   5
ATOM      5  C   UNL     1       8.926   9.210 -14.264  1.00  0.00     0.059 C 
BRANCH   5   6
ATOM      6  C   UNL     1       8.320   7.890 -13.899  1.00  0.00     0.042 C 
ATOM      7  O   UNL     1       7.215   7.844 -13.298  1.00  0.00    -0.550 OA
ATOM      8  O   UNL     1       8.959   6.709 -14.258  1.00  0.00    -0.550 OA
ENDBRANCH   5   6
ENDBRANCH   1   5
TORSDOF 3
ENDMDL
MODEL 6
REMARK VINA RESULT:    -2.759      1.605      2.171
REMARK INTER + INTRA:          -3.295
REMARK INTER:                  -3.173
REMARK INTRA:                  -0.121
REMARK UNBOUND:                -0.052
REMARK SMILES O=C([O-])CCC(=O)[O-]
REMARK SMILES IDX 4 1 2 2 1 3 3 4 5 5 6 6 7 7 8 8
REMARK H PARENT
REMARK Flexibility Score: inf
ROOT
ATOM      1  C   UNL     1       9.002   9.374 -14.126  1.00  0.00     0.059 C 
ENDROOT
BRANCH   1   2
ATOM      2  C   UNL     1       8.496   7.980 -13.908  1.00  0.00     0.042 C 
ATOM      3  O   UNL     1       7.372   7.790 -13.375  1.00  0.00    -0.550 OA
ATOM      4  O   UNL     1       9.251   6.894 -14.331  1.00  0.00    -0.550 OA
ENDBRANCH   1   2
BRANCH   1   5
ATOM      5  C   UNL     1      10.318   9.619 -13.379  1.00  0.00     0.059 C 
BRANCH   5   6
ATOM      6  C   UNL     1      11.473   9.745 -14.323  1.00  0.00     0.042 C 
ATOM      7  O   UNL     1      11.375   9.325 -15.506  1.00  0.00    -0.550 OA
ATOM      8  O   UNL     1      12.646  10.363 -13.907  1.00  0.00    -0.550 OA
ENDBRANCH   5   6
ENDBRANCH   1   5
TORSDOF 3
ENDMDL
MODEL 7
REMARK VINA RESULT:    -2.752      0.920      1.666
REMARK INTER + INTRA:          -3.287
REMARK INTER:                  -3.255
REMARK INTRA:                  -0.032
REMARK UNBOUND:                -0.052
REMARK SMILES O=C([O-])CCC(=O)[O-]
REMARK SMILES IDX 4 1 2 2 1 3 3 4 5 5 6 6 7 7 8 8
REMARK H PARENT
REMARK Flexibility Score: inf
ROOT
ATOM      1  C   UNL     1      10.202   9.068 -13.133  1.00  0.00     0.059 C 
ENDROOT
BRANCH   1   2
ATOM      2  C   UNL     1       9.072   9.202 -14.108  1.00  0.00     0.042 C 
ATOM      3  O   UNL     1       8.055   9.880 -13.810  1.00  0.00    -0.550 OA
ATOM      4  O   UNL     1       9.162   8.610 -15.361  1.00  0.00    -0.550 OA
ENDBRANCH   1   2
BRANCH   1   5
ATOM      5  C   UNL     1      11.433   9.860 -13.586  1.00  0.00     0.059 C 
BRANCH   5   6
ATOM      6  C   UNL     1      12.226  10.362 -12.419  1.00  0.00     0.042 C 
ATOM      7  O   UNL     1      13.034  11.316 -12.563  1.00  0.00    -0.550 OA
ATOM      8  O   UNL     1      12.043   9.800 -11.161  1.00  0.00    -0.550 OA
ENDBRANCH   5   6
ENDBRANCH   1   5
TORSDOF 3
ENDMDL
MODEL 8
REMARK VINA RESULT:    -2.473     18.493     19.590
REMARK INTER + INTRA:          -2.959
REMARK INTER:                  -2.847
REMARK INTRA:                  -0.112
REMARK UNBOUND:                -0.052
REMARK SMILES O=C([O-])CCC(=O)[O-]
REMARK SMILES IDX 4 1 2 2 1 3 3 4 5 5 6 6 7 7 8 8
REMARK H PARENT
REMARK Flexibility Score: inf
ROOT
ATOM      1  C   UNL     1      -2.359  22.880 -11.161  1.00  0.00     0.059 C 
ENDROOT
BRANCH   1   2
ATOM      2  C   UNL     1      -1.296  23.749 -11.762  1.00  0.00     0.042 C 
ATOM      3  O   UNL     1      -0.467  23.265 -12.575  1.00  0.00    -0.550 OA
ATOM      4  O   UNL     1      -1.249  25.102 -11.453  1.00  0.00    -0.550 OA
ENDBRANCH   1   2
BRANCH   1   5
ATOM      5  C   UNL     1      -2.242  22.822  -9.634  1.00  0.00     0.059 C 
BRANCH   5   6
ATOM      6  C   UNL     1      -3.291  23.659  -8.968  1.00  0.00     0.042 C 
ATOM      7  O   UNL     1      -2.990  24.777  -8.472  1.00  0.00    -0.550 OA
ATOM      8  O   UNL     1      -4.609  23.222  -8.932  1.00  0.00    -0.550 OA
ENDBRANCH   5   6
ENDBRANCH   1   5
TORSDOF 3
ENDMDL
MODEL 9
REMARK VINA RESULT:    -2.443     18.564     19.530
REMARK INTER + INTRA:          -2.923
REMARK INTER:                  -2.814
REMARK INTRA:                  -0.109
REMARK UNBOUND:                -0.052
REMARK SMILES O=C([O-])CCC(=O)[O-]
REMARK SMILES IDX 4 1 2 2 1 3 3 4 5 5 6 6 7 7 8 8
REMARK H PARENT
REMARK Flexibility Score: inf
ROOT
ATOM      1  C   UNL     1      -2.349  22.877  -9.698  1.00  0.00     0.059 C 
ENDROOT
BRANCH   1   2
ATOM      2  C   UNL     1      -3.410  23.728  -9.070  1.00  0.00     0.042 C 
ATOM      3  O   UNL     1      -4.537  23.238  -8.798  1.00  0.00    -0.550 OA
ATOM      4  O   UNL     1      -3.139  25.051  -8.748  1.00  0.00    -0.550 OA
ENDBRANCH   1   2
BRANCH   1   5
ATOM      5  C   UNL     1      -2.419  22.927 -11.229  1.00  0.00     0.059 C 
BRANCH   5   6
ATOM      6  C   UNL     1      -1.326  23.775 -11.804  1.00  0.00     0.042 C 
ATOM      7  O   UNL     1      -0.494  23.279 -12.607  1.00  0.00    -0.550 OA
ATOM      8  O   UNL     1      -1.252  25.125 -11.482  1.00  0.00    -0.550 OA
ENDBRANCH   5   6
ENDBRANCH   1   5
TORSDOF 3
ENDMDL
