MODEL 1
REMARK VINA RESULT:    -3.534      0.000      0.000
REMARK INTER + INTRA:          -3.413
REMARK INTER:                  -4.980
REMARK INTRA:                   1.567
REMARK UNBOUND:                 1.567
REMARK SMILES CC1=CCC(=C(C)C)C(=O)CC(C)=CCC1
REMARK SMILES IDX 12 1 14 2 13 3 15 4 16 5 2 6 1 7 3 8 11 10 9 11 10 12 5 13
REMARK SMILES IDX 6 14 7 15 8 16 4 17
REMARK H PARENT
REMARK Flexibility Score: 60.00
ROOT
ATOM      1  C   UNL     1      19.598  -0.562  23.422  1.00  0.00    -0.070 C 
ATOM      2  C   UNL     1      19.815   0.210  24.512  1.00  0.00    -0.027 C 
ATOM      3  C   UNL     1      20.467  -1.779  23.235  1.00  0.00     0.039 C 
ENDROOT
BRANCH   2   4
ATOM      4  C   UNL     1      19.012   1.439  24.880  1.00  0.00     0.032 C 
BRANCH   4   5
ATOM      5  C   UNL     1      19.894   2.681  25.120  1.00  0.00     0.034 C 
BRANCH   5   6
ATOM      6  C   UNL     1      20.843   3.031  23.980  1.00  0.00    -0.077 C 
ATOM      7  C   UNL     1      22.278   3.364  24.308  1.00  0.00     0.039 C 
ATOM      8  C   UNL     1      20.483   3.036  22.675  1.00  0.00    -0.023 CG0
ATOM      9  G   UNL     1      19.100   2.760  22.136  1.00  0.00     0.000 G0
ENDBRANCH   5   6
ENDBRANCH   4   5
ENDBRANCH   2   4
BRANCH   1  10
ATOM     10  C   UNL     1      18.570  -0.214  22.357  1.00  0.00     0.111 C 
BRANCH  10  11
ATOM     11  C   UNL     1      19.158   0.435  21.129  1.00  0.00     0.163 C 
ATOM     12  O   UNL     1      19.711  -0.298  20.266  1.00  0.00    -0.294 OA
BRANCH  11  13
ATOM     13  C   UNL     1      19.114   1.897  20.892  1.00  0.00    -0.002 C 
ATOM     14  C   UNL     1      19.232   2.401  19.631  1.00  0.00    -0.069 C 
ATOM     15  C   UNL     1      19.391   1.479  18.442  1.00  0.00     0.039 C 
ATOM     16  C   UNL     1      19.261   3.888  19.364  1.00  0.00     0.039 C 
BRANCH  13  17
ATOM     17  C   UNL     1      19.103   2.772  22.135  1.00  0.00     0.066 CG0
ATOM     18  G   UNL     1      20.494   3.038  22.658  1.00  0.00     0.000 G0
ENDBRANCH  13  17
ENDBRANCH  11  13
ENDBRANCH  10  11
ENDBRANCH   1  10
TORSDOF 0
ENDMDL
MODEL 2
REMARK VINA RESULT:    -3.238      1.723      2.655
REMARK INTER + INTRA:          -2.997
REMARK INTER:                  -4.255
REMARK INTRA:                   1.259
REMARK UNBOUND:                 1.567
REMARK SMILES CC1=CCC(=C(C)C)C(=O)CC(C)=CCC1
REMARK SMILES IDX 12 1 14 2 13 3 15 4 16 5 2 6 1 7 3 8 11 10 9 11 10 12 5 13
REMARK SMILES IDX 6 14 7 15 8 16 4 17
REMARK H PARENT
REMARK Flexibility Score: 60.00
ROOT
ATOM      1  C   UNL     1      17.061   0.547  24.397  1.00  0.00    -0.070 C 
ATOM      2  C   UNL     1      17.467   1.744  24.880  1.00  0.00    -0.027 C 
ATOM      3  C   UNL     1      15.585   0.341  24.172  1.00  0.00     0.039 C 
ENDROOT
BRANCH   2   4
ATOM      4  C   UNL     1      18.906   2.140  25.124  1.00  0.00     0.032 C 
BRANCH   4   5
ATOM      5  C   UNL     1      19.301   3.444  24.401  1.00  0.00     0.034 C 
BRANCH   5   6
ATOM      6  C   UNL     1      20.412   3.301  23.368  1.00  0.00    -0.077 C 
ATOM      7  C   UNL     1      21.721   4.011  23.609  1.00  0.00     0.039 C 
ATOM      8  C   UNL     1      20.306   2.546  22.249  1.00  0.00    -0.023 CG0
ATOM      9  G   UNL     1      19.082   1.781  21.808  1.00  0.00     0.000 G0
ENDBRANCH   5   6
ENDBRANCH   4   5
ENDBRANCH   2   4
BRANCH   1  10
ATOM     10  C   UNL     1      18.018  -0.606  24.141  1.00  0.00     0.111 C 
BRANCH  10  11
ATOM     11  C   UNL     1      19.264  -0.209  23.388  1.00  0.00     0.163 C 
ATOM     12  O   UNL     1      20.376  -0.291  23.976  1.00  0.00    -0.294 OA
BRANCH  11  13
ATOM     13  C   UNL     1      19.239   0.273  21.987  1.00  0.00    -0.002 C 
ATOM     14  C   UNL     1      19.503  -0.576  20.955  1.00  0.00    -0.069 C 
ATOM     15  C   UNL     1      19.807  -2.036  21.213  1.00  0.00     0.039 C 
ATOM     16  C   UNL     1      19.554  -0.101  19.521  1.00  0.00     0.039 C 
BRANCH  13  17
ATOM     17  C   UNL     1      19.074   1.773  21.803  1.00  0.00     0.066 CG0
ATOM     18  G   UNL     1      20.298   2.539  22.243  1.00  0.00     0.000 G0
ENDBRANCH  13  17
ENDBRANCH  11  13
ENDBRANCH  10  11
ENDBRANCH   1  10
TORSDOF 0
ENDMDL
MODEL 3
REMARK VINA RESULT:    -3.190      2.029      4.824
REMARK INTER + INTRA:          -2.929
REMARK INTER:                  -3.643
REMARK INTRA:                   0.714
REMARK UNBOUND:                 1.567
REMARK SMILES CC1=CCC(=C(C)C)C(=O)CC(C)=CCC1
REMARK SMILES IDX 12 1 14 2 13 3 15 4 16 5 2 6 1 7 3 8 11 10 9 11 10 12 5 13
REMARK SMILES IDX 6 14 7 15 8 16 4 17
REMARK H PARENT
REMARK Flexibility Score: 60.00
ROOT
ATOM      1  C   UNL     1      19.140   2.271  20.620  1.00  0.00    -0.070 C 
ATOM      2  C   UNL     1      19.230   1.050  20.045  1.00  0.00    -0.027 C 
ATOM      3  C   UNL     1      18.159   3.256  20.036  1.00  0.00     0.039 C 
ENDROOT
BRANCH   2   4
ATOM      4  C   UNL     1      20.123  -0.073  20.524  1.00  0.00     0.032 C 
BRANCH   4   5
ATOM      5  C   UNL     1      19.333  -1.322  20.965  1.00  0.00     0.034 C 
BRANCH   5   6
ATOM      6  C   UNL     1      19.360  -1.610  22.461  1.00  0.00    -0.077 C 
ATOM      7  C   UNL     1      20.179  -2.775  22.960  1.00  0.00     0.039 C 
ATOM      8  C   UNL     1      18.710  -0.862  23.383  1.00  0.00    -0.023 CG0
ATOM      9  G   UNL     1      17.820   0.322  23.097  1.00  0.00     0.000 G0
ENDBRANCH   5   6
ENDBRANCH   4   5
ENDBRANCH   2   4
BRANCH   1  10
ATOM     10  C   UNL     1      20.028   2.705  21.775  1.00  0.00     0.111 C 
BRANCH  10  11
ATOM     11  C   UNL     1      19.789   1.936  23.051  1.00  0.00     0.163 C 
ATOM     12  O   UNL     1      20.785   1.528  23.705  1.00  0.00    -0.294 OA
BRANCH  11  13
ATOM     13  C   UNL     1      18.433   1.639  23.571  1.00  0.00    -0.002 C 
ATOM     14  C   UNL     1      17.863   2.432  24.521  1.00  0.00    -0.069 C 
ATOM     15  C   UNL     1      18.593   3.646  25.054  1.00  0.00     0.039 C 
ATOM     16  C   UNL     1      16.513   2.117  25.121  1.00  0.00     0.039 C 
BRANCH  13  17
ATOM     17  C   UNL     1      17.816   0.330  23.107  1.00  0.00     0.066 CG0
ATOM     18  G   UNL     1      18.714  -0.852  23.380  1.00  0.00     0.000 G0
ENDBRANCH  13  17
ENDBRANCH  11  13
ENDBRANCH  10  11
ENDBRANCH   1  10
TORSDOF 0
ENDMDL
MODEL 4
REMARK VINA RESULT:    -3.097      1.723      4.041
REMARK INTER + INTRA:          -2.798
REMARK INTER:                  -5.522
REMARK INTRA:                   2.725
REMARK UNBOUND:                 1.567
REMARK SMILES CC1=CCC(=C(C)C)C(=O)CC(C)=CCC1
REMARK SMILES IDX 12 1 14 2 13 3 15 4 16 5 2 6 1 7 3 8 11 10 9 11 10 12 5 13
REMARK SMILES IDX 6 14 7 15 8 16 4 17
REMARK H PARENT
REMARK Flexibility Score: 60.00
ROOT
ATOM      1  C   UNL     1      19.513   2.799  21.350  1.00  0.00    -0.070 C 
ATOM      2  C   UNL     1      20.102   3.218  22.494  1.00  0.00    -0.027 C 
ATOM      3  C   UNL     1      19.698   3.638  20.112  1.00  0.00     0.039 C 
ENDROOT
BRANCH   2   4
ATOM      4  C   UNL     1      20.059   2.482  23.814  1.00  0.00     0.032 C 
BRANCH   4   5
ATOM      5  C   UNL     1      18.683   2.569  24.505  1.00  0.00     0.034 C 
BRANCH   5   6
ATOM      6  C   UNL     1      17.856   1.289  24.464  1.00  0.00    -0.077 C 
ATOM      7  C   UNL     1      16.428   1.333  24.948  1.00  0.00     0.039 C 
ATOM      8  C   UNL     1      18.320   0.109  23.989  1.00  0.00    -0.023 CG0
ATOM      9  G   UNL     1      19.718  -0.157  23.486  1.00  0.00     0.000 G0
ENDBRANCH   5   6
ENDBRANCH   4   5
ENDBRANCH   2   4
BRANCH   1  10
ATOM     10  C   UNL     1      18.627   1.565  21.284  1.00  0.00     0.111 C 
BRANCH  10  11
ATOM     11  C   UNL     1      19.378   0.289  20.996  1.00  0.00     0.163 C 
ATOM     12  O   UNL     1      19.722   0.047  19.808  1.00  0.00    -0.294 OA
BRANCH  11  13
ATOM     13  C   UNL     1      19.731  -0.693  22.048  1.00  0.00    -0.002 C 
ATOM     14  C   UNL     1      19.891  -2.011  21.744  1.00  0.00    -0.069 C 
ATOM     15  C   UNL     1      19.732  -2.501  20.321  1.00  0.00     0.039 C 
ATOM     16  C   UNL     1      20.182  -3.048  22.804  1.00  0.00     0.039 C 
BRANCH  13  17
ATOM     17  C   UNL     1      19.731  -0.167  23.475  1.00  0.00     0.066 CG0
ATOM     18  G   UNL     1      18.335   0.111  23.980  1.00  0.00     0.000 G0
ENDBRANCH  13  17
ENDBRANCH  11  13
ENDBRANCH  10  11
ENDBRANCH   1  10
TORSDOF 0
ENDMDL
MODEL 5
REMARK VINA RESULT:    -3.078      1.592      3.865
REMARK INTER + INTRA:          -2.770
REMARK INTER:                  -3.820
REMARK INTRA:                   1.050
REMARK UNBOUND:                 1.567
REMARK SMILES CC1=CCC(=C(C)C)C(=O)CC(C)=CCC1
REMARK SMILES IDX 12 1 14 2 13 3 15 4 16 5 2 6 1 7 3 8 11 10 9 11 10 12 5 13
REMARK SMILES IDX 6 14 7 15 8 16 4 17
REMARK H PARENT
REMARK Flexibility Score: 60.00
ROOT
ATOM      1  C   UNL     1      19.359  -0.754  21.429  1.00  0.00    -0.070 C 
ATOM      2  C   UNL     1      19.751  -0.305  20.214  1.00  0.00    -0.027 C 
ATOM      3  C   UNL     1      20.046  -1.976  21.985  1.00  0.00     0.039 C 
ENDROOT
BRANCH   2   4
ATOM      4  C   UNL     1      19.205   0.926  19.525  1.00  0.00     0.032 C 
BRANCH   4   5
ATOM      5  C   UNL     1      18.656   1.973  20.515  1.00  0.00     0.034 C 
BRANCH   5   6
ATOM      6  C   UNL     1      19.672   3.000  21.002  1.00  0.00    -0.077 C 
ATOM      7  C   UNL     1      20.548   3.691  19.985  1.00  0.00     0.039 C 
ATOM      8  C   UNL     1      19.821   3.354  22.300  1.00  0.00    -0.023 CG0
ATOM      9  G   UNL     1      19.070   2.768  23.471  1.00  0.00     0.000 G0
ENDBRANCH   5   6
ENDBRANCH   4   5
ENDBRANCH   2   4
BRANCH   1  10
ATOM     10  C   UNL     1      18.220  -0.122  22.213  1.00  0.00     0.111 C 
BRANCH  10  11
ATOM     11  C   UNL     1      18.600   0.293  23.613  1.00  0.00     0.163 C 
ATOM     12  O   UNL     1      18.098  -0.332  24.585  1.00  0.00    -0.294 OA
BRANCH  11  13
ATOM     13  C   UNL     1      19.539   1.404  23.896  1.00  0.00    -0.002 C 
ATOM     14  C   UNL     1      20.681   1.185  24.606  1.00  0.00    -0.069 C 
ATOM     15  C   UNL     1      21.028  -0.200  25.105  1.00  0.00     0.039 C 
ATOM     16  C   UNL     1      21.623   2.309  24.972  1.00  0.00     0.039 C 
BRANCH  13  17
ATOM     17  C   UNL     1      19.065   2.793  23.499  1.00  0.00     0.066 CG0
ATOM     18  G   UNL     1      19.822   3.336  22.311  1.00  0.00     0.000 G0
ENDBRANCH  13  17
ENDBRANCH  11  13
ENDBRANCH  10  11
ENDBRANCH   1  10
TORSDOF 0
ENDMDL
MODEL 6
REMARK VINA RESULT:    -3.043      1.635      3.274
REMARK INTER + INTRA:          -2.722
REMARK INTER:                  -3.775
REMARK INTRA:                   1.053
REMARK UNBOUND:                 1.567
REMARK SMILES CC1=CCC(=C(C)C)C(=O)CC(C)=CCC1
REMARK SMILES IDX 12 1 14 2 13 3 15 4 16 5 2 6 1 7 3 8 11 10 9 11 10 12 5 13
REMARK SMILES IDX 6 14 7 15 8 16 4 17
REMARK H PARENT
REMARK Flexibility Score: 60.00
ROOT
ATOM      1  C   UNL     1      20.115   1.936  24.562  1.00  0.00    -0.070 C 
ATOM      2  C   UNL     1      19.551   0.800  25.036  1.00  0.00    -0.027 C 
ATOM      3  C   UNL     1      21.484   2.309  25.070  1.00  0.00     0.039 C 
ENDROOT
BRANCH   2   4
ATOM      4  C   UNL     1      18.209   0.251  24.607  1.00  0.00     0.032 C 
BRANCH   4   5
ATOM      5  C   UNL     1      18.323  -1.083  23.843  1.00  0.00     0.034 C 
BRANCH   5   6
ATOM      6  C   UNL     1      19.431  -1.137  22.797  1.00  0.00    -0.077 C 
ATOM      7  C   UNL     1      20.487  -2.210  22.914  1.00  0.00     0.039 C 
ATOM      8  C   UNL     1      19.513  -0.292  21.743  1.00  0.00    -0.023 CG0
ATOM      9  G   UNL     1      18.581   0.861  21.456  1.00  0.00     0.000 G0
ENDBRANCH   5   6
ENDBRANCH   4   5
ENDBRANCH   2   4
BRANCH   1  10
ATOM     10  C   UNL     1      19.400   2.871  23.601  1.00  0.00     0.111 C 
BRANCH  10  11
ATOM     11  C   UNL     1      19.974   2.868  22.206  1.00  0.00     0.163 C 
ATOM     12  O   UNL     1      21.028   3.524  21.986  1.00  0.00    -0.294 OA
BRANCH  11  13
ATOM     13  C   UNL     1      19.355   2.127  21.082  1.00  0.00    -0.002 C 
ATOM     14  C   UNL     1      19.353   2.648  19.823  1.00  0.00    -0.069 C 
ATOM     15  C   UNL     1      20.000   3.986  19.539  1.00  0.00     0.039 C 
ATOM     16  C   UNL     1      18.670   1.950  18.670  1.00  0.00     0.039 C 
BRANCH  13  17
ATOM     17  C   UNL     1      18.596   0.864  21.456  1.00  0.00     0.066 CG0
ATOM     18  G   UNL     1      19.521  -0.297  21.731  1.00  0.00     0.000 G0
ENDBRANCH  13  17
ENDBRANCH  11  13
ENDBRANCH  10  11
ENDBRANCH   1  10
TORSDOF 0
ENDMDL
MODEL 7
REMARK VINA RESULT:    -3.043      1.989      3.644
REMARK INTER + INTRA:          -2.721
REMARK INTER:                  -3.169
REMARK INTRA:                   0.447
REMARK UNBOUND:                 1.567
REMARK SMILES CC1=CCC(=C(C)C)C(=O)CC(C)=CCC1
REMARK SMILES IDX 12 1 14 2 13 3 15 4 16 5 2 6 1 7 3 8 11 10 9 11 10 12 5 13
REMARK SMILES IDX 6 14 7 15 8 16 4 17
REMARK H PARENT
REMARK Flexibility Score: 60.00
ROOT
ATOM      1  C   UNL     1      19.320   2.285  21.983  1.00  0.00    -0.070 C 
ATOM      2  C   UNL     1      20.125   3.218  22.543  1.00  0.00    -0.027 C 
ATOM      3  C   UNL     1      19.792   1.611  20.720  1.00  0.00     0.039 C 
ENDROOT
BRANCH   2   4
ATOM      4  C   UNL     1      19.833   3.960  23.828  1.00  0.00     0.032 C 
BRANCH   4   5
ATOM      5  C   UNL     1      19.920   3.056  25.075  1.00  0.00     0.034 C 
BRANCH   5   6
ATOM      6  C   UNL     1      21.065   2.050  25.067  1.00  0.00    -0.077 C 
ATOM      7  C   UNL     1      22.482   2.565  25.124  1.00  0.00     0.039 C 
ATOM      8  C   UNL     1      20.887   0.708  25.038  1.00  0.00    -0.023 CG0
ATOM      9  G   UNL     1      19.562  -0.009  24.952  1.00  0.00     0.000 G0
ENDBRANCH   5   6
ENDBRANCH   4   5
ENDBRANCH   2   4
BRANCH   1  10
ATOM     10  C   UNL     1      17.945   1.945  22.536  1.00  0.00     0.111 C 
BRANCH  10  11
ATOM     11  C   UNL     1      17.858   0.571  23.152  1.00  0.00     0.163 C 
ATOM     12  O   UNL     1      16.719   0.067  23.343  1.00  0.00    -0.294 OA
BRANCH  11  13
ATOM     13  C   UNL     1      19.053  -0.214  23.542  1.00  0.00    -0.002 C 
ATOM     14  C   UNL     1      19.560  -1.168  22.711  1.00  0.00    -0.069 C 
ATOM     15  C   UNL     1      18.928  -1.434  21.362  1.00  0.00     0.039 C 
ATOM     16  C   UNL     1      20.734  -2.032  23.108  1.00  0.00     0.039 C 
BRANCH  13  17
ATOM     17  C   UNL     1      19.551  -0.006  24.963  1.00  0.00     0.066 CG0
ATOM     18  G   UNL     1      20.873   0.722  25.003  1.00  0.00     0.000 G0
ENDBRANCH  13  17
ENDBRANCH  11  13
ENDBRANCH  10  11
ENDBRANCH   1  10
TORSDOF 0
ENDMDL
MODEL 8
REMARK VINA RESULT:    -3.023      1.607      4.719
REMARK INTER + INTRA:          -2.693
REMARK INTER:                  -4.407
REMARK INTRA:                   1.714
REMARK UNBOUND:                 1.567
REMARK SMILES CC1=CCC(=C(C)C)C(=O)CC(C)=CCC1
REMARK SMILES IDX 12 1 14 2 13 3 15 4 16 5 2 6 1 7 3 8 11 10 9 11 10 12 5 13
REMARK SMILES IDX 6 14 7 15 8 16 4 17
REMARK H PARENT
REMARK Flexibility Score: 60.00
ROOT
ATOM      1  C   UNL     1      19.107   2.201  18.903  1.00  0.00    -0.070 C 
ATOM      2  C   UNL     1      19.293   0.870  18.750  1.00  0.00    -0.027 C 
ATOM      3  C   UNL     1      19.522   3.106  17.771  1.00  0.00     0.039 C 
ENDROOT
BRANCH   2   4
ATOM      4  C   UNL     1      18.896  -0.185  19.759  1.00  0.00     0.032 C 
BRANCH   4   5
ATOM      5  C   UNL     1      20.049  -0.572  20.707  1.00  0.00     0.034 C 
BRANCH   5   6
ATOM      6  C   UNL     1      19.619  -1.042  22.091  1.00  0.00    -0.077 C 
ATOM      7  C   UNL     1      20.117  -2.376  22.590  1.00  0.00     0.039 C 
ATOM      8  C   UNL     1      18.831  -0.318  22.921  1.00  0.00    -0.023 CG0
ATOM      9  G   UNL     1      18.208   1.021  22.608  1.00  0.00     0.000 G0
ENDBRANCH   5   6
ENDBRANCH   4   5
ENDBRANCH   2   4
BRANCH   1  10
ATOM     10  C   UNL     1      18.565   2.816  20.183  1.00  0.00     0.111 C 
BRANCH  10  11
ATOM     11  C   UNL     1      19.531   2.765  21.341  1.00  0.00     0.163 C 
ATOM     12  O   UNL     1      20.684   3.249  21.186  1.00  0.00    -0.294 OA
BRANCH  11  13
ATOM     13  C   UNL     1      19.184   2.172  22.654  1.00  0.00    -0.002 C 
ATOM     14  C   UNL     1      19.847   2.547  23.783  1.00  0.00    -0.069 C 
ATOM     15  C   UNL     1      20.940   3.592  23.727  1.00  0.00     0.039 C 
ATOM     16  C   UNL     1      19.565   1.911  25.125  1.00  0.00     0.039 C 
BRANCH  13  17
ATOM     17  C   UNL     1      18.185   1.026  22.622  1.00  0.00     0.066 CG0
ATOM     18  G   UNL     1      18.835  -0.305  22.913  1.00  0.00     0.000 G0
ENDBRANCH  13  17
ENDBRANCH  11  13
ENDBRANCH  10  11
ENDBRANCH   1  10
TORSDOF 0
ENDMDL
MODEL 9
REMARK VINA RESULT:    -2.849      1.508      2.281
REMARK INTER + INTRA:          -2.448
REMARK INTER:                  -3.192
REMARK INTRA:                   0.743
REMARK UNBOUND:                 1.567
REMARK SMILES CC1=CCC(=C(C)C)C(=O)CC(C)=CCC1
REMARK SMILES IDX 12 1 14 2 13 3 15 4 16 5 2 6 1 7 3 8 11 10 9 11 10 12 5 13
REMARK SMILES IDX 6 14 7 15 8 16 4 17
REMARK H PARENT
REMARK Flexibility Score: 60.00
ROOT
ATOM      1  C   UNL     1      20.138  -1.810  22.823  1.00  0.00    -0.070 C 
ATOM      2  C   UNL     1      20.112  -1.254  24.057  1.00  0.00    -0.027 C 
ATOM      3  C   UNL     1      19.893  -3.294  22.714  1.00  0.00     0.039 C 
ENDROOT
BRANCH   2   4
ATOM      4  C   UNL     1      20.292   0.220  24.349  1.00  0.00     0.032 C 
BRANCH   4   5
ATOM      5  C   UNL     1      19.105   0.827  25.123  1.00  0.00     0.034 C 
BRANCH   5   6
ATOM      6  C   UNL     1      17.890   1.180  24.273  1.00  0.00    -0.077 C 
ATOM      7  C   UNL     1      16.513   0.978  24.857  1.00  0.00     0.039 C 
ATOM      8  C   UNL     1      17.970   1.693  23.023  1.00  0.00    -0.023 CG0
ATOM      9  G   UNL     1      19.241   1.946  22.247  1.00  0.00     0.000 G0
ENDBRANCH   5   6
ENDBRANCH   4   5
ENDBRANCH   2   4
BRANCH   1  10
ATOM     10  C   UNL     1      20.467  -1.018  21.569  1.00  0.00     0.111 C 
BRANCH  10  11
ATOM     11  C   UNL     1      19.288  -0.277  20.988  1.00  0.00     0.163 C 
ATOM     12  O   UNL     1      18.308  -0.943  20.559  1.00  0.00    -0.294 OA
BRANCH  11  13
ATOM     13  C   UNL     1      19.229   1.201  20.901  1.00  0.00    -0.002 C 
ATOM     14  C   UNL     1      19.320   1.831  19.697  1.00  0.00    -0.069 C 
ATOM     15  C   UNL     1      19.463   1.036  18.417  1.00  0.00     0.039 C 
ATOM     16  C   UNL     1      19.333   3.338  19.581  1.00  0.00     0.039 C 
BRANCH  13  17
ATOM     17  C   UNL     1      19.234   1.946  22.227  1.00  0.00     0.066 CG0
ATOM     18  G   UNL     1      17.976   1.698  23.024  1.00  0.00     0.000 G0
ENDBRANCH  13  17
ENDBRANCH  11  13
ENDBRANCH  10  11
ENDBRANCH   1  10
TORSDOF 0
ENDMDL
