MODEL 1
REMARK VINA RESULT:    -6.377      0.000      0.000
REMARK INTER + INTRA:         -12.416
REMARK INTER:                 -11.597
REMARK INTRA:                  -0.819
REMARK UNBOUND:                -0.819
REMARK SMILES CCCCCC=CCC=CCCCCCCCC(=O)[O-]
REMARK SMILES IDX 11 1 12 2 13 3 14 4 15 5 16 6 17 7 18 8 19 9 20 10 10 11
REMARK SMILES IDX 9 12 8 13 7 14 6 15 5 16 4 17 3 18 2 19 1 20
REMARK H PARENT
REMARK Flexibility Score: inf
ROOT
ATOM      1  C   UNL     1      24.569  -1.205 -16.131  1.00  0.00     0.027 C 
ENDROOT
BRANCH   1   2
ATOM      2  C   UNL     1      25.167  -1.425 -17.526  1.00  0.00     0.004 C 
BRANCH   2   3
ATOM      3  C   UNL     1      26.694  -1.606 -17.481  1.00  0.00     0.000 C 
BRANCH   3   4
ATOM      4  C   UNL     1      27.237  -1.643 -16.037  1.00  0.00     0.000 C 
BRANCH   4   5
ATOM      5  C   UNL     1      28.308  -0.574 -15.750  1.00  0.00     0.000 C 
BRANCH   5   6
ATOM      6  C   UNL     1      29.738  -1.120 -15.569  1.00  0.00     0.006 C 
BRANCH   6   7
ATOM      7  C   UNL     1      30.835  -0.043 -15.597  1.00  0.00     0.053 C 
BRANCH   7   8
ATOM      8  C   UNL     1      31.758  -0.213 -16.764  1.00  0.00     0.041 C 
ATOM      9  O   UNL     1      33.004  -0.126 -16.604  1.00  0.00    -0.550 OA
ATOM     10  O   UNL     1      31.241  -0.431 -18.035  1.00  0.00    -0.550 OA
ENDBRANCH   7   8
ENDBRANCH   6   7
ENDBRANCH   5   6
ENDBRANCH   4   5
ENDBRANCH   3   4
ENDBRANCH   2   3
ENDBRANCH   1   2
BRANCH   1  11
ATOM     11  C   UNL     1      23.987   0.176 -15.991  1.00  0.00    -0.031 C 
ATOM     12  C   UNL     1      23.017   0.619 -16.805  1.00  0.00    -0.027 C 
BRANCH  12  13
ATOM     13  C   UNL     1      22.425   1.990 -16.644  1.00  0.00     0.054 C 
BRANCH  13  14
ATOM     14  C   UNL     1      20.941   1.949 -16.875  1.00  0.00    -0.027 C 
ATOM     15  C   UNL     1      20.107   1.378 -15.993  1.00  0.00    -0.031 C 
BRANCH  15  16
ATOM     16  C   UNL     1      18.618   1.390 -16.199  1.00  0.00     0.027 C 
BRANCH  16  17
ATOM     17  C   UNL     1      17.958   0.190 -15.504  1.00  0.00     0.004 C 
BRANCH  17  18
ATOM     18  C   UNL     1      16.924  -0.524 -16.394  1.00  0.00     0.000 C 
BRANCH  18  19
ATOM     19  C   UNL     1      15.774   0.370 -16.894  1.00  0.00    -0.003 C 
ATOM     20  C   UNL     1      14.925   0.943 -15.759  1.00  0.00     0.004 C 
ENDBRANCH  18  19
ENDBRANCH  17  18
ENDBRANCH  16  17
ENDBRANCH  15  16
ENDBRANCH  13  14
ENDBRANCH  12  13
ENDBRANCH   1  11
TORSDOF 14
ENDMDL
MODEL 2
REMARK VINA RESULT:    -6.231      1.005      1.529
REMARK INTER + INTRA:         -12.149
REMARK INTER:                 -11.236
REMARK INTRA:                  -0.913
REMARK UNBOUND:                -0.819
REMARK SMILES CCCCCC=CCC=CCCCCCCCC(=O)[O-]
REMARK SMILES IDX 11 1 12 2 13 3 14 4 15 5 16 6 17 7 18 8 19 9 20 10 10 11
REMARK SMILES IDX 9 12 8 13 7 14 6 15 5 16 4 17 3 18 2 19 1 20
REMARK H PARENT
REMARK Flexibility Score: inf
ROOT
ATOM      1  C   UNL     1      24.435  -0.057 -15.883  1.00  0.00     0.027 C 
ENDROOT
BRANCH   1   2
ATOM      2  C   UNL     1      25.021  -1.348 -16.469  1.00  0.00     0.004 C 
BRANCH   2   3
ATOM      3  C   UNL     1      26.501  -1.536 -16.091  1.00  0.00     0.000 C 
BRANCH   3   4
ATOM      4  C   UNL     1      27.373  -1.911 -17.307  1.00  0.00     0.000 C 
BRANCH   4   5
ATOM      5  C   UNL     1      28.813  -1.371 -17.227  1.00  0.00     0.000 C 
BRANCH   5   6
ATOM      6  C   UNL     1      29.069  -0.374 -16.080  1.00  0.00     0.006 C 
BRANCH   6   7
ATOM      7  C   UNL     1      30.376  -0.620 -15.308  1.00  0.00     0.053 C 
BRANCH   7   8
ATOM      8  C   UNL     1      31.576  -0.154 -16.072  1.00  0.00     0.041 C 
ATOM      9  O   UNL     1      31.471   0.783 -16.907  1.00  0.00    -0.550 OA
ATOM     10  O   UNL     1      32.804  -0.777 -15.889  1.00  0.00    -0.550 OA
ENDBRANCH   7   8
ENDBRANCH   6   7
ENDBRANCH   5   6
ENDBRANCH   4   5
ENDBRANCH   3   4
ENDBRANCH   2   3
ENDBRANCH   1   2
BRANCH   1  11
ATOM     11  C   UNL     1      23.423   0.560 -16.811  1.00  0.00    -0.031 C 
ATOM     12  C   UNL     1      22.146   0.744 -16.442  1.00  0.00    -0.027 C 
BRANCH  12  13
ATOM     13  C   UNL     1      21.149   1.382 -17.366  1.00  0.00     0.054 C 
BRANCH  13  14
ATOM     14  C   UNL     1      19.767   1.293 -16.784  1.00  0.00    -0.027 C 
ATOM     15  C   UNL     1      19.553   0.813 -15.549  1.00  0.00    -0.031 C 
BRANCH  15  16
ATOM     16  C   UNL     1      18.175   0.780 -14.948  1.00  0.00     0.027 C 
BRANCH  16  17
ATOM     17  C   UNL     1      17.256  -0.168 -15.733  1.00  0.00     0.004 C 
BRANCH  17  18
ATOM     18  C   UNL     1      15.929   0.491 -16.148  1.00  0.00     0.000 C 
BRANCH  18  19
ATOM     19  C   UNL     1      15.647   0.483 -17.662  1.00  0.00    -0.003 C 
ATOM     20  C   UNL     1      16.903   0.252 -18.503  1.00  0.00     0.004 C 
ENDBRANCH  18  19
ENDBRANCH  17  18
ENDBRANCH  16  17
ENDBRANCH  15  16
ENDBRANCH  13  14
ENDBRANCH  12  13
ENDBRANCH   1  11
TORSDOF 14
ENDMDL
MODEL 3
REMARK VINA RESULT:    -6.189      5.199     11.046
REMARK INTER + INTRA:         -12.073
REMARK INTER:                 -11.055
REMARK INTRA:                  -1.018
REMARK UNBOUND:                -0.819
REMARK SMILES CCCCCC=CCC=CCCCCCCCC(=O)[O-]
REMARK SMILES IDX 11 1 12 2 13 3 14 4 15 5 16 6 17 7 18 8 19 9 20 10 10 11
REMARK SMILES IDX 9 12 8 13 7 14 6 15 5 16 4 17 3 18 2 19 1 20
REMARK H PARENT
REMARK Flexibility Score: inf
ROOT
ATOM      1  C   UNL     1      23.429   0.486 -16.662  1.00  0.00     0.027 C 
ENDROOT
BRANCH   1   2
ATOM      2  C   UNL     1      22.573   0.772 -17.902  1.00  0.00     0.004 C 
BRANCH   2   3
ATOM      3  C   UNL     1      21.101   1.038 -17.541  1.00  0.00     0.000 C 
BRANCH   3   4
ATOM      4  C   UNL     1      20.928   1.476 -16.072  1.00  0.00     0.000 C 
BRANCH   4   5
ATOM      5  C   UNL     1      19.614   0.992 -15.430  1.00  0.00     0.000 C 
BRANCH   5   6
ATOM      6  C   UNL     1      18.466   0.729 -16.424  1.00  0.00     0.006 C 
BRANCH   6   7
ATOM      7  C   UNL     1      17.184   0.179 -15.778  1.00  0.00     0.053 C 
BRANCH   7   8
ATOM      8  C   UNL     1      15.965   0.502 -16.586  1.00  0.00     0.041 C 
ATOM      9  O   UNL     1      14.885   0.800 -16.012  1.00  0.00    -0.550 OA
ATOM     10  O   UNL     1      16.013   0.439 -17.973  1.00  0.00    -0.550 OA
ENDBRANCH   7   8
ENDBRANCH   6   7
ENDBRANCH   5   6
ENDBRANCH   4   5
ENDBRANCH   3   4
ENDBRANCH   2   3
ENDBRANCH   1   2
BRANCH   1  11
ATOM     11  C   UNL     1      24.542  -0.480 -16.971  1.00  0.00    -0.031 C 
ATOM     12  C   UNL     1      25.417  -0.872 -16.033  1.00  0.00    -0.027 C 
BRANCH  12  13
ATOM     13  C   UNL     1      26.511  -1.855 -16.345  1.00  0.00     0.054 C 
BRANCH  13  14
ATOM     14  C   UNL     1      27.845  -1.164 -16.357  1.00  0.00    -0.027 C 
ATOM     15  C   UNL     1      28.469  -0.820 -15.220  1.00  0.00    -0.031 C 
BRANCH  15  16
ATOM     16  C   UNL     1      29.830  -0.182 -15.235  1.00  0.00     0.027 C 
BRANCH  16  17
ATOM     17  C   UNL     1      30.797  -0.973 -16.128  1.00  0.00     0.004 C 
BRANCH  17  18
ATOM     18  C   UNL     1      31.416  -0.117 -17.247  1.00  0.00     0.000 C 
BRANCH  18  19
ATOM     19  C   UNL     1      30.549   1.067 -17.712  1.00  0.00    -0.003 C 
ATOM     20  C   UNL     1      29.669   0.727 -18.916  1.00  0.00     0.004 C 
ENDBRANCH  18  19
ENDBRANCH  17  18
ENDBRANCH  16  17
ENDBRANCH  15  16
ENDBRANCH  13  14
ENDBRANCH  12  13
ENDBRANCH   1  11
TORSDOF 14
ENDMDL
MODEL 4
REMARK VINA RESULT:    -5.943      4.507     10.515
REMARK INTER + INTRA:         -11.626
REMARK INTER:                 -10.451
REMARK INTRA:                  -1.175
REMARK UNBOUND:                -0.819
REMARK SMILES CCCCCC=CCC=CCCCCCCCC(=O)[O-]
REMARK SMILES IDX 11 1 12 2 13 3 14 4 15 5 16 6 17 7 18 8 19 9 20 10 10 11
REMARK SMILES IDX 9 12 8 13 7 14 6 15 5 16 4 17 3 18 2 19 1 20
REMARK H PARENT
REMARK Flexibility Score: inf
ROOT
ATOM      1  C   UNL     1      22.920   0.752 -16.159  1.00  0.00     0.027 C 
ENDROOT
BRANCH   1   2
ATOM      2  C   UNL     1      22.404   0.888 -17.597  1.00  0.00     0.004 C 
BRANCH   2   3
ATOM      3  C   UNL     1      21.599   2.183 -17.804  1.00  0.00     0.000 C 
BRANCH   3   4
ATOM      4  C   UNL     1      20.816   2.181 -19.133  1.00  0.00     0.000 C 
BRANCH   4   5
ATOM      5  C   UNL     1      19.706   1.115 -19.196  1.00  0.00     0.000 C 
BRANCH   5   6
ATOM      6  C   UNL     1      18.424   1.468 -18.417  1.00  0.00     0.006 C 
BRANCH   6   7
ATOM      7  C   UNL     1      17.943   0.366 -17.459  1.00  0.00     0.053 C 
BRANCH   7   8
ATOM      8  C   UNL     1      18.040   0.788 -16.026  1.00  0.00     0.041 C 
ATOM      9  O   UNL     1      19.114   1.267 -15.577  1.00  0.00    -0.550 OA
ATOM     10  O   UNL     1      16.954   0.618 -15.175  1.00  0.00    -0.550 OA
ENDBRANCH   7   8
ENDBRANCH   6   7
ENDBRANCH   5   6
ENDBRANCH   4   5
ENDBRANCH   3   4
ENDBRANCH   2   3
ENDBRANCH   1   2
BRANCH   1  11
ATOM     11  C   UNL     1      24.155  -0.105 -16.095  1.00  0.00    -0.031 C 
ATOM     12  C   UNL     1      24.651  -0.713 -17.184  1.00  0.00    -0.027 C 
BRANCH  12  13
ATOM     13  C   UNL     1      25.898  -1.548 -17.116  1.00  0.00     0.054 C 
BRANCH  13  14
ATOM     14  C   UNL     1      26.746  -1.124 -15.951  1.00  0.00    -0.027 C 
ATOM     15  C   UNL     1      28.086  -1.113 -16.023  1.00  0.00    -0.031 C 
BRANCH  15  16
ATOM     16  C   UNL     1      28.930  -0.633 -14.875  1.00  0.00     0.027 C 
BRANCH  16  17
ATOM     17  C   UNL     1      30.388  -0.427 -15.315  1.00  0.00     0.004 C 
BRANCH  17  18
ATOM     18  C   UNL     1      30.692  -1.045 -16.690  1.00  0.00     0.000 C 
BRANCH  18  19
ATOM     19  C   UNL     1      31.292  -0.071 -17.720  1.00  0.00    -0.003 C 
ATOM     20  C   UNL     1      30.347   1.077 -18.078  1.00  0.00     0.004 C 
ENDBRANCH  18  19
ENDBRANCH  17  18
ENDBRANCH  16  17
ENDBRANCH  15  16
ENDBRANCH  13  14
ENDBRANCH  12  13
ENDBRANCH   1  11
TORSDOF 14
ENDMDL
MODEL 5
REMARK VINA RESULT:    -5.887      4.452      9.492
REMARK INTER + INTRA:         -11.525
REMARK INTER:                 -10.169
REMARK INTRA:                  -1.356
REMARK UNBOUND:                -0.819
REMARK SMILES CCCCCC=CCC=CCCCCCCCC(=O)[O-]
REMARK SMILES IDX 11 1 12 2 13 3 14 4 15 5 16 6 17 7 18 8 19 9 20 10 10 11
REMARK SMILES IDX 9 12 8 13 7 14 6 15 5 16 4 17 3 18 2 19 1 20
REMARK H PARENT
REMARK Flexibility Score: inf
ROOT
ATOM      1  C   UNL     1      18.819   0.747 -15.262  1.00  0.00     0.027 C 
ENDROOT
BRANCH   1   2
ATOM      2  C   UNL     1      17.695   1.168 -16.217  1.00  0.00     0.004 C 
BRANCH   2   3
ATOM      3  C   UNL     1      17.258   0.018 -17.141  1.00  0.00     0.000 C 
BRANCH   3   4
ATOM      4  C   UNL     1      17.410   0.376 -18.634  1.00  0.00     0.000 C 
BRANCH   4   5
ATOM      5  C   UNL     1      18.432   1.496 -18.902  1.00  0.00     0.000 C 
BRANCH   5   6
ATOM      6  C   UNL     1      19.552   1.128 -19.894  1.00  0.00     0.006 C 
BRANCH   6   7
ATOM      7  C   UNL     1      19.497   1.897 -21.224  1.00  0.00     0.053 C 
BRANCH   7   8
ATOM      8  C   UNL     1      19.780   3.356 -21.040  1.00  0.00     0.041 C 
ATOM      9  O   UNL     1      19.053   4.218 -21.601  1.00  0.00    -0.550 OA
ATOM     10  O   UNL     1      20.868   3.764 -20.279  1.00  0.00    -0.550 OA
ENDBRANCH   7   8
ENDBRANCH   6   7
ENDBRANCH   5   6
ENDBRANCH   4   5
ENDBRANCH   3   4
ENDBRANCH   2   3
ENDBRANCH   1   2
BRANCH   1  11
ATOM     11  C   UNL     1      20.129   1.384 -15.638  1.00  0.00    -0.031 C 
ATOM     12  C   UNL     1      21.041   0.739 -16.382  1.00  0.00    -0.027 C 
BRANCH  12  13
ATOM     13  C   UNL     1      22.336   1.392 -16.772  1.00  0.00     0.054 C 
BRANCH  13  14
ATOM     14  C   UNL     1      23.428   0.365 -16.874  1.00  0.00    -0.027 C 
ATOM     15  C   UNL     1      24.120  -0.036 -15.796  1.00  0.00    -0.031 C 
BRANCH  15  16
ATOM     16  C   UNL     1      25.172  -1.105 -15.893  1.00  0.00     0.027 C 
BRANCH  16  17
ATOM     17  C   UNL     1      25.430  -1.490 -17.357  1.00  0.00     0.004 C 
BRANCH  17  18
ATOM     18  C   UNL     1      26.887  -1.914 -17.618  1.00  0.00     0.000 C 
BRANCH  18  19
ATOM     19  C   UNL     1      27.130  -2.594 -18.978  1.00  0.00    -0.003 C 
ATOM     20  C   UNL     1      25.846  -3.114 -19.625  1.00  0.00     0.004 C 
ENDBRANCH  18  19
ENDBRANCH  17  18
ENDBRANCH  16  17
ENDBRANCH  15  16
ENDBRANCH  13  14
ENDBRANCH  12  13
ENDBRANCH   1  11
TORSDOF 14
ENDMDL
MODEL 6
REMARK VINA RESULT:    -5.828      2.675      5.242
REMARK INTER + INTRA:         -11.417
REMARK INTER:                  -9.984
REMARK INTRA:                  -1.433
REMARK UNBOUND:                -0.819
REMARK SMILES CCCCCC=CCC=CCCCCCCCC(=O)[O-]
REMARK SMILES IDX 11 1 12 2 13 3 14 4 15 5 16 6 17 7 18 8 19 9 20 10 10 11
REMARK SMILES IDX 9 12 8 13 7 14 6 15 5 16 4 17 3 18 2 19 1 20
REMARK H PARENT
REMARK Flexibility Score: inf
ROOT
ATOM      1  C   UNL     1      29.871   0.025 -15.124  1.00  0.00     0.027 C 
ENDROOT
BRANCH   1   2
ATOM      2  C   UNL     1      31.273  -0.595 -15.175  1.00  0.00     0.004 C 
BRANCH   2   3
ATOM      3  C   UNL     1      32.020  -0.234 -16.471  1.00  0.00     0.000 C 
BRANCH   3   4
ATOM      4  C   UNL     1      31.087   0.384 -17.532  1.00  0.00     0.000 C 
BRANCH   4   5
ATOM      5  C   UNL     1      30.604  -0.621 -18.595  1.00  0.00     0.000 C 
BRANCH   5   6
ATOM      6  C   UNL     1      29.198  -0.342 -19.160  1.00  0.00     0.006 C 
BRANCH   6   7
ATOM      7  C   UNL     1      28.388  -1.606 -19.492  1.00  0.00     0.053 C 
BRANCH   7   8
ATOM      8  C   UNL     1      27.300  -1.331 -20.483  1.00  0.00     0.041 C 
ATOM      9  O   UNL     1      27.524  -0.601 -21.485  1.00  0.00    -0.550 OA
ATOM     10  O   UNL     1      26.027  -1.850 -20.281  1.00  0.00    -0.550 OA
ENDBRANCH   7   8
ENDBRANCH   6   7
ENDBRANCH   5   6
ENDBRANCH   4   5
ENDBRANCH   3   4
ENDBRANCH   2   3
ENDBRANCH   1   2
BRANCH   1  11
ATOM     11  C   UNL     1      28.800  -1.014 -15.323  1.00  0.00    -0.031 C 
ATOM     12  C   UNL     1      27.626  -0.716 -15.900  1.00  0.00    -0.027 C 
BRANCH  12  13
ATOM     13  C   UNL     1      26.572  -1.765 -16.116  1.00  0.00     0.054 C 
BRANCH  13  14
ATOM     14  C   UNL     1      25.392  -1.178 -16.837  1.00  0.00    -0.027 C 
ATOM     15  C   UNL     1      24.524  -0.362 -16.219  1.00  0.00    -0.031 C 
BRANCH  15  16
ATOM     16  C   UNL     1      23.378   0.268 -16.958  1.00  0.00     0.027 C 
BRANCH  16  17
ATOM     17  C   UNL     1      22.486   1.076 -16.003  1.00  0.00     0.004 C 
BRANCH  17  18
ATOM     18  C   UNL     1      21.540   2.042 -16.738  1.00  0.00     0.000 C 
BRANCH  18  19
ATOM     19  C   UNL     1      20.063   1.606 -16.766  1.00  0.00    -0.003 C 
ATOM     20  C   UNL     1      19.654   0.801 -15.532  1.00  0.00     0.004 C 
ENDBRANCH  18  19
ENDBRANCH  17  18
ENDBRANCH  16  17
ENDBRANCH  15  16
ENDBRANCH  13  14
ENDBRANCH  12  13
ENDBRANCH   1  11
TORSDOF 14
ENDMDL
MODEL 7
REMARK VINA RESULT:    -5.779      9.112     12.285
REMARK INTER + INTRA:         -11.329
REMARK INTER:                  -9.855
REMARK INTRA:                  -1.474
REMARK UNBOUND:                -0.819
REMARK SMILES CCCCCC=CCC=CCCCCCCCC(=O)[O-]
REMARK SMILES IDX 11 1 12 2 13 3 14 4 15 5 16 6 17 7 18 8 19 9 20 10 10 11
REMARK SMILES IDX 9 12 8 13 7 14 6 15 5 16 4 17 3 18 2 19 1 20
REMARK H PARENT
REMARK Flexibility Score: inf
ROOT
ATOM      1  C   UNL     1      18.149  -4.748 -25.766  1.00  0.00     0.027 C 
ENDROOT
BRANCH   1   2
ATOM      2  C   UNL     1      18.774  -5.096 -27.123  1.00  0.00     0.004 C 
BRANCH   2   3
ATOM      3  C   UNL     1      18.425  -4.058 -28.204  1.00  0.00     0.000 C 
BRANCH   3   4
ATOM      4  C   UNL     1      19.678  -3.358 -28.770  1.00  0.00     0.000 C 
BRANCH   4   5
ATOM      5  C   UNL     1      20.964  -3.649 -27.974  1.00  0.00     0.000 C 
BRANCH   5   6
ATOM      6  C   UNL     1      21.677  -2.402 -27.416  1.00  0.00     0.006 C 
BRANCH   6   7
ATOM      7  C   UNL     1      23.125  -2.651 -26.965  1.00  0.00     0.053 C 
BRANCH   7   8
ATOM      8  C   UNL     1      23.864  -1.371 -26.720  1.00  0.00     0.041 C 
ATOM      9  O   UNL     1      23.964  -0.512 -27.634  1.00  0.00    -0.550 OA
ATOM     10  O   UNL     1      24.473  -1.143 -25.492  1.00  0.00    -0.550 OA
ENDBRANCH   7   8
ENDBRANCH   6   7
ENDBRANCH   5   6
ENDBRANCH   4   5
ENDBRANCH   3   4
ENDBRANCH   2   3
ENDBRANCH   1   2
BRANCH   1  11
ATOM     11  C   UNL     1      19.075  -3.903 -24.932  1.00  0.00    -0.031 C 
ATOM     12  C   UNL     1      20.233  -4.384 -24.455  1.00  0.00    -0.027 C 
BRANCH  12  13
ATOM     13  C   UNL     1      21.161  -3.527 -23.643  1.00  0.00     0.054 C 
BRANCH  13  14
ATOM     14  C   UNL     1      22.531  -4.141 -23.596  1.00  0.00    -0.027 C 
ATOM     15  C   UNL     1      23.259  -4.152 -22.469  1.00  0.00    -0.031 C 
BRANCH  15  16
ATOM     16  C   UNL     1      24.605  -4.819 -22.410  1.00  0.00     0.027 C 
BRANCH  16  17
ATOM     17  C   UNL     1      25.442  -4.265 -21.247  1.00  0.00     0.004 C 
BRANCH  17  18
ATOM     18  C   UNL     1      26.947  -4.213 -21.563  1.00  0.00     0.000 C 
BRANCH  18  19
ATOM     19  C   UNL     1      27.802  -3.470 -20.521  1.00  0.00    -0.003 C 
ATOM     20  C   UNL     1      28.841  -2.541 -21.151  1.00  0.00     0.004 C 
ENDBRANCH  18  19
ENDBRANCH  17  18
ENDBRANCH  16  17
ENDBRANCH  15  16
ENDBRANCH  13  14
ENDBRANCH  12  13
ENDBRANCH   1  11
TORSDOF 14
ENDMDL
MODEL 8
REMARK VINA RESULT:    -5.777      4.020      5.901
REMARK INTER + INTRA:         -11.325
REMARK INTER:                  -9.235
REMARK INTRA:                  -2.090
REMARK UNBOUND:                -0.819
REMARK SMILES CCCCCC=CCC=CCCCCCCCC(=O)[O-]
REMARK SMILES IDX 11 1 12 2 13 3 14 4 15 5 16 6 17 7 18 8 19 9 20 10 10 11
REMARK SMILES IDX 9 12 8 13 7 14 6 15 5 16 4 17 3 18 2 19 1 20
REMARK H PARENT
REMARK Flexibility Score: inf
ROOT
ATOM      1  C   UNL     1      29.813  -0.350 -14.787  1.00  0.00     0.027 C 
ENDROOT
BRANCH   1   2
ATOM      2  C   UNL     1      30.737   0.355 -15.788  1.00  0.00     0.004 C 
BRANCH   2   3
ATOM      3  C   UNL     1      30.964  -0.484 -17.057  1.00  0.00     0.000 C 
BRANCH   3   4
ATOM      4  C   UNL     1      30.688   0.317 -18.346  1.00  0.00     0.000 C 
BRANCH   4   5
ATOM      5  C   UNL     1      29.334  -0.013 -19.003  1.00  0.00     0.000 C 
BRANCH   5   6
ATOM      6  C   UNL     1      29.016  -1.517 -19.113  1.00  0.00     0.006 C 
BRANCH   6   7
ATOM      7  C   UNL     1      27.719  -1.835 -19.874  1.00  0.00     0.053 C 
BRANCH   7   8
ATOM      8  C   UNL     1      27.702  -3.240 -20.392  1.00  0.00     0.041 C 
ATOM      9  O   UNL     1      28.647  -3.663 -21.109  1.00  0.00    -0.550 OA
ATOM     10  O   UNL     1      26.626  -4.073 -20.112  1.00  0.00    -0.550 OA
ENDBRANCH   7   8
ENDBRANCH   6   7
ENDBRANCH   5   6
ENDBRANCH   4   5
ENDBRANCH   3   4
ENDBRANCH   2   3
ENDBRANCH   1   2
BRANCH   1  11
ATOM     11  C   UNL     1      28.812  -1.230 -15.485  1.00  0.00    -0.031 C 
ATOM     12  C   UNL     1      27.540  -0.845 -15.669  1.00  0.00    -0.027 C 
BRANCH  12  13
ATOM     13  C   UNL     1      26.554  -1.721 -16.388  1.00  0.00     0.054 C 
BRANCH  13  14
ATOM     14  C   UNL     1      25.386  -0.907 -16.867  1.00  0.00    -0.027 C 
ATOM     15  C   UNL     1      24.427  -0.488 -16.027  1.00  0.00    -0.031 C 
BRANCH  15  16
ATOM     16  C   UNL     1      23.291   0.375 -16.500  1.00  0.00     0.027 C 
BRANCH  16  17
ATOM     17  C   UNL     1      23.506   0.815 -17.956  1.00  0.00     0.004 C 
BRANCH  17  18
ATOM     18  C   UNL     1      22.679  -0.008 -18.959  1.00  0.00     0.000 C 
BRANCH  18  19
ATOM     19  C   UNL     1      23.502  -0.714 -20.052  1.00  0.00    -0.003 C 
ATOM     20  C   UNL     1      23.537  -2.233 -19.889  1.00  0.00     0.004 C 
ENDBRANCH  18  19
ENDBRANCH  17  18
ENDBRANCH  16  17
ENDBRANCH  15  16
ENDBRANCH  13  14
ENDBRANCH  12  13
ENDBRANCH   1  11
TORSDOF 14
ENDMDL
MODEL 9
REMARK VINA RESULT:    -5.761      1.477      1.732
REMARK INTER + INTRA:         -11.295
REMARK INTER:                 -10.463
REMARK INTRA:                  -0.832
REMARK UNBOUND:                -0.819
REMARK SMILES CCCCCC=CCC=CCCCCCCCC(=O)[O-]
REMARK SMILES IDX 11 1 12 2 13 3 14 4 15 5 16 6 17 7 18 8 19 9 20 10 10 11
REMARK SMILES IDX 9 12 8 13 7 14 6 15 5 16 4 17 3 18 2 19 1 20
REMARK H PARENT
REMARK Flexibility Score: inf
ROOT
ATOM      1  C   UNL     1      25.417  -1.570 -16.551  1.00  0.00     0.027 C 
ENDROOT
BRANCH   1   2
ATOM      2  C   UNL     1      24.950  -1.897 -17.974  1.00  0.00     0.004 C 
BRANCH   2   3
ATOM      3  C   UNL     1      26.130  -2.097 -18.941  1.00  0.00     0.000 C 
BRANCH   3   4
ATOM      4  C   UNL     1      27.458  -1.567 -18.361  1.00  0.00     0.000 C 
BRANCH   4   5
ATOM      5  C   UNL     1      28.631  -1.608 -19.359  1.00  0.00     0.000 C 
BRANCH   5   6
ATOM      6  C   UNL     1      29.895  -0.852 -18.906  1.00  0.00     0.006 C 
BRANCH   6   7
ATOM      7  C   UNL     1      29.658   0.147 -17.763  1.00  0.00     0.053 C 
BRANCH   7   8
ATOM      8  C   UNL     1      30.339  -0.275 -16.498  1.00  0.00     0.041 C 
ATOM      9  O   UNL     1      30.271   0.448 -15.469  1.00  0.00    -0.550 OA
ATOM     10  O   UNL     1      31.079  -1.451 -16.465  1.00  0.00    -0.550 OA
ENDBRANCH   7   8
ENDBRANCH   6   7
ENDBRANCH   5   6
ENDBRANCH   4   5
ENDBRANCH   3   4
ENDBRANCH   2   3
ENDBRANCH   1   2
BRANCH   1  11
ATOM     11  C   UNL     1      24.711  -0.359 -16.002  1.00  0.00    -0.031 C 
ATOM     12  C   UNL     1      23.566   0.093 -16.537  1.00  0.00    -0.027 C 
BRANCH  12  13
ATOM     13  C   UNL     1      22.856   1.288 -15.968  1.00  0.00     0.054 C 
BRANCH  13  14
ATOM     14  C   UNL     1      21.477   1.403 -16.553  1.00  0.00    -0.027 C 
ATOM     15  C   UNL     1      20.396   0.942 -15.905  1.00  0.00    -0.031 C 
BRANCH  15  16
ATOM     16  C   UNL     1      19.013   1.111 -16.467  1.00  0.00     0.027 C 
BRANCH  16  17
ATOM     17  C   UNL     1      17.964   0.469 -15.545  1.00  0.00     0.004 C 
BRANCH  17  18
ATOM     18  C   UNL     1      16.957  -0.413 -16.305  1.00  0.00     0.000 C 
BRANCH  18  19
ATOM     19  C   UNL     1      15.641   0.289 -16.688  1.00  0.00    -0.003 C 
ATOM     20  C   UNL     1      14.989   1.018 -15.513  1.00  0.00     0.004 C 
ENDBRANCH  18  19
ENDBRANCH  17  18
ENDBRANCH  16  17
ENDBRANCH  15  16
ENDBRANCH  13  14
ENDBRANCH  12  13
ENDBRANCH   1  11
TORSDOF 14
ENDMDL
