MODEL 1
REMARK VINA RESULT:    -4.069      0.000      0.000
REMARK INTER + INTRA:          -4.330
REMARK INTER:                  -4.307
REMARK INTRA:                  -0.023
REMARK UNBOUND:                -0.023
REMARK SMILES O=C([O-])c1cccnc1
REMARK SMILES IDX 4 1 5 2 9 3 6 4 8 5 7 6 2 7 1 8 3 9
REMARK H PARENT
REMARK Flexibility Score: inf
ROOT
ATOM      1  C   UNL     1      12.823 -30.671  22.798  1.00  0.00     0.016 A 
ATOM      2  C   UNL     1      13.454 -30.094  23.911  1.00  0.00     0.013 A 
ATOM      3  C   UNL     1      11.571 -30.167  22.402  1.00  0.00     0.120 A 
ATOM      4  C   UNL     1      12.840 -29.045  24.599  1.00  0.00     0.021 A 
ATOM      5  N   UNL     1      10.996 -29.145  23.091  1.00  0.00    -0.264 NA
ATOM      6  C   UNL     1      11.598 -28.580  24.170  1.00  0.00     0.111 A 
ENDROOT
BRANCH   1   7
ATOM      7  C   UNL     1      13.464 -31.782  22.060  1.00  0.00     0.073 C 
ATOM      8  O   UNL     1      14.338 -32.500  22.616  1.00  0.00    -0.545 OA
ATOM      9  O   UNL     1      13.110 -32.049  20.743  1.00  0.00    -0.545 OA
ENDBRANCH   1   7
TORSDOF 1
ENDMDL
MODEL 2
REMARK VINA RESULT:    -4.018     11.482     11.952
REMARK INTER + INTRA:          -4.276
REMARK INTER:                  -4.260
REMARK INTRA:                  -0.016
REMARK UNBOUND:                -0.023
REMARK SMILES O=C([O-])c1cccnc1
REMARK SMILES IDX 4 1 5 2 9 3 6 4 8 5 7 6 2 7 1 8 3 9
REMARK H PARENT
REMARK Flexibility Score: inf
ROOT
ATOM      1  C   UNL     1      22.584 -25.178  20.717  1.00  0.00     0.016 A 
ATOM      2  C   UNL     1      23.494 -24.744  19.741  1.00  0.00     0.013 A 
ATOM      3  C   UNL     1      22.572 -24.521  21.960  1.00  0.00     0.120 A 
ATOM      4  C   UNL     1      24.362 -23.684  20.013  1.00  0.00     0.021 A 
ATOM      5  N   UNL     1      23.427 -23.491  22.199  1.00  0.00    -0.264 NA
ATOM      6  C   UNL     1      24.313 -23.064  21.261  1.00  0.00     0.111 A 
ENDROOT
BRANCH   1   7
ATOM      7  C   UNL     1      21.660 -26.300  20.440  1.00  0.00     0.073 C 
ATOM      8  O   UNL     1      20.491 -26.080  20.025  1.00  0.00    -0.545 OA
ATOM      9  O   UNL     1      22.070 -27.614  20.635  1.00  0.00    -0.545 OA
ENDBRANCH   1   7
TORSDOF 1
ENDMDL
MODEL 3
REMARK VINA RESULT:    -4.002      9.311     10.235
REMARK INTER + INTRA:          -4.259
REMARK INTER:                  -4.241
REMARK INTRA:                  -0.018
REMARK UNBOUND:                -0.023
REMARK SMILES O=C([O-])c1cccnc1
REMARK SMILES IDX 4 1 5 2 9 3 6 4 8 5 7 6 2 7 1 8 3 9
REMARK H PARENT
REMARK Flexibility Score: inf
ROOT
ATOM      1  C   UNL     1      17.272 -37.817  27.093  1.00  0.00     0.016 A 
ATOM      2  C   UNL     1      16.049 -38.488  27.249  1.00  0.00     0.013 A 
ATOM      3  C   UNL     1      18.172 -37.806  28.174  1.00  0.00     0.120 A 
ATOM      4  C   UNL     1      15.748 -39.125  28.454  1.00  0.00     0.021 A 
ATOM      5  N   UNL     1      17.853 -38.434  29.337  1.00  0.00    -0.264 NA
ATOM      6  C   UNL     1      16.672 -39.086  29.498  1.00  0.00     0.111 A 
ENDROOT
BRANCH   1   7
ATOM      7  C   UNL     1      17.603 -37.138  25.821  1.00  0.00     0.073 C 
ATOM      8  O   UNL     1      16.874 -36.209  25.382  1.00  0.00    -0.545 OA
ATOM      9  O   UNL     1      18.723 -37.518  25.091  1.00  0.00    -0.545 OA
ENDBRANCH   1   7
TORSDOF 1
ENDMDL
MODEL 4
REMARK VINA RESULT:    -3.964      2.862      3.835
REMARK INTER + INTRA:          -4.219
REMARK INTER:                  -4.197
REMARK INTRA:                  -0.021
REMARK UNBOUND:                -0.023
REMARK SMILES O=C([O-])c1cccnc1
REMARK SMILES IDX 4 1 5 2 9 3 6 4 8 5 7 6 2 7 1 8 3 9
REMARK H PARENT
REMARK Flexibility Score: inf
ROOT
ATOM      1  C   UNL     1      13.449 -31.336  23.220  1.00  0.00     0.016 A 
ATOM      2  C   UNL     1      14.029 -32.065  24.270  1.00  0.00     0.013 A 
ATOM      3  C   UNL     1      13.634 -31.797  21.904  1.00  0.00     0.120 A 
ATOM      4  C   UNL     1      14.769 -33.218  23.998  1.00  0.00     0.021 A 
ATOM      5  N   UNL     1      14.360 -32.922  21.667  1.00  0.00    -0.264 NA
ATOM      6  C   UNL     1      14.926 -33.635  22.677  1.00  0.00     0.111 A 
ENDROOT
BRANCH   1   7
ATOM      7  C   UNL     1      12.663 -30.114  23.495  1.00  0.00     0.073 C 
ATOM      8  O   UNL     1      12.967 -29.359  24.457  1.00  0.00    -0.545 OA
ATOM      9  O   UNL     1      11.576 -29.781  22.695  1.00  0.00    -0.545 OA
ENDBRANCH   1   7
TORSDOF 1
ENDMDL
MODEL 5
REMARK VINA RESULT:    -3.948      2.754      4.170
REMARK INTER + INTRA:          -4.201
REMARK INTER:                  -4.179
REMARK INTRA:                  -0.022
REMARK UNBOUND:                -0.023
REMARK SMILES O=C([O-])c1cccnc1
REMARK SMILES IDX 4 1 5 2 9 3 6 4 8 5 7 6 2 7 1 8 3 9
REMARK H PARENT
REMARK Flexibility Score: inf
ROOT
ATOM      1  C   UNL     1      13.408 -31.452  22.614  1.00  0.00     0.016 A 
ATOM      2  C   UNL     1      13.222 -31.693  21.245  1.00  0.00     0.013 A 
ATOM      3  C   UNL     1      14.254 -32.313  23.337  1.00  0.00     0.120 A 
ATOM      4  C   UNL     1      13.868 -32.766  20.627  1.00  0.00     0.021 A 
ATOM      5  N   UNL     1      14.871 -33.351  22.710  1.00  0.00    -0.264 NA
ATOM      6  C   UNL     1      14.697 -33.593  21.384  1.00  0.00     0.111 A 
ENDROOT
BRANCH   1   7
ATOM      7  C   UNL     1      12.729 -30.319  23.279  1.00  0.00     0.073 C 
ATOM      8  O   UNL     1      13.181 -29.843  24.355  1.00  0.00    -0.545 OA
ATOM      9  O   UNL     1      11.581 -29.763  22.726  1.00  0.00    -0.545 OA
ENDBRANCH   1   7
TORSDOF 1
ENDMDL
MODEL 6
REMARK VINA RESULT:    -3.944     10.796     11.205
REMARK INTER + INTRA:          -4.198
REMARK INTER:                  -4.177
REMARK INTRA:                  -0.021
REMARK UNBOUND:                -0.023
REMARK SMILES O=C([O-])c1cccnc1
REMARK SMILES IDX 4 1 5 2 9 3 6 4 8 5 7 6 2 7 1 8 3 9
REMARK H PARENT
REMARK Flexibility Score: inf
ROOT
ATOM      1  C   UNL     1      22.297 -25.246  20.429  1.00  0.00     0.016 A 
ATOM      2  C   UNL     1      21.106 -25.952  20.201  1.00  0.00     0.013 A 
ATOM      3  C   UNL     1      22.455 -24.579  21.658  1.00  0.00     0.120 A 
ATOM      4  C   UNL     1      20.110 -25.981  21.179  1.00  0.00     0.021 A 
ATOM      5  N   UNL     1      21.469 -24.623  22.593  1.00  0.00    -0.264 NA
ATOM      6  C   UNL     1      20.311 -25.303  22.381  1.00  0.00     0.111 A 
ENDROOT
BRANCH   1   7
ATOM      7  C   UNL     1      23.360 -25.208  19.401  1.00  0.00     0.073 C 
ATOM      8  O   UNL     1      24.033 -24.159  19.214  1.00  0.00    -0.545 OA
ATOM      9  O   UNL     1      23.630 -26.329  18.626  1.00  0.00    -0.545 OA
ENDBRANCH   1   7
TORSDOF 1
ENDMDL
MODEL 7
REMARK VINA RESULT:    -3.921     10.629     11.165
REMARK INTER + INTRA:          -4.173
REMARK INTER:                  -4.156
REMARK INTRA:                  -0.016
REMARK UNBOUND:                -0.023
REMARK SMILES O=C([O-])c1cccnc1
REMARK SMILES IDX 4 1 5 2 9 3 6 4 8 5 7 6 2 7 1 8 3 9
REMARK H PARENT
REMARK Flexibility Score: inf
ROOT
ATOM      1  C   UNL     1      22.371 -26.025  20.478  1.00  0.00     0.016 A 
ATOM      2  C   UNL     1      20.994 -25.955  20.216  1.00  0.00     0.013 A 
ATOM      3  C   UNL     1      22.883 -27.201  21.056  1.00  0.00     0.120 A 
ATOM      4  C   UNL     1      20.165 -27.034  20.528  1.00  0.00     0.021 A 
ATOM      5  N   UNL     1      22.053 -28.238  21.350  1.00  0.00    -0.264 NA
ATOM      6  C   UNL     1      20.718 -28.179  21.101  1.00  0.00     0.111 A 
ENDROOT
BRANCH   1   7
ATOM      7  C   UNL     1      23.259 -24.889  20.152  1.00  0.00     0.073 C 
ATOM      8  O   UNL     1      23.644 -24.695  18.968  1.00  0.00    -0.545 OA
ATOM      9  O   UNL     1      23.683 -24.018  21.149  1.00  0.00    -0.545 OA
ENDBRANCH   1   7
TORSDOF 1
ENDMDL
MODEL 8
REMARK VINA RESULT:    -3.855      1.229      2.201
REMARK INTER + INTRA:          -4.104
REMARK INTER:                  -4.080
REMARK INTRA:                  -0.023
REMARK UNBOUND:                -0.023
REMARK SMILES O=C([O-])c1cccnc1
REMARK SMILES IDX 4 1 5 2 9 3 6 4 8 5 7 6 2 7 1 8 3 9
REMARK H PARENT
REMARK Flexibility Score: inf
ROOT
ATOM      1  C   UNL     1      13.153 -30.741  23.262  1.00  0.00     0.016 A 
ATOM      2  C   UNL     1      12.161 -30.929  22.287  1.00  0.00     0.013 A 
ATOM      3  C   UNL     1      12.997 -29.686  24.180  1.00  0.00     0.120 A 
ATOM      4  C   UNL     1      11.051 -30.082  22.242  1.00  0.00     0.021 A 
ATOM      5  N   UNL     1      11.906 -28.876  24.114  1.00  0.00    -0.264 NA
ATOM      6  C   UNL     1      10.941 -29.050  23.173  1.00  0.00     0.111 A 
ENDROOT
BRANCH   1   7
ATOM      7  C   UNL     1      14.332 -31.631  23.319  1.00  0.00     0.073 C 
ATOM      8  O   UNL     1      14.327 -32.741  22.722  1.00  0.00    -0.545 OA
ATOM      9  O   UNL     1      15.464 -31.256  24.034  1.00  0.00    -0.545 OA
ENDBRANCH   1   7
TORSDOF 1
ENDMDL
MODEL 9
REMARK VINA RESULT:    -3.776      3.089      4.068
REMARK INTER + INTRA:          -4.020
REMARK INTER:                  -3.998
REMARK INTRA:                  -0.022
REMARK UNBOUND:                -0.023
REMARK SMILES O=C([O-])c1cccnc1
REMARK SMILES IDX 4 1 5 2 9 3 6 4 8 5 7 6 2 7 1 8 3 9
REMARK H PARENT
REMARK Flexibility Score: inf
ROOT
ATOM      1  C   UNL     1      14.995 -33.848  22.300  1.00  0.00     0.016 A 
ATOM      2  C   UNL     1      14.948 -33.694  23.695  1.00  0.00     0.013 A 
ATOM      3  C   UNL     1      14.307 -32.916  21.501  1.00  0.00     0.120 A 
ATOM      4  C   UNL     1      14.232 -32.637  24.261  1.00  0.00     0.021 A 
ATOM      5  N   UNL     1      13.617 -31.896  22.079  1.00  0.00    -0.264 NA
ATOM      6  C   UNL     1      13.565 -31.739  23.428  1.00  0.00     0.111 A 
ENDROOT
BRANCH   1   7
ATOM      7  C   UNL     1      15.750 -34.963  21.690  1.00  0.00     0.073 C 
ATOM      8  O   UNL     1      15.422 -35.417  20.561  1.00  0.00    -0.545 OA
ATOM      9  O   UNL     1      16.835 -35.525  22.353  1.00  0.00    -0.545 OA
ENDBRANCH   1   7
TORSDOF 1
ENDMDL
