MODEL 1
REMARK VINA RESULT:    -3.242      0.000      0.000
REMARK INTER + INTRA:          -4.094
REMARK INTER:                  -4.000
REMARK INTRA:                  -0.094
REMARK UNBOUND:                -0.094
REMARK SMILES CCCCCC(=O)[O-]
REMARK SMILES IDX 4 1 5 2 6 3 7 4 8 5 3 6 2 7 1 8
REMARK H PARENT
REMARK Flexibility Score: inf
ROOT
ATOM      1  C   UNL     1      20.627  -6.176  42.915  1.00  0.00     0.006 C 
ENDROOT
BRANCH   1   2
ATOM      2  C   UNL     1      19.346  -5.823  43.682  1.00  0.00     0.053 C 
BRANCH   2   3
ATOM      3  C   UNL     1      19.150  -4.341  43.782  1.00  0.00     0.041 C 
ATOM      4  O   UNL     1      18.371  -3.750  42.990  1.00  0.00    -0.550 OA
ATOM      5  O   UNL     1      19.853  -3.609  44.731  1.00  0.00    -0.550 OA
ENDBRANCH   2   3
ENDBRANCH   1   2
BRANCH   1   6
ATOM      6  C   UNL     1      21.217  -7.523  43.357  1.00  0.00     0.000 C 
BRANCH   6   7
ATOM      7  C   UNL     1      20.106  -8.504  43.751  1.00  0.00    -0.003 C 
ATOM      8  C   UNL     1      20.442  -9.925  43.305  1.00  0.00     0.004 C 
ENDBRANCH   6   7
ENDBRANCH   1   6
TORSDOF 4
ENDMDL
MODEL 2
REMARK VINA RESULT:    -3.237      1.243      1.707
REMARK INTER + INTRA:          -4.089
REMARK INTER:                  -3.835
REMARK INTRA:                  -0.254
REMARK UNBOUND:                -0.094
REMARK SMILES CCCCCC(=O)[O-]
REMARK SMILES IDX 4 1 5 2 6 3 7 4 8 5 3 6 2 7 1 8
REMARK H PARENT
REMARK Flexibility Score: inf
ROOT
ATOM      1  C   UNL     1      20.784  -6.109  43.243  1.00  0.00     0.006 C 
ENDROOT
BRANCH   1   2
ATOM      2  C   UNL     1      19.911  -5.091  42.497  1.00  0.00     0.053 C 
BRANCH   2   3
ATOM      3  C   UNL     1      19.186  -4.183  43.443  1.00  0.00     0.041 C 
ATOM      4  O   UNL     1      18.049  -3.734  43.144  1.00  0.00    -0.550 OA
ATOM      5  O   UNL     1      19.781  -3.810  44.641  1.00  0.00    -0.550 OA
ENDBRANCH   2   3
ENDBRANCH   1   2
BRANCH   1   6
ATOM      6  C   UNL     1      20.023  -7.404  43.561  1.00  0.00     0.000 C 
BRANCH   6   7
ATOM      7  C   UNL     1      19.741  -7.518  45.063  1.00  0.00    -0.003 C 
ATOM      8  C   UNL     1      18.276  -7.222  45.373  1.00  0.00     0.004 C 
ENDBRANCH   6   7
ENDBRANCH   1   6
TORSDOF 4
ENDMDL
MODEL 3
REMARK VINA RESULT:    -3.130      2.131      2.276
REMARK INTER + INTRA:          -3.956
REMARK INTER:                  -3.711
REMARK INTRA:                  -0.245
REMARK UNBOUND:                -0.094
REMARK SMILES CCCCCC(=O)[O-]
REMARK SMILES IDX 4 1 5 2 6 3 7 4 8 5 3 6 2 7 1 8
REMARK H PARENT
REMARK Flexibility Score: inf
ROOT
ATOM      1  C   UNL     1      20.947  -6.913  43.266  1.00  0.00     0.006 C 
ENDROOT
BRANCH   1   2
ATOM      2  C   UNL     1      19.936  -6.050  44.032  1.00  0.00     0.053 C 
BRANCH   2   3
ATOM      3  C   UNL     1      18.786  -6.864  44.543  1.00  0.00     0.041 C 
ATOM      4  O   UNL     1      18.008  -7.438  43.737  1.00  0.00    -0.550 OA
ATOM      5  O   UNL     1      18.557  -6.962  45.909  1.00  0.00    -0.550 OA
ENDBRANCH   2   3
ENDBRANCH   1   2
BRANCH   1   6
ATOM      6  C   UNL     1      21.512  -8.050  44.130  1.00  0.00     0.000 C 
BRANCH   6   7
ATOM      7  C   UNL     1      21.710  -9.323  43.299  1.00  0.00    -0.003 C 
ATOM      8  C   UNL     1      20.409 -10.113  43.182  1.00  0.00     0.004 C 
ENDBRANCH   6   7
ENDBRANCH   1   6
TORSDOF 4
ENDMDL
MODEL 4
REMARK VINA RESULT:    -3.096      2.749      4.228
REMARK INTER + INTRA:          -3.914
REMARK INTER:                  -3.737
REMARK INTRA:                  -0.176
REMARK UNBOUND:                -0.094
REMARK SMILES CCCCCC(=O)[O-]
REMARK SMILES IDX 4 1 5 2 6 3 7 4 8 5 3 6 2 7 1 8
REMARK H PARENT
REMARK Flexibility Score: inf
ROOT
ATOM      1  C   UNL     1      20.642  -5.954  42.879  1.00  0.00     0.006 C 
ENDROOT
BRANCH   1   2
ATOM      2  C   UNL     1      21.256  -7.305  43.271  1.00  0.00     0.053 C 
BRANCH   2   3
ATOM      3  C   UNL     1      20.203  -8.313  43.617  1.00  0.00     0.041 C 
ATOM      4  O   UNL     1      20.296  -9.496  43.198  1.00  0.00    -0.550 OA
ATOM      5  O   UNL     1      19.103  -7.936  44.376  1.00  0.00    -0.550 OA
ENDBRANCH   2   3
ENDBRANCH   1   2
BRANCH   1   6
ATOM      6  C   UNL     1      20.954  -4.855  43.905  1.00  0.00     0.000 C 
BRANCH   6   7
ATOM      7  C   UNL     1      19.689  -4.068  44.266  1.00  0.00    -0.003 C 
ATOM      8  C   UNL     1      18.635  -4.185  43.169  1.00  0.00     0.004 C 
ENDBRANCH   6   7
ENDBRANCH   1   6
TORSDOF 4
ENDMDL
MODEL 5
REMARK VINA RESULT:    -3.095      4.000      5.010
REMARK INTER + INTRA:          -3.913
REMARK INTER:                  -3.808
REMARK INTRA:                  -0.105
REMARK UNBOUND:                -0.094
REMARK SMILES CCCCCC(=O)[O-]
REMARK SMILES IDX 4 1 5 2 6 3 7 4 8 5 3 6 2 7 1 8
REMARK H PARENT
REMARK Flexibility Score: inf
ROOT
ATOM      1  C   UNL     1      21.635  -2.854  45.141  1.00  0.00     0.006 C 
ENDROOT
BRANCH   1   2
ATOM      2  C   UNL     1      22.194  -2.017  43.982  1.00  0.00     0.053 C 
BRANCH   2   3
ATOM      3  C   UNL     1      22.751  -0.710  44.460  1.00  0.00     0.041 C 
ATOM      4  O   UNL     1      22.364   0.370  43.943  1.00  0.00    -0.550 OA
ATOM      5  O   UNL     1      23.721  -0.690  45.454  1.00  0.00    -0.550 OA
ENDBRANCH   2   3
ENDBRANCH   1   2
BRANCH   1   6
ATOM      6  C   UNL     1      20.255  -3.443  44.819  1.00  0.00     0.000 C 
BRANCH   6   7
ATOM      7  C   UNL     1      20.291  -4.238  43.508  1.00  0.00    -0.003 C 
ATOM      8  C   UNL     1      19.099  -3.891  42.620  1.00  0.00     0.004 C 
ENDBRANCH   6   7
ENDBRANCH   1   6
TORSDOF 4
ENDMDL
MODEL 6
REMARK VINA RESULT:    -3.093      5.383      5.858
REMARK INTER + INTRA:          -3.910
REMARK INTER:                  -3.821
REMARK INTRA:                  -0.089
REMARK UNBOUND:                -0.094
REMARK SMILES CCCCCC(=O)[O-]
REMARK SMILES IDX 4 1 5 2 6 3 7 4 8 5 3 6 2 7 1 8
REMARK H PARENT
REMARK Flexibility Score: inf
ROOT
ATOM      1  C   UNL     1      20.517  -7.398  48.521  1.00  0.00     0.006 C 
ENDROOT
BRANCH   1   2
ATOM      2  C   UNL     1      19.813  -6.350  47.649  1.00  0.00     0.053 C 
BRANCH   2   3
ATOM      3  C   UNL     1      19.572  -6.856  46.259  1.00  0.00     0.041 C 
ATOM      4  O   UNL     1      20.539  -7.050  45.479  1.00  0.00    -0.550 OA
ATOM      5  O   UNL     1      18.274  -7.083  45.818  1.00  0.00    -0.550 OA
ENDBRANCH   2   3
ENDBRANCH   1   2
BRANCH   1   6
ATOM      6  C   UNL     1      20.190  -7.229  50.011  1.00  0.00     0.000 C 
BRANCH   6   7
ATOM      7  C   UNL     1      21.444  -7.421  50.873  1.00  0.00    -0.003 C 
ATOM      8  C   UNL     1      22.265  -6.136  50.945  1.00  0.00     0.004 C 
ENDBRANCH   6   7
ENDBRANCH   1   6
TORSDOF 4
ENDMDL
MODEL 7
REMARK VINA RESULT:    -3.058      2.329      3.698
REMARK INTER + INTRA:          -3.867
REMARK INTER:                  -3.613
REMARK INTRA:                  -0.254
REMARK UNBOUND:                -0.094
REMARK SMILES CCCCCC(=O)[O-]
REMARK SMILES IDX 4 1 5 2 6 3 7 4 8 5 3 6 2 7 1 8
REMARK H PARENT
REMARK Flexibility Score: inf
ROOT
ATOM      1  C   UNL     1      21.057  -6.646  43.283  1.00  0.00     0.006 C 
ENDROOT
BRANCH   1   2
ATOM      2  C   UNL     1      19.909  -7.617  43.587  1.00  0.00     0.053 C 
BRANCH   2   3
ATOM      3  C   UNL     1      19.379  -7.432  44.976  1.00  0.00     0.041 C 
ATOM      4  O   UNL     1      18.162  -7.172  45.161  1.00  0.00    -0.550 OA
ATOM      5  O   UNL     1      20.238  -7.517  46.065  1.00  0.00    -0.550 OA
ENDBRANCH   2   3
ENDBRANCH   1   2
BRANCH   1   6
ATOM      6  C   UNL     1      20.637  -5.179  43.450  1.00  0.00     0.000 C 
BRANCH   6   7
ATOM      7  C   UNL     1      19.596  -4.784  42.396  1.00  0.00    -0.003 C 
ATOM      8  C   UNL     1      18.426  -4.036  43.029  1.00  0.00     0.004 C 
ENDBRANCH   6   7
ENDBRANCH   1   6
TORSDOF 4
ENDMDL
MODEL 8
REMARK VINA RESULT:    -3.028      6.256      6.852
REMARK INTER + INTRA:          -3.830
REMARK INTER:                  -3.602
REMARK INTRA:                  -0.229
REMARK UNBOUND:                -0.094
REMARK SMILES CCCCCC(=O)[O-]
REMARK SMILES IDX 4 1 5 2 6 3 7 4 8 5 3 6 2 7 1 8
REMARK H PARENT
REMARK Flexibility Score: inf
ROOT
ATOM      1  C   UNL     1      20.584  -6.975  50.390  1.00  0.00     0.006 C 
ENDROOT
BRANCH   1   2
ATOM      2  C   UNL     1      20.339  -7.586  49.004  1.00  0.00     0.053 C 
BRANCH   2   3
ATOM      3  C   UNL     1      20.413  -6.552  47.921  1.00  0.00     0.041 C 
ATOM      4  O   UNL     1      21.338  -5.699  47.921  1.00  0.00    -0.550 OA
ATOM      5  O   UNL     1      19.439  -6.514  46.931  1.00  0.00    -0.550 OA
ENDBRANCH   2   3
ENDBRANCH   1   2
BRANCH   1   6
ATOM      6  C   UNL     1      21.744  -7.657  51.129  1.00  0.00     0.000 C 
BRANCH   6   7
ATOM      7  C   UNL     1      23.042  -6.856  50.967  1.00  0.00    -0.003 C 
ATOM      8  C   UNL     1      22.803  -5.366  51.195  1.00  0.00     0.004 C 
ENDBRANCH   6   7
ENDBRANCH   1   6
TORSDOF 4
ENDMDL
