MODEL 1
REMARK VINA RESULT:    -3.709      0.000      0.000
REMARK INTER + INTRA:          -6.154
REMARK INTER:                  -5.660
REMARK INTRA:                  -0.494
REMARK UNBOUND:                -0.494
REMARK SMILES CCCCCCCCCCC(=O)[O-]
REMARK SMILES IDX 7 1 8 2 9 3 10 4 11 5 12 6 13 7 6 8 5 9 4 10 3 11 2 12 1 13
REMARK H PARENT
REMARK Flexibility Score: inf
ROOT
ATOM      1  C   UNL     1      58.186   2.963  95.988  1.00  0.00     0.000 C 
ENDROOT
BRANCH   1   2
ATOM      2  C   UNL     1      58.572   4.003  97.051  1.00  0.00     0.000 C 
BRANCH   2   3
ATOM      3  C   UNL     1      58.605   5.437  96.494  1.00  0.00     0.006 C 
BRANCH   3   4
ATOM      4  C   UNL     1      60.038   5.952  96.306  1.00  0.00     0.053 C 
BRANCH   4   5
ATOM      5  C   UNL     1      60.181   6.753  95.048  1.00  0.00     0.041 C 
ATOM      6  O   UNL     1      59.431   6.527  94.062  1.00  0.00    -0.550 OA
ATOM      7  O   UNL     1      61.124   7.771  94.976  1.00  0.00    -0.550 OA
ENDBRANCH   4   5
ENDBRANCH   3   4
ENDBRANCH   2   3
ENDBRANCH   1   2
BRANCH   1   8
ATOM      8  C   UNL     1      58.534   1.528  96.408  1.00  0.00     0.000 C 
BRANCH   8   9
ATOM      9  C   UNL     1      59.898   1.479  97.115  1.00  0.00    -0.000 C 
BRANCH   9  10
ATOM     10  C   UNL     1      60.668   0.180  96.827  1.00  0.00    -0.000 C 
BRANCH  10  11
ATOM     11  C   UNL     1      60.016  -0.664  95.722  1.00  0.00    -0.000 C 
BRANCH  11  12
ATOM     12  C   UNL     1      61.022  -0.983  94.610  1.00  0.00    -0.003 C 
ATOM     13  C   UNL     1      60.339  -1.658  93.425  1.00  0.00     0.004 C 
ENDBRANCH  11  12
ENDBRANCH  10  11
ENDBRANCH   9  10
ENDBRANCH   8   9
ENDBRANCH   1   8
TORSDOF 9
ENDMDL
MODEL 2
REMARK VINA RESULT:    -3.696      1.305      2.284
REMARK INTER + INTRA:          -6.136
REMARK INTER:                  -5.647
REMARK INTRA:                  -0.489
REMARK UNBOUND:                -0.494
REMARK SMILES CCCCCCCCCCC(=O)[O-]
REMARK SMILES IDX 7 1 8 2 9 3 10 4 11 5 12 6 13 7 6 8 5 9 4 10 3 11 2 12 1 13
REMARK H PARENT
REMARK Flexibility Score: inf
ROOT
ATOM      1  C   UNL     1      58.705   5.396  95.771  1.00  0.00     0.000 C 
ENDROOT
BRANCH   1   2
ATOM      2  C   UNL     1      59.927   5.636  96.671  1.00  0.00     0.000 C 
BRANCH   2   3
ATOM      3  C   UNL     1      61.040   6.427  95.961  1.00  0.00     0.006 C 
BRANCH   3   4
ATOM      4  C   UNL     1      61.032   7.911  96.351  1.00  0.00     0.053 C 
BRANCH   4   5
ATOM      5  C   UNL     1      60.795   8.797  95.166  1.00  0.00     0.041 C 
ATOM      6  O   UNL     1      60.346   8.315  94.093  1.00  0.00    -0.550 OA
ATOM      7  O   UNL     1      61.044  10.161  95.256  1.00  0.00    -0.550 OA
ENDBRANCH   4   5
ENDBRANCH   3   4
ENDBRANCH   2   3
ENDBRANCH   1   2
BRANCH   1   8
ATOM      8  C   UNL     1      58.140   3.974  95.905  1.00  0.00     0.000 C 
BRANCH   8   9
ATOM      9  C   UNL     1      58.890   3.186  96.990  1.00  0.00    -0.000 C 
BRANCH   9  10
ATOM     10  C   UNL     1      58.986   1.685  96.672  1.00  0.00    -0.000 C 
BRANCH  10  11
ATOM     11  C   UNL     1      60.395   1.118  96.901  1.00  0.00    -0.000 C 
BRANCH  11  12
ATOM     12  C   UNL     1      60.512  -0.304  96.341  1.00  0.00    -0.003 C 
ATOM     13  C   UNL     1      59.263  -0.692  95.556  1.00  0.00     0.004 C 
ENDBRANCH  11  12
ENDBRANCH  10  11
ENDBRANCH   9  10
ENDBRANCH   8   9
ENDBRANCH   1   8
TORSDOF 9
ENDMDL
MODEL 3
REMARK VINA RESULT:    -3.664      3.382      6.673
REMARK INTER + INTRA:          -6.086
REMARK INTER:                  -5.635
REMARK INTRA:                  -0.451
REMARK UNBOUND:                -0.494
REMARK SMILES CCCCCCCCCCC(=O)[O-]
REMARK SMILES IDX 7 1 8 2 9 3 10 4 11 5 12 6 13 7 6 8 5 9 4 10 3 11 2 12 1 13
REMARK H PARENT
REMARK Flexibility Score: inf
ROOT
ATOM      1  C   UNL     1      60.508   0.710  96.711  1.00  0.00     0.000 C 
ENDROOT
BRANCH   1   2
ATOM      2  C   UNL     1      59.926  -0.283  95.693  1.00  0.00     0.000 C 
BRANCH   2   3
ATOM      3  C   UNL     1      61.007  -0.925  94.806  1.00  0.00     0.006 C 
BRANCH   3   4
ATOM      4  C   UNL     1      60.458  -2.098  93.984  1.00  0.00     0.053 C 
BRANCH   4   5
ATOM      5  C   UNL     1      60.371  -1.763  92.525  1.00  0.00     0.041 C 
ATOM      6  O   UNL     1      60.620  -2.640  91.657  1.00  0.00    -0.550 OA
ATOM      7  O   UNL     1      59.987  -0.489  92.127  1.00  0.00    -0.550 OA
ENDBRANCH   4   5
ENDBRANCH   3   4
ENDBRANCH   2   3
ENDBRANCH   1   2
BRANCH   1   8
ATOM      8  C   UNL     1      59.501   1.794  97.125  1.00  0.00     0.000 C 
BRANCH   8   9
ATOM      9  C   UNL     1      58.441   2.003  96.032  1.00  0.00    -0.000 C 
BRANCH   9  10
ATOM     10  C   UNL     1      58.119   3.487  95.796  1.00  0.00    -0.000 C 
BRANCH  10  11
ATOM     11  C   UNL     1      58.991   4.426  96.644  1.00  0.00    -0.000 C 
BRANCH  11  12
ATOM     12  C   UNL     1      58.942   5.858  96.103  1.00  0.00    -0.003 C 
ATOM     13  C   UNL     1      60.327   6.500  96.114  1.00  0.00     0.004 C 
ENDBRANCH  11  12
ENDBRANCH  10  11
ENDBRANCH   9  10
ENDBRANCH   8   9
ENDBRANCH   1   8
TORSDOF 9
ENDMDL
MODEL 4
REMARK VINA RESULT:    -3.620      3.062      6.450
REMARK INTER + INTRA:          -6.019
REMARK INTER:                  -5.450
REMARK INTRA:                  -0.569
REMARK UNBOUND:                -0.494
REMARK SMILES CCCCCCCCCCC(=O)[O-]
REMARK SMILES IDX 7 1 8 2 9 3 10 4 11 5 12 6 13 7 6 8 5 9 4 10 3 11 2 12 1 13
REMARK H PARENT
REMARK Flexibility Score: inf
ROOT
ATOM      1  C   UNL     1      58.121   2.567  95.811  1.00  0.00     0.000 C 
ENDROOT
BRANCH   1   2
ATOM      2  C   UNL     1      58.849   2.094  97.079  1.00  0.00     0.000 C 
BRANCH   2   3
ATOM      3  C   UNL     1      60.073   1.216  96.768  1.00  0.00     0.006 C 
BRANCH   3   4
ATOM      4  C   UNL     1      59.674  -0.201  96.336  1.00  0.00     0.053 C 
BRANCH   4   5
ATOM      5  C   UNL     1      60.207  -0.540  94.977  1.00  0.00     0.041 C 
ATOM      6  O   UNL     1      61.125  -1.392  94.850  1.00  0.00    -0.550 OA
ATOM      7  O   UNL     1      59.668   0.065  93.849  1.00  0.00    -0.550 OA
ENDBRANCH   4   5
ENDBRANCH   3   4
ENDBRANCH   2   3
ENDBRANCH   1   2
BRANCH   1   8
ATOM      8  C   UNL     1      57.983   4.095  95.741  1.00  0.00     0.000 C 
BRANCH   8   9
ATOM      9  C   UNL     1      58.296   4.736  97.102  1.00  0.00    -0.000 C 
BRANCH   9  10
ATOM     10  C   UNL     1      58.901   6.143  96.969  1.00  0.00    -0.000 C 
BRANCH  10  11
ATOM     11  C   UNL     1      60.317   6.126  96.374  1.00  0.00    -0.000 C 
BRANCH  11  12
ATOM     12  C   UNL     1      60.705   7.510  95.843  1.00  0.00    -0.003 C 
ATOM     13  C   UNL     1      60.451   8.594  96.886  1.00  0.00     0.004 C 
ENDBRANCH  11  12
ENDBRANCH  10  11
ENDBRANCH   9  10
ENDBRANCH   8   9
ENDBRANCH   1   8
TORSDOF 9
ENDMDL
MODEL 5
REMARK VINA RESULT:    -3.617      4.188      6.045
REMARK INTER + INTRA:          -6.015
REMARK INTER:                  -4.716
REMARK INTRA:                  -1.298
REMARK UNBOUND:                -0.494
REMARK SMILES CCCCCCCCCCC(=O)[O-]
REMARK SMILES IDX 7 1 8 2 9 3 10 4 11 5 12 6 13 7 6 8 5 9 4 10 3 11 2 12 1 13
REMARK H PARENT
REMARK Flexibility Score: inf
ROOT
ATOM      1  C   UNL     1      61.125  -0.633  94.963  1.00  0.00     0.000 C 
ENDROOT
BRANCH   1   2
ATOM      2  C   UNL     1      60.495  -1.830  94.234  1.00  0.00     0.000 C 
BRANCH   2   3
ATOM      3  C   UNL     1      60.411  -1.620  92.712  1.00  0.00     0.006 C 
BRANCH   3   4
ATOM      4  C   UNL     1      59.717  -0.300  92.348  1.00  0.00     0.053 C 
BRANCH   4   5
ATOM      5  C   UNL     1      58.607  -0.509  91.364  1.00  0.00     0.041 C 
ATOM      6  O   UNL     1      58.487   0.254  90.370  1.00  0.00    -0.550 OA
ATOM      7  O   UNL     1      57.720  -1.567  91.530  1.00  0.00    -0.550 OA
ENDBRANCH   4   5
ENDBRANCH   3   4
ENDBRANCH   2   3
ENDBRANCH   1   2
BRANCH   1   8
ATOM      8  C   UNL     1      60.647  -0.506  96.417  1.00  0.00     0.000 C 
BRANCH   8   9
ATOM      9  C   UNL     1      60.135   0.914  96.704  1.00  0.00    -0.000 C 
BRANCH   9  10
ATOM     10  C   UNL     1      58.879   1.266  95.890  1.00  0.00    -0.000 C 
BRANCH  10  11
ATOM     11  C   UNL     1      57.675   0.379  96.243  1.00  0.00    -0.000 C 
BRANCH  11  12
ATOM     12  C   UNL     1      57.092  -0.278  94.987  1.00  0.00    -0.003 C 
ATOM     13  C   UNL     1      57.031  -1.796  95.135  1.00  0.00     0.004 C 
ENDBRANCH  11  12
ENDBRANCH  10  11
ENDBRANCH   9  10
ENDBRANCH   8   9
ENDBRANCH   1   8
TORSDOF 9
ENDMDL
MODEL 6
REMARK VINA RESULT:    -3.593      1.156      2.451
REMARK INTER + INTRA:          -5.978
REMARK INTER:                  -5.476
REMARK INTRA:                  -0.502
REMARK UNBOUND:                -0.494
REMARK SMILES CCCCCCCCCCC(=O)[O-]
REMARK SMILES IDX 7 1 8 2 9 3 10 4 11 5 12 6 13 7 6 8 5 9 4 10 3 11 2 12 1 13
REMARK H PARENT
REMARK Flexibility Score: inf
ROOT
ATOM      1  C   UNL     1      59.893   1.289  97.107  1.00  0.00     0.000 C 
ENDROOT
BRANCH   1   2
ATOM      2  C   UNL     1      58.868   1.749  96.058  1.00  0.00     0.000 C 
BRANCH   2   3
ATOM      3  C   UNL     1      58.245   3.114  96.397  1.00  0.00     0.006 C 
BRANCH   3   4
ATOM      4  C   UNL     1      59.234   4.035  97.125  1.00  0.00     0.053 C 
BRANCH   4   5
ATOM      5  C   UNL     1      59.457   5.314  96.376  1.00  0.00     0.041 C 
ATOM      6  O   UNL     1      58.526   5.824  95.699  1.00  0.00    -0.550 OA
ATOM      7  O   UNL     1      60.685   5.959  96.451  1.00  0.00    -0.550 OA
ENDBRANCH   4   5
ENDBRANCH   3   4
ENDBRANCH   2   3
ENDBRANCH   1   2
BRANCH   1   8
ATOM      8  C   UNL     1      60.714   0.077  96.642  1.00  0.00     0.000 C 
BRANCH   8   9
ATOM      9  C   UNL     1      59.951  -0.725  95.576  1.00  0.00    -0.000 C 
BRANCH   9  10
ATOM     10  C   UNL     1      60.841  -1.128  94.389  1.00  0.00    -0.000 C 
BRANCH  10  11
ATOM     11  C   UNL     1      60.152  -0.917  93.032  1.00  0.00    -0.000 C 
BRANCH  11  12
ATOM     12  C   UNL     1      60.205  -2.193  92.186  1.00  0.00    -0.003 C 
ATOM     13  C   UNL     1      60.726  -3.374  93.000  1.00  0.00     0.004 C 
ENDBRANCH  11  12
ENDBRANCH  10  11
ENDBRANCH   9  10
ENDBRANCH   8   9
ENDBRANCH   1   8
TORSDOF 9
ENDMDL
MODEL 7
REMARK VINA RESULT:    -3.583      5.033      6.296
REMARK INTER + INTRA:          -5.963
REMARK INTER:                  -4.809
REMARK INTRA:                  -1.154
REMARK UNBOUND:                -0.494
REMARK SMILES CCCCCCCCCCC(=O)[O-]
REMARK SMILES IDX 7 1 8 2 9 3 10 4 11 5 12 6 13 7 6 8 5 9 4 10 3 11 2 12 1 13
REMARK H PARENT
REMARK Flexibility Score: inf
ROOT
ATOM      1  C   UNL     1      58.052   1.303  95.306  1.00  0.00     0.000 C 
ENDROOT
BRANCH   1   2
ATOM      2  C   UNL     1      56.907   0.279  95.303  1.00  0.00     0.000 C 
BRANCH   2   3
ATOM      3  C   UNL     1      56.627  -0.301  96.701  1.00  0.00     0.006 C 
BRANCH   3   4
ATOM      4  C   UNL     1      56.897  -1.810  96.766  1.00  0.00     0.053 C 
BRANCH   4   5
ATOM      5  C   UNL     1      55.683  -2.609  96.402  1.00  0.00     0.041 C 
ATOM      6  O   UNL     1      54.548  -2.064  96.377  1.00  0.00    -0.550 OA
ATOM      7  O   UNL     1      55.809  -3.950  96.062  1.00  0.00    -0.550 OA
ENDBRANCH   4   5
ENDBRANCH   3   4
ENDBRANCH   2   3
ENDBRANCH   1   2
BRANCH   1   8
ATOM      8  C   UNL     1      58.733   1.429  96.677  1.00  0.00     0.000 C 
BRANCH   8   9
ATOM      9  C   UNL     1      60.198   0.974  96.606  1.00  0.00    -0.000 C 
BRANCH   9  10
ATOM     10  C   UNL     1      60.338  -0.545  96.412  1.00  0.00    -0.000 C 
BRANCH  10  11
ATOM     11  C   UNL     1      61.124  -0.911  95.144  1.00  0.00    -0.000 C 
BRANCH  11  12
ATOM     12  C   UNL     1      60.224  -1.625  94.129  1.00  0.00    -0.003 C 
ATOM     13  C   UNL     1      59.936  -0.733  92.925  1.00  0.00     0.004 C 
ENDBRANCH  11  12
ENDBRANCH  10  11
ENDBRANCH   9  10
ENDBRANCH   8   9
ENDBRANCH   1   8
TORSDOF 9
ENDMDL
MODEL 8
REMARK VINA RESULT:    -3.567      2.665      4.236
REMARK INTER + INTRA:          -5.938
REMARK INTER:                  -4.909
REMARK INTRA:                  -1.028
REMARK UNBOUND:                -0.494
REMARK SMILES CCCCCCCCCCC(=O)[O-]
REMARK SMILES IDX 7 1 8 2 9 3 10 4 11 5 12 6 13 7 6 8 5 9 4 10 3 11 2 12 1 13
REMARK H PARENT
REMARK Flexibility Score: inf
ROOT
ATOM      1  C   UNL     1      60.116  -0.603  95.860  1.00  0.00     0.000 C 
ENDROOT
BRANCH   1   2
ATOM      2  C   UNL     1      60.719   0.507  96.735  1.00  0.00     0.000 C 
BRANCH   2   3
ATOM      3  C   UNL     1      59.722   1.644  97.019  1.00  0.00     0.006 C 
BRANCH   3   4
ATOM      4  C   UNL     1      58.355   1.390  96.370  1.00  0.00     0.053 C 
BRANCH   4   5
ATOM      5  C   UNL     1      57.926   2.540  95.510  1.00  0.00     0.041 C 
ATOM      6  O   UNL     1      57.282   2.333  94.448  1.00  0.00    -0.550 OA
ATOM      7  O   UNL     1      58.212   3.843  95.898  1.00  0.00    -0.550 OA
ENDBRANCH   4   5
ENDBRANCH   3   4
ENDBRANCH   2   3
ENDBRANCH   1   2
BRANCH   1   8
ATOM      8  C   UNL     1      61.125  -1.180  94.856  1.00  0.00     0.000 C 
BRANCH   8   9
ATOM      9  C   UNL     1      60.485  -1.340  93.467  1.00  0.00    -0.000 C 
BRANCH   9  10
ATOM     10  C   UNL     1      59.458  -0.239  93.158  1.00  0.00    -0.000 C 
BRANCH  10  11
ATOM     11  C   UNL     1      58.038  -0.791  92.964  1.00  0.00    -0.000 C 
BRANCH  11  12
ATOM     12  C   UNL     1      57.969  -2.274  93.346  1.00  0.00    -0.003 C 
ATOM     13  C   UNL     1      57.029  -2.498  94.526  1.00  0.00     0.004 C 
ENDBRANCH  11  12
ENDBRANCH  10  11
ENDBRANCH   9  10
ENDBRANCH   8   9
ENDBRANCH   1   8
TORSDOF 9
ENDMDL
MODEL 9
REMARK VINA RESULT:    -3.494      3.965      5.962
REMARK INTER + INTRA:          -5.827
REMARK INTER:                  -4.737
REMARK INTRA:                  -1.090
REMARK UNBOUND:                -0.494
REMARK SMILES CCCCCCCCCCC(=O)[O-]
REMARK SMILES IDX 7 1 8 2 9 3 10 4 11 5 12 6 13 7 6 8 5 9 4 10 3 11 2 12 1 13
REMARK H PARENT
REMARK Flexibility Score: inf
ROOT
ATOM      1  C   UNL     1      60.436   0.846  96.751  1.00  0.00     0.000 C 
ENDROOT
BRANCH   1   2
ATOM      2  C   UNL     1      60.265  -0.595  96.246  1.00  0.00     0.000 C 
BRANCH   2   3
ATOM      3  C   UNL     1      61.125  -0.894  95.006  1.00  0.00     0.006 C 
BRANCH   3   4
ATOM      4  C   UNL     1      60.532  -2.021  94.149  1.00  0.00     0.053 C 
BRANCH   4   5
ATOM      5  C   UNL     1      60.448  -1.636  92.704  1.00  0.00     0.041 C 
ATOM      6  O   UNL     1      60.077  -0.478  92.376  1.00  0.00    -0.550 OA
ATOM      7  O   UNL     1      60.806  -2.548  91.719  1.00  0.00    -0.550 OA
ENDBRANCH   4   5
ENDBRANCH   3   4
ENDBRANCH   2   3
ENDBRANCH   1   2
BRANCH   1   8
ATOM      8  C   UNL     1      59.126   1.647  96.716  1.00  0.00     0.000 C 
BRANCH   8   9
ATOM      9  C   UNL     1      57.996   0.822  96.080  1.00  0.00    -0.000 C 
BRANCH   9  10
ATOM     10  C   UNL     1      57.768   1.171  94.600  1.00  0.00    -0.000 C 
BRANCH  10  11
ATOM     11  C   UNL     1      56.737   0.254  93.926  1.00  0.00    -0.000 C 
BRANCH  11  12
ATOM     12  C   UNL     1      56.873  -1.188  94.430  1.00  0.00    -0.003 C 
ATOM     13  C   UNL     1      56.828  -2.183  93.274  1.00  0.00     0.004 C 
ENDBRANCH  11  12
ENDBRANCH  10  11
ENDBRANCH   9  10
ENDBRANCH   8   9
ENDBRANCH   1   8
TORSDOF 9
ENDMDL
