MODEL 1
REMARK VINA RESULT:    -6.087      0.000      0.000
REMARK INTER + INTRA:          -6.087
REMARK INTER:                  -6.087
REMARK INTRA:                   0.000
REMARK UNBOUND:                 0.000
REMARK SMILES O=c1ccc2ccccc2o1
REMARK SMILES IDX 7 1 8 2 9 3 10 4 5 5 6 6 4 7 3 8 2 9 1 10 11 11
REMARK H PARENT
REMARK Flexibility Score: inf
ROOT
ATOM      1  C   UNL     1     -14.881 -26.548 -12.776  1.00  0.00     0.001 A 
ATOM      2  C   UNL     1     -13.654 -27.031 -12.309  1.00  0.00     0.004 A 
ATOM      3  C   UNL     1     -13.441 -28.408 -12.184  1.00  0.00     0.048 A 
ATOM      4  C   UNL     1     -14.457 -29.307 -12.526  1.00  0.00     0.138 A 
ATOM      5  C   UNL     1     -15.696 -28.820 -12.998  1.00  0.00     0.018 A 
ATOM      6  C   UNL     1     -15.903 -27.438 -13.121  1.00  0.00     0.012 A 
ATOM      7  C   UNL     1     -16.693 -29.742 -13.331  1.00  0.00     0.019 A 
ATOM      8  C   UNL     1     -16.436 -31.106 -13.191  1.00  0.00     0.094 A 
ATOM      9  C   UNL     1     -15.184 -31.516 -12.718  1.00  0.00     0.336 A 
ATOM     10  O   UNL     1     -14.935 -32.742 -12.584  1.00  0.00    -0.246 OA
ATOM     11  O   UNL     1     -14.254 -30.618 -12.408  1.00  0.00    -0.423 OA
ENDROOT
TORSDOF 0
ENDMDL
MODEL 2
REMARK VINA RESULT:    -5.919      1.429      3.477
REMARK INTER + INTRA:          -5.919
REMARK INTER:                  -5.919
REMARK INTRA:                   0.000
REMARK UNBOUND:                 0.000
REMARK SMILES O=c1ccc2ccccc2o1
REMARK SMILES IDX 7 1 8 2 9 3 10 4 5 5 6 6 4 7 3 8 2 9 1 10 11 11
REMARK H PARENT
REMARK Flexibility Score: inf
ROOT
ATOM      1  C   UNL     1     -16.950 -28.858 -13.520  1.00  0.00     0.001 A 
ATOM      2  C   UNL     1     -16.624 -30.178 -13.196  1.00  0.00     0.004 A 
ATOM      3  C   UNL     1     -15.405 -30.470 -12.575  1.00  0.00     0.048 A 
ATOM      4  C   UNL     1     -14.507 -29.440 -12.275  1.00  0.00     0.138 A 
ATOM      5  C   UNL     1     -14.836 -28.105 -12.602  1.00  0.00     0.018 A 
ATOM      6  C   UNL     1     -16.060 -27.819 -13.225  1.00  0.00     0.012 A 
ATOM      7  C   UNL     1     -13.919 -27.096 -12.292  1.00  0.00     0.019 A 
ATOM      8  C   UNL     1     -12.717 -27.433 -11.672  1.00  0.00     0.094 A 
ATOM      9  C   UNL     1     -12.458 -28.777 -11.377  1.00  0.00     0.336 A 
ATOM     10  O   UNL     1     -11.378 -29.100 -10.818  1.00  0.00    -0.246 OA
ATOM     11  O   UNL     1     -13.347 -29.717 -11.683  1.00  0.00    -0.423 OA
ENDROOT
TORSDOF 0
ENDMDL
MODEL 3
REMARK VINA RESULT:    -5.884      1.203      1.502
REMARK INTER + INTRA:          -5.884
REMARK INTER:                  -5.884
REMARK INTRA:                   0.000
REMARK UNBOUND:                 0.000
REMARK SMILES O=c1ccc2ccccc2o1
REMARK SMILES IDX 7 1 8 2 9 3 10 4 5 5 6 6 4 7 3 8 2 9 1 10 11 11
REMARK H PARENT
REMARK Flexibility Score: inf
ROOT
ATOM      1  C   UNL     1     -15.713 -27.023 -13.263  1.00  0.00     0.001 A 
ATOM      2  C   UNL     1     -14.530 -26.655 -12.615  1.00  0.00     0.004 A 
ATOM      3  C   UNL     1     -13.728 -27.628 -12.008  1.00  0.00     0.048 A 
ATOM      4  C   UNL     1     -14.108 -28.974 -12.049  1.00  0.00     0.138 A 
ATOM      5  C   UNL     1     -15.303 -29.346 -12.704  1.00  0.00     0.018 A 
ATOM      6  C   UNL     1     -16.102 -28.366 -13.310  1.00  0.00     0.012 A 
ATOM      7  C   UNL     1     -15.657 -30.699 -12.728  1.00  0.00     0.019 A 
ATOM      8  C   UNL     1     -14.827 -31.633 -12.111  1.00  0.00     0.094 A 
ATOM      9  C   UNL     1     -13.658 -31.192 -11.480  1.00  0.00     0.336 A 
ATOM     10  O   UNL     1     -12.897 -32.021 -10.918  1.00  0.00    -0.246 OA
ATOM     11  O   UNL     1     -13.344 -29.899 -11.472  1.00  0.00    -0.423 OA
ENDROOT
TORSDOF 0
ENDMDL
MODEL 4
REMARK VINA RESULT:    -5.872      1.106      2.091
REMARK INTER + INTRA:          -5.872
REMARK INTER:                  -5.872
REMARK INTRA:                   0.000
REMARK UNBOUND:                 0.000
REMARK SMILES O=c1ccc2ccccc2o1
REMARK SMILES IDX 7 1 8 2 9 3 10 4 5 5 6 6 4 7 3 8 2 9 1 10 11 11
REMARK H PARENT
REMARK Flexibility Score: inf
ROOT
ATOM      1  C   UNL     1     -14.145 -27.050 -12.124  1.00  0.00     0.001 A 
ATOM      2  C   UNL     1     -15.320 -26.916 -12.870  1.00  0.00     0.004 A 
ATOM      3  C   UNL     1     -15.997 -28.051 -13.327  1.00  0.00     0.048 A 
ATOM      4  C   UNL     1     -15.501 -29.326 -13.038  1.00  0.00     0.138 A 
ATOM      5  C   UNL     1     -14.313 -29.463 -12.284  1.00  0.00     0.018 A 
ATOM      6  C   UNL     1     -13.639 -28.320 -11.829  1.00  0.00     0.012 A 
ATOM      7  C   UNL     1     -13.840 -30.750 -12.012  1.00  0.00     0.019 A 
ATOM      8  C   UNL     1     -14.548 -31.853 -12.486  1.00  0.00     0.094 A 
ATOM      9  C   UNL     1     -15.718 -31.642 -13.227  1.00  0.00     0.336 A 
ATOM     10  O   UNL     1     -16.369 -32.626 -13.664  1.00  0.00    -0.246 OA
ATOM     11  O   UNL     1     -16.145 -30.407 -13.472  1.00  0.00    -0.423 OA
ENDROOT
TORSDOF 0
ENDMDL
MODEL 5
REMARK VINA RESULT:    -5.855      2.058      4.393
REMARK INTER + INTRA:          -5.855
REMARK INTER:                  -5.855
REMARK INTRA:                   0.000
REMARK UNBOUND:                 0.000
REMARK SMILES O=c1ccc2ccccc2o1
REMARK SMILES IDX 7 1 8 2 9 3 10 4 5 5 6 6 4 7 3 8 2 9 1 10 11 11
REMARK H PARENT
REMARK Flexibility Score: inf
ROOT
ATOM      1  C   UNL     1     -15.249 -31.487 -12.472  1.00  0.00     0.001 A 
ATOM      2  C   UNL     1     -16.508 -31.116 -12.953  1.00  0.00     0.004 A 
ATOM      3  C   UNL     1     -16.761 -29.788 -13.312  1.00  0.00     0.048 A 
ATOM      4  C   UNL     1     -15.752 -28.826 -13.192  1.00  0.00     0.138 A 
ATOM      5  C   UNL     1     -14.479 -29.200 -12.706  1.00  0.00     0.018 A 
ATOM      6  C   UNL     1     -14.233 -30.534 -12.348  1.00  0.00     0.012 A 
ATOM      7  C   UNL     1     -13.491 -28.217 -12.596  1.00  0.00     0.019 A 
ATOM      8  C   UNL     1     -13.787 -26.907 -12.967  1.00  0.00     0.094 A 
ATOM      9  C   UNL     1     -15.071 -26.608 -13.440  1.00  0.00     0.336 A 
ATOM     10  O   UNL     1     -15.356 -25.430 -13.779  1.00  0.00    -0.246 OA
ATOM     11  O   UNL     1     -15.992 -27.562 -13.535  1.00  0.00    -0.423 OA
ENDROOT
TORSDOF 0
ENDMDL
MODEL 6
REMARK VINA RESULT:    -5.768      1.488      3.766
REMARK INTER + INTRA:          -5.768
REMARK INTER:                  -5.768
REMARK INTRA:                   0.000
REMARK UNBOUND:                 0.000
REMARK SMILES O=c1ccc2ccccc2o1
REMARK SMILES IDX 7 1 8 2 9 3 10 4 5 5 6 6 4 7 3 8 2 9 1 10 11 11
REMARK H PARENT
REMARK Flexibility Score: inf
ROOT
ATOM      1  C   UNL     1     -16.764 -30.905 -13.260  1.00  0.00     0.001 A 
ATOM      2  C   UNL     1     -15.659 -31.614 -12.780  1.00  0.00     0.004 A 
ATOM      3  C   UNL     1     -14.523 -30.931 -12.334  1.00  0.00     0.048 A 
ATOM      4  C   UNL     1     -14.489 -29.533 -12.366  1.00  0.00     0.138 A 
ATOM      5  C   UNL     1     -15.606 -28.815 -12.850  1.00  0.00     0.018 A 
ATOM      6  C   UNL     1     -16.741 -29.506 -13.296  1.00  0.00     0.012 A 
ATOM      7  C   UNL     1     -15.543 -27.418 -12.871  1.00  0.00     0.019 A 
ATOM      8  C   UNL     1     -14.391 -26.779 -12.415  1.00  0.00     0.094 A 
ATOM      9  C   UNL     1     -13.323 -27.555 -11.949  1.00  0.00     0.336 A 
ATOM     10  O   UNL     1     -12.275 -26.996 -11.534  1.00  0.00    -0.246 OA
ATOM     11  O   UNL     1     -13.408 -28.882 -11.940  1.00  0.00    -0.423 OA
ENDROOT
TORSDOF 0
ENDMDL
MODEL 7
REMARK VINA RESULT:    -5.724      1.393      2.238
REMARK INTER + INTRA:          -5.724
REMARK INTER:                  -5.724
REMARK INTRA:                   0.000
REMARK UNBOUND:                 0.000
REMARK SMILES O=c1ccc2ccccc2o1
REMARK SMILES IDX 7 1 8 2 9 3 10 4 5 5 6 6 4 7 3 8 2 9 1 10 11 11
REMARK H PARENT
REMARK Flexibility Score: inf
ROOT
ATOM      1  C   UNL     1     -12.303 -27.422 -11.233  1.00  0.00     0.001 A 
ATOM      2  C   UNL     1     -12.073 -28.774 -10.961  1.00  0.00     0.004 A 
ATOM      3  C   UNL     1     -13.005 -29.740 -11.355  1.00  0.00     0.048 A 
ATOM      4  C   UNL     1     -14.172 -29.355 -12.025  1.00  0.00     0.138 A 
ATOM      5  C   UNL     1     -14.404 -27.989 -12.301  1.00  0.00     0.018 A 
ATOM      6  C   UNL     1     -13.466 -27.026 -11.902  1.00  0.00     0.012 A 
ATOM      7  C   UNL     1     -15.579 -27.634 -12.970  1.00  0.00     0.019 A 
ATOM      8  C   UNL     1     -16.479 -28.631 -13.346  1.00  0.00     0.094 A 
ATOM      9  C   UNL     1     -16.183 -29.964 -13.039  1.00  0.00     0.336 A 
ATOM     10  O   UNL     1     -16.984 -30.877 -13.369  1.00  0.00    -0.246 OA
ATOM     11  O   UNL     1     -15.058 -30.274 -12.401  1.00  0.00    -0.423 OA
ENDROOT
TORSDOF 0
ENDMDL
MODEL 8
REMARK VINA RESULT:    -5.657      1.837      3.768
REMARK INTER + INTRA:          -5.657
REMARK INTER:                  -5.657
REMARK INTRA:                   0.000
REMARK UNBOUND:                 0.000
REMARK SMILES O=c1ccc2ccccc2o1
REMARK SMILES IDX 7 1 8 2 9 3 10 4 5 5 6 6 4 7 3 8 2 9 1 10 11 11
REMARK H PARENT
REMARK Flexibility Score: inf
ROOT
ATOM      1  C   UNL     1     -14.736 -32.275 -12.454  1.00  0.00     0.001 A 
ATOM      2  C   UNL     1     -13.539 -31.748 -11.960  1.00  0.00     0.004 A 
ATOM      3  C   UNL     1     -13.346 -30.363 -11.912  1.00  0.00     0.048 A 
ATOM      4  C   UNL     1     -14.352 -29.500 -12.358  1.00  0.00     0.138 A 
ATOM      5  C   UNL     1     -15.563 -30.032 -12.857  1.00  0.00     0.018 A 
ATOM      6  C   UNL     1     -15.749 -31.421 -12.903  1.00  0.00     0.012 A 
ATOM      7  C   UNL     1     -16.550 -29.146 -13.297  1.00  0.00     0.019 A 
ATOM      8  C   UNL     1     -16.315 -27.773 -13.230  1.00  0.00     0.094 A 
ATOM      9  C   UNL     1     -15.092 -27.317 -12.723  1.00  0.00     0.336 A 
ATOM     10  O   UNL     1     -14.862 -26.082 -12.656  1.00  0.00    -0.246 OA
ATOM     11  O   UNL     1     -14.169 -28.182 -12.312  1.00  0.00    -0.423 OA
ENDROOT
TORSDOF 0
ENDMDL
MODEL 9
REMARK VINA RESULT:    -5.647      1.007      2.234
REMARK INTER + INTRA:          -5.647
REMARK INTER:                  -5.647
REMARK INTRA:                   0.000
REMARK UNBOUND:                 0.000
REMARK SMILES O=c1ccc2ccccc2o1
REMARK SMILES IDX 7 1 8 2 9 3 10 4 5 5 6 6 4 7 3 8 2 9 1 10 11 11
REMARK H PARENT
REMARK Flexibility Score: inf
ROOT
ATOM      1  C   UNL     1     -14.838 -26.585 -12.672  1.00  0.00     0.001 A 
ATOM      2  C   UNL     1     -15.950 -27.146 -13.309  1.00  0.00     0.004 A 
ATOM      3  C   UNL     1     -16.107 -28.535 -13.357  1.00  0.00     0.048 A 
ATOM      4  C   UNL     1     -15.151 -29.369 -12.768  1.00  0.00     0.138 A 
ATOM      5  C   UNL     1     -14.027 -28.803 -12.124  1.00  0.00     0.018 A 
ATOM      6  C   UNL     1     -13.876 -27.409 -12.079  1.00  0.00     0.012 A 
ATOM      7  C   UNL     1     -13.088 -29.661 -11.545  1.00  0.00     0.019 A 
ATOM      8  C   UNL     1     -13.286 -31.039 -11.616  1.00  0.00     0.094 A 
ATOM      9  C   UNL     1     -14.422 -31.529 -12.270  1.00  0.00     0.336 A 
ATOM     10  O   UNL     1     -14.617 -32.770 -12.345  1.00  0.00    -0.246 OA
ATOM     11  O   UNL     1     -15.300 -30.691 -12.813  1.00  0.00    -0.423 OA
ENDROOT
TORSDOF 0
ENDMDL
