MODEL 1
REMARK VINA RESULT:    -3.770      0.000      0.000
REMARK INTER + INTRA:          -3.880
REMARK INTER:                  -3.880
REMARK INTRA:                   0.000
REMARK UNBOUND:                 0.000
REMARK SMILES Oc1ccc2[nH]ccc2c1
REMARK SMILES IDX 3 1 4 2 5 3 9 4 8 5 7 6 6 7 10 8 2 9 1 11
REMARK H PARENT 6 10 1 12
REMARK Flexibility Score: inf
ROOT
ATOM      1  C   UNL     1     171.814 166.116 166.596  1.00  0.00     0.048 A 
ATOM      2  C   UNL     1     172.789 166.019 167.605  1.00  0.00     0.030 A 
ATOM      3  C   UNL     1     172.434 166.413 168.894  1.00  0.00     0.046 A 
ATOM      4  C   UNL     1     171.179 166.880 169.184  1.00  0.00     0.003 A 
ATOM      5  C   UNL     1     171.151 167.179 170.528  1.00  0.00     0.028 A 
ATOM      6  C   UNL     1     172.424 166.870 170.996  1.00  0.00     0.083 A 
ATOM      7  N   UNL     1     173.204 166.402 169.994  1.00  0.00    -0.361 N 
ATOM      8  C   UNL     1     170.190 166.987 168.208  1.00  0.00     0.056 A 
ATOM      9  C   UNL     1     170.518 166.597 166.892  1.00  0.00     0.116 A 
ATOM     10  H   UNL     1     174.200 166.098 170.066  1.00  0.00     0.166 HD
ENDROOT
BRANCH   9  11
ATOM     11  O   UNL     1     169.570 166.682 165.875  1.00  0.00    -0.508 OA
ATOM     12  H   UNL     1     168.642 166.289 165.982  1.00  0.00     0.293 HD
ENDBRANCH   9  11
TORSDOF 1
ENDMDL
MODEL 2
REMARK VINA RESULT:    -3.745      8.507      8.818
REMARK INTER + INTRA:          -3.854
REMARK INTER:                  -3.854
REMARK INTRA:                   0.000
REMARK UNBOUND:                 0.000
REMARK SMILES Oc1ccc2[nH]ccc2c1
REMARK SMILES IDX 3 1 4 2 5 3 9 4 8 5 7 6 6 7 10 8 2 9 1 11
REMARK H PARENT 6 10 1 12
REMARK Flexibility Score: inf
ROOT
ATOM      1  C   UNL     1     166.100 159.209 166.597  1.00  0.00     0.048 A 
ATOM      2  C   UNL     1     165.995 158.227 167.600  1.00  0.00     0.030 A 
ATOM      3  C   UNL     1     166.459 158.547 168.874  1.00  0.00     0.046 A 
ATOM      4  C   UNL     1     167.002 159.773 169.156  1.00  0.00     0.003 A 
ATOM      5  C   UNL     1     167.357 159.769 170.488  1.00  0.00     0.028 A 
ATOM      6  C   UNL     1     167.002 158.507 170.955  1.00  0.00     0.083 A 
ATOM      7  N   UNL     1     166.454 157.765 169.966  1.00  0.00    -0.361 N 
ATOM      8  C   UNL     1     167.120 160.766 168.187  1.00  0.00     0.056 A 
ATOM      9  C   UNL     1     166.659 160.475 166.886  1.00  0.00     0.116 A 
ATOM     10  H   UNL     1     166.102 156.785 170.041  1.00  0.00     0.166 HD
ENDROOT
BRANCH   9  11
ATOM     11  O   UNL     1     166.751 161.429 165.875  1.00  0.00    -0.508 OA
ATOM     12  H   UNL     1     165.924 161.861 165.479  1.00  0.00     0.293 HD
ENDBRANCH   9  11
TORSDOF 1
ENDMDL
MODEL 3
REMARK VINA RESULT:    -3.741     11.466     12.461
REMARK INTER + INTRA:          -3.851
REMARK INTER:                  -3.851
REMARK INTRA:                   0.000
REMARK UNBOUND:                 0.000
REMARK SMILES Oc1ccc2[nH]ccc2c1
REMARK SMILES IDX 3 1 4 2 5 3 9 4 8 5 7 6 6 7 10 8 2 9 1 11
REMARK H PARENT 6 10 1 12
REMARK Flexibility Score: inf
ROOT
ATOM      1  C   UNL     1     159.251 165.149 166.576  1.00  0.00     0.048 A 
ATOM      2  C   UNL     1     158.261 165.258 167.571  1.00  0.00     0.030 A 
ATOM      3  C   UNL     1     158.571 164.801 168.850  1.00  0.00     0.046 A 
ATOM      4  C   UNL     1     159.795 164.261 169.145  1.00  0.00     0.003 A 
ATOM      5  C   UNL     1     159.782 163.913 170.478  1.00  0.00     0.028 A 
ATOM      6  C   UNL     1     158.516 164.269 170.934  1.00  0.00     0.083 A 
ATOM      7  N   UNL     1     157.781 164.811 169.935  1.00  0.00    -0.361 N 
ATOM      8  C   UNL     1     160.797 164.139 168.184  1.00  0.00     0.056 A 
ATOM      9  C   UNL     1     160.515 164.592 166.878  1.00  0.00     0.116 A 
ATOM     10  H   UNL     1     156.800 165.163 170.001  1.00  0.00     0.166 HD
ENDROOT
BRANCH   9  11
ATOM     11  O   UNL     1     161.477 164.496 165.875  1.00  0.00    -0.508 OA
ATOM     12  H   UNL     1     162.138 163.729 165.848  1.00  0.00     0.293 HD
ENDBRANCH   9  11
TORSDOF 1
ENDMDL
MODEL 4
REMARK VINA RESULT:    -3.708      8.384      8.691
REMARK INTER + INTRA:          -3.816
REMARK INTER:                  -3.816
REMARK INTRA:                   0.000
REMARK UNBOUND:                 0.000
REMARK SMILES Oc1ccc2[nH]ccc2c1
REMARK SMILES IDX 3 1 4 2 5 3 9 4 8 5 7 6 6 7 10 8 2 9 1 11
REMARK H PARENT 6 10 1 12
REMARK Flexibility Score: inf
ROOT
ATOM      1  C   UNL     1     165.145 171.782 166.620  1.00  0.00     0.048 A 
ATOM      2  C   UNL     1     165.250 172.754 167.632  1.00  0.00     0.030 A 
ATOM      3  C   UNL     1     164.786 172.421 168.903  1.00  0.00     0.046 A 
ATOM      4  C   UNL     1     164.244 171.192 169.173  1.00  0.00     0.003 A 
ATOM      5  C   UNL     1     163.889 171.182 170.505  1.00  0.00     0.028 A 
ATOM      6  C   UNL     1     164.244 172.439 170.985  1.00  0.00     0.083 A 
ATOM      7  N   UNL     1     164.792 173.192 170.003  1.00  0.00    -0.361 N 
ATOM      8  C   UNL     1     164.126 170.209 168.194  1.00  0.00     0.056 A 
ATOM      9  C   UNL     1     164.585 170.513 166.895  1.00  0.00     0.116 A 
ATOM     10  H   UNL     1     165.144 174.171 170.088  1.00  0.00     0.166 HD
ENDROOT
BRANCH   9  11
ATOM     11  O   UNL     1     164.493 169.570 165.875  1.00  0.00    -0.508 OA
ATOM     12  H   UNL     1     163.630 169.425 165.365  1.00  0.00     0.293 HD
ENDBRANCH   9  11
TORSDOF 1
ENDMDL
MODEL 5
REMARK VINA RESULT:    -3.485      7.542      7.997
REMARK INTER + INTRA:          -3.587
REMARK INTER:                  -3.587
REMARK INTRA:                   0.000
REMARK UNBOUND:                 0.000
REMARK SMILES Oc1ccc2[nH]ccc2c1
REMARK SMILES IDX 3 1 4 2 5 3 9 4 8 5 7 6 6 7 10 8 2 9 1 11
REMARK H PARENT 6 10 1 12
REMARK Flexibility Score: inf
ROOT
ATOM      1  C   UNL     1     166.441 161.779 166.710  1.00  0.00     0.048 A 
ATOM      2  C   UNL     1     166.722 160.408 166.557  1.00  0.00     0.030 A 
ATOM      3  C   UNL     1     167.039 159.677 167.701  1.00  0.00     0.046 A 
ATOM      4  C   UNL     1     167.080 160.260 168.939  1.00  0.00     0.003 A 
ATOM      5  C   UNL     1     167.419 159.279 169.846  1.00  0.00     0.028 A 
ATOM      6  C   UNL     1     167.570 158.121 169.088  1.00  0.00     0.083 A 
ATOM      7  N   UNL     1     167.336 158.370 167.779  1.00  0.00    -0.361 N 
ATOM      8  C   UNL     1     166.808 161.614 169.125  1.00  0.00     0.056 A 
ATOM      9  C   UNL     1     166.483 162.383 167.988  1.00  0.00     0.116 A 
ATOM     10  H   UNL     1     167.381 157.683 166.994  1.00  0.00     0.166 HD
ENDROOT
BRANCH   9  11
ATOM     11  O   UNL     1     166.201 163.741 168.111  1.00  0.00    -0.508 OA
ATOM     12  H   UNL     1     165.668 164.238 167.407  1.00  0.00     0.293 HD
ENDBRANCH   9  11
TORSDOF 1
ENDMDL
MODEL 6
REMARK VINA RESULT:    -3.471      1.660      2.113
REMARK INTER + INTRA:          -3.573
REMARK INTER:                  -3.573
REMARK INTRA:                   0.000
REMARK UNBOUND:                 0.000
REMARK SMILES Oc1ccc2[nH]ccc2c1
REMARK SMILES IDX 3 1 4 2 5 3 9 4 8 5 7 6 6 7 10 8 2 9 1 11
REMARK H PARENT 6 10 1 12
REMARK Flexibility Score: inf
ROOT
ATOM      1  C   UNL     1     169.260 166.484 166.843  1.00  0.00     0.048 A 
ATOM      2  C   UNL     1     170.626 166.756 166.637  1.00  0.00     0.030 A 
ATOM      3  C   UNL     1     171.409 167.036 167.755  1.00  0.00     0.046 A 
ATOM      4  C   UNL     1     170.881 167.048 169.020  1.00  0.00     0.003 A 
ATOM      5  C   UNL     1     171.904 167.354 169.890  1.00  0.00     0.028 A 
ATOM      6  C   UNL     1     173.029 167.516 169.087  1.00  0.00     0.083 A 
ATOM      7  N   UNL     1     172.721 167.320 167.784  1.00  0.00    -0.361 N 
ATOM      8  C   UNL     1     169.534 166.782 169.257  1.00  0.00     0.056 A 
ATOM      9  C   UNL     1     168.713 166.496 168.147  1.00  0.00     0.116 A 
ATOM     10  H   UNL     1     173.373 167.380 166.971  1.00  0.00     0.166 HD
ENDROOT
BRANCH   9  11
ATOM     11  O   UNL     1     167.359 166.222 168.323  1.00  0.00    -0.508 OA
ATOM     12  H   UNL     1     167.006 165.829 169.188  1.00  0.00     0.293 HD
ENDBRANCH   9  11
TORSDOF 1
ENDMDL
MODEL 7
REMARK VINA RESULT:    -3.406      8.233      8.561
REMARK INTER + INTRA:          -3.505
REMARK INTER:                  -3.505
REMARK INTRA:                   0.000
REMARK UNBOUND:                 0.000
REMARK SMILES Oc1ccc2[nH]ccc2c1
REMARK SMILES IDX 3 1 4 2 5 3 9 4 8 5 7 6 6 7 10 8 2 9 1 11
REMARK H PARENT 6 10 1 12
REMARK Flexibility Score: inf
ROOT
ATOM      1  C   UNL     1     166.380 160.029 166.667  1.00  0.00     0.048 A 
ATOM      2  C   UNL     1     166.767 161.070 167.532  1.00  0.00     0.030 A 
ATOM      3  C   UNL     1     166.811 160.797 168.898  1.00  0.00     0.046 A 
ATOM      4  C   UNL     1     166.491 159.562 169.397  1.00  0.00     0.003 A 
ATOM      5  C   UNL     1     166.634 159.621 170.766  1.00  0.00     0.028 A 
ATOM      6  C   UNL     1     167.044 160.924 171.033  1.00  0.00     0.083 A 
ATOM      7  N   UNL     1     167.150 161.638 169.888  1.00  0.00    -0.361 N 
ATOM      8  C   UNL     1     166.104 158.511 168.568  1.00  0.00     0.056 A 
ATOM      9  C   UNL     1     166.049 158.753 167.179  1.00  0.00     0.116 A 
ATOM     10  H   UNL     1     167.437 162.638 169.799  1.00  0.00     0.166 HD
ENDROOT
BRANCH   9  11
ATOM     11  O   UNL     1     165.670 157.741 166.301  1.00  0.00    -0.508 OA
ATOM     12  H   UNL     1     165.077 157.929 165.501  1.00  0.00     0.293 HD
ENDBRANCH   9  11
TORSDOF 1
ENDMDL
MODEL 8
REMARK VINA RESULT:    -3.403      9.834     10.896
REMARK INTER + INTRA:          -3.502
REMARK INTER:                  -3.502
REMARK INTRA:                   0.000
REMARK UNBOUND:                 0.000
REMARK SMILES Oc1ccc2[nH]ccc2c1
REMARK SMILES IDX 3 1 4 2 5 3 9 4 8 5 7 6 6 7 10 8 2 9 1 11
REMARK H PARENT 6 10 1 12
REMARK Flexibility Score: inf
ROOT
ATOM      1  C   UNL     1     159.337 164.093 169.477  1.00  0.00     0.048 A 
ATOM      2  C   UNL     1     160.535 164.223 170.204  1.00  0.00     0.030 A 
ATOM      3  C   UNL     1     161.704 164.484 169.491  1.00  0.00     0.046 A 
ATOM      4  C   UNL     1     161.702 164.611 168.128  1.00  0.00     0.003 A 
ATOM      5  C   UNL     1     162.999 164.863 167.736  1.00  0.00     0.028 A 
ATOM      6  C   UNL     1     163.739 164.875 168.915  1.00  0.00     0.083 A 
ATOM      7  N   UNL     1     162.943 164.643 169.984  1.00  0.00    -0.361 N 
ATOM      8  C   UNL     1     160.534 164.489 167.378  1.00  0.00     0.056 A 
ATOM      9  C   UNL     1     159.333 164.225 168.069  1.00  0.00     0.116 A 
ATOM     10  H   UNL     1     163.237 164.597 170.985  1.00  0.00     0.166 HD
ENDROOT
BRANCH   9  11
ATOM     11  O   UNL     1     158.134 164.092 167.373  1.00  0.00    -0.508 OA
ATOM     12  H   UNL     1     157.517 164.883 167.226  1.00  0.00     0.293 HD
ENDBRANCH   9  11
TORSDOF 1
ENDMDL
MODEL 9
REMARK VINA RESULT:    -3.399      1.866      2.459
REMARK INTER + INTRA:          -3.498
REMARK INTER:                  -3.498
REMARK INTRA:                   0.000
REMARK UNBOUND:                 0.000
REMARK SMILES Oc1ccc2[nH]ccc2c1
REMARK SMILES IDX 3 1 4 2 5 3 9 4 8 5 7 6 6 7 10 8 2 9 1 11
REMARK H PARENT 6 10 1 12
REMARK Flexibility Score: inf
ROOT
ATOM      1  C   UNL     1     171.176 166.410 166.694  1.00  0.00     0.048 A 
ATOM      2  C   UNL     1     170.117 166.791 167.538  1.00  0.00     0.030 A 
ATOM      3  C   UNL     1     170.359 166.828 168.910  1.00  0.00     0.046 A 
ATOM      4  C   UNL     1     171.583 166.505 169.434  1.00  0.00     0.003 A 
ATOM      5  C   UNL     1     171.494 166.641 170.802  1.00  0.00     0.028 A 
ATOM      6  C   UNL     1     170.186 167.048 171.043  1.00  0.00     0.083 A 
ATOM      7  N   UNL     1     169.496 167.161 169.883  1.00  0.00    -0.361 N 
ATOM      8  C   UNL     1     172.652 166.124 168.625  1.00  0.00     0.056 A 
ATOM      9  C   UNL     1     172.440 166.077 167.232  1.00  0.00     0.116 A 
ATOM     10  H   UNL     1     168.498 167.448 169.774  1.00  0.00     0.166 HD
ENDROOT
BRANCH   9  11
ATOM     11  O   UNL     1     173.472 165.703 166.374  1.00  0.00    -0.508 OA
ATOM     12  H   UNL     1     173.650 166.203 165.511  1.00  0.00     0.293 HD
ENDBRANCH   9  11
TORSDOF 1
ENDMDL
