MODEL 1
REMARK VINA RESULT:    -3.516      0.000      0.000
REMARK INTER + INTRA:          -9.019
REMARK INTER:                  -6.598
REMARK INTRA:                  -2.421
REMARK UNBOUND:                -2.421
REMARK SMILES O=C([O-])CCCCCCCCCCCCCCC(=O)[O-]
REMARK SMILES IDX 10 1 9 2 8 3 7 4 6 5 5 6 4 7 2 8 1 9 3 10 11 11 12 12 13 13
REMARK SMILES IDX 14 14 15 15 16 16 17 17 18 18 19 19 20 20
REMARK H PARENT
REMARK Flexibility Score: inf
ROOT
ATOM      1  C   UNL     1      -4.847 -10.531  64.394  1.00  0.00     0.000 C 
ENDROOT
BRANCH   1   2
ATOM      2  C   UNL     1      -5.861 -10.036  65.436  1.00  0.00     0.000 C 
BRANCH   2   3
ATOM      3  C   UNL     1      -6.556  -8.754  64.958  1.00  0.00     0.000 C 
BRANCH   3   4
ATOM      4  C   UNL     1      -5.621  -7.545  65.074  1.00  0.00     0.000 C 
BRANCH   4   5
ATOM      5  C   UNL     1      -5.134  -7.362  66.518  1.00  0.00     0.000 C 
BRANCH   5   6
ATOM      6  C   UNL     1      -3.604  -7.284  66.578  1.00  0.00     0.006 C 
BRANCH   6   7
ATOM      7  C   UNL     1      -3.007  -7.119  65.178  1.00  0.00     0.053 C 
BRANCH   7   8
ATOM      8  C   UNL     1      -2.244  -5.835  65.082  1.00  0.00     0.041 C 
ATOM      9  O   UNL     1      -2.111  -5.258  63.971  1.00  0.00    -0.550 OA
ATOM     10  O   UNL     1      -1.639  -5.301  66.213  1.00  0.00    -0.550 OA
ENDBRANCH   7   8
ENDBRANCH   6   7
ENDBRANCH   5   6
ENDBRANCH   4   5
ENDBRANCH   3   4
ENDBRANCH   2   3
ENDBRANCH   1   2
BRANCH   1  11
ATOM     11  C   UNL     1      -3.470 -10.840  65.005  1.00  0.00     0.000 C 
BRANCH  11  12
ATOM     12  C   UNL     1      -3.518 -10.945  66.539  1.00  0.00     0.000 C 
BRANCH  12  13
ATOM     13  C   UNL     1      -3.443 -12.399  67.041  1.00  0.00     0.000 C 
BRANCH  13  14
ATOM     14  C   UNL     1      -4.592 -12.834  67.975  1.00  0.00     0.000 C 
BRANCH  14  15
ATOM     15  C   UNL     1      -5.808 -13.459  67.268  1.00  0.00     0.000 C 
BRANCH  15  16
ATOM     16  C   UNL     1      -5.411 -14.464  66.176  1.00  0.00     0.006 C 
BRANCH  16  17
ATOM     17  C   UNL     1      -5.929 -14.017  64.806  1.00  0.00     0.053 C 
BRANCH  17  18
ATOM     18  C   UNL     1      -4.866 -14.177  63.765  1.00  0.00     0.041 C 
ATOM     19  O   UNL     1      -3.675 -14.402  64.105  1.00  0.00    -0.550 OA
ATOM     20  O   UNL     1      -5.183 -14.028  62.421  1.00  0.00    -0.550 OA
ENDBRANCH  17  18
ENDBRANCH  16  17
ENDBRANCH  15  16
ENDBRANCH  14  15
ENDBRANCH  13  14
ENDBRANCH  12  13
ENDBRANCH  11  12
ENDBRANCH   1  11
TORSDOF 15
ENDMDL
MODEL 2
REMARK VINA RESULT:    -3.130      1.742      2.567
REMARK INTER + INTRA:          -8.296
REMARK INTER:                  -6.795
REMARK INTRA:                  -1.501
REMARK UNBOUND:                -2.421
REMARK SMILES O=C([O-])CCCCCCCCCCCCCCC(=O)[O-]
REMARK SMILES IDX 10 1 9 2 8 3 7 4 6 5 5 6 4 7 2 8 1 9 3 10 11 11 12 12 13 13
REMARK SMILES IDX 14 14 15 15 16 16 17 17 18 18 19 19 20 20
REMARK H PARENT
REMARK Flexibility Score: inf
ROOT
ATOM      1  C   UNL     1      -3.403  -9.824  64.586  1.00  0.00     0.000 C 
ENDROOT
BRANCH   1   2
ATOM      2  C   UNL     1      -3.137  -8.316  64.460  1.00  0.00     0.000 C 
BRANCH   2   3
ATOM      3  C   UNL     1      -4.378  -7.506  64.855  1.00  0.00     0.000 C 
BRANCH   3   4
ATOM      4  C   UNL     1      -3.991  -6.099  65.324  1.00  0.00     0.000 C 
BRANCH   4   5
ATOM      5  C   UNL     1      -2.681  -5.641  64.669  1.00  0.00     0.000 C 
BRANCH   5   6
ATOM      6  C   UNL     1      -2.638  -4.115  64.532  1.00  0.00     0.006 C 
BRANCH   6   7
ATOM      7  C   UNL     1      -3.743  -3.616  63.598  1.00  0.00     0.053 C 
BRANCH   7   8
ATOM      8  C   UNL     1      -3.528  -4.131  62.210  1.00  0.00     0.041 C 
ATOM      9  O   UNL     1      -2.617  -3.647  61.489  1.00  0.00    -0.550 OA
ATOM     10  O   UNL     1      -4.365  -5.113  61.696  1.00  0.00    -0.550 OA
ENDBRANCH   7   8
ENDBRANCH   6   7
ENDBRANCH   5   6
ENDBRANCH   4   5
ENDBRANCH   3   4
ENDBRANCH   2   3
ENDBRANCH   1   2
BRANCH   1  11
ATOM     11  C   UNL     1      -4.837 -10.137  65.042  1.00  0.00     0.000 C 
BRANCH  11  12
ATOM     12  C   UNL     1      -4.897 -10.633  66.496  1.00  0.00     0.000 C 
BRANCH  12  13
ATOM     13  C   UNL     1      -3.538 -11.139  67.013  1.00  0.00     0.000 C 
BRANCH  13  14
ATOM     14  C   UNL     1      -3.317 -12.662  66.902  1.00  0.00     0.000 C 
BRANCH  14  15
ATOM     15  C   UNL     1      -4.601 -13.510  66.894  1.00  0.00     0.000 C 
BRANCH  15  16
ATOM     16  C   UNL     1      -4.637 -14.528  65.744  1.00  0.00     0.006 C 
BRANCH  16  17
ATOM     17  C   UNL     1      -5.488 -14.011  64.581  1.00  0.00     0.053 C 
BRANCH  17  18
ATOM     18  C   UNL     1      -4.645 -13.818  63.359  1.00  0.00     0.041 C 
ATOM     19  O   UNL     1      -3.609 -13.105  63.410  1.00  0.00    -0.550 OA
ATOM     20  O   UNL     1      -5.031 -14.387  62.153  1.00  0.00    -0.550 OA
ENDBRANCH  17  18
ENDBRANCH  16  17
ENDBRANCH  15  16
ENDBRANCH  14  15
ENDBRANCH  13  14
ENDBRANCH  12  13
ENDBRANCH  11  12
ENDBRANCH   1  11
TORSDOF 15
ENDMDL
MODEL 3
REMARK VINA RESULT:    -3.110      2.667      4.529
REMARK INTER + INTRA:          -8.259
REMARK INTER:                  -5.943
REMARK INTRA:                  -2.316
REMARK UNBOUND:                -2.421
REMARK SMILES O=C([O-])CCCCCCCCCCCCCCC(=O)[O-]
REMARK SMILES IDX 10 1 9 2 8 3 7 4 6 5 5 6 4 7 2 8 1 9 3 10 11 11 12 12 13 13
REMARK SMILES IDX 14 14 15 15 16 16 17 17 18 18 19 19 20 20
REMARK H PARENT
REMARK Flexibility Score: inf
ROOT
ATOM      1  C   UNL     1      -4.479 -14.446  65.669  1.00  0.00     0.000 C 
ENDROOT
BRANCH   1   2
ATOM      2  C   UNL     1      -5.065 -14.459  64.249  1.00  0.00     0.000 C 
BRANCH   2   3
ATOM      3  C   UNL     1      -4.969 -13.071  63.603  1.00  0.00     0.000 C 
BRANCH   3   4
ATOM      4  C   UNL     1      -4.104 -12.130  64.449  1.00  0.00     0.000 C 
BRANCH   4   5
ATOM      5  C   UNL     1      -4.623 -10.688  64.372  1.00  0.00     0.000 C 
BRANCH   5   6
ATOM      6  C   UNL     1      -3.466  -9.683  64.401  1.00  0.00     0.006 C 
BRANCH   6   7
ATOM      7  C   UNL     1      -3.722  -8.580  65.431  1.00  0.00     0.053 C 
BRANCH   7   8
ATOM      8  C   UNL     1      -3.001  -7.326  65.045  1.00  0.00     0.041 C 
ATOM      9  O   UNL     1      -2.620  -6.516  65.931  1.00  0.00    -0.550 OA
ATOM     10  O   UNL     1      -2.791  -7.030  63.704  1.00  0.00    -0.550 OA
ENDBRANCH   7   8
ENDBRANCH   6   7
ENDBRANCH   5   6
ENDBRANCH   4   5
ENDBRANCH   3   4
ENDBRANCH   2   3
ENDBRANCH   1   2
BRANCH   1  11
ATOM     11  C   UNL     1      -5.550 -14.644  66.755  1.00  0.00     0.000 C 
BRANCH  11  12
ATOM     12  C   UNL     1      -6.832 -13.844  66.470  1.00  0.00     0.000 C 
BRANCH  12  13
ATOM     13  C   UNL     1      -6.780 -12.411  67.030  1.00  0.00     0.000 C 
BRANCH  13  14
ATOM     14  C   UNL     1      -5.865 -12.216  68.257  1.00  0.00     0.000 C 
BRANCH  14  15
ATOM     15  C   UNL     1      -4.767 -11.150  68.090  1.00  0.00     0.000 C 
BRANCH  15  16
ATOM     16  C   UNL     1      -3.354 -11.750  68.047  1.00  0.00     0.006 C 
BRANCH  16  17
ATOM     17  C   UNL     1      -3.222 -12.912  69.036  1.00  0.00     0.053 C 
BRANCH  17  18
ATOM     18  C   UNL     1      -2.000 -12.745  69.882  1.00  0.00     0.041 C 
ATOM     19  O   UNL     1      -1.771 -11.648  70.456  1.00  0.00    -0.550 OA
ATOM     20  O   UNL     1      -1.087 -13.786  69.997  1.00  0.00    -0.550 OA
ENDBRANCH  17  18
ENDBRANCH  16  17
ENDBRANCH  15  16
ENDBRANCH  14  15
ENDBRANCH  13  14
ENDBRANCH  12  13
ENDBRANCH  11  12
ENDBRANCH   1  11
TORSDOF 15
ENDMDL
MODEL 4
REMARK VINA RESULT:    -3.100      7.454     12.776
REMARK INTER + INTRA:          -8.240
REMARK INTER:                  -6.087
REMARK INTRA:                  -2.152
REMARK UNBOUND:                -2.421
REMARK SMILES O=C([O-])CCCCCCCCCCCCCCC(=O)[O-]
REMARK SMILES IDX 10 1 9 2 8 3 7 4 6 5 5 6 4 7 2 8 1 9 3 10 11 11 12 12 13 13
REMARK SMILES IDX 14 14 15 15 16 16 17 17 18 18 19 19 20 20
REMARK H PARENT
REMARK Flexibility Score: inf
ROOT
ATOM      1  C   UNL     1       3.058  -2.051  65.495  1.00  0.00     0.000 C 
ENDROOT
BRANCH   1   2
ATOM      2  C   UNL     1       2.716  -0.668  66.071  1.00  0.00     0.000 C 
BRANCH   2   3
ATOM      3  C   UNL     1       1.198  -0.490  66.202  1.00  0.00     0.000 C 
BRANCH   3   4
ATOM      4  C   UNL     1       0.773  -0.452  67.675  1.00  0.00     0.000 C 
BRANCH   4   5
ATOM      5  C   UNL     1      -0.040  -1.699  68.045  1.00  0.00     0.000 C 
BRANCH   5   6
ATOM      6  C   UNL     1      -0.818  -2.229  66.834  1.00  0.00     0.006 C 
BRANCH   6   7
ATOM      7  C   UNL     1      -0.523  -3.712  66.599  1.00  0.00     0.053 C 
BRANCH   7   8
ATOM      8  C   UNL     1      -1.752  -4.421  66.119  1.00  0.00     0.041 C 
ATOM      9  O   UNL     1      -1.806  -4.867  64.943  1.00  0.00    -0.550 OA
ATOM     10  O   UNL     1      -2.853  -4.546  66.956  1.00  0.00    -0.550 OA
ENDBRANCH   7   8
ENDBRANCH   6   7
ENDBRANCH   5   6
ENDBRANCH   4   5
ENDBRANCH   3   4
ENDBRANCH   2   3
ENDBRANCH   1   2
BRANCH   1  11
ATOM     11  C   UNL     1       3.025  -3.162  66.558  1.00  0.00     0.000 C 
BRANCH  11  12
ATOM     12  C   UNL     1       4.415  -3.454  67.146  1.00  0.00     0.000 C 
BRANCH  12  13
ATOM     13  C   UNL     1       4.436  -3.412  68.685  1.00  0.00     0.000 C 
BRANCH  13  14
ATOM     14  C   UNL     1       3.313  -2.578  69.336  1.00  0.00     0.000 C 
BRANCH  14  15
ATOM     15  C   UNL     1       3.784  -1.314  70.078  1.00  0.00     0.000 C 
BRANCH  15  16
ATOM     16  C   UNL     1       4.107  -0.150  69.129  1.00  0.00     0.006 C 
BRANCH  16  17
ATOM     17  C   UNL     1       5.620   0.037  68.987  1.00  0.00     0.053 C 
BRANCH  17  18
ATOM     18  C   UNL     1       5.935   1.416  68.497  1.00  0.00     0.041 C 
ATOM     19  O   UNL     1       7.116   1.849  68.538  1.00  0.00    -0.550 OA
ATOM     20  O   UNL     1       4.914   2.239  68.039  1.00  0.00    -0.550 OA
ENDBRANCH  17  18
ENDBRANCH  16  17
ENDBRANCH  15  16
ENDBRANCH  14  15
ENDBRANCH  13  14
ENDBRANCH  12  13
ENDBRANCH  11  12
ENDBRANCH   1  11
TORSDOF 15
ENDMDL
MODEL 5
REMARK VINA RESULT:    -3.053     11.416     14.038
REMARK INTER + INTRA:          -8.151
REMARK INTER:                  -6.635
REMARK INTRA:                  -1.517
REMARK UNBOUND:                -2.421
REMARK SMILES O=C([O-])CCCCCCCCCCCCCCC(=O)[O-]
REMARK SMILES IDX 10 1 9 2 8 3 7 4 6 5 5 6 4 7 2 8 1 9 3 10 11 11 12 12 13 13
REMARK SMILES IDX 14 14 15 15 16 16 17 17 18 18 19 19 20 20
REMARK H PARENT
REMARK Flexibility Score: inf
ROOT
ATOM      1  C   UNL     1       3.650  -3.282  69.091  1.00  0.00     0.000 C 
ENDROOT
BRANCH   1   2
ATOM      2  C   UNL     1       4.186  -2.543  70.326  1.00  0.00     0.000 C 
BRANCH   2   3
ATOM      3  C   UNL     1       4.097  -3.428  71.576  1.00  0.00     0.000 C 
BRANCH   3   4
ATOM      4  C   UNL     1       5.376  -4.253  71.759  1.00  0.00     0.000 C 
BRANCH   4   5
ATOM      5  C   UNL     1       5.081  -5.755  71.660  1.00  0.00     0.000 C 
BRANCH   5   6
ATOM      6  C   UNL     1       5.819  -6.384  70.472  1.00  0.00     0.006 C 
BRANCH   6   7
ATOM      7  C   UNL     1       5.684  -7.909  70.487  1.00  0.00     0.053 C 
BRANCH   7   8
ATOM      8  C   UNL     1       6.952  -8.542  70.967  1.00  0.00     0.041 C 
ATOM      9  O   UNL     1       8.016  -8.406  70.308  1.00  0.00    -0.550 OA
ATOM     10  O   UNL     1       6.948  -9.322  72.116  1.00  0.00    -0.550 OA
ENDBRANCH   7   8
ENDBRANCH   6   7
ENDBRANCH   5   6
ENDBRANCH   4   5
ENDBRANCH   3   4
ENDBRANCH   2   3
ENDBRANCH   1   2
BRANCH   1  11
ATOM     11  C   UNL     1       4.529  -3.074  67.846  1.00  0.00     0.000 C 
BRANCH  11  12
ATOM     12  C   UNL     1       3.784  -3.398  66.540  1.00  0.00     0.000 C 
BRANCH  12  13
ATOM     13  C   UNL     1       2.640  -2.411  66.244  1.00  0.00     0.000 C 
BRANCH  13  14
ATOM     14  C   UNL     1       3.062  -1.106  65.537  1.00  0.00     0.000 C 
BRANCH  14  15
ATOM     15  C   UNL     1       2.694   0.189  66.282  1.00  0.00     0.000 C 
BRANCH  15  16
ATOM     16  C   UNL     1       2.484  -0.027  67.788  1.00  0.00     0.006 C 
BRANCH  16  17
ATOM     17  C   UNL     1       3.134   1.097  68.599  1.00  0.00     0.053 C 
BRANCH  17  18
ATOM     18  C   UNL     1       4.592   1.200  68.278  1.00  0.00     0.041 C 
ATOM     19  O   UNL     1       5.368   0.244  68.541  1.00  0.00    -0.550 OA
ATOM     20  O   UNL     1       5.102   2.372  67.733  1.00  0.00    -0.550 OA
ENDBRANCH  17  18
ENDBRANCH  16  17
ENDBRANCH  15  16
ENDBRANCH  14  15
ENDBRANCH  13  14
ENDBRANCH  12  13
ENDBRANCH  11  12
ENDBRANCH   1  11
TORSDOF 15
ENDMDL
MODEL 6
REMARK VINA RESULT:    -3.045      6.680     12.198
REMARK INTER + INTRA:          -8.136
REMARK INTER:                  -6.239
REMARK INTRA:                  -1.897
REMARK UNBOUND:                -2.421
REMARK SMILES O=C([O-])CCCCCCCCCCCCCCC(=O)[O-]
REMARK SMILES IDX 10 1 9 2 8 3 7 4 6 5 5 6 4 7 2 8 1 9 3 10 11 11 12 12 13 13
REMARK SMILES IDX 14 14 15 15 16 16 17 17 18 18 19 19 20 20
REMARK H PARENT
REMARK Flexibility Score: inf
ROOT
ATOM      1  C   UNL     1       2.130  -0.377  65.800  1.00  0.00     0.000 C 
ENDROOT
BRANCH   1   2
ATOM      2  C   UNL     1       1.298  -0.848  67.002  1.00  0.00     0.000 C 
BRANCH   2   3
ATOM      3  C   UNL     1      -0.154  -0.367  66.885  1.00  0.00     0.000 C 
BRANCH   3   4
ATOM      4  C   UNL     1      -1.115  -1.551  66.723  1.00  0.00     0.000 C 
BRANCH   4   5
ATOM      5  C   UNL     1      -0.362  -2.885  66.799  1.00  0.00     0.000 C 
BRANCH   5   6
ATOM      6  C   UNL     1      -1.336  -4.069  66.791  1.00  0.00     0.006 C 
BRANCH   6   7
ATOM      7  C   UNL     1      -1.858  -4.341  65.378  1.00  0.00     0.053 C 
BRANCH   7   8
ATOM      8  C   UNL     1      -2.215  -5.786  65.220  1.00  0.00     0.041 C 
ATOM      9  O   UNL     1      -2.353  -6.518  66.234  1.00  0.00    -0.550 OA
ATOM     10  O   UNL     1      -2.348  -6.334  63.950  1.00  0.00    -0.550 OA
ENDBRANCH   7   8
ENDBRANCH   6   7
ENDBRANCH   5   6
ENDBRANCH   4   5
ENDBRANCH   3   4
ENDBRANCH   2   3
ENDBRANCH   1   2
BRANCH   1  11
ATOM     11  C   UNL     1       3.316  -1.308  65.497  1.00  0.00     0.000 C 
BRANCH  11  12
ATOM     12  C   UNL     1       2.926  -2.794  65.553  1.00  0.00     0.000 C 
BRANCH  12  13
ATOM     13  C   UNL     1       3.715  -3.581  66.616  1.00  0.00     0.000 C 
BRANCH  13  14
ATOM     14  C   UNL     1       4.563  -2.721  67.577  1.00  0.00     0.000 C 
BRANCH  14  15
ATOM     15  C   UNL     1       3.997  -2.583  69.002  1.00  0.00     0.000 C 
BRANCH  15  16
ATOM     16  C   UNL     1       4.079  -1.146  69.540  1.00  0.00     0.006 C 
BRANCH  16  17
ATOM     17  C   UNL     1       4.911  -0.259  68.609  1.00  0.00     0.053 C 
BRANCH  17  18
ATOM     18  C   UNL     1       4.331   1.118  68.540  1.00  0.00     0.041 C 
ATOM     19  O   UNL     1       3.769   1.621  69.549  1.00  0.00    -0.550 OA
ATOM     20  O   UNL     1       4.368   1.828  67.347  1.00  0.00    -0.550 OA
ENDBRANCH  17  18
ENDBRANCH  16  17
ENDBRANCH  15  16
ENDBRANCH  14  15
ENDBRANCH  13  14
ENDBRANCH  12  13
ENDBRANCH  11  12
ENDBRANCH   1  11
TORSDOF 15
ENDMDL
MODEL 7
REMARK VINA RESULT:    -3.035      1.474      6.566
REMARK INTER + INTRA:          -8.117
REMARK INTER:                  -5.687
REMARK INTRA:                  -2.430
REMARK UNBOUND:                -2.421
REMARK SMILES O=C([O-])CCCCCCCCCCCCCCC(=O)[O-]
REMARK SMILES IDX 10 1 9 2 8 3 7 4 6 5 5 6 4 7 2 8 1 9 3 10 11 11 12 12 13 13
REMARK SMILES IDX 14 14 15 15 16 16 17 17 18 18 19 19 20 20
REMARK H PARENT
REMARK Flexibility Score: inf
ROOT
ATOM      1  C   UNL     1      -4.378  -9.112  68.940  1.00  0.00     0.000 C 
ENDROOT
BRANCH   1   2
ATOM      2  C   UNL     1      -3.360 -10.081  68.320  1.00  0.00     0.000 C 
BRANCH   2   3
ATOM      3  C   UNL     1      -3.644 -11.525  68.754  1.00  0.00     0.000 C 
BRANCH   3   4
ATOM      4  C   UNL     1      -3.614 -12.477  67.554  1.00  0.00     0.000 C 
BRANCH   4   5
ATOM      5  C   UNL     1      -5.028 -12.944  67.186  1.00  0.00     0.000 C 
BRANCH   5   6
ATOM      6  C   UNL     1      -4.982 -14.197  66.303  1.00  0.00     0.006 C 
BRANCH   6   7
ATOM      7  C   UNL     1      -5.947 -14.071  65.121  1.00  0.00     0.053 C 
BRANCH   7   8
ATOM      8  C   UNL     1      -5.190 -14.023  63.830  1.00  0.00     0.041 C 
ATOM      9  O   UNL     1      -5.548 -13.235  62.916  1.00  0.00    -0.550 OA
ATOM     10  O   UNL     1      -4.120 -14.883  63.620  1.00  0.00    -0.550 OA
ENDBRANCH   7   8
ENDBRANCH   6   7
ENDBRANCH   5   6
ENDBRANCH   4   5
ENDBRANCH   3   4
ENDBRANCH   2   3
ENDBRANCH   1   2
BRANCH   1  11
ATOM     11  C   UNL     1      -5.822  -9.407  68.503  1.00  0.00     0.000 C 
BRANCH  11  12
ATOM     12  C   UNL     1      -6.181  -8.735  67.167  1.00  0.00     0.000 C 
BRANCH  12  13
ATOM     13  C   UNL     1      -6.590  -9.746  66.080  1.00  0.00     0.000 C 
BRANCH  13  14
ATOM     14  C   UNL     1      -5.850  -9.600  64.734  1.00  0.00     0.000 C 
BRANCH  14  15
ATOM     15  C   UNL     1      -4.497 -10.329  64.649  1.00  0.00     0.000 C 
BRANCH  15  16
ATOM     16  C   UNL     1      -3.298  -9.381  64.803  1.00  0.00     0.006 C 
BRANCH  16  17
ATOM     17  C   UNL     1      -3.675  -7.951  64.404  1.00  0.00     0.053 C 
BRANCH  17  18
ATOM     18  C   UNL     1      -2.913  -6.959  65.225  1.00  0.00     0.041 C 
ATOM     19  O   UNL     1      -2.899  -7.053  66.480  1.00  0.00    -0.550 OA
ATOM     20  O   UNL     1      -2.259  -5.902  64.605  1.00  0.00    -0.550 OA
ENDBRANCH  17  18
ENDBRANCH  16  17
ENDBRANCH  15  16
ENDBRANCH  14  15
ENDBRANCH  13  14
ENDBRANCH  12  13
ENDBRANCH  11  12
ENDBRANCH   1  11
TORSDOF 15
ENDMDL
MODEL 8
REMARK VINA RESULT:    -3.001      1.900      3.368
REMARK INTER + INTRA:          -8.054
REMARK INTER:                  -6.654
REMARK INTRA:                  -1.400
REMARK UNBOUND:                -2.421
REMARK SMILES O=C([O-])CCCCCCCCCCCCCCC(=O)[O-]
REMARK SMILES IDX 10 1 9 2 8 3 7 4 6 5 5 6 4 7 2 8 1 9 3 10 11 11 12 12 13 13
REMARK SMILES IDX 14 14 15 15 16 16 17 17 18 18 19 19 20 20
REMARK H PARENT
REMARK Flexibility Score: inf
ROOT
ATOM      1  C   UNL     1      -6.079  -6.647  64.729  1.00  0.00     0.000 C 
ENDROOT
BRANCH   1   2
ATOM      2  C   UNL     1      -6.368  -6.167  63.298  1.00  0.00     0.000 C 
BRANCH   2   3
ATOM      3  C   UNL     1      -6.059  -4.672  63.148  1.00  0.00     0.000 C 
BRANCH   3   4
ATOM      4  C   UNL     1      -5.114  -4.420  61.968  1.00  0.00     0.000 C 
BRANCH   4   5
ATOM      5  C   UNL     1      -3.762  -5.111  62.188  1.00  0.00     0.000 C 
BRANCH   5   6
ATOM      6  C   UNL     1      -3.096  -4.619  63.479  1.00  0.00     0.006 C 
BRANCH   6   7
ATOM      7  C   UNL     1      -2.282  -5.736  64.136  1.00  0.00     0.053 C 
BRANCH   7   8
ATOM      8  C   UNL     1      -2.188  -5.516  65.613  1.00  0.00     0.041 C 
ATOM      9  O   UNL     1      -1.350  -4.700  66.080  1.00  0.00    -0.550 OA
ATOM     10  O   UNL     1      -2.993  -6.247  66.477  1.00  0.00    -0.550 OA
ENDBRANCH   7   8
ENDBRANCH   6   7
ENDBRANCH   5   6
ENDBRANCH   4   5
ENDBRANCH   3   4
ENDBRANCH   2   3
ENDBRANCH   1   2
BRANCH   1  11
ATOM     11  C   UNL     1      -6.684  -8.029  65.025  1.00  0.00     0.000 C 
BRANCH  11  12
ATOM     12  C   UNL     1      -5.634  -9.034  65.529  1.00  0.00     0.000 C 
BRANCH  12  13
ATOM     13  C   UNL     1      -4.304  -8.947  64.758  1.00  0.00     0.000 C 
BRANCH  13  14
ATOM     14  C   UNL     1      -3.515 -10.269  64.655  1.00  0.00     0.000 C 
BRANCH  14  15
ATOM     15  C   UNL     1      -3.723 -11.247  65.825  1.00  0.00     0.000 C 
BRANCH  15  16
ATOM     16  C   UNL     1      -4.461 -12.528  65.409  1.00  0.00     0.006 C 
BRANCH  16  17
ATOM     17  C   UNL     1      -4.838 -12.485  63.925  1.00  0.00     0.053 C 
BRANCH  17  18
ATOM     18  C   UNL     1      -4.696 -13.841  63.308  1.00  0.00     0.041 C 
ATOM     19  O   UNL     1      -5.153 -14.064  62.156  1.00  0.00    -0.550 OA
ATOM     20  O   UNL     1      -4.102 -14.871  64.026  1.00  0.00    -0.550 OA
ENDBRANCH  17  18
ENDBRANCH  16  17
ENDBRANCH  15  16
ENDBRANCH  14  15
ENDBRANCH  13  14
ENDBRANCH  12  13
ENDBRANCH  11  12
ENDBRANCH   1  11
TORSDOF 15
ENDMDL
MODEL 9
REMARK VINA RESULT:    -2.955      2.295      6.032
REMARK INTER + INTRA:          -7.967
REMARK INTER:                  -5.693
REMARK INTRA:                  -2.274
REMARK UNBOUND:                -2.421
REMARK SMILES O=C([O-])CCCCCCCCCCCCCCC(=O)[O-]
REMARK SMILES IDX 10 1 9 2 8 3 7 4 6 5 5 6 4 7 2 8 1 9 3 10 11 11 12 12 13 13
REMARK SMILES IDX 14 14 15 15 16 16 17 17 18 18 19 19 20 20
REMARK H PARENT
REMARK Flexibility Score: inf
ROOT
ATOM      1  C   UNL     1      -4.143 -14.323  65.681  1.00  0.00     0.000 C 
ENDROOT
BRANCH   1   2
ATOM      2  C   UNL     1      -4.945 -14.916  66.850  1.00  0.00     0.000 C 
BRANCH   2   3
ATOM      3  C   UNL     1      -6.437 -14.583  66.714  1.00  0.00     0.000 C 
BRANCH   3   4
ATOM      4  C   UNL     1      -6.845 -13.475  67.692  1.00  0.00     0.000 C 
BRANCH   4   5
ATOM      5  C   UNL     1      -7.014 -12.135  66.965  1.00  0.00     0.000 C 
BRANCH   5   6
ATOM      6  C   UNL     1      -6.196 -11.032  67.648  1.00  0.00     0.006 C 
BRANCH   6   7
ATOM      7  C   UNL     1      -5.291 -11.613  68.737  1.00  0.00     0.053 C 
BRANCH   7   8
ATOM      8  C   UNL     1      -3.904 -11.064  68.613  1.00  0.00     0.041 C 
ATOM      9  O   UNL     1      -3.531 -10.114  69.351  1.00  0.00    -0.550 OA
ATOM     10  O   UNL     1      -3.039 -11.570  67.651  1.00  0.00    -0.550 OA
ENDBRANCH   7   8
ENDBRANCH   6   7
ENDBRANCH   5   6
ENDBRANCH   4   5
ENDBRANCH   3   4
ENDBRANCH   2   3
ENDBRANCH   1   2
BRANCH   1  11
ATOM     11  C   UNL     1      -4.930 -14.323  64.360  1.00  0.00     0.000 C 
BRANCH  11  12
ATOM     12  C   UNL     1      -5.046 -12.917  63.747  1.00  0.00     0.000 C 
BRANCH  12  13
ATOM     13  C   UNL     1      -4.097 -11.897  64.402  1.00  0.00     0.000 C 
BRANCH  13  14
ATOM     14  C   UNL     1      -4.601 -10.439  64.410  1.00  0.00     0.000 C 
BRANCH  14  15
ATOM     15  C   UNL     1      -3.556  -9.388  64.825  1.00  0.00     0.000 C 
BRANCH  15  16
ATOM     16  C   UNL     1      -4.041  -8.482  65.966  1.00  0.00     0.006 C 
BRANCH  16  17
ATOM     17  C   UNL     1      -3.348  -7.117  65.914  1.00  0.00     0.053 C 
BRANCH  17  18
ATOM     18  C   UNL     1      -3.606  -6.447  64.602  1.00  0.00     0.041 C 
ATOM     19  O   UNL     1      -4.782  -6.156  64.260  1.00  0.00    -0.550 OA
ATOM     20  O   UNL     1      -2.552  -6.186  63.736  1.00  0.00    -0.550 OA
ENDBRANCH  17  18
ENDBRANCH  16  17
ENDBRANCH  15  16
ENDBRANCH  14  15
ENDBRANCH  13  14
ENDBRANCH  12  13
ENDBRANCH  11  12
ENDBRANCH   1  11
TORSDOF 15
ENDMDL
