MODEL 1
REMARK VINA RESULT:    -4.596      0.000      0.000
REMARK INTER + INTRA:          -5.424
REMARK INTER:                  -5.402
REMARK INTRA:                  -0.022
REMARK UNBOUND:                -0.022
REMARK SMILES [NH3+][C@H](CO)C(=O)[O-]
REMARK SMILES IDX 3 1 2 2 1 3 5 7 6 8 7 9 4 10
REMARK H PARENT 1 4 1 5 1 6 4 11
REMARK Flexibility Score: inf
ROOT
ATOM      1  C   UNL     1      -1.233  26.148  19.232  1.00  0.00     0.227 C 
ENDROOT
BRANCH   1   2
ATOM      2  C   UNL     1      -2.112  25.876  17.999  1.00  0.00     0.253 C 
BRANCH   2   3
ATOM      3  N   UNL     1      -3.443  26.477  18.143  1.00  0.00    -0.348 N 
ATOM      4  H   UNL     1      -3.348  27.508  18.300  1.00  0.00     0.345 HD
ATOM      5  H   UNL     1      -3.961  26.058  18.950  1.00  0.00     0.345 HD
ATOM      6  H   UNL     1      -3.995  26.330  17.267  1.00  0.00     0.345 HD
ENDBRANCH   2   3
BRANCH   2   7
ATOM      7  C   UNL     1      -1.437  26.356  16.740  1.00  0.00     0.102 C 
ATOM      8  O   UNL     1      -0.737  27.404  16.747  1.00  0.00    -0.544 OA
ATOM      9  O   UNL     1      -1.551  25.617  15.569  1.00  0.00    -0.544 OA
ENDBRANCH   2   7
ENDBRANCH   1   2
BRANCH   1  10
ATOM     10  O   UNL     1      -1.981  26.709  20.280  1.00  0.00    -0.390 OA
ATOM     11  H   UNL     1      -2.875  26.277  20.260  1.00  0.00     0.210 HD
ENDBRANCH   1  10
TORSDOF 4
ENDMDL
MODEL 2
REMARK VINA RESULT:    -4.550      1.812      3.464
REMARK INTER + INTRA:          -5.370
REMARK INTER:                  -5.343
REMARK INTRA:                  -0.027
REMARK UNBOUND:                -0.022
REMARK SMILES [NH3+][C@H](CO)C(=O)[O-]
REMARK SMILES IDX 3 1 2 2 1 3 5 7 6 8 7 9 4 10
REMARK H PARENT 1 4 1 5 1 6 4 11
REMARK Flexibility Score: inf
ROOT
ATOM      1  C   UNL     1      -1.632  25.074  16.074  1.00  0.00     0.227 C 
ENDROOT
BRANCH   1   2
ATOM      2  C   UNL     1      -1.178  26.114  17.113  1.00  0.00     0.253 C 
BRANCH   2   3
ATOM      3  N   UNL     1      -0.788  27.378  16.474  1.00  0.00    -0.348 N 
ATOM      4  H   UNL     1       0.150  27.269  16.024  1.00  0.00     0.345 HD
ATOM      5  H   UNL     1      -0.742  28.155  17.172  1.00  0.00     0.345 HD
ATOM      6  H   UNL     1      -1.480  27.626  15.730  1.00  0.00     0.345 HD
ENDBRANCH   2   3
BRANCH   2   7
ATOM      7  C   UNL     1      -2.247  26.342  18.151  1.00  0.00     0.102 C 
ATOM      8  O   UNL     1      -3.461  26.401  17.819  1.00  0.00    -0.544 OA
ATOM      9  O   UNL     1      -1.898  26.446  19.492  1.00  0.00    -0.544 OA
ENDBRANCH   2   7
ENDBRANCH   1   2
BRANCH   1  10
ATOM     10  O   UNL     1      -1.509  25.569  14.766  1.00  0.00    -0.390 OA
ATOM     11  H   UNL     1      -2.326  25.295  14.274  1.00  0.00     0.210 HD
ENDBRANCH   1  10
TORSDOF 4
ENDMDL
MODEL 3
REMARK VINA RESULT:    -4.544      1.263      2.810
REMARK INTER + INTRA:          -5.363
REMARK INTER:                  -5.167
REMARK INTRA:                  -0.197
REMARK UNBOUND:                -0.022
REMARK SMILES [NH3+][C@H](CO)C(=O)[O-]
REMARK SMILES IDX 3 1 2 2 1 3 5 7 6 8 7 9 4 10
REMARK H PARENT 1 4 1 5 1 6 4 11
REMARK Flexibility Score: inf
ROOT
ATOM      1  C   UNL     1      -2.021  25.202  16.229  1.00  0.00     0.227 C 
ENDROOT
BRANCH   1   2
ATOM      2  C   UNL     1      -2.479  26.458  16.991  1.00  0.00     0.253 C 
BRANCH   2   3
ATOM      3  N   UNL     1      -3.430  26.123  18.058  1.00  0.00    -0.348 N 
ATOM      4  H   UNL     1      -3.460  25.086  18.189  1.00  0.00     0.345 HD
ATOM      5  H   UNL     1      -4.392  26.464  17.828  1.00  0.00     0.345 HD
ATOM      6  H   UNL     1      -3.120  26.557  18.958  1.00  0.00     0.345 HD
ENDBRANCH   2   3
BRANCH   2   7
ATOM      7  C   UNL     1      -1.298  27.215  17.540  1.00  0.00     0.102 C 
ATOM      8  O   UNL     1      -0.943  27.069  18.739  1.00  0.00    -0.544 OA
ATOM      9  O   UNL     1      -0.565  28.053  16.707  1.00  0.00    -0.544 OA
ENDBRANCH   2   7
ENDBRANCH   1   2
BRANCH   1  10
ATOM     10  O   UNL     1      -1.393  25.538  15.019  1.00  0.00    -0.390 OA
ATOM     11  H   UNL     1      -1.408  24.725  14.450  1.00  0.00     0.210 HD
ENDBRANCH   1  10
TORSDOF 4
ENDMDL
MODEL 4
REMARK VINA RESULT:    -4.532      1.990      2.223
REMARK INTER + INTRA:          -5.349
REMARK INTER:                  -5.155
REMARK INTRA:                  -0.194
REMARK UNBOUND:                -0.022
REMARK SMILES [NH3+][C@H](CO)C(=O)[O-]
REMARK SMILES IDX 3 1 2 2 1 3 5 7 6 8 7 9 4 10
REMARK H PARENT 1 4 1 5 1 6 4 11
REMARK Flexibility Score: inf
ROOT
ATOM      1  C   UNL     1      -1.033  26.418  18.863  1.00  0.00     0.227 C 
ENDROOT
BRANCH   1   2
ATOM      2  C   UNL     1      -1.558  27.124  17.600  1.00  0.00     0.253 C 
BRANCH   2   3
ATOM      3  N   UNL     1      -0.508  27.259  16.583  1.00  0.00    -0.348 N 
ATOM      4  H   UNL     1      -0.115  28.228  16.610  1.00  0.00     0.345 HD
ATOM      5  H   UNL     1      -0.884  27.072  15.625  1.00  0.00     0.345 HD
ATOM      6  H   UNL     1       0.268  26.586  16.784  1.00  0.00     0.345 HD
ENDBRANCH   2   3
BRANCH   2   7
ATOM      7  C   UNL     1      -2.760  26.407  17.043  1.00  0.00     0.102 C 
ATOM      8  O   UNL     1      -2.625  25.521  16.158  1.00  0.00    -0.544 OA
ATOM      9  O   UNL     1      -4.027  26.693  17.537  1.00  0.00    -0.544 OA
ENDBRANCH   2   7
ENDBRANCH   1   2
BRANCH   1  10
ATOM     10  O   UNL     1      -1.957  26.503  19.918  1.00  0.00    -0.390 OA
ATOM     11  H   UNL     1      -1.433  26.627  20.751  1.00  0.00     0.210 HD
ENDBRANCH   1  10
TORSDOF 4
ENDMDL
MODEL 5
REMARK VINA RESULT:    -4.386      2.123      2.488
REMARK INTER + INTRA:          -5.177
REMARK INTER:                  -4.971
REMARK INTRA:                  -0.206
REMARK UNBOUND:                -0.022
REMARK SMILES [NH3+][C@H](CO)C(=O)[O-]
REMARK SMILES IDX 3 1 2 2 1 3 5 7 6 8 7 9 4 10
REMARK H PARENT 1 4 1 5 1 6 4 11
REMARK Flexibility Score: inf
ROOT
ATOM      1  C   UNL     1      -3.382  26.283  16.900  1.00  0.00     0.227 C 
ENDROOT
BRANCH   1   2
ATOM      2  C   UNL     1      -1.946  25.772  16.688  1.00  0.00     0.253 C 
BRANCH   2   3
ATOM      3  N   UNL     1      -1.630  25.631  15.261  1.00  0.00    -0.348 N 
ATOM      4  H   UNL     1      -1.061  26.450  14.946  1.00  0.00     0.345 HD
ATOM      5  H   UNL     1      -2.501  25.579  14.685  1.00  0.00     0.345 HD
ATOM      6  H   UNL     1      -1.065  24.763  15.108  1.00  0.00     0.345 HD
ENDBRANCH   2   3
BRANCH   2   7
ATOM      7  C   UNL     1      -0.949  26.668  17.376  1.00  0.00     0.102 C 
ATOM      8  O   UNL     1      -0.483  26.362  18.505  1.00  0.00    -0.544 OA
ATOM      9  O   UNL     1      -0.506  27.824  16.743  1.00  0.00    -0.544 OA
ENDBRANCH   2   7
ENDBRANCH   1   2
BRANCH   1  10
ATOM     10  O   UNL     1      -3.630  26.566  18.253  1.00  0.00    -0.390 OA
ATOM     11  H   UNL     1      -3.996  25.738  18.660  1.00  0.00     0.210 HD
ENDBRANCH   1  10
TORSDOF 4
ENDMDL
MODEL 6
REMARK VINA RESULT:    -4.306      1.748      2.621
REMARK INTER + INTRA:          -5.084
REMARK INTER:                  -4.883
REMARK INTRA:                  -0.201
REMARK UNBOUND:                -0.022
REMARK SMILES [NH3+][C@H](CO)C(=O)[O-]
REMARK SMILES IDX 3 1 2 2 1 3 5 7 6 8 7 9 4 10
REMARK H PARENT 1 4 1 5 1 6 4 11
REMARK Flexibility Score: inf
ROOT
ATOM      1  C   UNL     1      -0.893  28.009  17.367  1.00  0.00     0.227 C 
ENDROOT
BRANCH   1   2
ATOM      2  C   UNL     1      -1.234  26.649  18.002  1.00  0.00     0.253 C 
BRANCH   2   3
ATOM      3  N   UNL     1      -1.512  26.779  19.438  1.00  0.00    -0.348 N 
ATOM      4  H   UNL     1      -0.628  26.642  19.980  1.00  0.00     0.345 HD
ATOM      5  H   UNL     1      -2.216  26.073  19.752  1.00  0.00     0.345 HD
ATOM      6  H   UNL     1      -1.874  27.739  19.642  1.00  0.00     0.345 HD
ENDBRANCH   2   3
BRANCH   2   7
ATOM      7  C   UNL     1      -2.387  25.995  17.286  1.00  0.00     0.102 C 
ATOM      8  O   UNL     1      -3.574  26.215  17.648  1.00  0.00    -0.544 OA
ATOM      9  O   UNL     1      -2.147  25.174  16.191  1.00  0.00    -0.544 OA
ENDBRANCH   2   7
ENDBRANCH   1   2
BRANCH   1  10
ATOM     10  O   UNL     1      -0.505  27.864  16.025  1.00  0.00    -0.390 OA
ATOM     11  H   UNL     1      -1.275  28.154  15.469  1.00  0.00     0.210 HD
ENDBRANCH   1  10
TORSDOF 4
ENDMDL
MODEL 7
REMARK VINA RESULT:    -4.058      1.636      1.652
REMARK INTER + INTRA:          -4.792
REMARK INTER:                  -4.450
REMARK INTRA:                  -0.342
REMARK UNBOUND:                -0.022
REMARK SMILES [NH3+][C@H](CO)C(=O)[O-]
REMARK SMILES IDX 3 1 2 2 1 3 5 7 6 8 7 9 4 10
REMARK H PARENT 1 4 1 5 1 6 4 11
REMARK Flexibility Score: inf
ROOT
ATOM      1  C   UNL     1      -0.961  25.740  18.978  1.00  0.00     0.227 C 
ENDROOT
BRANCH   1   2
ATOM      2  C   UNL     1      -1.242  25.882  17.472  1.00  0.00     0.253 C 
BRANCH   2   3
ATOM      3  N   UNL     1      -1.914  24.692  16.935  1.00  0.00    -0.348 N 
ATOM      4  H   UNL     1      -2.283  24.112  17.724  1.00  0.00     0.345 HD
ATOM      5  H   UNL     1      -1.256  24.111  16.366  1.00  0.00     0.345 HD
ATOM      6  H   UNL     1      -2.722  24.981  16.337  1.00  0.00     0.345 HD
ENDBRANCH   2   3
BRANCH   2   7
ATOM      7  C   UNL     1      -2.043  27.127  17.189  1.00  0.00     0.102 C 
ATOM      8  O   UNL     1      -1.467  28.227  16.979  1.00  0.00    -0.544 OA
ATOM      9  O   UNL     1      -3.429  27.056  17.118  1.00  0.00    -0.544 OA
ENDBRANCH   2   7
ENDBRANCH   1   2
BRANCH   1  10
ATOM     10  O   UNL     1      -1.809  26.563  19.737  1.00  0.00    -0.390 OA
ATOM     11  H   UNL     1      -2.371  27.069  19.095  1.00  0.00     0.210 HD
ENDBRANCH   1  10
TORSDOF 4
ENDMDL
MODEL 8
REMARK VINA RESULT:    -3.830      2.066      3.151
REMARK INTER + INTRA:          -4.524
REMARK INTER:                  -4.509
REMARK INTRA:                  -0.015
REMARK UNBOUND:                -0.022
REMARK SMILES [NH3+][C@H](CO)C(=O)[O-]
REMARK SMILES IDX 3 1 2 2 1 3 5 7 6 8 7 9 4 10
REMARK H PARENT 1 4 1 5 1 6 4 11
REMARK Flexibility Score: inf
ROOT
ATOM      1  C   UNL     1      -0.522  27.552  16.739  1.00  0.00     0.227 C 
ENDROOT
BRANCH   1   2
ATOM      2  C   UNL     1      -1.812  26.742  16.515  1.00  0.00     0.253 C 
BRANCH   2   3
ATOM      3  N   UNL     1      -1.567  25.561  15.679  1.00  0.00    -0.348 N 
ATOM      4  H   UNL     1      -0.781  25.002  16.083  1.00  0.00     0.345 HD
ATOM      5  H   UNL     1      -1.321  25.835  14.700  1.00  0.00     0.345 HD
ATOM      6  H   UNL     1      -2.421  24.957  15.661  1.00  0.00     0.345 HD
ENDBRANCH   2   3
BRANCH   2   7
ATOM      7  C   UNL     1      -2.437  26.353  17.829  1.00  0.00     0.102 C 
ATOM      8  O   UNL     1      -3.687  26.234  17.935  1.00  0.00    -0.544 OA
ATOM      9  O   UNL     1      -1.629  26.081  18.927  1.00  0.00    -0.544 OA
ENDBRANCH   2   7
ENDBRANCH   1   2
BRANCH   1  10
ATOM     10  O   UNL     1      -0.674  28.883  16.316  1.00  0.00    -0.390 OA
ATOM     11  H   UNL     1      -0.186  28.970  15.456  1.00  0.00     0.210 HD
ENDBRANCH   1  10
TORSDOF 4
ENDMDL
MODEL 9
REMARK VINA RESULT:    -3.803      1.828      2.328
REMARK INTER + INTRA:          -4.492
REMARK INTER:                  -4.474
REMARK INTRA:                  -0.018
REMARK UNBOUND:                -0.022
REMARK SMILES [NH3+][C@H](CO)C(=O)[O-]
REMARK SMILES IDX 3 1 2 2 1 3 5 7 6 8 7 9 4 10
REMARK H PARENT 1 4 1 5 1 6 4 11
REMARK Flexibility Score: inf
ROOT
ATOM      1  C   UNL     1      -3.633  26.282  17.870  1.00  0.00     0.227 C 
ENDROOT
BRANCH   1   2
ATOM      2  C   UNL     1      -2.255  26.912  18.144  1.00  0.00     0.253 C 
BRANCH   2   3
ATOM      3  N   UNL     1      -1.654  26.377  19.372  1.00  0.00    -0.348 N 
ATOM      4  H   UNL     1      -1.808  27.049  20.159  1.00  0.00     0.345 HD
ATOM      5  H   UNL     1      -0.627  26.222  19.253  1.00  0.00     0.345 HD
ATOM      6  H   UNL     1      -2.111  25.470  19.624  1.00  0.00     0.345 HD
ENDBRANCH   2   3
BRANCH   2   7
ATOM      7  C   UNL     1      -1.334  26.724  16.967  1.00  0.00     0.102 C 
ATOM      8  O   UNL     1      -1.396  25.680  16.264  1.00  0.00    -0.544 OA
ATOM      9  O   UNL     1      -0.435  27.727  16.624  1.00  0.00    -0.544 OA
ENDBRANCH   2   7
ENDBRANCH   1   2
BRANCH   1  10
ATOM     10  O   UNL     1      -4.626  27.266  17.728  1.00  0.00    -0.390 OA
ATOM     11  H   UNL     1      -4.246  27.978  17.151  1.00  0.00     0.210 HD
ENDBRANCH   1  10
TORSDOF 4
ENDMDL
