MODEL 1
REMARK VINA RESULT:    -4.102      0.000      0.000
REMARK INTER + INTRA:          -4.762
REMARK INTER:                  -4.702
REMARK INTRA:                  -0.061
REMARK UNBOUND:                -0.061
REMARK SMILES CC(C)[C@@H]([NH3+])C(=O)[O-]
REMARK SMILES IDX 4 1 5 2 6 6 7 7 8 8 2 9 1 10 3 11
REMARK H PARENT 5 3 5 4 5 5
REMARK Flexibility Score: inf
ROOT
ATOM      1  C   UNL     1      25.195  37.736  23.381  1.00  0.00     0.230 C 
ENDROOT
BRANCH   1   2
ATOM      2  N   UNL     1      24.712  38.294  22.109  1.00  0.00    -0.350 N 
ATOM      3  H   UNL     1      24.783  37.566  21.360  1.00  0.00     0.345 HD
ATOM      4  H   UNL     1      23.707  38.571  22.197  1.00  0.00     0.345 HD
ATOM      5  H   UNL     1      25.274  39.125  21.817  1.00  0.00     0.345 HD
ENDBRANCH   1   2
BRANCH   1   6
ATOM      6  C   UNL     1      24.038  37.259  24.226  1.00  0.00     0.099 C 
ATOM      7  O   UNL     1      23.880  36.028  24.439  1.00  0.00    -0.544 OA
ATOM      8  O   UNL     1      23.125  38.165  24.752  1.00  0.00    -0.544 OA
ENDBRANCH   1   6
BRANCH   1   9
ATOM      9  C   UNL     1      26.271  36.632  23.154  1.00  0.00     0.047 C 
ATOM     10  C   UNL     1      27.636  36.964  23.782  1.00  0.00     0.014 C 
ATOM     11  C   UNL     1      26.442  36.317  21.660  1.00  0.00     0.014 C 
ENDBRANCH   1   9
TORSDOF 3
ENDMDL
MODEL 2
REMARK VINA RESULT:    -3.946      2.599      3.672
REMARK INTER + INTRA:          -4.583
REMARK INTER:                  -4.591
REMARK INTRA:                   0.008
REMARK UNBOUND:                -0.061
REMARK SMILES CC(C)[C@@H]([NH3+])C(=O)[O-]
REMARK SMILES IDX 4 1 5 2 6 6 7 7 8 8 2 9 1 10 3 11
REMARK H PARENT 5 3 5 4 5 5
REMARK Flexibility Score: inf
ROOT
ATOM      1  C   UNL     1      23.355  38.790  24.310  1.00  0.00     0.230 C 
ENDROOT
BRANCH   1   2
ATOM      2  N   UNL     1      22.390  38.653  25.411  1.00  0.00    -0.350 N 
ATOM      3  H   UNL     1      22.512  39.448  26.081  1.00  0.00     0.345 HD
ATOM      4  H   UNL     1      21.413  38.691  25.039  1.00  0.00     0.345 HD
ATOM      5  H   UNL     1      22.526  37.757  25.930  1.00  0.00     0.345 HD
ENDBRANCH   1   2
BRANCH   1   6
ATOM      6  C   UNL     1      24.083  37.488  24.075  1.00  0.00     0.099 C 
ATOM      7  O   UNL     1      23.580  36.405  24.475  1.00  0.00    -0.544 OA
ATOM      8  O   UNL     1      25.321  37.472  23.444  1.00  0.00    -0.544 OA
ENDBRANCH   1   6
BRANCH   1   9
ATOM      9  C   UNL     1      22.681  39.344  23.019  1.00  0.00     0.047 C 
ATOM     10  C   UNL     1      21.930  38.273  22.207  1.00  0.00     0.014 C 
ATOM     11  C   UNL     1      23.699  40.064  22.122  1.00  0.00     0.014 C 
ENDBRANCH   1   9
TORSDOF 3
ENDMDL
MODEL 3
REMARK VINA RESULT:    -3.851      2.365      3.635
REMARK INTER + INTRA:          -4.475
REMARK INTER:                  -4.402
REMARK INTRA:                  -0.073
REMARK UNBOUND:                -0.061
REMARK SMILES CC(C)[C@@H]([NH3+])C(=O)[O-]
REMARK SMILES IDX 4 1 5 2 6 6 7 7 8 8 2 9 1 10 3 11
REMARK H PARENT 5 3 5 4 5 5
REMARK Flexibility Score: inf
ROOT
ATOM      1  C   UNL     1      24.394  37.229  24.189  1.00  0.00     0.230 C 
ENDROOT
BRANCH   1   2
ATOM      2  N   UNL     1      23.666  36.007  24.560  1.00  0.00    -0.350 N 
ATOM      3  H   UNL     1      22.672  36.248  24.783  1.00  0.00     0.345 HD
ATOM      4  H   UNL     1      23.663  35.334  23.759  1.00  0.00     0.345 HD
ATOM      5  H   UNL     1      24.091  35.546  25.395  1.00  0.00     0.345 HD
ENDBRANCH   1   2
BRANCH   1   6
ATOM      6  C   UNL     1      25.371  36.949  23.072  1.00  0.00     0.099 C 
ATOM      7  O   UNL     1      24.947  36.629  21.930  1.00  0.00    -0.544 OA
ATOM      8  O   UNL     1      26.741  37.012  23.298  1.00  0.00    -0.544 OA
ENDBRANCH   1   6
BRANCH   1   9
ATOM      9  C   UNL     1      23.422  38.401  23.858  1.00  0.00     0.047 C 
ATOM     10  C   UNL     1      24.139  39.714  23.497  1.00  0.00     0.014 C 
ATOM     11  C   UNL     1      22.428  38.644  25.004  1.00  0.00     0.014 C 
ENDBRANCH   1   9
TORSDOF 3
ENDMDL
MODEL 4
REMARK VINA RESULT:    -3.847      2.491      3.062
REMARK INTER + INTRA:          -4.470
REMARK INTER:                  -4.528
REMARK INTRA:                   0.058
REMARK UNBOUND:                -0.061
REMARK SMILES CC(C)[C@@H]([NH3+])C(=O)[O-]
REMARK SMILES IDX 4 1 5 2 6 6 7 7 8 8 2 9 1 10 3 11
REMARK H PARENT 5 3 5 4 5 5
REMARK Flexibility Score: inf
ROOT
ATOM      1  C   UNL     1      23.064  37.941  24.120  1.00  0.00     0.230 C 
ENDROOT
BRANCH   1   2
ATOM      2  N   UNL     1      22.617  38.472  25.416  1.00  0.00    -0.350 N 
ATOM      3  H   UNL     1      23.426  38.917  25.908  1.00  0.00     0.345 HD
ATOM      4  H   UNL     1      21.884  39.203  25.271  1.00  0.00     0.345 HD
ATOM      5  H   UNL     1      22.233  37.716  26.027  1.00  0.00     0.345 HD
ENDBRANCH   1   2
BRANCH   1   6
ATOM      6  C   UNL     1      23.729  39.023  23.303  1.00  0.00     0.099 C 
ATOM      7  O   UNL     1      24.265  40.007  23.878  1.00  0.00    -0.544 OA
ATOM      8  O   UNL     1      23.731  38.962  21.914  1.00  0.00    -0.544 OA
ENDBRANCH   1   6
BRANCH   1   9
ATOM      9  C   UNL     1      23.962  36.680  24.292  1.00  0.00     0.047 C 
ATOM     10  C   UNL     1      25.427  36.905  23.878  1.00  0.00     0.014 C 
ATOM     11  C   UNL     1      23.383  35.474  23.537  1.00  0.00     0.014 C 
ENDBRANCH   1   9
TORSDOF 3
ENDMDL
MODEL 5
REMARK VINA RESULT:    -3.794      1.892      2.522
REMARK INTER + INTRA:          -4.409
REMARK INTER:                  -4.364
REMARK INTRA:                  -0.044
REMARK UNBOUND:                -0.061
REMARK SMILES CC(C)[C@@H]([NH3+])C(=O)[O-]
REMARK SMILES IDX 4 1 5 2 6 6 7 7 8 8 2 9 1 10 3 11
REMARK H PARENT 5 3 5 4 5 5
REMARK Flexibility Score: inf
ROOT
ATOM      1  C   UNL     1      24.625  37.532  22.872  1.00  0.00     0.230 C 
ENDROOT
BRANCH   1   2
ATOM      2  N   UNL     1      24.398  37.048  24.242  1.00  0.00    -0.350 N 
ATOM      3  H   UNL     1      24.272  37.865  24.884  1.00  0.00     0.345 HD
ATOM      4  H   UNL     1      23.526  36.471  24.279  1.00  0.00     0.345 HD
ATOM      5  H   UNL     1      25.203  36.477  24.585  1.00  0.00     0.345 HD
ENDBRANCH   1   2
BRANCH   1   6
ATOM      6  C   UNL     1      24.298  39.002  22.766  1.00  0.00     0.099 C 
ATOM      7  O   UNL     1      24.327  39.574  21.645  1.00  0.00    -0.544 OA
ATOM      8  O   UNL     1      23.993  39.744  23.902  1.00  0.00    -0.544 OA
ENDBRANCH   1   6
BRANCH   1   9
ATOM      9  C   UNL     1      26.062  37.197  22.374  1.00  0.00     0.047 C 
ATOM     10  C   UNL     1      26.107  36.059  21.339  1.00  0.00     0.014 C 
ATOM     11  C   UNL     1      27.000  36.876  23.549  1.00  0.00     0.014 C 
ENDBRANCH   1   9
TORSDOF 3
ENDMDL
MODEL 6
REMARK VINA RESULT:    -3.784      2.342      3.567
REMARK INTER + INTRA:          -4.398
REMARK INTER:                  -4.387
REMARK INTRA:                  -0.011
REMARK UNBOUND:                -0.061
REMARK SMILES CC(C)[C@@H]([NH3+])C(=O)[O-]
REMARK SMILES IDX 4 1 5 2 6 6 7 7 8 8 2 9 1 10 3 11
REMARK H PARENT 5 3 5 4 5 5
REMARK Flexibility Score: inf
ROOT
ATOM      1  C   UNL     1      23.518  37.686  23.865  1.00  0.00     0.230 C 
ENDROOT
BRANCH   1   2
ATOM      2  N   UNL     1      22.575  37.035  22.943  1.00  0.00    -0.350 N 
ATOM      3  H   UNL     1      23.068  36.797  22.052  1.00  0.00     0.345 HD
ATOM      4  H   UNL     1      22.219  36.146  23.364  1.00  0.00     0.345 HD
ATOM      5  H   UNL     1      21.767  37.658  22.719  1.00  0.00     0.345 HD
ENDBRANCH   1   2
BRANCH   1   6
ATOM      6  C   UNL     1      24.927  37.206  23.612  1.00  0.00     0.099 C 
ATOM      7  O   UNL     1      25.511  36.490  24.467  1.00  0.00    -0.544 OA
ATOM      8  O   UNL     1      25.601  37.571  22.452  1.00  0.00    -0.544 OA
ENDBRANCH   1   6
BRANCH   1   9
ATOM      9  C   UNL     1      23.392  39.239  23.815  1.00  0.00     0.047 C 
ATOM     10  C   UNL     1      22.461  39.817  24.895  1.00  0.00     0.014 C 
ATOM     11  C   UNL     1      22.947  39.719  22.425  1.00  0.00     0.014 C 
ENDBRANCH   1   9
TORSDOF 3
ENDMDL
MODEL 7
REMARK VINA RESULT:    -3.784      1.941      2.497
REMARK INTER + INTRA:          -4.398
REMARK INTER:                  -4.338
REMARK INTRA:                  -0.059
REMARK UNBOUND:                -0.061
REMARK SMILES CC(C)[C@@H]([NH3+])C(=O)[O-]
REMARK SMILES IDX 4 1 5 2 6 6 7 7 8 8 2 9 1 10 3 11
REMARK H PARENT 5 3 5 4 5 5
REMARK Flexibility Score: inf
ROOT
ATOM      1  C   UNL     1      24.563  38.221  22.339  1.00  0.00     0.230 C 
ENDROOT
BRANCH   1   2
ATOM      2  N   UNL     1      23.660  37.342  21.583  1.00  0.00    -0.350 N 
ATOM      3  H   UNL     1      23.654  37.629  20.577  1.00  0.00     0.345 HD
ATOM      4  H   UNL     1      23.996  36.352  21.634  1.00  0.00     0.345 HD
ATOM      5  H   UNL     1      22.682  37.392  21.948  1.00  0.00     0.345 HD
ENDBRANCH   1   2
BRANCH   1   6
ATOM      6  C   UNL     1      23.811  39.408  22.892  1.00  0.00     0.099 C 
ATOM      7  O   UNL     1      24.313  40.094  23.821  1.00  0.00    -0.544 OA
ATOM      8  O   UNL     1      22.551  39.737  22.406  1.00  0.00    -0.544 OA
ENDBRANCH   1   6
BRANCH   1   9
ATOM      9  C   UNL     1      25.344  37.439  23.437  1.00  0.00     0.047 C 
ATOM     10  C   UNL     1      26.582  36.697  22.903  1.00  0.00     0.014 C 
ATOM     11  C   UNL     1      24.426  36.458  24.184  1.00  0.00     0.014 C 
ENDBRANCH   1   9
TORSDOF 3
ENDMDL
MODEL 8
REMARK VINA RESULT:    -3.596      2.682      3.577
REMARK INTER + INTRA:          -4.182
REMARK INTER:                  -4.202
REMARK INTRA:                   0.020
REMARK UNBOUND:                -0.061
REMARK SMILES CC(C)[C@@H]([NH3+])C(=O)[O-]
REMARK SMILES IDX 4 1 5 2 6 6 7 7 8 8 2 9 1 10 3 11
REMARK H PARENT 5 3 5 4 5 5
REMARK Flexibility Score: inf
ROOT
ATOM      1  C   UNL     1      24.186  37.873  23.543  1.00  0.00     0.230 C 
ENDROOT
BRANCH   1   2
ATOM      2  N   UNL     1      23.644  37.121  24.684  1.00  0.00    -0.350 N 
ATOM      3  H   UNL     1      24.152  37.398  25.556  1.00  0.00     0.345 HD
ATOM      4  H   UNL     1      22.631  37.346  24.814  1.00  0.00     0.345 HD
ATOM      5  H   UNL     1      23.753  36.090  24.550  1.00  0.00     0.345 HD
ENDBRANCH   1   2
BRANCH   1   6
ATOM      6  C   UNL     1      23.684  37.297  22.240  1.00  0.00     0.099 C 
ATOM      7  O   UNL     1      24.501  36.981  21.335  1.00  0.00    -0.544 OA
ATOM      8  O   UNL     1      22.322  37.138  22.014  1.00  0.00    -0.544 OA
ENDBRANCH   1   6
BRANCH   1   9
ATOM      9  C   UNL     1      23.905  39.400  23.674  1.00  0.00     0.047 C 
ATOM     10  C   UNL     1      22.581  39.725  24.387  1.00  0.00     0.014 C 
ATOM     11  C   UNL     1      23.948  40.095  22.304  1.00  0.00     0.014 C 
ENDBRANCH   1   9
TORSDOF 3
ENDMDL
MODEL 9
REMARK VINA RESULT:    -3.586     15.852     16.926
REMARK INTER + INTRA:          -4.170
REMARK INTER:                  -4.127
REMARK INTRA:                  -0.043
REMARK UNBOUND:                -0.061
REMARK SMILES CC(C)[C@@H]([NH3+])C(=O)[O-]
REMARK SMILES IDX 4 1 5 2 6 6 7 7 8 8 2 9 1 10 3 11
REMARK H PARENT 5 3 5 4 5 5
REMARK Flexibility Score: inf
ROOT
ATOM      1  C   UNL     1      16.324  51.395  24.862  1.00  0.00     0.230 C 
ENDROOT
BRANCH   1   2
ATOM      2  N   UNL     1      15.192  50.677  24.259  1.00  0.00    -0.350 N 
ATOM      3  H   UNL     1      14.342  51.287  24.279  1.00  0.00     0.345 HD
ATOM      4  H   UNL     1      15.403  50.450  23.260  1.00  0.00     0.345 HD
ATOM      5  H   UNL     1      14.979  49.794  24.775  1.00  0.00     0.345 HD
ENDBRANCH   1   2
BRANCH   1   6
ATOM      6  C   UNL     1      17.529  50.492  24.974  1.00  0.00     0.099 C 
ATOM      7  O   UNL     1      17.648  49.503  24.203  1.00  0.00    -0.544 OA
ATOM      8  O   UNL     1      18.499  50.722  25.942  1.00  0.00    -0.544 OA
ENDBRANCH   1   6
BRANCH   1   9
ATOM      9  C   UNL     1      16.635  52.721  24.106  1.00  0.00     0.047 C 
ATOM     10  C   UNL     1      16.498  53.978  24.983  1.00  0.00     0.014 C 
ATOM     11  C   UNL     1      15.765  52.863  22.847  1.00  0.00     0.014 C 
ENDBRANCH   1   9
TORSDOF 3
ENDMDL
