MODEL 1
REMARK VINA RESULT:     8.164      0.000      0.000
REMARK INTER + INTRA:          12.037
REMARK INTER:                  11.028
REMARK INTRA:                   1.009
REMARK UNBOUND:                 1.009
REMARK SMILES O=c1c(-c2ccc(O)cc2)coc2c([C@H]3O[C@H](CO)[C@H](O)[C@H](O)[C@@H]3O)c(O)ccc12
REMARK SMILES IDX 3 1 11 2 12 3 13 4 30 5 2 6 1 7 29 8 28 9 26 10 14 11 4 12
REMARK SMILES IDX 5 13 6 14 7 15 10 16 9 17 8 18 15 20 24 21 16 22 22 23 17 24
REMARK SMILES IDX 20 25 25 26 23 28 18 30 19 31 21 33 27 35
REMARK H PARENT 8 19 25 27 23 29 19 32 21 34 27 36
REMARK Flexibility Score: inf
ROOT
ATOM      1  C   UNL     1      14.439  -8.922  26.350  1.00  0.00     0.065 A 
ATOM      2  C   UNL     1      14.829 -10.265  26.381  1.00  0.00     0.208 A 
ATOM      3  O   UNL     1      14.509 -11.043  27.408  1.00  0.00    -0.463 OA
ATOM      4  C   UNL     1      13.813 -10.632  28.460  1.00  0.00     0.147 A 
ATOM      5  C   UNL     1      13.400  -9.276  28.517  1.00  0.00     0.066 A 
ATOM      6  C   UNL     1      13.720  -8.420  27.445  1.00  0.00     0.200 A 
ATOM      7  O   UNL     1      13.383  -7.203  27.478  1.00  0.00    -0.288 OA
ATOM      8  C   UNL     1      12.698  -8.807  29.633  1.00  0.00     0.020 A 
ATOM      9  C   UNL     1      12.433  -9.655  30.698  1.00  0.00     0.047 A 
ATOM     10  C   UNL     1      12.838 -10.989  30.672  1.00  0.00     0.125 A 
ATOM     11  C   UNL     1      13.493 -11.529  29.525  1.00  0.00     0.069 A 
ENDROOT
BRANCH   1  12
ATOM     12  C   UNL     1      14.797  -8.073  25.185  1.00  0.00    -0.011 A 
ATOM     13  C   UNL     1      14.736  -8.595  23.881  1.00  0.00     0.013 A 
ATOM     14  C   UNL     1      15.063  -7.794  22.782  1.00  0.00     0.047 A 
ATOM     15  C   UNL     1      15.449  -6.461  22.973  1.00  0.00     0.115 A 
ATOM     16  C   UNL     1      15.179  -6.731  25.367  1.00  0.00     0.013 A 
ATOM     17  C   UNL     1      15.505  -5.933  24.266  1.00  0.00     0.047 A 
BRANCH  15  18
ATOM     18  O   UNL     1      15.777  -5.654  21.886  1.00  0.00    -0.508 OA
ATOM     19  H   UNL     1      16.726  -5.335  21.730  1.00  0.00     0.293 HD
ENDBRANCH  15  18
ENDBRANCH   1  12
BRANCH  11  20
ATOM     20  C   UNL     1      13.796 -13.046  29.518  1.00  0.00     0.188 C 
ATOM     21  C   UNL     1      15.202 -13.585  29.119  1.00  0.00     0.179 C 
ATOM     22  O   UNL     1      12.781 -13.763  28.824  1.00  0.00    -0.362 OA
ATOM     23  C   UNL     1      15.374 -13.611  27.575  1.00  0.00     0.177 C 
ATOM     24  C   UNL     1      12.861 -13.568  27.422  1.00  0.00     0.176 C 
ATOM     25  C   UNL     1      14.148 -14.217  26.859  1.00  0.00     0.177 C 
BRANCH  21  26
ATOM     26  O   UNL     1      15.329 -14.889  29.634  1.00  0.00    -0.387 OA
ATOM     27  H   UNL     1      16.299 -15.081  29.729  1.00  0.00     0.211 HD
ENDBRANCH  21  26
BRANCH  23  28
ATOM     28  O   UNL     1      16.574 -14.238  27.192  1.00  0.00    -0.387 OA
ATOM     29  H   UNL     1      16.622 -14.243  26.201  1.00  0.00     0.211 HD
ENDBRANCH  23  28
BRANCH  24  30
ATOM     30  C   UNL     1      11.598 -14.146  26.772  1.00  0.00     0.191 C 
BRANCH  30  31
ATOM     31  O   UNL     1      10.455 -13.528  27.298  1.00  0.00    -0.394 OA
ATOM     32  H   UNL     1       9.778 -13.541  26.573  1.00  0.00     0.210 HD
ENDBRANCH  30  31
ENDBRANCH  24  30
BRANCH  25  33
ATOM     33  O   UNL     1      14.122 -15.623  26.954  1.00  0.00    -0.388 OA
ATOM     34  H   UNL     1      13.479 -15.877  27.665  1.00  0.00     0.211 HD
ENDBRANCH  25  33
ENDBRANCH  11  20
BRANCH  10  35
ATOM     35  O   UNL     1      12.576 -11.746  31.819  1.00  0.00    -0.507 OA
ATOM     36  H   UNL     1      11.676 -12.144  32.046  1.00  0.00     0.293 HD
ENDBRANCH  10  35
TORSDOF 9
ENDMDL
MODEL 2
REMARK VINA RESULT:     8.189      1.439      2.062
REMARK INTER + INTRA:          12.070
REMARK INTER:                  10.807
REMARK INTRA:                   1.263
REMARK UNBOUND:                 1.009
REMARK SMILES O=c1c(-c2ccc(O)cc2)coc2c([C@H]3O[C@H](CO)[C@H](O)[C@H](O)[C@@H]3O)c(O)ccc12
REMARK SMILES IDX 3 1 11 2 12 3 13 4 30 5 2 6 1 7 29 8 28 9 26 10 14 11 4 12
REMARK SMILES IDX 5 13 6 14 7 15 10 16 9 17 8 18 15 20 24 21 16 22 22 23 17 24
REMARK SMILES IDX 20 25 25 26 23 28 18 30 19 31 21 33 27 35
REMARK H PARENT 8 19 25 27 23 29 19 32 21 34 27 36
REMARK Flexibility Score: inf
ROOT
ATOM      1  C   UNL     1      13.819  -9.275  26.708  1.00  0.00     0.065 A 
ATOM      2  C   UNL     1      14.496 -10.397  27.196  1.00  0.00     0.208 A 
ATOM      3  O   UNL     1      13.944 -11.178  28.116  1.00  0.00    -0.463 OA
ATOM      4  C   UNL     1      12.741 -10.974  28.637  1.00  0.00     0.147 A 
ATOM      5  C   UNL     1      11.998  -9.842  28.212  1.00  0.00     0.066 A 
ATOM      6  C   UNL     1      12.550  -8.990  27.237  1.00  0.00     0.200 A 
ATOM      7  O   UNL     1      11.920  -7.963  26.856  1.00  0.00    -0.288 OA
ATOM      8  C   UNL     1      10.743  -9.582  28.774  1.00  0.00     0.020 A 
ATOM      9  C   UNL     1      10.237 -10.408  29.767  1.00  0.00     0.047 A 
ATOM     10  C   UNL     1      10.953 -11.520  30.210  1.00  0.00     0.125 A 
ATOM     11  C   UNL     1      12.203 -11.864  29.616  1.00  0.00     0.069 A 
ENDROOT
BRANCH   1  12
ATOM     12  C   UNL     1      14.449  -8.421  25.669  1.00  0.00    -0.011 A 
ATOM     13  C   UNL     1      14.479  -8.841  24.328  1.00  0.00     0.013 A 
ATOM     14  C   UNL     1      15.064  -8.034  23.346  1.00  0.00     0.047 A 
ATOM     15  C   UNL     1      15.620  -6.796  23.693  1.00  0.00     0.115 A 
ATOM     16  C   UNL     1      15.003  -7.172  26.007  1.00  0.00     0.013 A 
ATOM     17  C   UNL     1      15.587  -6.368  25.023  1.00  0.00     0.047 A 
BRANCH  15  18
ATOM     18  O   UNL     1      16.205  -5.984  22.723  1.00  0.00    -0.508 OA
ATOM     19  H   UNL     1      16.101  -6.181  21.735  1.00  0.00     0.293 HD
ENDBRANCH  15  18
ENDBRANCH   1  12
BRANCH  11  20
ATOM     20  C   UNL     1      12.875 -13.182  30.069  1.00  0.00     0.188 C 
ATOM     21  C   UNL     1      14.096 -13.173  31.036  1.00  0.00     0.179 C 
ATOM     22  O   UNL     1      13.139 -14.026  28.954  1.00  0.00    -0.362 OA
ATOM     23  C   UNL     1      15.409 -12.842  30.277  1.00  0.00     0.177 C 
ATOM     24  C   UNL     1      14.221 -13.545  28.172  1.00  0.00     0.176 C 
ATOM     25  C   UNL     1      15.546 -13.643  28.965  1.00  0.00     0.177 C 
BRANCH  21  26
ATOM     26  O   UNL     1      14.193 -14.449  31.624  1.00  0.00    -0.387 OA
ATOM     27  H   UNL     1      14.995 -14.448  32.211  1.00  0.00     0.211 HD
ENDBRANCH  21  26
BRANCH  23  28
ATOM     28  O   UNL     1      16.541 -12.981  31.101  1.00  0.00    -0.387 OA
ATOM     29  H   UNL     1      17.100 -13.719  30.745  1.00  0.00     0.211 HD
ENDBRANCH  23  28
BRANCH  24  30
ATOM     30  C   UNL     1      14.276 -14.346  26.866  1.00  0.00     0.191 C 
BRANCH  30  31
ATOM     31  O   UNL     1      15.602 -14.478  26.433  1.00  0.00    -0.394 OA
ATOM     32  H   UNL     1      15.577 -15.088  25.651  1.00  0.00     0.210 HD
ENDBRANCH  30  31
ENDBRANCH  24  30
BRANCH  25  33
ATOM     33  O   UNL     1      15.930 -14.980  29.199  1.00  0.00    -0.388 OA
ATOM     34  H   UNL     1      16.575 -14.994  29.951  1.00  0.00     0.211 HD
ENDBRANCH  25  33
ENDBRANCH  11  20
BRANCH  10  35
ATOM     35  O   UNL     1      10.384 -12.254  31.256  1.00  0.00    -0.507 OA
ATOM     36  H   UNL     1       9.403 -12.488  31.321  1.00  0.00     0.293 HD
ENDBRANCH  10  35
TORSDOF 9
ENDMDL
MODEL 3
REMARK VINA RESULT:    10.545      2.083      7.811
REMARK INTER + INTRA:          15.253
REMARK INTER:                  13.033
REMARK INTRA:                   2.220
REMARK UNBOUND:                 1.009
REMARK SMILES O=c1c(-c2ccc(O)cc2)coc2c([C@H]3O[C@H](CO)[C@H](O)[C@H](O)[C@@H]3O)c(O)ccc12
REMARK SMILES IDX 3 1 11 2 12 3 13 4 30 5 2 6 1 7 29 8 28 9 26 10 14 11 4 12
REMARK SMILES IDX 5 13 6 14 7 15 10 16 9 17 8 18 15 20 24 21 16 22 22 23 17 24
REMARK SMILES IDX 20 25 25 26 23 28 18 30 19 31 21 33 27 35
REMARK H PARENT 8 19 25 27 23 29 19 32 21 34 27 36
REMARK Flexibility Score: inf
ROOT
ATOM      1  C   UNL     1      14.569 -12.378  29.063  1.00  0.00     0.065 A 
ATOM      2  C   UNL     1      15.674 -11.846  28.389  1.00  0.00     0.208 A 
ATOM      3  O   UNL     1      15.564 -10.732  27.676  1.00  0.00    -0.463 OA
ATOM      4  C   UNL     1      14.436 -10.044  27.544  1.00  0.00     0.147 A 
ATOM      5  C   UNL     1      13.263 -10.531  28.177  1.00  0.00     0.066 A 
ATOM      6  C   UNL     1      13.341 -11.710  28.943  1.00  0.00     0.200 A 
ATOM      7  O   UNL     1      12.308 -12.177  29.500  1.00  0.00    -0.288 OA
ATOM      8  C   UNL     1      12.053  -9.846  28.022  1.00  0.00     0.020 A 
ATOM      9  C   UNL     1      11.989  -8.712  27.226  1.00  0.00     0.047 A 
ATOM     10  C   UNL     1      13.124  -8.221  26.584  1.00  0.00     0.125 A 
ATOM     11  C   UNL     1      14.394  -8.844  26.771  1.00  0.00     0.069 A 
ENDROOT
BRANCH   1  12
ATOM     12  C   UNL     1      14.717 -13.619  29.865  1.00  0.00    -0.011 A 
ATOM     13  C   UNL     1      15.057 -14.832  29.240  1.00  0.00     0.013 A 
ATOM     14  C   UNL     1      15.206 -16.000  29.995  1.00  0.00     0.047 A 
ATOM     15  C   UNL     1      15.023 -15.968  31.383  1.00  0.00     0.115 A 
ATOM     16  C   UNL     1      14.543 -13.594  31.261  1.00  0.00     0.013 A 
ATOM     17  C   UNL     1      14.693 -14.764  32.013  1.00  0.00     0.047 A 
BRANCH  15  18
ATOM     18  O   UNL     1      15.169 -17.125  32.146  1.00  0.00    -0.508 OA
ATOM     19  H   UNL     1      15.657 -17.116  33.034  1.00  0.00     0.293 HD
ENDBRANCH  15  18
ENDBRANCH   1  12
BRANCH  11  20
ATOM     20  C   UNL     1      15.629  -8.166  26.131  1.00  0.00     0.188 C 
ATOM     21  C   UNL     1      15.897  -6.643  26.315  1.00  0.00     0.179 C 
ATOM     22  O   UNL     1      15.749  -8.523  24.759  1.00  0.00    -0.362 OA
ATOM     23  C   UNL     1      15.018  -5.799  25.352  1.00  0.00     0.177 C 
ATOM     24  C   UNL     1      14.770  -7.881  23.958  1.00  0.00     0.176 C 
ATOM     25  C   UNL     1      15.026  -6.355  23.912  1.00  0.00     0.177 C 
BRANCH  21  26
ATOM     26  O   UNL     1      17.260  -6.407  26.046  1.00  0.00    -0.387 OA
ATOM     27  H   UNL     1      17.774  -6.663  26.858  1.00  0.00     0.211 HD
ENDBRANCH  21  26
BRANCH  23  28
ATOM     28  O   UNL     1      15.358  -4.434  25.392  1.00  0.00    -0.387 OA
ATOM     29  H   UNL     1      15.691  -4.167  24.497  1.00  0.00     0.211 HD
ENDBRANCH  23  28
BRANCH  24  30
ATOM     30  C   UNL     1      14.793  -8.506  22.558  1.00  0.00     0.191 C 
BRANCH  30  31
ATOM     31  O   UNL     1      14.871  -7.505  21.580  1.00  0.00    -0.394 OA
ATOM     32  H   UNL     1      15.786  -7.560  21.203  1.00  0.00     0.210 HD
ENDBRANCH  30  31
ENDBRANCH  24  30
BRANCH  25  33
ATOM     33  O   UNL     1      16.216  -6.035  23.227  1.00  0.00    -0.388 OA
ATOM     34  H   UNL     1      15.979  -5.718  22.318  1.00  0.00     0.211 HD
ENDBRANCH  25  33
ENDBRANCH  11  20
BRANCH  10  35
ATOM     35  O   UNL     1      12.943  -7.108  25.756  1.00  0.00    -0.507 OA
ATOM     36  H   UNL     1      12.813  -7.156  24.755  1.00  0.00     0.293 HD
ENDBRANCH  10  35
TORSDOF 9
ENDMDL
