MODEL 1
REMARK VINA RESULT:    -4.682      0.000      0.000
REMARK INTER + INTRA:          -9.916
REMARK INTER:                  -8.513
REMARK INTRA:                  -1.402
REMARK UNBOUND:                -1.402
REMARK SMILES CCCCCCCCCCCCCCCC(=O)[O-]
REMARK SMILES IDX 9 1 10 2 11 3 12 4 13 5 14 6 15 7 16 8 17 9 18 10 8 11 7 12
REMARK SMILES IDX 6 13 5 14 4 15 3 16 2 17 1 18
REMARK H PARENT
REMARK Flexibility Score: inf
ROOT
ATOM      1  C   UNL     1       5.417  10.642   6.131  1.00  0.00     0.000 C 
ENDROOT
BRANCH   1   2
ATOM      2  C   UNL     1       4.007  10.210   6.570  1.00  0.00     0.000 C 
BRANCH   2   3
ATOM      3  C   UNL     1       4.017   9.415   7.885  1.00  0.00     0.000 C 
BRANCH   3   4
ATOM      4  C   UNL     1       5.065   9.936   8.885  1.00  0.00     0.000 C 
BRANCH   4   5
ATOM      5  C   UNL     1       4.480  10.946   9.889  1.00  0.00     0.000 C 
BRANCH   5   6
ATOM      6  C   UNL     1       4.030  12.287   9.274  1.00  0.00     0.006 C 
BRANCH   6   7
ATOM      7  C   UNL     1       2.613  12.729   9.672  1.00  0.00     0.053 C 
BRANCH   7   8
ATOM      8  C   UNL     1       1.639  11.594   9.622  1.00  0.00     0.041 C 
ATOM      9  O   UNL     1       1.103  11.265   8.530  1.00  0.00    -0.550 OA
ATOM     10  O   UNL     1       1.346  10.876  10.775  1.00  0.00    -0.550 OA
ENDBRANCH   7   8
ENDBRANCH   6   7
ENDBRANCH   5   6
ENDBRANCH   4   5
ENDBRANCH   3   4
ENDBRANCH   2   3
ENDBRANCH   1   2
BRANCH   1  11
ATOM     11  C   UNL     1       5.425  11.316   4.748  1.00  0.00     0.000 C 
BRANCH  11  12
ATOM     12  C   UNL     1       6.531  12.378   4.616  1.00  0.00    -0.000 C 
BRANCH  12  13
ATOM     13  C   UNL     1       7.862  11.788   4.122  1.00  0.00    -0.000 C 
BRANCH  13  14
ATOM     14  C   UNL     1       8.920  12.870   3.839  1.00  0.00    -0.000 C 
BRANCH  14  15
ATOM     15  C   UNL     1      10.013  12.922   4.921  1.00  0.00    -0.000 C 
BRANCH  15  16
ATOM     16  C   UNL     1       9.837  11.834   5.994  1.00  0.00    -0.000 C 
BRANCH  16  17
ATOM     17  C   UNL     1       9.606  12.420   7.394  1.00  0.00    -0.003 C 
ATOM     18  C   UNL     1       8.213  12.115   7.944  1.00  0.00     0.004 C 
ENDBRANCH  16  17
ENDBRANCH  15  16
ENDBRANCH  14  15
ENDBRANCH  13  14
ENDBRANCH  12  13
ENDBRANCH  11  12
ENDBRANCH   1  11
TORSDOF 14
ENDMDL
MODEL 2
REMARK VINA RESULT:    -4.641      2.396      6.742
REMARK INTER + INTRA:          -9.841
REMARK INTER:                  -8.419
REMARK INTRA:                  -1.422
REMARK UNBOUND:                -1.402
REMARK SMILES CCCCCCCCCCCCCCCC(=O)[O-]
REMARK SMILES IDX 9 1 10 2 11 3 12 4 13 5 14 6 15 7 16 8 17 9 18 10 8 11 7 12
REMARK SMILES IDX 6 13 5 14 4 15 3 16 2 17 1 18
REMARK H PARENT
REMARK Flexibility Score: inf
ROOT
ATOM      1  C   UNL     1       7.886  11.404   7.830  1.00  0.00     0.000 C 
ENDROOT
BRANCH   1   2
ATOM      2  C   UNL     1       8.712  12.671   8.117  1.00  0.00     0.000 C 
BRANCH   2   3
ATOM      3  C   UNL     1      10.044  12.691   7.351  1.00  0.00     0.000 C 
BRANCH   3   4
ATOM      4  C   UNL     1       9.978  11.913   6.025  1.00  0.00     0.000 C 
BRANCH   4   5
ATOM      5  C   UNL     1       9.862  12.835   4.798  1.00  0.00     0.000 C 
BRANCH   5   6
ATOM      6  C   UNL     1       8.666  12.537   3.871  1.00  0.00     0.006 C 
BRANCH   6   7
ATOM      7  C   UNL     1       7.289  12.803   4.499  1.00  0.00     0.053 C 
BRANCH   7   8
ATOM      8  C   UNL     1       6.455  11.562   4.564  1.00  0.00     0.041 C 
ATOM      9  O   UNL     1       5.198  11.642   4.564  1.00  0.00    -0.550 OA
ATOM     10  O   UNL     1       7.065  10.315   4.590  1.00  0.00    -0.550 OA
ENDBRANCH   7   8
ENDBRANCH   6   7
ENDBRANCH   5   6
ENDBRANCH   4   5
ENDBRANCH   3   4
ENDBRANCH   2   3
ENDBRANCH   1   2
BRANCH   1  11
ATOM     11  C   UNL     1       6.437  11.516   8.334  1.00  0.00     0.000 C 
BRANCH  11  12
ATOM     12  C   UNL     1       5.791  10.142   8.585  1.00  0.00    -0.000 C 
BRANCH  12  13
ATOM     13  C   UNL     1       4.845   9.717   7.451  1.00  0.00    -0.000 C 
BRANCH  13  14
ATOM     14  C   UNL     1       3.481  10.427   7.521  1.00  0.00    -0.000 C 
BRANCH  14  15
ATOM     15  C   UNL     1       2.923  10.492   8.953  1.00  0.00    -0.000 C 
BRANCH  15  16
ATOM     16  C   UNL     1       2.697  11.935   9.436  1.00  0.00    -0.000 C 
BRANCH  16  17
ATOM     17  C   UNL     1       1.333  12.120  10.119  1.00  0.00    -0.003 C 
ATOM     18  C   UNL     1       0.392  13.029   9.329  1.00  0.00     0.004 C 
ENDBRANCH  16  17
ENDBRANCH  15  16
ENDBRANCH  14  15
ENDBRANCH  13  14
ENDBRANCH  12  13
ENDBRANCH  11  12
ENDBRANCH   1  11
TORSDOF 14
ENDMDL
MODEL 3
REMARK VINA RESULT:    -4.479      1.192      2.962
REMARK INTER + INTRA:          -9.547
REMARK INTER:                  -8.204
REMARK INTRA:                  -1.343
REMARK UNBOUND:                -1.402
REMARK SMILES CCCCCCCCCCCCCCCC(=O)[O-]
REMARK SMILES IDX 9 1 10 2 11 3 12 4 13 5 14 6 15 7 16 8 17 9 18 10 8 11 7 12
REMARK SMILES IDX 6 13 5 14 4 15 3 16 2 17 1 18
REMARK H PARENT
REMARK Flexibility Score: inf
ROOT
ATOM      1  C   UNL     1       7.809  11.112   7.770  1.00  0.00     0.000 C 
ENDROOT
BRANCH   1   2
ATOM      2  C   UNL     1       6.477  10.960   8.524  1.00  0.00     0.000 C 
BRANCH   2   3
ATOM      3  C   UNL     1       5.266  11.369   7.669  1.00  0.00     0.000 C 
BRANCH   3   4
ATOM      4  C   UNL     1       4.283  10.208   7.440  1.00  0.00     0.000 C 
BRANCH   4   5
ATOM      5  C   UNL     1       3.839   9.536   8.752  1.00  0.00     0.000 C 
BRANCH   5   6
ATOM      6  C   UNL     1       3.491  10.509   9.896  1.00  0.00     0.006 C 
BRANCH   6   7
ATOM      7  C   UNL     1       2.002  10.872   9.996  1.00  0.00     0.053 C 
BRANCH   7   8
ATOM      8  C   UNL     1       1.756  12.318   9.696  1.00  0.00     0.041 C 
ATOM      9  O   UNL     1       2.725  13.113   9.569  1.00  0.00    -0.550 OA
ATOM     10  O   UNL     1       0.458  12.782   9.525  1.00  0.00    -0.550 OA
ENDBRANCH   7   8
ENDBRANCH   6   7
ENDBRANCH   5   6
ENDBRANCH   4   5
ENDBRANCH   3   4
ENDBRANCH   2   3
ENDBRANCH   1   2
BRANCH   1  11
ATOM     11  C   UNL     1       8.533  12.427   8.108  1.00  0.00     0.000 C 
BRANCH  11  12
ATOM     12  C   UNL     1       9.892  12.552   7.396  1.00  0.00    -0.000 C 
BRANCH  12  13
ATOM     13  C   UNL     1       9.919  11.828   6.041  1.00  0.00    -0.000 C 
BRANCH  13  14
ATOM     14  C   UNL     1      10.004  12.801   4.851  1.00  0.00    -0.000 C 
BRANCH  14  15
ATOM     15  C   UNL     1       8.822  12.648   3.879  1.00  0.00    -0.000 C 
BRANCH  15  16
ATOM     16  C   UNL     1       7.484  12.419   4.604  1.00  0.00    -0.000 C 
BRANCH  16  17
ATOM     17  C   UNL     1       6.854  11.061   4.261  1.00  0.00    -0.003 C 
ATOM     18  C   UNL     1       5.348  11.149   4.018  1.00  0.00     0.004 C 
ENDBRANCH  16  17
ENDBRANCH  15  16
ENDBRANCH  14  15
ENDBRANCH  13  14
ENDBRANCH  12  13
ENDBRANCH  11  12
ENDBRANCH   1  11
TORSDOF 14
ENDMDL
MODEL 4
REMARK VINA RESULT:    -4.295      3.129      6.829
REMARK INTER + INTRA:          -9.213
REMARK INTER:                  -7.564
REMARK INTRA:                  -1.648
REMARK UNBOUND:                -1.402
REMARK SMILES CCCCCCCCCCCCCCCC(=O)[O-]
REMARK SMILES IDX 9 1 10 2 11 3 12 4 13 5 14 6 15 7 16 8 17 9 18 10 8 11 7 12
REMARK SMILES IDX 6 13 5 14 4 15 3 16 2 17 1 18
REMARK H PARENT
REMARK Flexibility Score: inf
ROOT
ATOM      1  C   UNL     1       5.243  10.597   6.255  1.00  0.00     0.000 C 
ENDROOT
BRANCH   1   2
ATOM      2  C   UNL     1       5.896  11.813   6.934  1.00  0.00     0.000 C 
BRANCH   2   3
ATOM      3  C   UNL     1       7.183  11.444   7.689  1.00  0.00     0.000 C 
BRANCH   3   4
ATOM      4  C   UNL     1       8.011  12.678   8.088  1.00  0.00     0.000 C 
BRANCH   4   5
ATOM      5  C   UNL     1       9.508  12.522   7.762  1.00  0.00     0.000 C 
BRANCH   5   6
ATOM      6  C   UNL     1       9.816  12.077   6.318  1.00  0.00     0.006 C 
BRANCH   6   7
ATOM      7  C   UNL     1       9.485  13.124   5.243  1.00  0.00     0.053 C 
BRANCH   7   8
ATOM      8  C   UNL     1       8.831  12.509   4.045  1.00  0.00     0.041 C 
ATOM      9  O   UNL     1       9.076  12.951   2.892  1.00  0.00    -0.550 OA
ATOM     10  O   UNL     1       7.977  11.425   4.199  1.00  0.00    -0.550 OA
ENDBRANCH   7   8
ENDBRANCH   6   7
ENDBRANCH   5   6
ENDBRANCH   4   5
ENDBRANCH   3   4
ENDBRANCH   2   3
ENDBRANCH   1   2
BRANCH   1  11
ATOM     11  C   UNL     1       3.734  10.500   6.540  1.00  0.00     0.000 C 
BRANCH  11  12
ATOM     12  C   UNL     1       3.391   9.368   7.524  1.00  0.00    -0.000 C 
BRANCH  12  13
ATOM     13  C   UNL     1       4.326   9.340   8.744  1.00  0.00    -0.000 C 
BRANCH  13  14
ATOM     14  C   UNL     1       3.765  10.134   9.938  1.00  0.00    -0.000 C 
BRANCH  14  15
ATOM     15  C   UNL     1       4.260  11.590   9.962  1.00  0.00    -0.000 C 
BRANCH  15  16
ATOM     16  C   UNL     1       3.164  12.596   9.568  1.00  0.00    -0.000 C 
BRANCH  16  17
ATOM     17  C   UNL     1       1.750  12.021   9.740  1.00  0.00    -0.003 C 
ATOM     18  C   UNL     1       0.653  13.056   9.488  1.00  0.00     0.004 C 
ENDBRANCH  16  17
ENDBRANCH  15  16
ENDBRANCH  14  15
ENDBRANCH  13  14
ENDBRANCH  12  13
ENDBRANCH  11  12
ENDBRANCH   1  11
TORSDOF 14
ENDMDL
MODEL 5
REMARK VINA RESULT:    -4.256      2.360      6.475
REMARK INTER + INTRA:          -9.142
REMARK INTER:                  -7.362
REMARK INTRA:                  -1.780
REMARK UNBOUND:                -1.402
REMARK SMILES CCCCCCCCCCCCCCCC(=O)[O-]
REMARK SMILES IDX 9 1 10 2 11 3 12 4 13 5 14 6 15 7 16 8 17 9 18 10 8 11 7 12
REMARK SMILES IDX 6 13 5 14 4 15 3 16 2 17 1 18
REMARK H PARENT
REMARK Flexibility Score: inf
ROOT
ATOM      1  C   UNL     1       7.541  12.089   8.122  1.00  0.00     0.000 C 
ENDROOT
BRANCH   1   2
ATOM      2  C   UNL     1       8.707  13.022   8.494  1.00  0.00     0.000 C 
BRANCH   2   3
ATOM      3  C   UNL     1       9.973  12.738   7.670  1.00  0.00     0.000 C 
BRANCH   3   4
ATOM      4  C   UNL     1       9.681  11.933   6.392  1.00  0.00     0.000 C 
BRANCH   4   5
ATOM      5  C   UNL     1       9.692  12.804   5.123  1.00  0.00     0.000 C 
BRANCH   5   6
ATOM      6  C   UNL     1       8.672  12.393   4.042  1.00  0.00     0.006 C 
BRANCH   6   7
ATOM      7  C   UNL     1       7.202  12.593   4.442  1.00  0.00     0.053 C 
BRANCH   7   8
ATOM      8  C   UNL     1       6.487  11.290   4.615  1.00  0.00     0.041 C 
ATOM      9  O   UNL     1       7.138  10.215   4.705  1.00  0.00    -0.550 OA
ATOM     10  O   UNL     1       5.101  11.264   4.709  1.00  0.00    -0.550 OA
ENDBRANCH   7   8
ENDBRANCH   6   7
ENDBRANCH   5   6
ENDBRANCH   4   5
ENDBRANCH   3   4
ENDBRANCH   2   3
ENDBRANCH   1   2
BRANCH   1  11
ATOM     11  C   UNL     1       6.215  12.846   7.937  1.00  0.00     0.000 C 
BRANCH  11  12
ATOM     12  C   UNL     1       5.342  12.828   9.204  1.00  0.00    -0.000 C 
BRANCH  12  13
ATOM     13  C   UNL     1       3.839  12.888   8.888  1.00  0.00    -0.000 C 
BRANCH  13  14
ATOM     14  C   UNL     1       3.000  12.005   9.830  1.00  0.00    -0.000 C 
BRANCH  14  15
ATOM     15  C   UNL     1       2.738  10.605   9.247  1.00  0.00    -0.000 C 
BRANCH  15  16
ATOM     16  C   UNL     1       3.176  10.485   7.777  1.00  0.00    -0.000 C 
BRANCH  16  17
ATOM     17  C   UNL     1       4.403   9.577   7.601  1.00  0.00    -0.003 C 
ATOM     18  C   UNL     1       4.976   9.090   8.932  1.00  0.00     0.004 C 
ENDBRANCH  16  17
ENDBRANCH  15  16
ENDBRANCH  14  15
ENDBRANCH  13  14
ENDBRANCH  12  13
ENDBRANCH  11  12
ENDBRANCH   1  11
TORSDOF 14
ENDMDL
MODEL 6
REMARK VINA RESULT:    -4.253      0.941      3.624
REMARK INTER + INTRA:          -9.136
REMARK INTER:                  -7.301
REMARK INTRA:                  -1.835
REMARK UNBOUND:                -1.402
REMARK SMILES CCCCCCCCCCCCCCCC(=O)[O-]
REMARK SMILES IDX 9 1 10 2 11 3 12 4 13 5 14 6 15 7 16 8 17 9 18 10 8 11 7 12
REMARK SMILES IDX 6 13 5 14 4 15 3 16 2 17 1 18
REMARK H PARENT
REMARK Flexibility Score: inf
ROOT
ATOM      1  C   UNL     1       8.459  11.477   7.091  1.00  0.00     0.000 C 
ENDROOT
BRANCH   1   2
ATOM      2  C   UNL     1       8.851  12.555   8.117  1.00  0.00     0.000 C 
BRANCH   2   3
ATOM      3  C   UNL     1       7.636  13.122   8.869  1.00  0.00     0.000 C 
BRANCH   3   4
ATOM      4  C   UNL     1       6.454  12.137   8.913  1.00  0.00     0.000 C 
BRANCH   4   5
ATOM      5  C   UNL     1       5.087  12.844   8.879  1.00  0.00     0.000 C 
BRANCH   5   6
ATOM      6  C   UNL     1       4.012  12.226   9.795  1.00  0.00     0.006 C 
BRANCH   6   7
ATOM      7  C   UNL     1       2.601  12.805   9.604  1.00  0.00     0.053 C 
BRANCH   7   8
ATOM      8  C   UNL     1       1.554  11.736   9.591  1.00  0.00     0.041 C 
ATOM      9  O   UNL     1       1.558  10.832  10.468  1.00  0.00    -0.550 OA
ATOM     10  O   UNL     1       0.553  11.755   8.628  1.00  0.00    -0.550 OA
ENDBRANCH   7   8
ENDBRANCH   6   7
ENDBRANCH   5   6
ENDBRANCH   4   5
ENDBRANCH   3   4
ENDBRANCH   2   3
ENDBRANCH   1   2
BRANCH   1  11
ATOM     11  C   UNL     1       9.185  11.649   5.746  1.00  0.00     0.000 C 
BRANCH  11  12
ATOM     12  C   UNL     1       8.305  12.329   4.683  1.00  0.00    -0.000 C 
BRANCH  12  13
ATOM     13  C   UNL     1       6.944  12.777   5.240  1.00  0.00    -0.000 C 
BRANCH  13  14
ATOM     14  C   UNL     1       5.765  12.313   4.365  1.00  0.00    -0.000 C 
BRANCH  14  15
ATOM     15  C   UNL     1       5.297  10.890   4.713  1.00  0.00    -0.000 C 
BRANCH  15  16
ATOM     16  C   UNL     1       4.486  10.836   6.020  1.00  0.00    -0.000 C 
BRANCH  16  17
ATOM     17  C   UNL     1       4.977   9.734   6.971  1.00  0.00    -0.003 C 
ATOM     18  C   UNL     1       3.878   9.219   7.900  1.00  0.00     0.004 C 
ENDBRANCH  16  17
ENDBRANCH  15  16
ENDBRANCH  14  15
ENDBRANCH  13  14
ENDBRANCH  12  13
ENDBRANCH  11  12
ENDBRANCH   1  11
TORSDOF 14
ENDMDL
MODEL 7
REMARK VINA RESULT:    -4.202      1.672      3.518
REMARK INTER + INTRA:          -9.043
REMARK INTER:                  -7.335
REMARK INTRA:                  -1.708
REMARK UNBOUND:                -1.402
REMARK SMILES CCCCCCCCCCCCCCCC(=O)[O-]
REMARK SMILES IDX 9 1 10 2 11 3 12 4 13 5 14 6 15 7 16 8 17 9 18 10 8 11 7 12
REMARK SMILES IDX 6 13 5 14 4 15 3 16 2 17 1 18
REMARK H PARENT
REMARK Flexibility Score: inf
ROOT
ATOM      1  C   UNL     1       7.331  13.090   8.081  1.00  0.00     0.000 C 
ENDROOT
BRANCH   1   2
ATOM      2  C   UNL     1       6.188  12.624   9.000  1.00  0.00     0.000 C 
BRANCH   2   3
ATOM      3  C   UNL     1       4.813  13.125   8.529  1.00  0.00     0.000 C 
BRANCH   3   4
ATOM      4  C   UNL     1       3.712  12.914   9.584  1.00  0.00     0.000 C 
BRANCH   4   5
ATOM      5  C   UNL     1       2.777  11.740   9.242  1.00  0.00     0.000 C 
BRANCH   5   6
ATOM      6  C   UNL     1       3.073  10.430  10.001  1.00  0.00     0.006 C 
BRANCH   6   7
ATOM      7  C   UNL     1       4.341   9.697   9.537  1.00  0.00     0.053 C 
BRANCH   7   8
ATOM      8  C   UNL     1       4.246   9.264   8.107  1.00  0.00     0.041 C 
ATOM      9  O   UNL     1       5.011   9.765   7.241  1.00  0.00    -0.550 OA
ATOM     10  O   UNL     1       3.335   8.284   7.736  1.00  0.00    -0.550 OA
ENDBRANCH   7   8
ENDBRANCH   6   7
ENDBRANCH   5   6
ENDBRANCH   4   5
ENDBRANCH   3   4
ENDBRANCH   2   3
ENDBRANCH   1   2
BRANCH   1  11
ATOM     11  C   UNL     1       8.477  12.067   7.998  1.00  0.00     0.000 C 
BRANCH  11  12
ATOM     12  C   UNL     1       9.734  12.643   7.322  1.00  0.00    -0.000 C 
BRANCH  12  13
ATOM     13  C   UNL     1      10.052  11.957   5.983  1.00  0.00    -0.000 C 
BRANCH  13  14
ATOM     14  C   UNL     1       9.849  12.892   4.777  1.00  0.00    -0.000 C 
BRANCH  14  15
ATOM     15  C   UNL     1       8.645  12.484   3.912  1.00  0.00    -0.000 C 
BRANCH  15  16
ATOM     16  C   UNL     1       8.006  11.162   4.371  1.00  0.00    -0.000 C 
BRANCH  16  17
ATOM     17  C   UNL     1       6.486  11.276   4.556  1.00  0.00    -0.003 C 
ATOM     18  C   UNL     1       6.017  12.718   4.748  1.00  0.00     0.004 C 
ENDBRANCH  16  17
ENDBRANCH  15  16
ENDBRANCH  14  15
ENDBRANCH  13  14
ENDBRANCH  12  13
ENDBRANCH  11  12
ENDBRANCH   1  11
TORSDOF 14
ENDMDL
MODEL 8
REMARK VINA RESULT:    -4.118      0.805      2.214
REMARK INTER + INTRA:          -8.891
REMARK INTER:                  -7.643
REMARK INTRA:                  -1.248
REMARK UNBOUND:                -1.402
REMARK SMILES CCCCCCCCCCCCCCCC(=O)[O-]
REMARK SMILES IDX 9 1 10 2 11 3 12 4 13 5 14 6 15 7 16 8 17 9 18 10 8 11 7 12
REMARK SMILES IDX 6 13 5 14 4 15 3 16 2 17 1 18
REMARK H PARENT
REMARK Flexibility Score: inf
ROOT
ATOM      1  C   UNL     1       5.952  10.720   6.690  1.00  0.00     0.000 C 
ENDROOT
BRANCH   1   2
ATOM      2  C   UNL     1       4.531  10.157   6.522  1.00  0.00     0.000 C 
BRANCH   2   3
ATOM      3  C   UNL     1       4.051   9.387   7.763  1.00  0.00     0.000 C 
BRANCH   3   4
ATOM      4  C   UNL     1       4.865   9.730   9.024  1.00  0.00     0.000 C 
BRANCH   4   5
ATOM      5  C   UNL     1       4.143  10.729   9.946  1.00  0.00     0.000 C 
BRANCH   5   6
ATOM      6  C   UNL     1       3.937  12.135   9.346  1.00  0.00     0.006 C 
BRANCH   6   7
ATOM      7  C   UNL     1       2.564  12.760   9.640  1.00  0.00     0.053 C 
BRANCH   7   8
ATOM      8  C   UNL     1       1.479  11.730   9.683  1.00  0.00     0.041 C 
ATOM      9  O   UNL     1       1.148  11.202  10.778  1.00  0.00    -0.550 OA
ATOM     10  O   UNL     1       0.808  11.377   8.519  1.00  0.00    -0.550 OA
ENDBRANCH   7   8
ENDBRANCH   6   7
ENDBRANCH   5   6
ENDBRANCH   4   5
ENDBRANCH   3   4
ENDBRANCH   2   3
ENDBRANCH   1   2
BRANCH   1  11
ATOM     11  C   UNL     1       5.994  12.255   6.601  1.00  0.00     0.000 C 
BRANCH  11  12
ATOM     12  C   UNL     1       7.101  12.868   7.478  1.00  0.00    -0.000 C 
BRANCH  12  13
ATOM     13  C   UNL     1       8.214  11.863   7.813  1.00  0.00    -0.000 C 
BRANCH  13  14
ATOM     14  C   UNL     1       9.287  11.779   6.712  1.00  0.00    -0.000 C 
BRANCH  14  15
ATOM     15  C   UNL     1       9.493  13.121   5.987  1.00  0.00    -0.000 C 
BRANCH  15  16
ATOM     16  C   UNL     1      10.114  12.949   4.590  1.00  0.00    -0.000 C 
BRANCH  16  17
ATOM     17  C   UNL     1       9.064  12.995   3.470  1.00  0.00    -0.003 C 
ATOM     18  C   UNL     1       7.986  11.922   3.621  1.00  0.00     0.004 C 
ENDBRANCH  16  17
ENDBRANCH  15  16
ENDBRANCH  14  15
ENDBRANCH  13  14
ENDBRANCH  12  13
ENDBRANCH  11  12
ENDBRANCH   1  11
TORSDOF 14
ENDMDL
