MODEL 1
REMARK VINA RESULT:    -6.056      0.000      0.000
REMARK INTER + INTRA:         -11.865
REMARK INTER:                  -9.596
REMARK INTRA:                  -2.269
REMARK UNBOUND:                -2.269
REMARK SMILES C[C@@H]1O[C@@H](O[C@@H]2CC[C@]3(C)[C@H](CC[C@]4(C)[C@H]3C=C[C@@]35OC[C@]6(CCC(C)(C)C[C@@H]63)[C@@H](O)C[C@@]45C)[C@]2(C)CO)[C@@H](O)[C@@H](O[C@@H]2O[C@H](CO)[C@@H](O)[C@@H](O)[C@H]2O)[C@H]1O
REMARK SMILES IDX 1 1 2 2 54 3 41 4 39 5 4 6 3 7 55 8 42 10 43 11 52 12 44 13
REMARK SMILES IDX 50 14 45 15 48 16 53 17 51 19 46 21 47 22 49 24 5 26 6 27
REMARK SMILES IDX 7 28 35 29 8 30 11 31 36 32 9 33 12 34 10 35 16 36 13 37
REMARK SMILES IDX 14 38 17 39 15 40 33 41 18 42 19 43 32 44 34 45 29 46 20 47
REMARK SMILES IDX 30 48 22 49 28 50 21 51 23 52 25 53 24 54 26 55 27 56 37 57
REMARK SMILES IDX 38 58 31 60 40 62
REMARK H PARENT 55 9 53 18 51 20 47 23 49 25 38 59 31 61 40 63
REMARK Flexibility Score: inf
ROOT
ATOM      1  C   UNL     1       3.752  55.365   8.328  1.00  0.00     0.041 C 
ATOM      2  C   UNL     1       2.797  54.761   9.371  1.00  0.00     0.150 C 
ATOM      3  C   UNL     1       3.248  53.302   9.714  1.00  0.00     0.175 C 
ATOM      4  C   UNL     1       2.223  52.707  10.713  1.00  0.00     0.186 C 
ATOM      5  C   UNL     1       2.334  53.619  11.965  1.00  0.00     0.202 C 
ATOM      6  C   UNL     1       2.148  55.130  11.692  1.00  0.00     0.282 C 
ATOM      7  O   UNL     1       2.805  55.629  10.525  1.00  0.00    -0.344 OA
ENDROOT
BRANCH   3   8
ATOM      8  O   UNL     1       3.359  52.491   8.578  1.00  0.00    -0.388 OA
ATOM      9  H   UNL     1       2.668  52.810   7.917  1.00  0.00     0.211 HD
ENDBRANCH   3   8
BRANCH   4  10
ATOM     10  O   UNL     1       0.987  52.698   9.984  1.00  0.00    -0.341 OA
BRANCH  10  11
ATOM     11  C   UNL     1       0.122  51.581  10.082  1.00  0.00     0.282 C 
ATOM     12  C   UNL     1       0.773  50.162  10.187  1.00  0.00     0.202 C 
ATOM     13  O   UNL     1      -0.800  51.847  11.121  1.00  0.00    -0.341 OA
ATOM     14  C   UNL     1      -0.258  49.078  10.671  1.00  0.00     0.179 C 
ATOM     15  C   UNL     1      -1.870  50.953  11.047  1.00  0.00     0.178 C 
ATOM     16  C   UNL     1      -1.375  49.617  11.607  1.00  0.00     0.177 C 
BRANCH  12  17
ATOM     17  O   UNL     1       1.373  49.785   8.982  1.00  0.00    -0.385 OA
ATOM     18  H   UNL     1       0.902  50.219   8.236  1.00  0.00     0.211 HD
ENDBRANCH  12  17
BRANCH  14  19
ATOM     19  O   UNL     1      -0.866  48.454   9.560  1.00  0.00    -0.387 OA
ATOM     20  H   UNL     1      -1.759  48.891   9.413  1.00  0.00     0.211 HD
ENDBRANCH  14  19
BRANCH  15  21
ATOM     21  C   UNL     1      -3.065  51.641  11.703  1.00  0.00     0.191 C 
BRANCH  21  22
ATOM     22  O   UNL     1      -3.662  52.564  10.858  1.00  0.00    -0.394 OA
ATOM     23  H   UNL     1      -4.043  52.061  10.097  1.00  0.00     0.210 HD
ENDBRANCH  21  22
ENDBRANCH  15  21
BRANCH  16  24
ATOM     24  O   UNL     1      -2.442  48.706  11.634  1.00  0.00    -0.387 OA
ATOM     25  H   UNL     1      -3.076  49.042  12.344  1.00  0.00     0.211 HD
ENDBRANCH  16  24
ENDBRANCH  10  11
ENDBRANCH   4  10
BRANCH   6  26
ATOM     26  O   UNL     1       0.762  55.471  11.804  1.00  0.00    -0.346 OA
BRANCH  26  27
ATOM     27  C   UNL     1       0.306  56.820  11.578  1.00  0.00     0.130 C 
ATOM     28  C   UNL     1       0.839  57.815  12.568  1.00  0.00     0.033 C 
ATOM     29  C   UNL     1      -1.121  57.085  10.934  1.00  0.00     0.020 C 
ATOM     30  C   UNL     1       0.707  59.248  11.977  1.00  0.00     0.010 C 
ATOM     31  C   UNL     1      -1.451  58.646  10.755  1.00  0.00     0.006 C 
ATOM     32  C   UNL     1      -0.953  56.499   9.497  1.00  0.00     0.017 C 
ATOM     33  C   UNL     1      -0.765  59.674  11.711  1.00  0.00    -0.022 C 
ATOM     34  C   UNL     1      -2.932  59.095  10.379  1.00  0.00     0.005 C 
ATOM     35  C   UNL     1      -1.438  59.689  13.124  1.00  0.00     0.012 C 
ATOM     36  C   UNL     1      -0.809  61.063  10.868  1.00  0.00     0.024 C 
ATOM     37  C   UNL     1      -3.359  60.556  10.771  1.00  0.00     0.008 C 
ATOM     38  C   UNL     1      -2.256  61.645  10.536  1.00  0.00    -0.017 C 
ATOM     39  C   UNL     1       0.281  62.092  11.017  1.00  0.00    -0.024 C 
ATOM     40  C   UNL     1      -2.303  61.872   8.977  1.00  0.00     0.013 C 
ATOM     41  C   UNL     1      -2.447  63.050  11.354  1.00  0.00     0.009 C 
ATOM     42  C   UNL     1       0.059  63.357  10.623  1.00  0.00     0.005 C 
ATOM     43  C   UNL     1      -1.214  64.069  11.034  1.00  0.00     0.096 C 
ATOM     44  C   UNL     1      -3.801  63.780  11.100  1.00  0.00     0.043 C 
ATOM     45  C   UNL     1      -2.410  62.757  12.903  1.00  0.00     0.015 C 
ATOM     46  C   UNL     1      -1.583  65.267  10.094  1.00  0.00     0.037 C 
ATOM     47  O   UNL     1      -0.802  64.719  12.245  1.00  0.00    -0.369 OA
ATOM     48  C   UNL     1      -3.743  65.292  11.525  1.00  0.00     0.124 C 
ATOM     49  C   UNL     1      -2.408  66.039  11.100  1.00  0.00     0.026 C 
ATOM     50  C   UNL     1      -2.220  65.196   8.684  1.00  0.00     0.014 C 
ATOM     51  C   UNL     1      -1.419  65.974  12.272  1.00  0.00     0.171 C 
ATOM     52  C   UNL     1      -2.576  67.499  10.589  1.00  0.00     0.013 C 
ATOM     53  C   UNL     1      -3.134  66.417   8.208  1.00  0.00    -0.035 C 
ATOM     54  C   UNL     1      -3.321  67.582   9.249  1.00  0.00     0.007 C 
ATOM     55  C   UNL     1      -2.567  67.001   6.889  1.00  0.00     0.011 C 
ATOM     56  C   UNL     1      -4.549  65.864   7.826  1.00  0.00     0.011 C 
BRANCH  29  57
ATOM     57  C   UNL     1      -2.251  56.420  11.764  1.00  0.00     0.165 C 
BRANCH  57  58
ATOM     58  O   UNL     1      -2.066  55.026  11.946  1.00  0.00    -0.396 OA
ATOM     59  H   UNL     1      -2.789  54.537  11.451  1.00  0.00     0.210 HD
ENDBRANCH  57  58
ENDBRANCH  29  57
BRANCH  48  60
ATOM     60  O   UNL     1      -4.897  65.934  11.028  1.00  0.00    -0.392 OA
ATOM     61  H   UNL     1      -5.308  65.327  10.364  1.00  0.00     0.210 HD
ENDBRANCH  48  60
ENDBRANCH  26  27
ENDBRANCH   6  26
BRANCH   5  62
ATOM     62  O   UNL     1       1.458  53.247  12.992  1.00  0.00    -0.385 OA
ATOM     63  H   UNL     1       0.883  54.035  13.206  1.00  0.00     0.211 HD
ENDBRANCH   5  62
TORSDOF 14
ENDMDL
MODEL 2
REMARK VINA RESULT:    -5.974      2.525     12.290
REMARK INTER + INTRA:         -11.735
REMARK INTER:                 -10.735
REMARK INTRA:                  -1.000
REMARK UNBOUND:                -2.269
REMARK SMILES C[C@@H]1O[C@@H](O[C@@H]2CC[C@]3(C)[C@H](CC[C@]4(C)[C@H]3C=C[C@@]35OC[C@]6(CCC(C)(C)C[C@@H]63)[C@@H](O)C[C@@]45C)[C@]2(C)CO)[C@@H](O)[C@@H](O[C@@H]2O[C@H](CO)[C@@H](O)[C@@H](O)[C@H]2O)[C@H]1O
REMARK SMILES IDX 1 1 2 2 54 3 41 4 39 5 4 6 3 7 55 8 42 10 43 11 52 12 44 13
REMARK SMILES IDX 50 14 45 15 48 16 53 17 51 19 46 21 47 22 49 24 5 26 6 27
REMARK SMILES IDX 7 28 35 29 8 30 11 31 36 32 9 33 12 34 10 35 16 36 13 37
REMARK SMILES IDX 14 38 17 39 15 40 33 41 18 42 19 43 32 44 34 45 29 46 20 47
REMARK SMILES IDX 30 48 22 49 28 50 21 51 23 52 25 53 24 54 26 55 27 56 37 57
REMARK SMILES IDX 38 58 31 60 40 62
REMARK H PARENT 55 9 53 18 51 20 47 23 49 25 38 59 31 61 40 63
REMARK Flexibility Score: inf
ROOT
ATOM      1  C   UNL     1      -5.857  60.045   8.927  1.00  0.00     0.041 C 
ATOM      2  C   UNL     1      -4.912  61.026   9.642  1.00  0.00     0.150 C 
ATOM      3  C   UNL     1      -5.673  62.359   9.952  1.00  0.00     0.175 C 
ATOM      4  C   UNL     1      -4.669  63.341  10.608  1.00  0.00     0.186 C 
ATOM      5  C   UNL     1      -4.250  62.636  11.927  1.00  0.00     0.202 C 
ATOM      6  C   UNL     1      -3.707  61.198  11.755  1.00  0.00     0.282 C 
ATOM      7  O   UNL     1      -4.429  60.374  10.838  1.00  0.00    -0.344 OA
ENDROOT
BRANCH   3   8
ATOM      8  O   UNL     1      -6.247  62.929   8.809  1.00  0.00    -0.388 OA
ATOM      9  H   UNL     1      -7.094  63.390   9.101  1.00  0.00     0.211 HD
ENDBRANCH   3   8
BRANCH   4  10
ATOM     10  O   UNL     1      -3.671  63.549   9.598  1.00  0.00    -0.341 OA
BRANCH  10  11
ATOM     11  C   UNL     1      -3.577  64.805   8.952  1.00  0.00     0.282 C 
ATOM     12  C   UNL     1      -2.168  65.485   8.885  1.00  0.00     0.202 C 
ATOM     13  O   UNL     1      -4.194  64.681   7.686  1.00  0.00    -0.341 OA
ATOM     14  C   UNL     1      -2.130  66.652   7.831  1.00  0.00     0.179 C 
ATOM     15  C   UNL     1      -4.430  65.946   7.146  1.00  0.00     0.178 C 
ATOM     16  C   UNL     1      -3.089  66.466   6.622  1.00  0.00     0.177 C 
BRANCH  12  17
ATOM     17  O   UNL     1      -1.755  65.929  10.144  1.00  0.00    -0.385 OA
ATOM     18  H   UNL     1      -1.607  66.901  10.112  1.00  0.00     0.211 HD
ENDBRANCH  12  17
BRANCH  14  19
ATOM     19  O   UNL     1      -2.429  67.882   8.456  1.00  0.00    -0.387 OA
ATOM     20  H   UNL     1      -2.151  67.812   9.419  1.00  0.00     0.211 HD
ENDBRANCH  14  19
BRANCH  15  21
ATOM     21  C   UNL     1      -5.603  65.801   6.180  1.00  0.00     0.191 C 
BRANCH  21  22
ATOM     22  O   UNL     1      -5.194  65.371   4.925  1.00  0.00    -0.394 OA
ATOM     23  H   UNL     1      -4.540  66.032   4.589  1.00  0.00     0.210 HD
ENDBRANCH  21  22
ENDBRANCH  15  21
BRANCH  16  24
ATOM     24  O   UNL     1      -3.289  67.703   5.991  1.00  0.00    -0.387 OA
ATOM     25  H   UNL     1      -4.279  67.759   5.801  1.00  0.00     0.211 HD
ENDBRANCH  16  24
ENDBRANCH  10  11
ENDBRANCH   4  10
BRANCH   6  26
ATOM     26  O   UNL     1      -2.291  61.239  11.552  1.00  0.00    -0.346 OA
BRANCH  26  27
ATOM     27  C   UNL     1      -1.549  60.047  11.227  1.00  0.00     0.130 C 
ATOM     28  C   UNL     1      -2.344  58.781  11.363  1.00  0.00     0.033 C 
ATOM     29  C   UNL     1       0.018  59.986  11.479  1.00  0.00     0.020 C 
ATOM     30  C   UNL     1      -1.652  57.650  10.548  1.00  0.00     0.010 C 
ATOM     31  C   UNL     1       0.670  58.583  11.052  1.00  0.00     0.006 C 
ATOM     32  C   UNL     1       0.559  61.052  10.475  1.00  0.00     0.017 C 
ATOM     33  C   UNL     1      -0.226  57.302  11.063  1.00  0.00    -0.022 C 
ATOM     34  C   UNL     1       2.167  58.252  11.481  1.00  0.00     0.005 C 
ATOM     35  C   UNL     1      -0.446  56.762  12.516  1.00  0.00     0.012 C 
ATOM     36  C   UNL     1       0.524  56.306  10.021  1.00  0.00     0.024 C 
ATOM     37  C   UNL     1       2.569  56.735  11.572  1.00  0.00     0.008 C 
ATOM     38  C   UNL     1       1.994  55.836  10.423  1.00  0.00    -0.017 C 
ATOM     39  C   UNL     1      -0.260  55.325   9.189  1.00  0.00    -0.024 C 
ATOM     40  C   UNL     1       2.927  56.180   9.200  1.00  0.00     0.013 C 
ATOM     41  C   UNL     1       1.960  54.227  10.718  1.00  0.00     0.009 C 
ATOM     42  C   UNL     1       0.368  54.278   8.627  1.00  0.00     0.005 C 
ATOM     43  C   UNL     1       1.313  53.428   9.452  1.00  0.00     0.096 C 
ATOM     44  C   UNL     1       3.338  53.595  11.080  1.00  0.00     0.043 C 
ATOM     45  C   UNL     1       1.029  53.948  11.961  1.00  0.00     0.015 C 
ATOM     46  C   UNL     1       2.347  52.634   8.582  1.00  0.00     0.037 C 
ATOM     47  O   UNL     1       0.432  52.401   9.931  1.00  0.00    -0.369 OA
ATOM     48  C   UNL     1       3.334  52.033  10.901  1.00  0.00     0.124 C 
ATOM     49  C   UNL     1       2.612  51.528   9.581  1.00  0.00     0.026 C 
ATOM     50  C   UNL     1       3.625  53.184   7.903  1.00  0.00     0.014 C 
ATOM     51  C   UNL     1       1.151  51.201   9.918  1.00  0.00     0.171 C 
ATOM     52  C   UNL     1       3.294  50.343   8.840  1.00  0.00     0.013 C 
ATOM     53  C   UNL     1       4.855  52.187   7.692  1.00  0.00    -0.035 C 
ATOM     54  C   UNL     1       4.651  50.721   8.228  1.00  0.00     0.007 C 
ATOM     55  C   UNL     1       5.221  52.130   6.186  1.00  0.00     0.011 C 
ATOM     56  C   UNL     1       6.120  52.796   8.388  1.00  0.00     0.011 C 
BRANCH  29  57
ATOM     57  C   UNL     1       0.366  60.275  12.963  1.00  0.00     0.165 C 
BRANCH  57  58
ATOM     58  O   UNL     1       1.329  61.304  13.123  1.00  0.00    -0.396 OA
ATOM     59  H   UNL     1       2.220  60.884  13.314  1.00  0.00     0.210 HD
ENDBRANCH  57  58
ENDBRANCH  29  57
BRANCH  48  60
ATOM     60  O   UNL     1       4.666  51.575  10.991  1.00  0.00    -0.392 OA
ATOM     61  H   UNL     1       4.946  51.305  10.082  1.00  0.00     0.210 HD
ENDBRANCH  48  60
ENDBRANCH  26  27
ENDBRANCH   6  26
BRANCH   5  62
ATOM     62  O   UNL     1      -3.317  63.372  12.667  1.00  0.00    -0.385 OA
ATOM     63  H   UNL     1      -3.790  64.158  13.063  1.00  0.00     0.211 HD
ENDBRANCH   5  62
TORSDOF 14
ENDMDL
MODEL 3
REMARK VINA RESULT:    -5.265      1.097      1.877
REMARK INTER + INTRA:         -10.612
REMARK INTER:                  -8.757
REMARK INTRA:                  -1.855
REMARK UNBOUND:                -2.269
REMARK SMILES C[C@@H]1O[C@@H](O[C@@H]2CC[C@]3(C)[C@H](CC[C@]4(C)[C@H]3C=C[C@@]35OC[C@]6(CCC(C)(C)C[C@@H]63)[C@@H](O)C[C@@]45C)[C@]2(C)CO)[C@@H](O)[C@@H](O[C@@H]2O[C@H](CO)[C@@H](O)[C@@H](O)[C@H]2O)[C@H]1O
REMARK SMILES IDX 1 1 2 2 54 3 41 4 39 5 4 6 3 7 55 8 42 10 43 11 52 12 44 13
REMARK SMILES IDX 50 14 45 15 48 16 53 17 51 19 46 21 47 22 49 24 5 26 6 27
REMARK SMILES IDX 7 28 35 29 8 30 11 31 36 32 9 33 12 34 10 35 16 36 13 37
REMARK SMILES IDX 14 38 17 39 15 40 33 41 18 42 19 43 32 44 34 45 29 46 20 47
REMARK SMILES IDX 30 48 22 49 28 50 21 51 23 52 25 53 24 54 26 55 27 56 37 57
REMARK SMILES IDX 38 58 31 60 40 62
REMARK H PARENT 55 9 53 18 51 20 47 23 49 25 38 59 31 61 40 63
REMARK Flexibility Score: inf
ROOT
ATOM      1  C   UNL     1       3.604  54.974   7.667  1.00  0.00     0.041 C 
ATOM      2  C   UNL     1       2.946  54.657   9.021  1.00  0.00     0.150 C 
ATOM      3  C   UNL     1       3.641  53.409   9.664  1.00  0.00     0.175 C 
ATOM      4  C   UNL     1       2.906  53.083  10.989  1.00  0.00     0.186 C 
ATOM      5  C   UNL     1       3.127  54.343  11.870  1.00  0.00     0.202 C 
ATOM      6  C   UNL     1       2.697  55.679  11.221  1.00  0.00     0.282 C 
ATOM      7  O   UNL     1       3.056  55.838   9.846  1.00  0.00    -0.344 OA
ENDROOT
BRANCH   3   8
ATOM      8  O   UNL     1       3.643  52.297   8.814  1.00  0.00    -0.388 OA
ATOM      9  H   UNL     1       4.518  52.310   8.312  1.00  0.00     0.211 HD
ENDBRANCH   3   8
BRANCH   4  10
ATOM     10  O   UNL     1       1.568  52.765  10.579  1.00  0.00    -0.341 OA
BRANCH  10  11
ATOM     11  C   UNL     1       0.863  51.722  11.229  1.00  0.00     0.282 C 
ATOM     12  C   UNL     1      -0.628  51.485  10.818  1.00  0.00     0.202 C 
ATOM     13  O   UNL     1       1.656  50.554  11.141  1.00  0.00    -0.341 OA
ATOM     14  C   UNL     1      -1.159  50.091  11.315  1.00  0.00     0.179 C 
ATOM     15  C   UNL     1       1.183  49.592  12.036  1.00  0.00     0.178 C 
ATOM     16  C   UNL     1      -0.076  48.982  11.414  1.00  0.00     0.177 C 
BRANCH  12  17
ATOM     17  O   UNL     1      -1.451  52.525  11.260  1.00  0.00    -0.385 OA
ATOM     18  H   UNL     1      -1.820  52.999  10.481  1.00  0.00     0.211 HD
ENDBRANCH  12  17
BRANCH  14  19
ATOM     19  O   UNL     1      -1.779  50.227  12.576  1.00  0.00    -0.387 OA
ATOM     20  H   UNL     1      -2.082  51.181  12.667  1.00  0.00     0.211 HD
ENDBRANCH  14  19
BRANCH  15  21
ATOM     21  C   UNL     1       2.364  48.685  12.372  1.00  0.00     0.191 C 
BRANCH  21  22
ATOM     22  O   UNL     1       3.510  49.042  11.675  1.00  0.00    -0.394 OA
ATOM     23  H   UNL     1       3.313  49.889  11.204  1.00  0.00     0.210 HD
ENDBRANCH  21  22
ENDBRANCH  15  21
BRANCH  16  24
ATOM     24  O   UNL     1      -0.541  47.946  12.238  1.00  0.00    -0.387 OA
ATOM     25  H   UNL     1      -1.508  47.804  11.985  1.00  0.00     0.211 HD
ENDBRANCH  16  24
ENDBRANCH  10  11
ENDBRANCH   4  10
BRANCH   6  26
ATOM     26  O   UNL     1       1.324  55.942  11.526  1.00  0.00    -0.346 OA
BRANCH  26  27
ATOM     27  C   UNL     1       0.751  57.249  11.320  1.00  0.00     0.130 C 
ATOM     28  C   UNL     1       1.468  58.349  12.049  1.00  0.00     0.033 C 
ATOM     29  C   UNL     1      -0.807  57.407  11.056  1.00  0.00     0.020 C 
ATOM     30  C   UNL     1       1.108  59.715  11.397  1.00  0.00     0.010 C 
ATOM     31  C   UNL     1      -1.258  58.933  10.844  1.00  0.00     0.006 C 
ATOM     32  C   UNL     1      -0.987  56.694   9.680  1.00  0.00     0.017 C 
ATOM     33  C   UNL     1      -0.403  60.068  11.496  1.00  0.00    -0.022 C 
ATOM     34  C   UNL     1      -2.807  59.298  10.838  1.00  0.00     0.005 C 
ATOM     35  C   UNL     1      -0.685  60.194  13.031  1.00  0.00     0.012 C 
ATOM     36  C   UNL     1      -0.742  61.369  10.584  1.00  0.00     0.024 C 
ATOM     37  C   UNL     1      -3.197  60.776  11.207  1.00  0.00     0.008 C 
ATOM     38  C   UNL     1      -2.255  61.872  10.600  1.00  0.00    -0.017 C 
ATOM     39  C   UNL     1       0.290  62.442  10.354  1.00  0.00    -0.024 C 
ATOM     40  C   UNL     1      -2.720  61.950   9.096  1.00  0.00     0.013 C 
ATOM     41  C   UNL     1      -2.305  63.340  11.321  1.00  0.00     0.009 C 
ATOM     42  C   UNL     1      -0.096  63.657   9.930  1.00  0.00     0.005 C 
ATOM     43  C   UNL     1      -1.255  64.364  10.604  1.00  0.00     0.096 C 
ATOM     44  C   UNL     1      -3.716  64.000  11.375  1.00  0.00     0.043 C 
ATOM     45  C   UNL     1      -1.849  63.195  12.824  1.00  0.00     0.015 C 
ATOM     46  C   UNL     1      -1.921  65.456   9.700  1.00  0.00     0.037 C 
ATOM     47  O   UNL     1      -0.578  65.136  11.606  1.00  0.00    -0.369 OA
ATOM     48  C   UNL     1      -3.632  65.547  11.644  1.00  0.00     0.124 C 
ATOM     49  C   UNL     1      -2.497  66.292  10.822  1.00  0.00     0.026 C 
ATOM     50  C   UNL     1      -2.899  65.233   8.520  1.00  0.00     0.014 C 
ATOM     51  C   UNL     1      -1.235  66.369  11.691  1.00  0.00     0.171 C 
ATOM     52  C   UNL     1      -2.872  67.692  10.255  1.00  0.00     0.013 C 
ATOM     53  C   UNL     1      -3.972  66.374   8.203  1.00  0.00    -0.035 C 
ATOM     54  C   UNL     1      -3.944  67.626   9.158  1.00  0.00     0.007 C 
ATOM     55  C   UNL     1      -3.802  66.850   6.738  1.00  0.00     0.011 C 
ATOM     56  C   UNL     1      -5.405  65.744   8.256  1.00  0.00     0.011 C 
BRANCH  29  57
ATOM     57  C   UNL     1      -1.643  56.787  12.208  1.00  0.00     0.165 C 
BRANCH  57  58
ATOM     58  O   UNL     1      -1.554  55.373  12.267  1.00  0.00    -0.396 OA
ATOM     59  H   UNL     1      -2.367  54.981  11.832  1.00  0.00     0.210 HD
ENDBRANCH  57  58
ENDBRANCH  29  57
BRANCH  48  60
ATOM     60  O   UNL     1      -4.909  66.103  11.419  1.00  0.00    -0.392 OA
ATOM     61  H   UNL     1      -5.160  65.893  10.486  1.00  0.00     0.210 HD
ENDBRANCH  48  60
ENDBRANCH  26  27
ENDBRANCH   6  26
BRANCH   5  62
ATOM     62  O   UNL     1       2.514  54.247  13.125  1.00  0.00    -0.385 OA
ATOM     63  H   UNL     1       2.984  53.534  13.644  1.00  0.00     0.211 HD
ENDBRANCH   5  62
TORSDOF 14
ENDMDL
MODEL 4
REMARK VINA RESULT:    -5.220      3.432     11.619
REMARK INTER + INTRA:         -10.540
REMARK INTER:                 -10.061
REMARK INTRA:                  -0.479
REMARK UNBOUND:                -2.269
REMARK SMILES C[C@@H]1O[C@@H](O[C@@H]2CC[C@]3(C)[C@H](CC[C@]4(C)[C@H]3C=C[C@@]35OC[C@]6(CCC(C)(C)C[C@@H]63)[C@@H](O)C[C@@]45C)[C@]2(C)CO)[C@@H](O)[C@@H](O[C@@H]2O[C@H](CO)[C@@H](O)[C@@H](O)[C@H]2O)[C@H]1O
REMARK SMILES IDX 1 1 2 2 54 3 41 4 39 5 4 6 3 7 55 8 42 10 43 11 52 12 44 13
REMARK SMILES IDX 50 14 45 15 48 16 53 17 51 19 46 21 47 22 49 24 5 26 6 27
REMARK SMILES IDX 7 28 35 29 8 30 11 31 36 32 9 33 12 34 10 35 16 36 13 37
REMARK SMILES IDX 14 38 17 39 15 40 33 41 18 42 19 43 32 44 34 45 29 46 20 47
REMARK SMILES IDX 30 48 22 49 28 50 21 51 23 52 25 53 24 54 26 55 27 56 37 57
REMARK SMILES IDX 38 58 31 60 40 62
REMARK H PARENT 55 9 53 18 51 20 47 23 49 25 38 59 31 61 40 63
REMARK Flexibility Score: inf
ROOT
ATOM      1  C   UNL     1      -5.137  67.136   9.805  1.00  0.00     0.041 C 
ATOM      2  C   UNL     1      -4.713  65.768   9.245  1.00  0.00     0.150 C 
ATOM      3  C   UNL     1      -4.038  65.959   7.845  1.00  0.00     0.175 C 
ATOM      4  C   UNL     1      -3.690  64.555   7.287  1.00  0.00     0.186 C 
ATOM      5  C   UNL     1      -2.670  63.979   8.308  1.00  0.00     0.202 C 
ATOM      6  C   UNL     1      -3.150  63.974   9.778  1.00  0.00     0.282 C 
ATOM      7  O   UNL     1      -3.826  65.158  10.208  1.00  0.00    -0.344 OA
ENDROOT
BRANCH   3   8
ATOM      8  O   UNL     1      -4.851  66.660   6.947  1.00  0.00    -0.388 OA
ATOM      9  H   UNL     1      -4.240  67.119   6.289  1.00  0.00     0.211 HD
ENDBRANCH   3   8
BRANCH   4  10
ATOM     10  O   UNL     1      -4.962  63.906   7.153  1.00  0.00    -0.341 OA
BRANCH  10  11
ATOM     11  C   UNL     1      -5.316  63.302   5.922  1.00  0.00     0.282 C 
ATOM     12  C   UNL     1      -4.893  61.813   5.692  1.00  0.00     0.202 C 
ATOM     13  O   UNL     1      -6.698  63.524   5.722  1.00  0.00    -0.341 OA
ATOM     14  C   UNL     1      -5.666  61.163   4.487  1.00  0.00     0.179 C 
ATOM     15  C   UNL     1      -7.036  63.254   4.394  1.00  0.00     0.178 C 
ATOM     16  C   UNL     1      -7.092  61.731   4.248  1.00  0.00     0.177 C 
BRANCH  12  17
ATOM     17  O   UNL     1      -3.511  61.694   5.528  1.00  0.00    -0.385 OA
ATOM     18  H   UNL     1      -3.075  62.515   5.849  1.00  0.00     0.211 HD
ENDBRANCH  12  17
BRANCH  14  19
ATOM     19  O   UNL     1      -4.920  61.307   3.296  1.00  0.00    -0.387 OA
ATOM     20  H   UNL     1      -4.084  61.819   3.519  1.00  0.00     0.211 HD
ENDBRANCH  14  19
BRANCH  15  21
ATOM     21  C   UNL     1      -8.279  64.081   4.078  1.00  0.00     0.191 C 
BRANCH  21  22
ATOM     22  O   UNL     1      -9.364  63.283   3.744  1.00  0.00    -0.394 OA
ATOM     23  H   UNL     1     -10.174  63.844   3.822  1.00  0.00     0.210 HD
ENDBRANCH  21  22
ENDBRANCH  15  21
BRANCH  16  24
ATOM     24  O   UNL     1      -7.512  61.409   2.948  1.00  0.00    -0.387 OA
ATOM     25  H   UNL     1      -6.669  61.257   2.415  1.00  0.00     0.211 HD
ENDBRANCH  16  24
ENDBRANCH  10  11
ENDBRANCH   4  10
BRANCH   6  26
ATOM     26  O   UNL     1      -3.832  62.747  10.058  1.00  0.00    -0.346 OA
BRANCH  26  27
ATOM     27  C   UNL     1      -3.114  61.501  10.159  1.00  0.00     0.130 C 
ATOM     28  C   UNL     1      -3.913  60.304   9.733  1.00  0.00     0.033 C 
ATOM     29  C   UNL     1      -1.999  61.308  11.273  1.00  0.00     0.020 C 
ATOM     30  C   UNL     1      -2.945  59.129   9.412  1.00  0.00     0.010 C 
ATOM     31  C   UNL     1      -1.306  59.861  11.227  1.00  0.00     0.006 C 
ATOM     32  C   UNL     1      -0.909  62.337  10.836  1.00  0.00     0.017 C 
ATOM     33  C   UNL     1      -2.115  58.659  10.640  1.00  0.00    -0.022 C 
ATOM     34  C   UNL     1      -0.368  59.403  12.428  1.00  0.00     0.005 C 
ATOM     35  C   UNL     1      -3.176  58.123  11.658  1.00  0.00     0.012 C 
ATOM     36  C   UNL     1      -0.959  57.615  10.176  1.00  0.00     0.024 C 
ATOM     37  C   UNL     1      -0.188  57.857  12.649  1.00  0.00     0.008 C 
ATOM     38  C   UNL     1      -0.034  57.022  11.332  1.00  0.00    -0.017 C 
ATOM     39  C   UNL     1      -1.164  56.712   8.988  1.00  0.00    -0.024 C 
ATOM     40  C   UNL     1       1.457  57.300  10.904  1.00  0.00     0.013 C 
ATOM     41  C   UNL     1      -0.332  55.417  11.459  1.00  0.00     0.009 C 
ATOM     42  C   UNL     1      -0.391  55.623   8.839  1.00  0.00     0.005 C 
ATOM     43  C   UNL     1      -0.162  54.688  10.009  1.00  0.00     0.096 C 
ATOM     44  C   UNL     1       0.532  54.670  12.519  1.00  0.00     0.043 C 
ATOM     45  C   UNL     1      -1.829  55.202  11.907  1.00  0.00     0.015 C 
ATOM     46  C   UNL     1       1.135  53.822   9.862  1.00  0.00     0.037 C 
ATOM     47  O   UNL     1      -1.216  53.733   9.826  1.00  0.00    -0.369 OA
ATOM     48  C   UNL     1       0.539  53.115  12.282  1.00  0.00     0.124 C 
ATOM     49  C   UNL     1       0.698  52.687  10.763  1.00  0.00     0.026 C 
ATOM     50  C   UNL     1       2.599  54.272  10.088  1.00  0.00     0.014 C 
ATOM     51  C   UNL     1      -0.701  52.477  10.165  1.00  0.00     0.171 C 
ATOM     52  C   UNL     1       1.612  51.457  10.492  1.00  0.00     0.013 C 
ATOM     53  C   UNL     1       3.657  53.179  10.577  1.00  0.00    -0.035 C 
ATOM     54  C   UNL     1       3.089  51.729  10.809  1.00  0.00     0.007 C 
ATOM     55  C   UNL     1       4.831  53.108   9.567  1.00  0.00     0.011 C 
ATOM     56  C   UNL     1       4.308  53.673  11.913  1.00  0.00     0.011 C 
BRANCH  29  57
ATOM     57  C   UNL     1      -2.570  61.552  12.695  1.00  0.00     0.165 C 
BRANCH  57  58
ATOM     58  O   UNL     1      -2.979  62.892  12.913  1.00  0.00    -0.396 OA
ATOM     59  H   UNL     1      -3.521  62.930  13.756  1.00  0.00     0.210 HD
ENDBRANCH  57  58
ENDBRANCH  29  57
BRANCH  48  60
ATOM     60  O   UNL     1       1.535  52.549  13.106  1.00  0.00    -0.392 OA
ATOM     61  H   UNL     1       1.102  51.844  13.648  1.00  0.00     0.210 HD
ENDBRANCH  48  60
ENDBRANCH  26  27
ENDBRANCH   6  26
BRANCH   5  62
ATOM     62  O   UNL     1      -2.241  62.687   7.982  1.00  0.00    -0.385 OA
ATOM     63  H   UNL     1      -2.291  62.588   6.988  1.00  0.00     0.211 HD
ENDBRANCH   5  62
TORSDOF 14
ENDMDL
MODEL 5
REMARK VINA RESULT:    -5.086      2.256     12.191
REMARK INTER + INTRA:         -10.328
REMARK INTER:                  -8.735
REMARK INTRA:                  -1.593
REMARK UNBOUND:                -2.269
REMARK SMILES C[C@@H]1O[C@@H](O[C@@H]2CC[C@]3(C)[C@H](CC[C@]4(C)[C@H]3C=C[C@@]35OC[C@]6(CCC(C)(C)C[C@@H]63)[C@@H](O)C[C@@]45C)[C@]2(C)CO)[C@@H](O)[C@@H](O[C@@H]2O[C@H](CO)[C@@H](O)[C@@H](O)[C@H]2O)[C@H]1O
REMARK SMILES IDX 1 1 2 2 54 3 41 4 39 5 4 6 3 7 55 8 42 10 43 11 52 12 44 13
REMARK SMILES IDX 50 14 45 15 48 16 53 17 51 19 46 21 47 22 49 24 5 26 6 27
REMARK SMILES IDX 7 28 35 29 8 30 11 31 36 32 9 33 12 34 10 35 16 36 13 37
REMARK SMILES IDX 14 38 17 39 15 40 33 41 18 42 19 43 32 44 34 45 29 46 20 47
REMARK SMILES IDX 30 48 22 49 28 50 21 51 23 52 25 53 24 54 26 55 27 56 37 57
REMARK SMILES IDX 38 58 31 60 40 62
REMARK H PARENT 55 9 53 18 51 20 47 23 49 25 38 59 31 61 40 63
REMARK Flexibility Score: inf
ROOT
ATOM      1  C   UNL     1      -5.675  60.495   8.068  1.00  0.00     0.041 C 
ATOM      2  C   UNL     1      -4.900  61.353   9.081  1.00  0.00     0.150 C 
ATOM      3  C   UNL     1      -5.671  62.691   9.337  1.00  0.00     0.175 C 
ATOM      4  C   UNL     1      -4.825  63.553  10.308  1.00  0.00     0.186 C 
ATOM      5  C   UNL     1      -4.756  62.709  11.609  1.00  0.00     0.202 C 
ATOM      6  C   UNL     1      -4.233  61.266  11.425  1.00  0.00     0.282 C 
ATOM      7  O   UNL     1      -4.738  60.569  10.284  1.00  0.00    -0.344 OA
ENDROOT
BRANCH   3   8
ATOM      8  O   UNL     1      -5.937  63.394   8.155  1.00  0.00    -0.388 OA
ATOM      9  H   UNL     1      -6.336  62.737   7.503  1.00  0.00     0.211 HD
ENDBRANCH   3   8
BRANCH   4  10
ATOM     10  O   UNL     1      -3.608  63.798   9.588  1.00  0.00    -0.341 OA
BRANCH  10  11
ATOM     11  C   UNL     1      -2.816  64.927   9.911  1.00  0.00     0.282 C 
ATOM     12  C   UNL     1      -3.542  66.304  10.076  1.00  0.00     0.202 C 
ATOM     13  O   UNL     1      -2.019  64.583  11.028  1.00  0.00    -0.341 OA
ATOM     14  C   UNL     1      -2.633  67.364  10.798  1.00  0.00     0.179 C 
ATOM     15  C   UNL     1      -0.993  65.516  11.186  1.00  0.00     0.178 C 
ATOM     16  C   UNL     1      -1.617  66.766  11.811  1.00  0.00     0.177 C 
BRANCH  12  17
ATOM     17  O   UNL     1      -4.004  66.788   8.849  1.00  0.00    -0.385 OA
ATOM     18  H   UNL     1      -3.450  66.417   8.125  1.00  0.00     0.211 HD
ENDBRANCH  12  17
BRANCH  14  19
ATOM     19  O   UNL     1      -1.921  68.125   9.845  1.00  0.00    -0.387 OA
ATOM     20  H   UNL     1      -1.208  67.535   9.453  1.00  0.00     0.211 HD
ENDBRANCH  14  19
BRANCH  15  21
ATOM     21  C   UNL     1       0.142  64.803  11.917  1.00  0.00     0.191 C 
BRANCH  21  22
ATOM     22  O   UNL     1       1.335  65.507  11.838  1.00  0.00    -0.394 OA
ATOM     23  H   UNL     1       1.186  66.384  12.269  1.00  0.00     0.210 HD
ENDBRANCH  21  22
ENDBRANCH  15  21
BRANCH  16  24
ATOM     24  O   UNL     1      -0.607  67.705  12.069  1.00  0.00    -0.387 OA
ATOM     25  H   UNL     1      -0.584  68.315  11.265  1.00  0.00     0.211 HD
ENDBRANCH  16  24
ENDBRANCH  10  11
ENDBRANCH   4  10
BRANCH   6  26
ATOM     26  O   UNL     1      -2.808  61.249  11.566  1.00  0.00    -0.346 OA
BRANCH  26  27
ATOM     27  C   UNL     1      -2.041  60.068  11.256  1.00  0.00     0.130 C 
ATOM     28  C   UNL     1      -2.810  58.787  11.412  1.00  0.00     0.033 C 
ATOM     29  C   UNL     1      -0.473  60.043  11.504  1.00  0.00     0.020 C 
ATOM     30  C   UNL     1      -2.095  57.661  10.611  1.00  0.00     0.010 C 
ATOM     31  C   UNL     1       0.208  58.649  11.095  1.00  0.00     0.006 C 
ATOM     32  C   UNL     1       0.042  61.107  10.485  1.00  0.00     0.017 C 
ATOM     33  C   UNL     1      -0.661  57.350  11.126  1.00  0.00    -0.022 C 
ATOM     34  C   UNL     1       1.712  58.356  11.525  1.00  0.00     0.005 C 
ATOM     35  C   UNL     1      -0.866  56.826  12.587  1.00  0.00     0.012 C 
ATOM     36  C   UNL     1       0.107  56.355  10.097  1.00  0.00     0.024 C 
ATOM     37  C   UNL     1       2.146  56.849  11.636  1.00  0.00     0.008 C 
ATOM     38  C   UNL     1       1.588  55.923  10.501  1.00  0.00    -0.017 C 
ATOM     39  C   UNL     1      -0.657  55.347   9.280  1.00  0.00    -0.024 C 
ATOM     40  C   UNL     1       2.510  56.269   9.271  1.00  0.00     0.013 C 
ATOM     41  C   UNL     1       1.589  54.317  10.819  1.00  0.00     0.009 C 
ATOM     42  C   UNL     1      -0.009  54.306   8.731  1.00  0.00     0.005 C 
ATOM     43  C   UNL     1       0.956  53.487   9.565  1.00  0.00     0.096 C 
ATOM     44  C   UNL     1       2.981  53.720  11.186  1.00  0.00     0.043 C 
ATOM     45  C   UNL     1       0.667  54.036  12.067  1.00  0.00     0.015 C 
ATOM     46  C   UNL     1       2.004  52.704   8.704  1.00  0.00     0.037 C 
ATOM     47  O   UNL     1       0.098  52.449  10.061  1.00  0.00    -0.369 OA
ATOM     48  C   UNL     1       3.010  52.155  11.028  1.00  0.00     0.124 C 
ATOM     49  C   UNL     1       2.295  51.618   9.717  1.00  0.00     0.026 C 
ATOM     50  C   UNL     1       3.269  53.271   8.014  1.00  0.00     0.014 C 
ATOM     51  C   UNL     1       0.842  51.264  10.063  1.00  0.00     0.171 C 
ATOM     52  C   UNL     1       3.001  50.437   8.990  1.00  0.00     0.013 C 
ATOM     53  C   UNL     1       4.520  52.297   7.813  1.00  0.00    -0.035 C 
ATOM     54  C   UNL     1       4.348  50.835   8.370  1.00  0.00     0.007 C 
ATOM     55  C   UNL     1       4.882  52.227   6.308  1.00  0.00     0.011 C 
ATOM     56  C   UNL     1       5.772  52.942   8.497  1.00  0.00     0.011 C 
BRANCH  29  57
ATOM     57  C   UNL     1      -0.128  60.361  12.984  1.00  0.00     0.165 C 
BRANCH  57  58
ATOM     58  O   UNL     1       0.897  61.331  13.125  1.00  0.00    -0.396 OA
ATOM     59  H   UNL     1       0.862  61.704  14.055  1.00  0.00     0.210 HD
ENDBRANCH  57  58
ENDBRANCH  29  57
BRANCH  48  60
ATOM     60  O   UNL     1       4.351  51.728  11.121  1.00  0.00    -0.392 OA
ATOM     61  H   UNL     1       4.906  52.532  11.272  1.00  0.00     0.210 HD
ENDBRANCH  48  60
ENDBRANCH  26  27
ENDBRANCH   6  26
BRANCH   5  62
ATOM     62  O   UNL     1      -4.006  63.323  12.619  1.00  0.00    -0.385 OA
ATOM     63  H   UNL     1      -3.145  63.634  12.218  1.00  0.00     0.211 HD
ENDBRANCH   5  62
TORSDOF 14
ENDMDL
MODEL 6
REMARK VINA RESULT:    -4.549      1.828      3.963
REMARK INTER + INTRA:          -9.477
REMARK INTER:                  -8.739
REMARK INTRA:                  -0.738
REMARK UNBOUND:                -2.269
REMARK SMILES C[C@@H]1O[C@@H](O[C@@H]2CC[C@]3(C)[C@H](CC[C@]4(C)[C@H]3C=C[C@@]35OC[C@]6(CCC(C)(C)C[C@@H]63)[C@@H](O)C[C@@]45C)[C@]2(C)CO)[C@@H](O)[C@@H](O[C@@H]2O[C@H](CO)[C@@H](O)[C@@H](O)[C@H]2O)[C@H]1O
REMARK SMILES IDX 1 1 2 2 54 3 41 4 39 5 4 6 3 7 55 8 42 10 43 11 52 12 44 13
REMARK SMILES IDX 50 14 45 15 48 16 53 17 51 19 46 21 47 22 49 24 5 26 6 27
REMARK SMILES IDX 7 28 35 29 8 30 11 31 36 32 9 33 12 34 10 35 16 36 13 37
REMARK SMILES IDX 14 38 17 39 15 40 33 41 18 42 19 43 32 44 34 45 29 46 20 47
REMARK SMILES IDX 30 48 22 49 28 50 21 51 23 52 25 53 24 54 26 55 27 56 37 57
REMARK SMILES IDX 38 58 31 60 40 62
REMARK H PARENT 55 9 53 18 51 20 47 23 49 25 38 59 31 61 40 63
REMARK Flexibility Score: inf
ROOT
ATOM      1  C   UNL     1       0.244  51.278  12.924  1.00  0.00     0.041 C 
ATOM      2  C   UNL     1       0.770  52.201  11.812  1.00  0.00     0.150 C 
ATOM      3  C   UNL     1       0.828  51.414  10.459  1.00  0.00     0.175 C 
ATOM      4  C   UNL     1       1.425  52.357   9.383  1.00  0.00     0.186 C 
ATOM      5  C   UNL     1       0.406  53.525   9.289  1.00  0.00     0.202 C 
ATOM      6  C   UNL     1       0.085  54.222  10.632  1.00  0.00     0.282 C 
ATOM      7  O   UNL     1      -0.105  53.349  11.747  1.00  0.00    -0.344 OA
ENDROOT
BRANCH   3   8
ATOM      8  O   UNL     1       1.576  50.235  10.554  1.00  0.00    -0.388 OA
ATOM      9  H   UNL     1       2.320  50.408  11.211  1.00  0.00     0.211 HD
ENDBRANCH   3   8
BRANCH   4  10
ATOM     10  O   UNL     1       2.747  52.641   9.862  1.00  0.00    -0.341 OA
BRANCH  10  11
ATOM     11  C   UNL     1       3.814  52.776   8.941  1.00  0.00     0.282 C 
ATOM     12  C   UNL     1       4.823  51.585   8.815  1.00  0.00     0.202 C 
ATOM     13  O   UNL     1       3.259  53.166   7.700  1.00  0.00    -0.341 OA
ATOM     14  C   UNL     1       5.703  51.696   7.517  1.00  0.00     0.179 C 
ATOM     15  C   UNL     1       4.267  53.634   6.854  1.00  0.00     0.178 C 
ATOM     16  C   UNL     1       5.010  52.406   6.321  1.00  0.00     0.177 C 
BRANCH  12  17
ATOM     17  O   UNL     1       5.620  51.469   9.957  1.00  0.00    -0.385 OA
ATOM     18  H   UNL     1       6.132  52.300  10.081  1.00  0.00     0.211 HD
ENDBRANCH  12  17
BRANCH  14  19
ATOM     19  O   UNL     1       6.909  52.374   7.803  1.00  0.00    -0.387 OA
ATOM     20  H   UNL     1       6.706  53.357   7.841  1.00  0.00     0.211 HD
ENDBRANCH  14  19
BRANCH  15  21
ATOM     21  C   UNL     1       3.605  54.592   5.868  1.00  0.00     0.191 C 
BRANCH  21  22
ATOM     22  O   UNL     1       3.700  54.140   4.560  1.00  0.00    -0.394 OA
ATOM     23  H   UNL     1       2.779  53.974   4.240  1.00  0.00     0.210 HD
ENDBRANCH  21  22
ENDBRANCH  15  21
BRANCH  16  24
ATOM     24  O   UNL     1       5.981  52.821   5.397  1.00  0.00    -0.387 OA
ATOM     25  H   UNL     1       5.837  53.811   5.270  1.00  0.00     0.211 HD
ENDBRANCH  16  24
ENDBRANCH  10  11
ENDBRANCH   4  10
BRANCH   6  26
ATOM     26  O   UNL     1       1.006  55.296  10.849  1.00  0.00    -0.346 OA
BRANCH  26  27
ATOM     27  C   UNL     1       0.567  56.669  10.837  1.00  0.00     0.130 C 
ATOM     28  C   UNL     1       1.592  57.639  11.349  1.00  0.00     0.033 C 
ATOM     29  C   UNL     1      -0.970  57.020  11.032  1.00  0.00     0.020 C 
ATOM     30  C   UNL     1       1.237  59.070  10.851  1.00  0.00     0.010 C 
ATOM     31  C   UNL     1      -1.267  58.596  10.983  1.00  0.00     0.006 C 
ATOM     32  C   UNL     1      -1.618  56.404   9.752  1.00  0.00     0.017 C 
ATOM     33  C   UNL     1      -0.128  59.589  11.383  1.00  0.00    -0.022 C 
ATOM     34  C   UNL     1      -2.697  59.138  11.426  1.00  0.00     0.005 C 
ATOM     35  C   UNL     1       0.051  59.668  12.936  1.00  0.00     0.012 C 
ATOM     36  C   UNL     1      -0.544  60.966  10.628  1.00  0.00     0.024 C 
ATOM     37  C   UNL     1      -2.779  60.629  11.916  1.00  0.00     0.008 C 
ATOM     38  C   UNL     1      -1.916  61.639  11.084  1.00  0.00    -0.017 C 
ATOM     39  C   UNL     1       0.508  61.923  10.131  1.00  0.00    -0.024 C 
ATOM     40  C   UNL     1      -2.771  61.848   9.777  1.00  0.00     0.013 C 
ATOM     41  C   UNL     1      -1.576  63.064  11.813  1.00  0.00     0.009 C 
ATOM     42  C   UNL     1       0.174  63.195   9.855  1.00  0.00     0.005 C 
ATOM     43  C   UNL     1      -0.651  63.995  10.843  1.00  0.00     0.096 C 
ATOM     44  C   UNL     1      -2.820  63.879  12.279  1.00  0.00     0.043 C 
ATOM     45  C   UNL     1      -0.737  62.790  13.121  1.00  0.00     0.015 C 
ATOM     46  C   UNL     1      -1.402  65.202  10.186  1.00  0.00     0.037 C 
ATOM     47  O   UNL     1       0.372  64.632  11.623  1.00  0.00    -0.369 OA
ATOM     48  C   UNL     1      -2.471  65.390  12.538  1.00  0.00     0.124 C 
ATOM     49  C   UNL     1      -1.529  66.041  11.439  1.00  0.00     0.026 C 
ATOM     50  C   UNL     1      -2.692  65.156   9.330  1.00  0.00     0.014 C 
ATOM     51  C   UNL     1      -0.074  65.926  11.913  1.00  0.00     0.171 C 
ATOM     52  C   UNL     1      -1.870  67.502  11.027  1.00  0.00     0.013 C 
ATOM     53  C   UNL     1      -3.658  66.428   9.353  1.00  0.00    -0.035 C 
ATOM     54  C   UNL     1      -3.207  67.617  10.281  1.00  0.00     0.007 C 
ATOM     55  C   UNL     1      -3.849  66.956   7.908  1.00  0.00     0.011 C 
ATOM     56  C   UNL     1      -5.086  65.965   9.802  1.00  0.00     0.011 C 
BRANCH  29  57
ATOM     57  C   UNL     1      -1.519  56.442  12.364  1.00  0.00     0.165 C 
BRANCH  57  58
ATOM     58  O   UNL     1      -2.487  55.423  12.176  1.00  0.00    -0.396 OA
ATOM     59  H   UNL     1      -3.341  55.844  11.859  1.00  0.00     0.210 HD
ENDBRANCH  57  58
ENDBRANCH  29  57
BRANCH  48  60
ATOM     60  O   UNL     1      -3.680  66.100  12.697  1.00  0.00    -0.392 OA
ATOM     61  H   UNL     1      -4.332  65.716  12.061  1.00  0.00     0.210 HD
ENDBRANCH  48  60
ENDBRANCH  26  27
ENDBRANCH   6  26
BRANCH   5  62
ATOM     62  O   UNL     1       0.785  54.507   8.365  1.00  0.00    -0.385 OA
ATOM     63  H   UNL     1       1.645  54.907   8.677  1.00  0.00     0.211 HD
ENDBRANCH   5  62
TORSDOF 14
ENDMDL
MODEL 7
REMARK VINA RESULT:    -4.096      2.387     11.918
REMARK INTER + INTRA:          -8.758
REMARK INTER:                  -6.425
REMARK INTRA:                  -2.333
REMARK UNBOUND:                -2.269
REMARK SMILES C[C@@H]1O[C@@H](O[C@@H]2CC[C@]3(C)[C@H](CC[C@]4(C)[C@H]3C=C[C@@]35OC[C@]6(CCC(C)(C)C[C@@H]63)[C@@H](O)C[C@@]45C)[C@]2(C)CO)[C@@H](O)[C@@H](O[C@@H]2O[C@H](CO)[C@@H](O)[C@@H](O)[C@H]2O)[C@H]1O
REMARK SMILES IDX 1 1 2 2 54 3 41 4 39 5 4 6 3 7 55 8 42 10 43 11 52 12 44 13
REMARK SMILES IDX 50 14 45 15 48 16 53 17 51 19 46 21 47 22 49 24 5 26 6 27
REMARK SMILES IDX 7 28 35 29 8 30 11 31 36 32 9 33 12 34 10 35 16 36 13 37
REMARK SMILES IDX 14 38 17 39 15 40 33 41 18 42 19 43 32 44 34 45 29 46 20 47
REMARK SMILES IDX 30 48 22 49 28 50 21 51 23 52 25 53 24 54 26 55 27 56 37 57
REMARK SMILES IDX 38 58 31 60 40 62
REMARK H PARENT 55 9 53 18 51 20 47 23 49 25 38 59 31 61 40 63
REMARK Flexibility Score: inf
ROOT
ATOM      1  C   UNL     1      -4.429  61.322   6.032  1.00  0.00     0.041 C 
ATOM      2  C   UNL     1      -4.642  61.979   7.407  1.00  0.00     0.150 C 
ATOM      3  C   UNL     1      -5.557  63.239   7.252  1.00  0.00     0.175 C 
ATOM      4  C   UNL     1      -5.691  63.908   8.644  1.00  0.00     0.186 C 
ATOM      5  C   UNL     1      -6.391  62.833   9.520  1.00  0.00     0.202 C 
ATOM      6  C   UNL     1      -5.691  61.454   9.545  1.00  0.00     0.282 C 
ATOM      7  O   UNL     1      -5.216  60.982   8.282  1.00  0.00    -0.344 OA
ENDROOT
BRANCH   3   8
ATOM      8  O   UNL     1      -5.063  64.151   6.311  1.00  0.00    -0.388 OA
ATOM      9  H   UNL     1      -4.743  64.959   6.821  1.00  0.00     0.211 HD
ENDBRANCH   3   8
BRANCH   4  10
ATOM     10  O   UNL     1      -4.349  64.292   8.978  1.00  0.00    -0.341 OA
BRANCH  10  11
ATOM     11  C   UNL     1      -4.107  65.054  10.147  1.00  0.00     0.282 C 
ATOM     12  C   UNL     1      -2.772  65.869  10.222  1.00  0.00     0.202 C 
ATOM     13  O   UNL     1      -5.255  65.846  10.384  1.00  0.00    -0.341 OA
ATOM     14  C   UNL     1      -2.807  66.947  11.365  1.00  0.00     0.179 C 
ATOM     15  C   UNL     1      -5.218  66.359  11.682  1.00  0.00     0.178 C 
ATOM     16  C   UNL     1      -4.218  67.519  11.676  1.00  0.00     0.177 C 
BRANCH  12  17
ATOM     17  O   UNL     1      -1.666  65.026  10.357  1.00  0.00    -0.385 OA
ATOM     18  H   UNL     1      -1.920  64.113  10.092  1.00  0.00     0.211 HD
ENDBRANCH  12  17
BRANCH  14  19
ATOM     19  O   UNL     1      -2.267  66.412  12.555  1.00  0.00    -0.387 OA
ATOM     20  H   UNL     1      -1.961  67.181  13.125  1.00  0.00     0.211 HD
ENDBRANCH  14  19
BRANCH  15  21
ATOM     21  C   UNL     1      -6.664  66.622  12.094  1.00  0.00     0.191 C 
BRANCH  21  22
ATOM     22  O   UNL     1      -7.564  65.904  11.320  1.00  0.00    -0.394 OA
ATOM     23  H   UNL     1      -8.119  65.369  11.939  1.00  0.00     0.210 HD
ENDBRANCH  21  22
ENDBRANCH  15  21
BRANCH  16  24
ATOM     24  O   UNL     1      -4.208  68.125  12.942  1.00  0.00    -0.387 OA
ATOM     25  H   UNL     1      -4.175  67.370  13.610  1.00  0.00     0.211 HD
ENDBRANCH  16  24
ENDBRANCH  10  11
ENDBRANCH   4  10
BRANCH   6  26
ATOM     26  O   UNL     1      -4.733  61.419  10.607  1.00  0.00    -0.346 OA
BRANCH  26  27
ATOM     27  C   UNL     1      -3.710  60.405  10.657  1.00  0.00     0.130 C 
ATOM     28  C   UNL     1      -4.217  59.049  11.054  1.00  0.00     0.033 C 
ATOM     29  C   UNL     1      -2.216  60.793  11.031  1.00  0.00     0.020 C 
ATOM     30  C   UNL     1      -3.190  57.968  10.612  1.00  0.00     0.010 C 
ATOM     31  C   UNL     1      -1.219  59.534  11.030  1.00  0.00     0.006 C 
ATOM     32  C   UNL     1      -1.794  61.696   9.831  1.00  0.00     0.017 C 
ATOM     33  C   UNL     1      -1.805  58.111  11.303  1.00  0.00    -0.022 C 
ATOM     34  C   UNL     1       0.243  59.692  11.639  1.00  0.00     0.005 C 
ATOM     35  C   UNL     1      -2.092  57.886  12.825  1.00  0.00     0.012 C 
ATOM     36  C   UNL     1      -0.721  57.117  10.612  1.00  0.00     0.024 C 
ATOM     37  C   UNL     1       0.953  58.385  12.147  1.00  0.00     0.008 C 
ATOM     38  C   UNL     1       0.749  57.131  11.229  1.00  0.00    -0.017 C 
ATOM     39  C   UNL     1      -1.151  55.808  10.003  1.00  0.00    -0.024 C 
ATOM     40  C   UNL     1       1.738  57.401  10.031  1.00  0.00     0.013 C 
ATOM     41  C   UNL     1       1.032  55.677  11.925  1.00  0.00     0.009 C 
ATOM     42  C   UNL     1      -0.239  54.847   9.778  1.00  0.00     0.005 C 
ATOM     43  C   UNL     1       0.752  54.471  10.862  1.00  0.00     0.096 C 
ATOM     44  C   UNL     1       2.454  55.506  12.539  1.00  0.00     0.043 C 
ATOM     45  C   UNL     1       0.027  55.473  13.124  1.00  0.00     0.015 C 
ATOM     46  C   UNL     1       2.041  53.778  10.305  1.00  0.00     0.037 C 
ATOM     47  O   UNL     1       0.063  53.400  11.522  1.00  0.00    -0.369 OA
ATOM     48  C   UNL     1       2.818  53.994  12.767  1.00  0.00     0.124 C 
ATOM     49  C   UNL     1       2.408  53.035  11.572  1.00  0.00     0.026 C 
ATOM     50  C   UNL     1       3.246  54.453   9.605  1.00  0.00     0.014 C 
ATOM     51  C   UNL     1       1.023  52.444  11.872  1.00  0.00     0.171 C 
ATOM     52  C   UNL     1       3.427  51.916  11.213  1.00  0.00     0.013 C 
ATOM     53  C   UNL     1       4.683  53.770   9.749  1.00  0.00    -0.035 C 
ATOM     54  C   UNL     1       4.737  52.464  10.628  1.00  0.00     0.007 C 
ATOM     55  C   UNL     1       5.249  53.457   8.340  1.00  0.00     0.011 C 
ATOM     56  C   UNL     1       5.677  54.816  10.357  1.00  0.00     0.011 C 
BRANCH  29  57
ATOM     57  C   UNL     1      -2.142  61.496  12.413  1.00  0.00     0.165 C 
BRANCH  57  58
ATOM     58  O   UNL     1      -1.443  62.729  12.378  1.00  0.00    -0.396 OA
ATOM     59  H   UNL     1      -2.063  63.459  12.675  1.00  0.00     0.210 HD
ENDBRANCH  57  58
ENDBRANCH  29  57
BRANCH  48  60
ATOM     60  O   UNL     1       4.194  53.913  13.071  1.00  0.00    -0.392 OA
ATOM     61  H   UNL     1       4.690  54.119  12.241  1.00  0.00     0.210 HD
ENDBRANCH  48  60
ENDBRANCH  26  27
ENDBRANCH   6  26
BRANCH   5  62
ATOM     62  O   UNL     1      -6.588  63.249  10.842  1.00  0.00    -0.385 OA
ATOM     63  H   UNL     1      -5.921  62.776  11.416  1.00  0.00     0.211 HD
ENDBRANCH   5  62
TORSDOF 14
ENDMDL
MODEL 8
REMARK VINA RESULT:    -3.823      2.323     12.075
REMARK INTER + INTRA:          -8.327
REMARK INTER:                  -6.517
REMARK INTRA:                  -1.810
REMARK UNBOUND:                -2.269
REMARK SMILES C[C@@H]1O[C@@H](O[C@@H]2CC[C@]3(C)[C@H](CC[C@]4(C)[C@H]3C=C[C@@]35OC[C@]6(CCC(C)(C)C[C@@H]63)[C@@H](O)C[C@@]45C)[C@]2(C)CO)[C@@H](O)[C@@H](O[C@@H]2O[C@H](CO)[C@@H](O)[C@@H](O)[C@H]2O)[C@H]1O
REMARK SMILES IDX 1 1 2 2 54 3 41 4 39 5 4 6 3 7 55 8 42 10 43 11 52 12 44 13
REMARK SMILES IDX 50 14 45 15 48 16 53 17 51 19 46 21 47 22 49 24 5 26 6 27
REMARK SMILES IDX 7 28 35 29 8 30 11 31 36 32 9 33 12 34 10 35 16 36 13 37
REMARK SMILES IDX 14 38 17 39 15 40 33 41 18 42 19 43 32 44 34 45 29 46 20 47
REMARK SMILES IDX 30 48 22 49 28 50 21 51 23 52 25 53 24 54 26 55 27 56 37 57
REMARK SMILES IDX 38 58 31 60 40 62
REMARK H PARENT 55 9 53 18 51 20 47 23 49 25 38 59 31 61 40 63
REMARK Flexibility Score: inf
ROOT
ATOM      1  C   UNL     1      -4.295  60.704   7.425  1.00  0.00     0.041 C 
ATOM      2  C   UNL     1      -4.382  61.047   8.922  1.00  0.00     0.150 C 
ATOM      3  C   UNL     1      -5.162  62.391   9.110  1.00  0.00     0.175 C 
ATOM      4  C   UNL     1      -5.168  62.733  10.621  1.00  0.00     0.186 C 
ATOM      5  C   UNL     1      -5.943  61.559  11.278  1.00  0.00     0.202 C 
ATOM      6  C   UNL     1      -5.395  60.150  10.950  1.00  0.00     0.282 C 
ATOM      7  O   UNL     1      -5.024  59.936   9.587  1.00  0.00    -0.344 OA
ENDROOT
BRANCH   3   8
ATOM      8  O   UNL     1      -4.611  63.441   8.366  1.00  0.00    -0.388 OA
ATOM      9  H   UNL     1      -4.422  64.193   9.011  1.00  0.00     0.211 HD
ENDBRANCH   3   8
BRANCH   4  10
ATOM     10  O   UNL     1      -3.781  62.902  10.947  1.00  0.00    -0.341 OA
BRANCH  10  11
ATOM     11  C   UNL     1      -3.281  64.193  11.246  1.00  0.00     0.282 C 
ATOM     12  C   UNL     1      -1.774  64.315  11.653  1.00  0.00     0.202 C 
ATOM     13  O   UNL     1      -3.638  65.046  10.176  1.00  0.00    -0.341 OA
ATOM     14  C   UNL     1      -1.265  65.801  11.578  1.00  0.00     0.179 C 
ATOM     15  C   UNL     1      -3.473  66.379  10.556  1.00  0.00     0.178 C 
ATOM     16  C   UNL     1      -1.972  66.676  10.507  1.00  0.00     0.177 C 
BRANCH  12  17
ATOM     17  O   UNL     1      -1.540  63.764  12.915  1.00  0.00    -0.385 OA
ATOM     18  H   UNL     1      -0.614  63.434  12.958  1.00  0.00     0.211 HD
ENDBRANCH  12  17
BRANCH  14  19
ATOM     19  O   UNL     1      -1.407  66.427  12.836  1.00  0.00    -0.387 OA
ATOM     20  H   UNL     1      -0.912  67.301  12.800  1.00  0.00     0.211 HD
ENDBRANCH  14  19
BRANCH  15  21
ATOM     21  C   UNL     1      -4.426  67.204   9.694  1.00  0.00     0.191 C 
BRANCH  21  22
ATOM     22  O   UNL     1      -4.842  66.510   8.568  1.00  0.00    -0.394 OA
ATOM     23  H   UNL     1      -5.001  65.574   8.844  1.00  0.00     0.210 HD
ENDBRANCH  21  22
ENDBRANCH  15  21
BRANCH  16  24
ATOM     24  O   UNL     1      -1.762  68.032  10.799  1.00  0.00    -0.387 OA
ATOM     25  H   UNL     1      -2.568  68.522  10.440  1.00  0.00     0.211 HD
ENDBRANCH  16  24
ENDBRANCH  10  11
ENDBRANCH   4  10
BRANCH   6  26
ATOM     26  O   UNL     1      -4.404  59.783  11.916  1.00  0.00    -0.346 OA
BRANCH  26  27
ATOM     27  C   UNL     1      -3.427  58.761  11.631  1.00  0.00     0.130 C 
ATOM     28  C   UNL     1      -3.885  57.372  11.973  1.00  0.00     0.033 C 
ATOM     29  C   UNL     1      -1.876  59.090  11.720  1.00  0.00     0.020 C 
ATOM     30  C   UNL     1      -3.010  56.341  11.203  1.00  0.00     0.010 C 
ATOM     31  C   UNL     1      -0.945  57.832  11.364  1.00  0.00     0.006 C 
ATOM     32  C   UNL     1      -1.687  60.124  10.567  1.00  0.00     0.017 C 
ATOM     33  C   UNL     1      -1.506  56.391  11.594  1.00  0.00    -0.022 C 
ATOM     34  C   UNL     1       0.618  57.905  11.663  1.00  0.00     0.005 C 
ATOM     35  C   UNL     1      -1.473  55.992  13.108  1.00  0.00     0.012 C 
ATOM     36  C   UNL     1      -0.626  55.476  10.581  1.00  0.00     0.024 C 
ATOM     37  C   UNL     1       1.375  56.541  11.857  1.00  0.00     0.008 C 
ATOM     38  C   UNL     1       0.941  55.405  10.868  1.00  0.00    -0.017 C 
ATOM     39  C   UNL     1      -1.218  54.250   9.935  1.00  0.00    -0.024 C 
ATOM     40  C   UNL     1       1.663  55.804   9.525  1.00  0.00     0.013 C 
ATOM     41  C   UNL     1       1.315  53.877  11.320  1.00  0.00     0.009 C 
ATOM     42  C   UNL     1      -0.406  53.315   9.414  1.00  0.00     0.005 C 
ATOM     43  C   UNL     1       0.778  52.806  10.212  1.00  0.00     0.096 C 
ATOM     44  C   UNL     1       2.829  53.624  11.593  1.00  0.00     0.043 C 
ATOM     45  C   UNL     1       0.580  53.543  12.675  1.00  0.00     0.015 C 
ATOM     46  C   UNL     1       1.897  52.172   9.319  1.00  0.00     0.037 C 
ATOM     47  O   UNL     1       0.208  51.671  10.880  1.00  0.00    -0.369 OA
ATOM     48  C   UNL     1       3.182  52.092  11.567  1.00  0.00     0.124 C 
ATOM     49  C   UNL     1       2.498  51.283  10.387  1.00  0.00     0.026 C 
ATOM     50  C   UNL     1       2.949  52.914   8.458  1.00  0.00     0.014 C 
ATOM     51  C   UNL     1       1.189  50.673  10.907  1.00  0.00     0.171 C 
ATOM     52  C   UNL     1       3.381  50.205   9.695  1.00  0.00     0.013 C 
ATOM     53  C   UNL     1       4.360  52.206   8.215  1.00  0.00    -0.035 C 
ATOM     54  C   UNL     1       4.555  50.807   8.910  1.00  0.00     0.007 C 
ATOM     55  C   UNL     1       4.606  52.055   6.692  1.00  0.00     0.011 C 
ATOM     56  C   UNL     1       5.495  53.166   8.711  1.00  0.00     0.011 C 
BRANCH  29  57
ATOM     57  C   UNL     1      -1.489  59.626  13.125  1.00  0.00     0.165 C 
BRANCH  57  58
ATOM     58  O   UNL     1      -0.891  60.911  13.089  1.00  0.00    -0.396 OA
ATOM     59  H   UNL     1      -1.067  61.324  12.193  1.00  0.00     0.210 HD
ENDBRANCH  57  58
ENDBRANCH  29  57
BRANCH  48  60
ATOM     60  O   UNL     1       4.588  51.965  11.559  1.00  0.00    -0.392 OA
ATOM     61  H   UNL     1       4.892  52.015  12.499  1.00  0.00     0.210 HD
ENDBRANCH  48  60
ENDBRANCH  26  27
ENDBRANCH   6  26
BRANCH   5  62
ATOM     62  O   UNL     1      -6.042  61.679  12.669  1.00  0.00    -0.385 OA
ATOM     63  H   UNL     1      -5.903  60.773  13.067  1.00  0.00     0.211 HD
ENDBRANCH   5  62
TORSDOF 14
ENDMDL
MODEL 9
REMARK VINA RESULT:    -3.801      2.045     12.398
REMARK INTER + INTRA:          -8.292
REMARK INTER:                  -8.287
REMARK INTRA:                  -0.005
REMARK UNBOUND:                -2.269
REMARK SMILES C[C@@H]1O[C@@H](O[C@@H]2CC[C@]3(C)[C@H](CC[C@]4(C)[C@H]3C=C[C@@]35OC[C@]6(CCC(C)(C)C[C@@H]63)[C@@H](O)C[C@@]45C)[C@]2(C)CO)[C@@H](O)[C@@H](O[C@@H]2O[C@H](CO)[C@@H](O)[C@@H](O)[C@H]2O)[C@H]1O
REMARK SMILES IDX 1 1 2 2 54 3 41 4 39 5 4 6 3 7 55 8 42 10 43 11 52 12 44 13
REMARK SMILES IDX 50 14 45 15 48 16 53 17 51 19 46 21 47 22 49 24 5 26 6 27
REMARK SMILES IDX 7 28 35 29 8 30 11 31 36 32 9 33 12 34 10 35 16 36 13 37
REMARK SMILES IDX 14 38 17 39 15 40 33 41 18 42 19 43 32 44 34 45 29 46 20 47
REMARK SMILES IDX 30 48 22 49 28 50 21 51 23 52 25 53 24 54 26 55 27 56 37 57
REMARK SMILES IDX 38 58 31 60 40 62
REMARK H PARENT 55 9 53 18 51 20 47 23 49 25 38 59 31 61 40 63
REMARK Flexibility Score: inf
ROOT
ATOM      1  C   UNL     1      -5.983  63.051  11.639  1.00  0.00     0.041 C 
ATOM      2  C   UNL     1      -4.515  63.446  11.402  1.00  0.00     0.150 C 
ATOM      3  C   UNL     1      -4.261  64.886  11.961  1.00  0.00     0.175 C 
ATOM      4  C   UNL     1      -2.794  65.270  11.642  1.00  0.00     0.186 C 
ATOM      5  C   UNL     1      -1.946  64.228  12.421  1.00  0.00     0.202 C 
ATOM      6  C   UNL     1      -2.292  62.750  12.122  1.00  0.00     0.282 C 
ATOM      7  O   UNL     1      -3.687  62.449  12.041  1.00  0.00    -0.344 OA
ENDROOT
BRANCH   3   8
ATOM      8  O   UNL     1      -5.146  65.833  11.432  1.00  0.00    -0.388 OA
ATOM      9  H   UNL     1      -4.591  66.603  11.096  1.00  0.00     0.211 HD
ENDBRANCH   3   8
BRANCH   4  10
ATOM     10  O   UNL     1      -2.734  65.264  10.209  1.00  0.00    -0.341 OA
BRANCH  10  11
ATOM     11  C   UNL     1      -3.851  65.702   9.457  1.00  0.00     0.282 C 
ATOM     12  C   UNL     1      -3.794  67.137   8.834  1.00  0.00     0.202 C 
ATOM     13  O   UNL     1      -4.146  64.696   8.507  1.00  0.00    -0.341 OA
ATOM     14  C   UNL     1      -4.896  67.342   7.731  1.00  0.00     0.179 C 
ATOM     15  C   UNL     1      -5.417  64.908   7.969  1.00  0.00     0.178 C 
ATOM     16  C   UNL     1      -5.291  66.053   6.961  1.00  0.00     0.177 C 
BRANCH  12  17
ATOM     17  O   UNL     1      -3.876  68.125   9.820  1.00  0.00    -0.385 OA
ATOM     18  H   UNL     1      -3.635  68.994   9.428  1.00  0.00     0.211 HD
ENDBRANCH  12  17
BRANCH  14  19
ATOM     19  O   UNL     1      -6.061  67.898   8.305  1.00  0.00    -0.387 OA
ATOM     20  H   UNL     1      -5.775  68.489   9.066  1.00  0.00     0.211 HD
ENDBRANCH  14  19
BRANCH  15  21
ATOM     21  C   UNL     1      -5.927  63.549   7.496  1.00  0.00     0.191 C 
BRANCH  21  22
ATOM     22  O   UNL     1      -4.906  62.757   6.990  1.00  0.00    -0.394 OA
ATOM     23  H   UNL     1      -5.238  61.826   6.978  1.00  0.00     0.210 HD
ENDBRANCH  21  22
ENDBRANCH  15  21
BRANCH  16  24
ATOM     24  O   UNL     1      -6.529  66.247   6.329  1.00  0.00    -0.387 OA
ATOM     25  H   UNL     1      -6.566  67.227   6.090  1.00  0.00     0.211 HD
ENDBRANCH  16  24
ENDBRANCH  10  11
ENDBRANCH   4  10
BRANCH   6  26
ATOM     26  O   UNL     1      -1.504  62.284  11.022  1.00  0.00    -0.346 OA
BRANCH  26  27
ATOM     27  C   UNL     1      -1.082  60.908  10.936  1.00  0.00     0.130 C 
ATOM     28  C   UNL     1      -2.207  59.920  11.049  1.00  0.00     0.033 C 
ATOM     29  C   UNL     1       0.356  60.479  11.454  1.00  0.00     0.020 C 
ATOM     30  C   UNL     1      -1.747  58.552  10.469  1.00  0.00     0.010 C 
ATOM     31  C   UNL     1       0.649  58.911  11.272  1.00  0.00     0.006 C 
ATOM     32  C   UNL     1       1.304  61.227  10.465  1.00  0.00     0.017 C 
ATOM     33  C   UNL     1      -0.558  57.919  11.246  1.00  0.00    -0.022 C 
ATOM     34  C   UNL     1       1.922  58.265  11.977  1.00  0.00     0.005 C 
ATOM     35  C   UNL     1      -1.118  57.651  12.684  1.00  0.00     0.012 C 
ATOM     36  C   UNL     1       0.025  56.634  10.441  1.00  0.00     0.024 C 
ATOM     37  C   UNL     1       1.873  56.722  12.271  1.00  0.00     0.008 C 
ATOM     38  C   UNL     1       1.238  55.858  11.127  1.00  0.00    -0.017 C 
ATOM     39  C   UNL     1      -0.875  55.787   9.580  1.00  0.00    -0.024 C 
ATOM     40  C   UNL     1       2.390  55.784  10.054  1.00  0.00     0.013 C 
ATOM     41  C   UNL     1       0.721  54.366  11.556  1.00  0.00     0.009 C 
ATOM     42  C   UNL     1      -0.489  54.549   9.229  1.00  0.00     0.005 C 
ATOM     43  C   UNL     1       0.061  53.600  10.275  1.00  0.00     0.096 C 
ATOM     44  C   UNL     1       1.807  53.453  12.202  1.00  0.00     0.043 C 
ATOM     45  C   UNL     1      -0.414  54.504  12.643  1.00  0.00     0.015 C 
ATOM     46  C   UNL     1       0.946  52.459   9.668  1.00  0.00     0.037 C 
ATOM     47  O   UNL     1      -1.127  52.909  10.689  1.00  0.00    -0.369 OA
ATOM     48  C   UNL     1       1.397  51.935  12.166  1.00  0.00     0.124 C 
ATOM     49  C   UNL     1       0.754  51.464  10.793  1.00  0.00     0.026 C 
ATOM     50  C   UNL     1       2.407  52.565   9.169  1.00  0.00     0.014 C 
ATOM     51  C   UNL     1      -0.773  51.573  10.906  1.00  0.00     0.171 C 
ATOM     52  C   UNL     1       1.179  50.056  10.288  1.00  0.00     0.013 C 
ATOM     53  C   UNL     1       3.332  51.265   9.260  1.00  0.00    -0.035 C 
ATOM     54  C   UNL     1       2.659  49.986   9.884  1.00  0.00     0.007 C 
ATOM     55  C   UNL     1       3.872  50.917   7.850  1.00  0.00     0.011 C 
ATOM     56  C   UNL     1       4.606  51.613  10.103  1.00  0.00     0.011 C 
BRANCH  29  57
ATOM     57  C   UNL     1       0.561  60.863  12.944  1.00  0.00     0.165 C 
BRANCH  57  58
ATOM     58  O   UNL     1       0.987  62.203  13.124  1.00  0.00    -0.396 OA
ATOM     59  H   UNL     1       0.192  62.809  13.037  1.00  0.00     0.210 HD
ENDBRANCH  57  58
ENDBRANCH  29  57
BRANCH  48  60
ATOM     60  O   UNL     1       2.525  51.166  12.521  1.00  0.00    -0.392 OA
ATOM     61  H   UNL     1       2.482  50.325  12.002  1.00  0.00     0.210 HD
ENDBRANCH  48  60
ENDBRANCH  26  27
ENDBRANCH   6  26
BRANCH   5  62
ATOM     62  O   UNL     1      -0.569  64.401  12.243  1.00  0.00    -0.385 OA
ATOM     63  H   UNL     1      -0.102  63.953  13.005  1.00  0.00     0.211 HD
ENDBRANCH   5  62
TORSDOF 14
ENDMDL
