MODEL 1
REMARK VINA RESULT:    -5.513      0.000      0.000
REMARK INTER + INTRA:          -7.640
REMARK INTER:                  -7.447
REMARK INTRA:                  -0.193
REMARK UNBOUND:                -0.193
REMARK SMILES [NH3+]CCCC[C@H]([NH3+])C(=O)[O-]
REMARK SMILES IDX 4 1 3 2 2 3 1 4 5 8 6 9 7 10 8 14 9 15 10 16
REMARK H PARENT 1 5 1 6 1 7 7 11 7 12 7 13
REMARK Flexibility Score: inf
ROOT
ATOM      1  C   UNL     1     160.149 161.363 161.941  1.00  0.00     0.012 C 
ENDROOT
BRANCH   1   2
ATOM      2  C   UNL     1     160.616 160.986 163.356  1.00  0.00     0.061 C 
BRANCH   2   3
ATOM      3  C   UNL     1     160.493 159.480 163.639  1.00  0.00     0.258 C 
BRANCH   3   4
ATOM      4  N   UNL     1     161.791 158.909 163.997  1.00  0.00    -0.358 N 
ATOM      5  H   UNL     1     162.483 159.081 163.233  1.00  0.00     0.344 HD
ATOM      6  H   UNL     1     162.135 159.333 164.890  1.00  0.00     0.344 HD
ATOM      7  H   UNL     1     161.686 157.877 164.131  1.00  0.00     0.344 HD
ENDBRANCH   3   4
ENDBRANCH   2   3
ENDBRANCH   1   2
BRANCH   1   8
ATOM      8  C   UNL     1     161.006 160.711 160.841  1.00  0.00     0.072 C 
BRANCH   8   9
ATOM      9  C   UNL     1     160.178 159.769 159.939  1.00  0.00     0.227 C 
BRANCH   9  10
ATOM     10  N   UNL     1     160.464 158.366 160.261  1.00  0.00    -0.350 N 
ATOM     11  H   UNL     1     160.289 157.767 159.422  1.00  0.00     0.345 HD
ATOM     12  H   UNL     1     159.861 158.036 161.049  1.00  0.00     0.345 HD
ATOM     13  H   UNL     1     161.471 158.262 160.531  1.00  0.00     0.345 HD
ENDBRANCH   9  10
BRANCH   9  14
ATOM     14  C   UNL     1     160.450 160.034 158.481  1.00  0.00     0.099 C 
ATOM     15  O   UNL     1     160.467 159.085 157.651  1.00  0.00    -0.544 OA
ATOM     16  O   UNL     1     160.695 161.330 158.044  1.00  0.00    -0.544 OA
ENDBRANCH   9  14
ENDBRANCH   8   9
ENDBRANCH   1   8
TORSDOF 7
ENDMDL
MODEL 2
REMARK VINA RESULT:    -5.474      1.579      2.008
REMARK INTER + INTRA:          -7.587
REMARK INTER:                  -7.549
REMARK INTRA:                  -0.038
REMARK UNBOUND:                -0.193
REMARK SMILES [NH3+]CCCC[C@H]([NH3+])C(=O)[O-]
REMARK SMILES IDX 4 1 3 2 2 3 1 4 5 8 6 9 7 10 8 14 9 15 10 16
REMARK H PARENT 1 5 1 6 1 7 7 11 7 12 7 13
REMARK Flexibility Score: inf
ROOT
ATOM      1  C   UNL     1     160.611 159.199 161.125  1.00  0.00     0.012 C 
ENDROOT
BRANCH   1   2
ATOM      2  C   UNL     1     160.691 160.130 162.344  1.00  0.00     0.061 C 
BRANCH   2   3
ATOM      3  C   UNL     1     160.605 159.370 163.678  1.00  0.00     0.258 C 
BRANCH   3   4
ATOM      4  N   UNL     1     161.884 158.742 164.003  1.00  0.00    -0.358 N 
ATOM      5  H   UNL     1     161.889 158.428 165.001  1.00  0.00     0.344 HD
ATOM      6  H   UNL     1     162.052 157.922 163.374  1.00  0.00     0.344 HD
ATOM      7  H   UNL     1     162.653 159.437 163.864  1.00  0.00     0.344 HD
ENDBRANCH   3   4
ENDBRANCH   2   3
ENDBRANCH   1   2
BRANCH   1   8
ATOM      8  C   UNL     1     159.896 159.850 159.927  1.00  0.00     0.072 C 
BRANCH   8   9
ATOM      9  C   UNL     1     160.820 160.814 159.151  1.00  0.00     0.227 C 
BRANCH   9  10
ATOM     10  N   UNL     1     160.620 162.195 159.607  1.00  0.00    -0.350 N 
ATOM     11  H   UNL     1     160.792 162.257 160.637  1.00  0.00     0.345 HD
ATOM     12  H   UNL     1     159.645 162.515 159.403  1.00  0.00     0.345 HD
ATOM     13  H   UNL     1     161.299 162.830 159.125  1.00  0.00     0.345 HD
ENDBRANCH   9  10
BRANCH   9  14
ATOM     14  C   UNL     1     160.583 160.718 157.666  1.00  0.00     0.099 C 
ATOM     15  O   UNL     1     160.937 161.654 156.900  1.00  0.00    -0.544 OA
ATOM     16  O   UNL     1     159.960 159.596 157.134  1.00  0.00    -0.544 OA
ENDBRANCH   9  14
ENDBRANCH   8   9
ENDBRANCH   1   8
TORSDOF 7
ENDMDL
MODEL 3
REMARK VINA RESULT:    -5.435      3.314      4.998
REMARK INTER + INTRA:          -7.534
REMARK INTER:                  -7.532
REMARK INTRA:                  -0.001
REMARK UNBOUND:                -0.193
REMARK SMILES [NH3+]CCCC[C@H]([NH3+])C(=O)[O-]
REMARK SMILES IDX 4 1 3 2 2 3 1 4 5 8 6 9 7 10 8 14 9 15 10 16
REMARK H PARENT 1 5 1 6 1 7 7 11 7 12 7 13
REMARK Flexibility Score: inf
ROOT
ATOM      1  C   UNL     1     160.253 159.205 159.844  1.00  0.00     0.012 C 
ENDROOT
BRANCH   1   2
ATOM      2  C   UNL     1     160.330 160.160 158.642  1.00  0.00     0.061 C 
BRANCH   2   3
ATOM      3  C   UNL     1     160.395 159.418 157.298  1.00  0.00     0.258 C 
BRANCH   3   4
ATOM      4  N   UNL     1     159.135 158.728 157.022  1.00  0.00    -0.358 N 
ATOM      5  H   UNL     1     158.327 159.319 157.323  1.00  0.00     0.344 HD
ATOM      6  H   UNL     1     159.058 158.517 156.000  1.00  0.00     0.344 HD
ATOM      7  H   UNL     1     159.114 157.829 157.555  1.00  0.00     0.344 HD
ENDBRANCH   3   4
ENDBRANCH   2   3
ENDBRANCH   1   2
BRANCH   1   8
ATOM      8  C   UNL     1     161.015 159.734 161.072  1.00  0.00     0.072 C 
BRANCH   8   9
ATOM      9  C   UNL     1     160.204 160.795 161.847  1.00  0.00     0.227 C 
BRANCH   9  10
ATOM     10  N   UNL     1     160.520 162.142 161.357  1.00  0.00    -0.350 N 
ATOM     11  H   UNL     1     159.708 162.780 161.523  1.00  0.00     0.345 HD
ATOM     12  H   UNL     1     160.738 162.123 160.334  1.00  0.00     0.345 HD
ATOM     13  H   UNL     1     161.345 162.524 161.877  1.00  0.00     0.345 HD
ENDBRANCH   9  10
BRANCH   9  14
ATOM     14  C   UNL     1     160.467 160.706 163.328  1.00  0.00     0.099 C 
ATOM     15  O   UNL     1     160.994 159.673 163.823  1.00  0.00    -0.544 OA
ATOM     16  O   UNL     1     160.118 161.763 164.161  1.00  0.00    -0.544 OA
ENDBRANCH   9  14
ENDBRANCH   8   9
ENDBRANCH   1   8
TORSDOF 7
ENDMDL
MODEL 4
REMARK VINA RESULT:    -5.418      3.348      4.858
REMARK INTER + INTRA:          -7.511
REMARK INTER:                  -7.505
REMARK INTRA:                  -0.006
REMARK UNBOUND:                -0.193
REMARK SMILES [NH3+]CCCC[C@H]([NH3+])C(=O)[O-]
REMARK SMILES IDX 4 1 3 2 2 3 1 4 5 8 6 9 7 10 8 14 9 15 10 16
REMARK H PARENT 1 5 1 6 1 7 7 11 7 12 7 13
REMARK Flexibility Score: inf
ROOT
ATOM      1  C   UNL     1     160.721 161.672 159.813  1.00  0.00     0.012 C 
ENDROOT
BRANCH   1   2
ATOM      2  C   UNL     1     160.600 160.722 158.611  1.00  0.00     0.061 C 
BRANCH   2   3
ATOM      3  C   UNL     1     160.664 161.460 157.264  1.00  0.00     0.258 C 
BRANCH   3   4
ATOM      4  N   UNL     1     161.880 162.266 157.168  1.00  0.00    -0.358 N 
ATOM      5  H   UNL     1     161.902 162.777 156.256  1.00  0.00     0.344 HD
ATOM      6  H   UNL     1     161.921 162.950 157.959  1.00  0.00     0.344 HD
ATOM      7  H   UNL     1     162.713 161.636 157.222  1.00  0.00     0.344 HD
ENDBRANCH   3   4
ENDBRANCH   2   3
ENDBRANCH   1   2
BRANCH   1   8
ATOM      8  C   UNL     1     160.006 161.137 161.067  1.00  0.00     0.072 C 
BRANCH   8   9
ATOM      9  C   UNL     1     160.863 160.104 161.830  1.00  0.00     0.227 C 
BRANCH   9  10
ATOM     10  N   UNL     1     160.581 158.746 161.347  1.00  0.00    -0.350 N 
ATOM     11  H   UNL     1     161.473 158.275 161.072  1.00  0.00     0.345 HD
ATOM     12  H   UNL     1     159.939 158.772 160.522  1.00  0.00     0.345 HD
ATOM     13  H   UNL     1     160.138 158.183 162.111  1.00  0.00     0.345 HD
ENDBRANCH   9  10
BRANCH   9  14
ATOM     14  C   UNL     1     160.623 160.188 163.315  1.00  0.00     0.099 C 
ATOM     15  O   UNL     1     160.970 159.242 164.073  1.00  0.00    -0.544 OA
ATOM     16  O   UNL     1     160.007 161.309 163.856  1.00  0.00    -0.544 OA
ENDBRANCH   9  14
ENDBRANCH   8   9
ENDBRANCH   1   8
TORSDOF 7
ENDMDL
MODEL 5
REMARK VINA RESULT:    -5.396      1.980      2.374
REMARK INTER + INTRA:          -7.481
REMARK INTER:                  -7.285
REMARK INTRA:                  -0.196
REMARK UNBOUND:                -0.193
REMARK SMILES [NH3+]CCCC[C@H]([NH3+])C(=O)[O-]
REMARK SMILES IDX 4 1 3 2 2 3 1 4 5 8 6 9 7 10 8 14 9 15 10 16
REMARK H PARENT 1 5 1 6 1 7 7 11 7 12 7 13
REMARK Flexibility Score: inf
ROOT
ATOM      1  C   UNL     1     160.994 159.511 161.924  1.00  0.00     0.012 C 
ENDROOT
BRANCH   1   2
ATOM      2  C   UNL     1     160.531 159.871 163.345  1.00  0.00     0.061 C 
BRANCH   2   3
ATOM      3  C   UNL     1     160.625 161.378 163.635  1.00  0.00     0.258 C 
BRANCH   3   4
ATOM      4  N   UNL     1     159.295 161.956 163.828  1.00  0.00    -0.358 N 
ATOM      5  H   UNL     1     158.722 161.341 164.449  1.00  0.00     0.344 HD
ATOM      6  H   UNL     1     159.377 162.909 164.252  1.00  0.00     0.344 HD
ATOM      7  H   UNL     1     158.819 162.037 162.900  1.00  0.00     0.344 HD
ENDBRANCH   3   4
ENDBRANCH   2   3
ENDBRANCH   1   2
BRANCH   1   8
ATOM      8  C   UNL     1     160.115 160.150 160.835  1.00  0.00     0.072 C 
BRANCH   8   9
ATOM      9  C   UNL     1     160.920 161.100 159.920  1.00  0.00     0.227 C 
BRANCH   9  10
ATOM     10  N   UNL     1     160.627 162.500 160.250  1.00  0.00    -0.350 N 
ATOM     11  H   UNL     1     160.128 162.955 159.452  1.00  0.00     0.345 HD
ATOM     12  H   UNL     1     161.509 163.026 160.448  1.00  0.00     0.345 HD
ATOM     13  H   UNL     1     160.005 162.544 161.091  1.00  0.00     0.345 HD
ENDBRANCH   9  10
BRANCH   9  14
ATOM     14  C   UNL     1     160.624 160.836 158.467  1.00  0.00     0.099 C 
ATOM     15  O   UNL     1     160.621 161.781 157.633  1.00  0.00    -0.544 OA
ATOM     16  O   UNL     1     160.342 159.544 158.038  1.00  0.00    -0.544 OA
ENDBRANCH   9  14
ENDBRANCH   8   9
ENDBRANCH   1   8
TORSDOF 7
ENDMDL
MODEL 6
REMARK VINA RESULT:    -5.313      3.245      5.035
REMARK INTER + INTRA:          -7.370
REMARK INTER:                  -7.217
REMARK INTRA:                  -0.153
REMARK UNBOUND:                -0.193
REMARK SMILES [NH3+]CCCC[C@H]([NH3+])C(=O)[O-]
REMARK SMILES IDX 4 1 3 2 2 3 1 4 5 8 6 9 7 10 8 14 9 15 10 16
REMARK H PARENT 1 5 1 6 1 7 7 11 7 12 7 13
REMARK Flexibility Score: inf
ROOT
ATOM      1  C   UNL     1     160.045 159.629 158.906  1.00  0.00     0.012 C 
ENDROOT
BRANCH   1   2
ATOM      2  C   UNL     1     160.603 160.057 157.539  1.00  0.00     0.061 C 
BRANCH   2   3
ATOM      3  C   UNL     1     160.540 161.577 157.322  1.00  0.00     0.258 C 
BRANCH   3   4
ATOM      4  N   UNL     1     161.858 162.111 156.981  1.00  0.00    -0.358 N 
ATOM      5  H   UNL     1     162.336 161.481 156.296  1.00  0.00     0.344 HD
ATOM      6  H   UNL     1     161.763 163.070 156.572  1.00  0.00     0.344 HD
ATOM      7  H   UNL     1     162.440 162.169 157.848  1.00  0.00     0.344 HD
ENDBRANCH   3   4
ENDBRANCH   2   3
ENDBRANCH   1   2
BRANCH   1   8
ATOM      8  C   UNL     1     160.911 160.121 160.079  1.00  0.00     0.072 C 
BRANCH   8   9
ATOM      9  C   UNL     1     160.161 161.132 160.973  1.00  0.00     0.227 C 
BRANCH   9  10
ATOM     10  N   UNL     1     160.558 162.505 160.641  1.00  0.00    -0.350 N 
ATOM     11  H   UNL     1     161.521 162.507 160.234  1.00  0.00     0.345 HD
ATOM     12  H   UNL     1     160.545 163.111 161.493  1.00  0.00     0.345 HD
ATOM     13  H   UNL     1     159.902 162.902 159.927  1.00  0.00     0.345 HD
ENDBRANCH   9  10
BRANCH   9  14
ATOM     14  C   UNL     1     160.411 160.858 162.434  1.00  0.00     0.099 C 
ATOM     15  O   UNL     1     160.442 161.804 163.266  1.00  0.00    -0.544 OA
ATOM     16  O   UNL     1     160.621 159.555 162.870  1.00  0.00    -0.544 OA
ENDBRANCH   9  14
ENDBRANCH   8   9
ENDBRANCH   1   8
TORSDOF 7
ENDMDL
MODEL 7
REMARK VINA RESULT:    -4.647      1.768      2.098
REMARK INTER + INTRA:          -6.470
REMARK INTER:                  -6.390
REMARK INTRA:                  -0.080
REMARK UNBOUND:                -0.193
REMARK SMILES [NH3+]CCCC[C@H]([NH3+])C(=O)[O-]
REMARK SMILES IDX 4 1 3 2 2 3 1 4 5 8 6 9 7 10 8 14 9 15 10 16
REMARK H PARENT 1 5 1 6 1 7 7 11 7 12 7 13
REMARK Flexibility Score: inf
ROOT
ATOM      1  C   UNL     1     160.353 161.359 160.260  1.00  0.00     0.012 C 
ENDROOT
BRANCH   1   2
ATOM      2  C   UNL     1     160.329 161.006 161.756  1.00  0.00     0.061 C 
BRANCH   2   3
ATOM      3  C   UNL     1     160.760 159.556 162.030  1.00  0.00     0.258 C 
BRANCH   3   4
ATOM      4  N   UNL     1     160.716 159.260 163.462  1.00  0.00    -0.358 N 
ATOM      5  H   UNL     1     161.544 158.685 163.737  1.00  0.00     0.344 HD
ATOM      6  H   UNL     1     160.705 160.151 164.011  1.00  0.00     0.344 HD
ATOM      7  H   UNL     1     159.845 158.722 163.674  1.00  0.00     0.344 HD
ENDBRANCH   3   4
ENDBRANCH   2   3
ENDBRANCH   1   2
BRANCH   1   8
ATOM      8  C   UNL     1     160.555 160.125 159.363  1.00  0.00     0.072 C 
BRANCH   8   9
ATOM      9  C   UNL     1     160.066 160.369 157.919  1.00  0.00     0.227 C 
BRANCH   9  10
ATOM     10  N   UNL     1     160.198 159.145 157.119  1.00  0.00    -0.350 N 
ATOM     11  H   UNL     1     160.969 159.258 156.422  1.00  0.00     0.345 HD
ATOM     12  H   UNL     1     159.307 158.936 156.611  1.00  0.00     0.345 HD
ATOM     13  H   UNL     1     160.436 158.338 157.741  1.00  0.00     0.345 HD
ENDBRANCH   9  10
BRANCH   9  14
ATOM     14  C   UNL     1     160.824 161.498 157.271  1.00  0.00     0.099 C 
ATOM     15  O   UNL     1     162.074 161.589 157.406  1.00  0.00    -0.544 OA
ATOM     16  O   UNL     1     160.145 162.454 156.526  1.00  0.00    -0.544 OA
ENDBRANCH   9  14
ENDBRANCH   8   9
ENDBRANCH   1   8
TORSDOF 7
ENDMDL
MODEL 8
REMARK VINA RESULT:    -4.350     12.063     13.014
REMARK INTER + INTRA:          -6.068
REMARK INTER:                  -5.963
REMARK INTRA:                  -0.105
REMARK UNBOUND:                -0.193
REMARK SMILES [NH3+]CCCC[C@H]([NH3+])C(=O)[O-]
REMARK SMILES IDX 4 1 3 2 2 3 1 4 5 8 6 9 7 10 8 14 9 15 10 16
REMARK H PARENT 1 5 1 6 1 7 7 11 7 12 7 13
REMARK Flexibility Score: inf
ROOT
ATOM      1  C   UNL     1     153.907 167.321 167.473  1.00  0.00     0.012 C 
ENDROOT
BRANCH   1   2
ATOM      2  C   UNL     1     152.498 166.710 167.403  1.00  0.00     0.061 C 
BRANCH   2   3
ATOM      3  C   UNL     1     152.472 165.362 166.665  1.00  0.00     0.258 C 
BRANCH   3   4
ATOM      4  N   UNL     1     152.025 164.290 167.552  1.00  0.00    -0.358 N 
ATOM      5  H   UNL     1     151.033 164.037 167.340  1.00  0.00     0.344 HD
ATOM      6  H   UNL     1     152.638 163.449 167.436  1.00  0.00     0.344 HD
ATOM      7  H   UNL     1     152.086 164.618 168.543  1.00  0.00     0.344 HD
ENDBRANCH   3   4
ENDBRANCH   2   3
ENDBRANCH   1   2
BRANCH   1   8
ATOM      8  C   UNL     1     154.146 168.114 168.770  1.00  0.00     0.072 C 
BRANCH   8   9
ATOM      9  C   UNL     1     155.066 169.334 168.545  1.00  0.00     0.227 C 
BRANCH   9  10
ATOM     10  N   UNL     1     155.263 169.572 167.110  1.00  0.00    -0.350 N 
ATOM     11  H   UNL     1     155.674 170.522 166.961  1.00  0.00     0.345 HD
ATOM     12  H   UNL     1     154.354 169.507 166.596  1.00  0.00     0.345 HD
ATOM     13  H   UNL     1     155.930 168.864 166.721  1.00  0.00     0.345 HD
ENDBRANCH   9  10
BRANCH   9  14
ATOM     14  C   UNL     1     156.397 169.146 169.227  1.00  0.00     0.099 C 
ATOM     15  O   UNL     1     156.472 168.525 170.322  1.00  0.00    -0.544 OA
ATOM     16  O   UNL     1     157.551 169.668 168.656  1.00  0.00    -0.544 OA
ENDBRANCH   9  14
ENDBRANCH   8   9
ENDBRANCH   1   8
TORSDOF 7
ENDMDL
MODEL 9
REMARK VINA RESULT:    -4.256     12.088     13.192
REMARK INTER + INTRA:          -5.941
REMARK INTER:                  -5.873
REMARK INTRA:                  -0.069
REMARK UNBOUND:                -0.193
REMARK SMILES [NH3+]CCCC[C@H]([NH3+])C(=O)[O-]
REMARK SMILES IDX 4 1 3 2 2 3 1 4 5 8 6 9 7 10 8 14 9 15 10 16
REMARK H PARENT 1 5 1 6 1 7 7 11 7 12 7 13
REMARK Flexibility Score: inf
ROOT
ATOM      1  C   UNL     1     167.778 167.103 153.338  1.00  0.00     0.012 C 
ENDROOT
BRANCH   1   2
ATOM      2  C   UNL     1     167.714 166.252 154.617  1.00  0.00     0.061 C 
BRANCH   2   3
ATOM      3  C   UNL     1     168.858 165.228 154.705  1.00  0.00     0.258 C 
BRANCH   3   4
ATOM      4  N   UNL     1     168.889 164.377 153.516  1.00  0.00    -0.358 N 
ATOM      5  H   UNL     1     169.870 164.275 153.171  1.00  0.00     0.344 HD
ATOM      6  H   UNL     1     168.493 163.434 153.740  1.00  0.00     0.344 HD
ATOM      7  H   UNL     1     168.310 164.817 152.765  1.00  0.00     0.344 HD
ENDBRANCH   3   4
ENDBRANCH   2   3
ENDBRANCH   1   2
BRANCH   1   8
ATOM      8  C   UNL     1     166.628 168.121 153.246  1.00  0.00     0.072 C 
BRANCH   8   9
ATOM      9  C   UNL     1     166.402 168.614 151.800  1.00  0.00     0.227 C 
BRANCH   9  10
ATOM     10  N   UNL     1     167.628 169.219 151.266  1.00  0.00    -0.350 N 
ATOM     11  H   UNL     1     167.647 170.240 151.490  1.00  0.00     0.345 HD
ATOM     12  H   UNL     1     167.680 169.095 150.228  1.00  0.00     0.345 HD
ATOM     13  H   UNL     1     168.466 168.772 151.708  1.00  0.00     0.345 HD
ENDBRANCH   9  10
BRANCH   9  14
ATOM     14  C   UNL     1     165.264 169.601 151.733  1.00  0.00     0.099 C 
ATOM     15  O   UNL     1     165.482 170.809 151.449  1.00  0.00    -0.544 OA
ATOM     16  O   UNL     1     163.966 169.182 151.996  1.00  0.00    -0.544 OA
ENDBRANCH   9  14
ENDBRANCH   8   9
ENDBRANCH   1   8
TORSDOF 7
ENDMDL
