MODEL 1
REMARK VINA RESULT:   107.074      0.000      0.000
REMARK INTER + INTRA:         116.370
REMARK INTER:                 116.463
REMARK INTRA:                  -0.093
REMARK UNBOUND:                -0.093
REMARK SMILES C=C(C)[C@@H]1CC[C@@]2(C)CC[C@]3(C)[C@@H](CC[C@@H]4[C@]5(C)CC[C@H](O)C(C)(C)[C@@H]5CC[C@]43C)[C@@H]12
REMARK SMILES IDX 4 1 5 2 6 3 7 4 31 5 13 6 14 7 15 8 16 9 17 10 19 11 20 12
REMARK SMILES IDX 21 13 23 14 26 15 27 16 28 17 29 18 11 19 10 20 9 21 12 22
REMARK SMILES IDX 30 23 24 24 25 25 18 26 8 27 2 28 3 29 1 30 22 31
REMARK H PARENT 22 32
REMARK Flexibility Score: inf
ROOT
ATOM      1  C   UNL     1      29.778 -26.783   6.768  1.00  0.00     0.018 C 
ATOM      2  C   UNL     1      29.136 -26.441   8.125  1.00  0.00     0.009 C 
ATOM      3  C   UNL     1      28.766 -24.955   8.097  1.00  0.00     0.008 C 
ATOM      4  C   UNL     1      29.160 -24.379   6.716  1.00  0.00    -0.029 C 
ATOM      5  C   UNL     1      30.163 -25.418   6.137  1.00  0.00     0.006 C 
ATOM      6  C   UNL     1      31.678 -25.066   6.332  1.00  0.00    -0.000 C 
ATOM      7  C   UNL     1      32.196 -25.280   7.803  1.00  0.00     0.005 C 
ATOM      8  C   UNL     1      33.543 -24.606   8.118  1.00  0.00     0.005 C 
ATOM      9  C   UNL     1      34.364 -24.449   6.828  1.00  0.00     0.002 C 
ATOM     10  C   UNL     1      35.948 -24.465   6.984  1.00  0.00    -0.026 C 
ATOM     11  C   UNL     1      36.473 -23.321   7.908  1.00  0.00     0.010 C 
ATOM     12  C   UNL     1      37.999 -23.265   7.965  1.00  0.00     0.033 C 
ATOM     13  C   UNL     1      38.611 -23.041   6.570  1.00  0.00     0.120 C 
ATOM     14  C   UNL     1      38.220 -24.159   5.544  1.00  0.00    -0.006 C 
ATOM     15  C   UNL     1      36.635 -24.438   5.548  1.00  0.00     0.003 C 
ATOM     16  C   UNL     1      35.892 -23.521   4.527  1.00  0.00     0.005 C 
ATOM     17  C   UNL     1      34.358 -23.641   4.492  1.00  0.00     0.008 C 
ATOM     18  C   UNL     1      33.670 -23.393   5.867  1.00  0.00    -0.024 C 
ATOM     19  C   UNL     1      32.038 -23.633   5.814  1.00  0.00    -0.024 C 
ATOM     20  C   UNL     1      31.221 -22.656   6.740  1.00  0.00     0.008 C 
ATOM     21  C   UNL     1      29.695 -22.903   6.812  1.00  0.00     0.007 C 
ATOM     22  C   UNL     1      31.512 -23.417   4.358  1.00  0.00     0.012 C 
ATOM     23  C   UNL     1      33.944 -21.911   6.263  1.00  0.00     0.012 C 
ATOM     24  C   UNL     1      39.032 -25.454   5.863  1.00  0.00     0.014 C 
ATOM     25  C   UNL     1      38.724 -23.733   4.130  1.00  0.00     0.014 C 
ATOM     26  C   UNL     1      36.304 -25.825   7.690  1.00  0.00     0.012 C 
ATOM     27  C   UNL     1      27.886 -24.334   5.822  1.00  0.00     0.011 C 
ENDROOT
BRANCH   1  28
ATOM     28  C   UNL     1      28.933 -27.639   5.819  1.00  0.00    -0.077 C 
ATOM     29  C   UNL     1      29.494 -28.507   4.708  1.00  0.00     0.039 C 
ATOM     30  C   UNL     1      27.594 -27.573   5.939  1.00  0.00     0.008 C 
ENDBRANCH   1  28
BRANCH  13  31
ATOM     31  O   UNL     1      38.214 -21.763   6.122  1.00  0.00    -0.393 OA
ATOM     32  H   UNL     1      37.429 -21.484   6.666  1.00  0.00     0.210 HD
ENDBRANCH  13  31
TORSDOF 2
ENDMDL
