MODEL 1
REMARK VINA RESULT:    -2.993      0.000      0.000
REMARK INTER + INTRA:          -5.874
REMARK INTER:                  -5.443
REMARK INTRA:                  -0.431
REMARK UNBOUND:                -0.431
REMARK SMILES CCCCCCCCCCCCCCCC(=O)[O-]
REMARK SMILES IDX 9 1 10 2 11 3 12 4 13 5 14 6 15 7 16 8 17 9 18 10 8 11 7 12
REMARK SMILES IDX 6 13 5 14 4 15 3 16 2 17 1 18
REMARK H PARENT
REMARK Flexibility Score: inf
ROOT
ATOM      1  C   UNL     1      21.580  65.238  16.114  1.00  0.00     0.000 C 
ENDROOT
BRANCH   1   2
ATOM      2  C   UNL     1      22.839  66.125  16.041  1.00  0.00     0.000 C 
BRANCH   2   3
ATOM      3  C   UNL     1      24.172  65.356  15.977  1.00  0.00     0.000 C 
BRANCH   3   4
ATOM      4  C   UNL     1      25.312  66.078  16.709  1.00  0.00     0.000 C 
BRANCH   4   5
ATOM      5  C   UNL     1      26.618  65.272  16.619  1.00  0.00     0.000 C 
BRANCH   5   6
ATOM      6  C   UNL     1      27.854  66.106  16.994  1.00  0.00     0.006 C 
BRANCH   6   7
ATOM      7  C   UNL     1      29.093  65.727  16.173  1.00  0.00     0.053 C 
BRANCH   7   8
ATOM      8  C   UNL     1      30.205  65.293  17.077  1.00  0.00     0.041 C 
ATOM      9  O   UNL     1      30.307  65.779  18.234  1.00  0.00    -0.550 OA
ATOM     10  O   UNL     1      31.099  64.316  16.659  1.00  0.00    -0.550 OA
ENDBRANCH   7   8
ENDBRANCH   6   7
ENDBRANCH   5   6
ENDBRANCH   4   5
ENDBRANCH   3   4
ENDBRANCH   2   3
ENDBRANCH   1   2
BRANCH   1  11
ATOM     11  C   UNL     1      20.362  65.761  15.326  1.00  0.00     0.000 C 
BRANCH  11  12
ATOM     12  C   UNL     1      19.040  65.790  16.115  1.00  0.00    -0.000 C 
BRANCH  12  13
ATOM     13  C   UNL     1      17.816  66.018  15.217  1.00  0.00    -0.000 C 
BRANCH  13  14
ATOM     14  C   UNL     1      16.532  66.123  16.055  1.00  0.00    -0.000 C 
BRANCH  14  15
ATOM     15  C   UNL     1      16.425  65.014  17.114  1.00  0.00    -0.000 C 
BRANCH  15  16
ATOM     16  C   UNL     1      14.974  64.761  17.563  1.00  0.00    -0.000 C 
BRANCH  16  17
ATOM     17  C   UNL     1      13.950  65.135  16.480  1.00  0.00    -0.003 C 
ATOM     18  C   UNL     1      13.639  63.975  15.536  1.00  0.00     0.004 C 
ENDBRANCH  16  17
ENDBRANCH  15  16
ENDBRANCH  14  15
ENDBRANCH  13  14
ENDBRANCH  12  13
ENDBRANCH  11  12
ENDBRANCH   1  11
TORSDOF 14
ENDMDL
MODEL 2
REMARK VINA RESULT:    -2.663      6.061     11.734
REMARK INTER + INTRA:          -5.274
REMARK INTER:                  -4.835
REMARK INTRA:                  -0.439
REMARK UNBOUND:                -0.431
REMARK SMILES CCCCCCCCCCCCCCCC(=O)[O-]
REMARK SMILES IDX 9 1 10 2 11 3 12 4 13 5 14 6 15 7 16 8 17 9 18 10 8 11 7 12
REMARK SMILES IDX 6 13 5 14 4 15 3 16 2 17 1 18
REMARK H PARENT
REMARK Flexibility Score: inf
ROOT
ATOM      1  C   UNL     1      19.103  65.505  15.336  1.00  0.00     0.000 C 
ENDROOT
BRANCH   1   2
ATOM      2  C   UNL     1      18.081  66.125  16.311  1.00  0.00     0.000 C 
BRANCH   2   3
ATOM      3  C   UNL     1      16.923  65.194  16.715  1.00  0.00     0.000 C 
BRANCH   3   4
ATOM      4  C   UNL     1      15.548  65.739  16.301  1.00  0.00     0.000 C 
BRANCH   4   5
ATOM      5  C   UNL     1      14.420  64.964  17.000  1.00  0.00     0.000 C 
BRANCH   5   6
ATOM      6  C   UNL     1      13.116  64.955  16.184  1.00  0.00     0.006 C 
BRANCH   6   7
ATOM      7  C   UNL     1      13.359  65.133  14.680  1.00  0.00     0.053 C 
BRANCH   7   8
ATOM      8  C   UNL     1      13.230  63.821  13.972  1.00  0.00     0.041 C 
ATOM      9  O   UNL     1      12.883  62.790  14.607  1.00  0.00    -0.550 OA
ATOM     10  O   UNL     1      13.445  63.746  12.602  1.00  0.00    -0.550 OA
ENDBRANCH   7   8
ENDBRANCH   6   7
ENDBRANCH   5   6
ENDBRANCH   4   5
ENDBRANCH   3   4
ENDBRANCH   2   3
ENDBRANCH   1   2
BRANCH   1  11
ATOM     11  C   UNL     1      20.515  66.124  15.384  1.00  0.00     0.000 C 
BRANCH  11  12
ATOM     12  C   UNL     1      21.586  65.249  16.059  1.00  0.00    -0.000 C 
BRANCH  12  13
ATOM     13  C   UNL     1      22.968  65.919  16.094  1.00  0.00    -0.000 C 
BRANCH  13  14
ATOM     14  C   UNL     1      24.069  64.893  16.400  1.00  0.00    -0.000 C 
BRANCH  14  15
ATOM     15  C   UNL     1      25.419  65.267  15.767  1.00  0.00    -0.000 C 
BRANCH  15  16
ATOM     16  C   UNL     1      26.394  65.897  16.778  1.00  0.00    -0.000 C 
BRANCH  16  17
ATOM     17  C   UNL     1      27.540  64.947  17.160  1.00  0.00    -0.003 C 
ATOM     18  C   UNL     1      28.869  65.336  16.514  1.00  0.00     0.004 C 
ENDBRANCH  16  17
ENDBRANCH  15  16
ENDBRANCH  14  15
ENDBRANCH  13  14
ENDBRANCH  12  13
ENDBRANCH  11  12
ENDBRANCH   1  11
TORSDOF 14
ENDMDL
MODEL 3
REMARK VINA RESULT:    -2.601      7.819     10.865
REMARK INTER + INTRA:          -5.160
REMARK INTER:                  -4.608
REMARK INTRA:                  -0.552
REMARK UNBOUND:                -0.431
REMARK SMILES CCCCCCCCCCCCCCCC(=O)[O-]
REMARK SMILES IDX 9 1 10 2 11 3 12 4 13 5 14 6 15 7 16 8 17 9 18 10 8 11 7 12
REMARK SMILES IDX 6 13 5 14 4 15 3 16 2 17 1 18
REMARK H PARENT
REMARK Flexibility Score: inf
ROOT
ATOM      1  C   UNL     1      27.154  64.877  18.963  1.00  0.00     0.000 C 
ENDROOT
BRANCH   1   2
ATOM      2  C   UNL     1      27.752  64.473  17.599  1.00  0.00     0.000 C 
BRANCH   2   3
ATOM      3  C   UNL     1      27.798  65.600  16.551  1.00  0.00     0.000 C 
BRANCH   3   4
ATOM      4  C   UNL     1      29.212  65.853  16.009  1.00  0.00     0.000 C 
BRANCH   4   5
ATOM      5  C   UNL     1      30.099  64.612  16.193  1.00  0.00     0.000 C 
BRANCH   5   6
ATOM      6  C   UNL     1      30.353  63.865  14.873  1.00  0.00     0.006 C 
BRANCH   6   7
ATOM      7  C   UNL     1      31.690  63.113  14.868  1.00  0.00     0.053 C 
BRANCH   7   8
ATOM      8  C   UNL     1      32.407  63.315  16.167  1.00  0.00     0.041 C 
ATOM      9  O   UNL     1      32.660  64.478  16.577  1.00  0.00    -0.550 OA
ATOM     10  O   UNL     1      32.749  62.220  16.949  1.00  0.00    -0.550 OA
ENDBRANCH   7   8
ENDBRANCH   6   7
ENDBRANCH   5   6
ENDBRANCH   4   5
ENDBRANCH   3   4
ENDBRANCH   2   3
ENDBRANCH   1   2
BRANCH   1  11
ATOM     11  C   UNL     1      27.785  66.123  19.614  1.00  0.00     0.000 C 
BRANCH  11  12
ATOM     12  C   UNL     1      29.323  66.107  19.693  1.00  0.00    -0.000 C 
BRANCH  12  13
ATOM     13  C   UNL     1      29.843  65.800  21.105  1.00  0.00    -0.000 C 
BRANCH  13  14
ATOM     14  C   UNL     1      31.329  65.412  21.072  1.00  0.00    -0.000 C 
BRANCH  14  15
ATOM     15  C   UNL     1      31.650  64.395  19.963  1.00  0.00    -0.000 C 
BRANCH  15  16
ATOM     16  C   UNL     1      32.803  63.448  20.344  1.00  0.00    -0.000 C 
BRANCH  16  17
ATOM     17  C   UNL     1      32.370  61.974  20.361  1.00  0.00    -0.003 C 
ATOM     18  C   UNL     1      32.697  61.278  21.681  1.00  0.00     0.004 C 
ENDBRANCH  16  17
ENDBRANCH  15  16
ENDBRANCH  14  15
ENDBRANCH  13  14
ENDBRANCH  12  13
ENDBRANCH  11  12
ENDBRANCH   1  11
TORSDOF 14
ENDMDL
MODEL 4
REMARK VINA RESULT:    -2.580      8.028     11.055
REMARK INTER + INTRA:          -5.123
REMARK INTER:                  -4.140
REMARK INTRA:                  -0.982
REMARK UNBOUND:                -0.431
REMARK SMILES CCCCCCCCCCCCCCCC(=O)[O-]
REMARK SMILES IDX 9 1 10 2 11 3 12 4 13 5 14 6 15 7 16 8 17 9 18 10 8 11 7 12
REMARK SMILES IDX 6 13 5 14 4 15 3 16 2 17 1 18
REMARK H PARENT
REMARK Flexibility Score: inf
ROOT
ATOM      1  C   UNL     1      27.862  65.100  18.458  1.00  0.00     0.000 C 
ENDROOT
BRANCH   1   2
ATOM      2  C   UNL     1      28.104  65.882  19.765  1.00  0.00     0.000 C 
BRANCH   2   3
ATOM      3  C   UNL     1      29.585  66.125  20.112  1.00  0.00     0.000 C 
BRANCH   3   4
ATOM      4  C   UNL     1      29.962  65.611  21.508  1.00  0.00     0.000 C 
BRANCH   4   5
ATOM      5  C   UNL     1      31.489  65.537  21.670  1.00  0.00     0.000 C 
BRANCH   5   6
ATOM      6  C   UNL     1      32.083  64.242  21.091  1.00  0.00     0.006 C 
BRANCH   6   7
ATOM      7  C   UNL     1      33.006  63.522  22.082  1.00  0.00     0.053 C 
BRANCH   7   8
ATOM      8  C   UNL     1      32.761  62.045  22.045  1.00  0.00     0.041 C 
ATOM      9  O   UNL     1      32.549  61.466  20.947  1.00  0.00    -0.550 OA
ATOM     10  O   UNL     1      32.816  61.302  23.216  1.00  0.00    -0.550 OA
ENDBRANCH   7   8
ENDBRANCH   6   7
ENDBRANCH   5   6
ENDBRANCH   4   5
ENDBRANCH   3   4
ENDBRANCH   2   3
ENDBRANCH   1   2
BRANCH   1  11
ATOM     11  C   UNL     1      27.516  65.965  17.229  1.00  0.00     0.000 C 
BRANCH  11  12
ATOM     12  C   UNL     1      28.601  66.008  16.138  1.00  0.00    -0.000 C 
BRANCH  12  13
ATOM     13  C   UNL     1      29.017  64.611  15.656  1.00  0.00    -0.000 C 
BRANCH  13  14
ATOM     14  C   UNL     1      30.497  64.590  15.241  1.00  0.00    -0.000 C 
BRANCH  14  15
ATOM     15  C   UNL     1      30.979  63.186  14.842  1.00  0.00    -0.000 C 
BRANCH  15  16
ATOM     16  C   UNL     1      32.492  62.996  15.059  1.00  0.00    -0.000 C 
BRANCH  16  17
ATOM     17  C   UNL     1      33.016  63.788  16.268  1.00  0.00    -0.003 C 
ATOM     18  C   UNL     1      32.924  63.001  17.574  1.00  0.00     0.004 C 
ENDBRANCH  16  17
ENDBRANCH  15  16
ENDBRANCH  14  15
ENDBRANCH  13  14
ENDBRANCH  12  13
ENDBRANCH  11  12
ENDBRANCH   1  11
TORSDOF 14
ENDMDL
MODEL 5
REMARK VINA RESULT:    -2.560      4.695     11.878
REMARK INTER + INTRA:          -5.086
REMARK INTER:                  -4.631
REMARK INTRA:                  -0.455
REMARK UNBOUND:                -0.431
REMARK SMILES CCCCCCCCCCCCCCCC(=O)[O-]
REMARK SMILES IDX 9 1 10 2 11 3 12 4 13 5 14 6 15 7 16 8 17 9 18 10 8 11 7 12
REMARK SMILES IDX 6 13 5 14 4 15 3 16 2 17 1 18
REMARK H PARENT
REMARK Flexibility Score: inf
ROOT
ATOM      1  C   UNL     1      27.166  64.871  17.783  1.00  0.00     0.000 C 
ENDROOT
BRANCH   1   2
ATOM      2  C   UNL     1      26.608  65.306  16.413  1.00  0.00     0.000 C 
BRANCH   2   3
ATOM      3  C   UNL     1      25.276  66.076  16.470  1.00  0.00     0.000 C 
BRANCH   3   4
ATOM      4  C   UNL     1      24.054  65.172  16.251  1.00  0.00     0.000 C 
BRANCH   4   5
ATOM      5  C   UNL     1      22.793  66.009  15.990  1.00  0.00     0.000 C 
BRANCH   5   6
ATOM      6  C   UNL     1      21.497  65.229  16.269  1.00  0.00     0.006 C 
BRANCH   6   7
ATOM      7  C   UNL     1      20.237  66.044  15.952  1.00  0.00     0.053 C 
BRANCH   7   8
ATOM      8  C   UNL     1      19.531  65.472  14.763  1.00  0.00     0.041 C 
ATOM      9  O   UNL     1      18.371  65.863  14.467  1.00  0.00    -0.550 OA
ATOM     10  O   UNL     1      20.173  64.545  13.952  1.00  0.00    -0.550 OA
ENDBRANCH   7   8
ENDBRANCH   6   7
ENDBRANCH   5   6
ENDBRANCH   4   5
ENDBRANCH   3   4
ENDBRANCH   2   3
ENDBRANCH   1   2
BRANCH   1  11
ATOM     11  C   UNL     1      28.431  65.622  18.246  1.00  0.00     0.000 C 
BRANCH  11  12
ATOM     12  C   UNL     1      29.671  65.418  17.357  1.00  0.00    -0.000 C 
BRANCH  12  13
ATOM     13  C   UNL     1      30.988  65.672  18.105  1.00  0.00    -0.000 C 
BRANCH  13  14
ATOM     14  C   UNL     1      31.135  64.717  19.299  1.00  0.00    -0.000 C 
BRANCH  14  15
ATOM     15  C   UNL     1      32.572  64.194  19.464  1.00  0.00    -0.000 C 
BRANCH  15  16
ATOM     16  C   UNL     1      32.687  63.114  20.555  1.00  0.00    -0.000 C 
BRANCH  16  17
ATOM     17  C   UNL     1      32.705  61.691  19.974  1.00  0.00    -0.003 C 
ATOM     18  C   UNL     1      32.149  60.650  20.945  1.00  0.00     0.004 C 
ENDBRANCH  16  17
ENDBRANCH  15  16
ENDBRANCH  14  15
ENDBRANCH  13  14
ENDBRANCH  12  13
ENDBRANCH  11  12
ENDBRANCH   1  11
TORSDOF 14
ENDMDL
MODEL 6
REMARK VINA RESULT:    -2.218      2.885      5.829
REMARK INTER + INTRA:          -4.464
REMARK INTER:                  -3.633
REMARK INTRA:                  -0.831
REMARK UNBOUND:                -0.431
REMARK SMILES CCCCCCCCCCCCCCCC(=O)[O-]
REMARK SMILES IDX 9 1 10 2 11 3 12 4 13 5 14 6 15 7 16 8 17 9 18 10 8 11 7 12
REMARK SMILES IDX 6 13 5 14 4 15 3 16 2 17 1 18
REMARK H PARENT
REMARK Flexibility Score: inf
ROOT
ATOM      1  C   UNL     1      27.575  64.717  16.040  1.00  0.00     0.000 C 
ENDROOT
BRANCH   1   2
ATOM      2  C   UNL     1      29.031  65.169  16.275  1.00  0.00     0.000 C 
BRANCH   2   3
ATOM      3  C   UNL     1      29.239  66.076  17.501  1.00  0.00     0.000 C 
BRANCH   3   4
ATOM      4  C   UNL     1      30.608  65.875  18.166  1.00  0.00     0.000 C 
BRANCH   4   5
ATOM      5  C   UNL     1      31.405  64.770  17.455  1.00  0.00     0.000 C 
BRANCH   5   6
ATOM      6  C   UNL     1      32.674  64.368  18.225  1.00  0.00     0.006 C 
BRANCH   6   7
ATOM      7  C   UNL     1      32.669  62.892  18.641  1.00  0.00     0.053 C 
BRANCH   7   8
ATOM      8  C   UNL     1      32.213  62.752  20.061  1.00  0.00     0.041 C 
ATOM      9  O   UNL     1      32.107  61.610  20.582  1.00  0.00    -0.550 OA
ATOM     10  O   UNL     1      31.955  63.883  20.823  1.00  0.00    -0.550 OA
ENDBRANCH   7   8
ENDBRANCH   6   7
ENDBRANCH   5   6
ENDBRANCH   4   5
ENDBRANCH   3   4
ENDBRANCH   2   3
ENDBRANCH   1   2
BRANCH   1  11
ATOM     11  C   UNL     1      26.564  65.177  17.110  1.00  0.00     0.000 C 
BRANCH  11  12
ATOM     12  C   UNL     1      25.449  66.105  16.594  1.00  0.00    -0.000 C 
BRANCH  12  13
ATOM     13  C   UNL     1      24.486  65.399  15.629  1.00  0.00    -0.000 C 
BRANCH  13  14
ATOM     14  C   UNL     1      23.256  64.859  16.375  1.00  0.00    -0.000 C 
BRANCH  14  15
ATOM     15  C   UNL     1      22.099  65.871  16.419  1.00  0.00    -0.000 C 
BRANCH  15  16
ATOM     16  C   UNL     1      21.475  66.117  15.033  1.00  0.00    -0.000 C 
BRANCH  16  17
ATOM     17  C   UNL     1      20.073  65.502  14.902  1.00  0.00    -0.003 C 
ATOM     18  C   UNL     1      19.443  65.177  16.255  1.00  0.00     0.004 C 
ENDBRANCH  16  17
ENDBRANCH  15  16
ENDBRANCH  14  15
ENDBRANCH  13  14
ENDBRANCH  12  13
ENDBRANCH  11  12
ENDBRANCH   1  11
TORSDOF 14
ENDMDL
MODEL 7
REMARK VINA RESULT:    -2.148      2.044      3.665
REMARK INTER + INTRA:          -4.337
REMARK INTER:                  -3.938
REMARK INTRA:                  -0.399
REMARK UNBOUND:                -0.431
REMARK SMILES CCCCCCCCCCCCCCCC(=O)[O-]
REMARK SMILES IDX 9 1 10 2 11 3 12 4 13 5 14 6 15 7 16 8 17 9 18 10 8 11 7 12
REMARK SMILES IDX 6 13 5 14 4 15 3 16 2 17 1 18
REMARK H PARENT
REMARK Flexibility Score: inf
ROOT
ATOM      1  C   UNL     1      25.340  65.274  16.273  1.00  0.00     0.000 C 
ENDROOT
BRANCH   1   2
ATOM      2  C   UNL     1      26.573  66.028  16.810  1.00  0.00     0.000 C 
BRANCH   2   3
ATOM      3  C   UNL     1      27.921  65.323  16.570  1.00  0.00     0.000 C 
BRANCH   3   4
ATOM      4  C   UNL     1      28.618  64.908  17.874  1.00  0.00     0.000 C 
BRANCH   4   5
ATOM      5  C   UNL     1      29.291  66.115  18.543  1.00  0.00     0.000 C 
BRANCH   5   6
ATOM      6  C   UNL     1      30.665  65.770  19.141  1.00  0.00     0.006 C 
BRANCH   6   7
ATOM      7  C   UNL     1      30.964  64.266  19.104  1.00  0.00     0.053 C 
BRANCH   7   8
ATOM      8  C   UNL     1      32.067  63.929  20.059  1.00  0.00     0.041 C 
ATOM      9  O   UNL     1      32.759  64.846  20.575  1.00  0.00    -0.550 OA
ATOM     10  O   UNL     1      32.297  62.608  20.417  1.00  0.00    -0.550 OA
ENDBRANCH   7   8
ENDBRANCH   6   7
ENDBRANCH   5   6
ENDBRANCH   4   5
ENDBRANCH   3   4
ENDBRANCH   2   3
ENDBRANCH   1   2
BRANCH   1  11
ATOM     11  C   UNL     1      24.062  66.124  16.127  1.00  0.00     0.000 C 
BRANCH  11  12
ATOM     12  C   UNL     1      22.745  65.328  16.147  1.00  0.00    -0.000 C 
BRANCH  12  13
ATOM     13  C   UNL     1      21.579  66.088  15.497  1.00  0.00    -0.000 C 
BRANCH  13  14
ATOM     14  C   UNL     1      20.309  65.984  16.354  1.00  0.00    -0.000 C 
BRANCH  14  15
ATOM     15  C   UNL     1      19.025  65.951  15.508  1.00  0.00    -0.000 C 
BRANCH  15  16
ATOM     16  C   UNL     1      17.756  65.780  16.363  1.00  0.00    -0.000 C 
BRANCH  16  17
ATOM     17  C   UNL     1      16.475  66.122  15.586  1.00  0.00    -0.003 C 
ATOM     18  C   UNL     1      16.681  66.113  14.073  1.00  0.00     0.004 C 
ENDBRANCH  16  17
ENDBRANCH  15  16
ENDBRANCH  14  15
ENDBRANCH  13  14
ENDBRANCH  12  13
ENDBRANCH  11  12
ENDBRANCH   1  11
TORSDOF 14
ENDMDL
MODEL 8
REMARK VINA RESULT:    -2.069      1.403      2.206
REMARK INTER + INTRA:          -4.194
REMARK INTER:                  -4.008
REMARK INTRA:                  -0.186
REMARK UNBOUND:                -0.431
REMARK SMILES CCCCCCCCCCCCCCCC(=O)[O-]
REMARK SMILES IDX 9 1 10 2 11 3 12 4 13 5 14 6 15 7 16 8 17 9 18 10 8 11 7 12
REMARK SMILES IDX 6 13 5 14 4 15 3 16 2 17 1 18
REMARK H PARENT
REMARK Flexibility Score: inf
ROOT
ATOM      1  C   UNL     1      20.202  65.175  15.449  1.00  0.00     0.000 C 
ENDROOT
BRANCH   1   2
ATOM      2  C   UNL     1      21.407  66.120  15.638  1.00  0.00     0.000 C 
BRANCH   2   3
ATOM      3  C   UNL     1      22.530  65.567  16.535  1.00  0.00     0.000 C 
BRANCH   3   4
ATOM      4  C   UNL     1      23.672  64.926  15.733  1.00  0.00     0.000 C 
BRANCH   4   5
ATOM      5  C   UNL     1      24.984  65.698  15.936  1.00  0.00     0.000 C 
BRANCH   5   6
ATOM      6  C   UNL     1      26.192  64.768  16.139  1.00  0.00     0.006 C 
BRANCH   6   7
ATOM      7  C   UNL     1      27.494  65.538  16.396  1.00  0.00     0.053 C 
BRANCH   7   8
ATOM      8  C   UNL     1      27.994  65.271  17.781  1.00  0.00     0.041 C 
ATOM      9  O   UNL     1      27.216  65.376  18.766  1.00  0.00    -0.550 OA
ATOM     10  O   UNL     1      29.304  64.857  17.980  1.00  0.00    -0.550 OA
ENDBRANCH   7   8
ENDBRANCH   6   7
ENDBRANCH   5   6
ENDBRANCH   4   5
ENDBRANCH   3   4
ENDBRANCH   2   3
ENDBRANCH   1   2
BRANCH   1  11
ATOM     11  C   UNL     1      19.194  65.606  14.364  1.00  0.00     0.000 C 
BRANCH  11  12
ATOM     12  C   UNL     1      17.835  66.094  14.896  1.00  0.00    -0.000 C 
BRANCH  12  13
ATOM     13  C   UNL     1      16.726  66.042  13.834  1.00  0.00    -0.000 C 
BRANCH  13  14
ATOM     14  C   UNL     1      15.337  66.125  14.485  1.00  0.00    -0.000 C 
BRANCH  14  15
ATOM     15  C   UNL     1      14.352  65.093  13.910  1.00  0.00    -0.000 C 
BRANCH  15  16
ATOM     16  C   UNL     1      13.056  64.988  14.735  1.00  0.00    -0.000 C 
BRANCH  16  17
ATOM     17  C   UNL     1      13.167  65.694  16.095  1.00  0.00    -0.003 C 
ATOM     18  C   UNL     1      13.983  64.894  17.110  1.00  0.00     0.004 C 
ENDBRANCH  16  17
ENDBRANCH  15  16
ENDBRANCH  14  15
ENDBRANCH  13  14
ENDBRANCH  12  13
ENDBRANCH  11  12
ENDBRANCH   1  11
TORSDOF 14
ENDMDL
MODEL 9
REMARK VINA RESULT:    -1.944      5.190     11.185
REMARK INTER + INTRA:          -3.967
REMARK INTER:                  -3.280
REMARK INTRA:                  -0.686
REMARK UNBOUND:                -0.431
REMARK SMILES CCCCCCCCCCCCCCCC(=O)[O-]
REMARK SMILES IDX 9 1 10 2 11 3 12 4 13 5 14 6 15 7 16 8 17 9 18 10 8 11 7 12
REMARK SMILES IDX 6 13 5 14 4 15 3 16 2 17 1 18
REMARK H PARENT
REMARK Flexibility Score: inf
ROOT
ATOM      1  C   UNL     1      24.047  65.427  15.627  1.00  0.00     0.000 C 
ENDROOT
BRANCH   1   2
ATOM      2  C   UNL     1      23.007  64.628  16.439  1.00  0.00     0.000 C 
BRANCH   2   3
ATOM      3  C   UNL     1      21.712  65.394  16.767  1.00  0.00     0.000 C 
BRANCH   3   4
ATOM      4  C   UNL     1      21.127  66.125  15.550  1.00  0.00     0.000 C 
BRANCH   4   5
ATOM      5  C   UNL     1      20.054  65.268  14.861  1.00  0.00     0.000 C 
BRANCH   5   6
ATOM      6  C   UNL     1      18.709  66.002  14.725  1.00  0.00     0.006 C 
BRANCH   6   7
ATOM      7  C   UNL     1      17.962  66.117  16.060  1.00  0.00     0.053 C 
BRANCH   7   8
ATOM      8  C   UNL     1      16.527  65.724  15.890  1.00  0.00     0.041 C 
ATOM      9  O   UNL     1      15.925  65.974  14.812  1.00  0.00    -0.550 OA
ATOM     10  O   UNL     1      15.870  65.037  16.902  1.00  0.00    -0.550 OA
ENDBRANCH   7   8
ENDBRANCH   6   7
ENDBRANCH   5   6
ENDBRANCH   4   5
ENDBRANCH   3   4
ENDBRANCH   2   3
ENDBRANCH   1   2
BRANCH   1  11
ATOM     11  C   UNL     1      25.145  66.115  16.463  1.00  0.00     0.000 C 
BRANCH  11  12
ATOM     12  C   UNL     1      26.567  65.566  16.248  1.00  0.00    -0.000 C 
BRANCH  12  13
ATOM     13  C   UNL     1      27.183  64.989  17.532  1.00  0.00    -0.000 C 
BRANCH  13  14
ATOM     14  C   UNL     1      27.525  66.108  18.528  1.00  0.00    -0.000 C 
BRANCH  14  15
ATOM     15  C   UNL     1      28.888  65.899  19.206  1.00  0.00    -0.000 C 
BRANCH  15  16
ATOM     16  C   UNL     1      29.929  65.269  18.263  1.00  0.00    -0.000 C 
BRANCH  16  17
ATOM     17  C   UNL     1      30.881  64.309  18.994  1.00  0.00    -0.003 C 
ATOM     18  C   UNL     1      31.372  64.868  20.329  1.00  0.00     0.004 C 
ENDBRANCH  16  17
ENDBRANCH  15  16
ENDBRANCH  14  15
ENDBRANCH  13  14
ENDBRANCH  12  13
ENDBRANCH  11  12
ENDBRANCH   1  11
TORSDOF 14
ENDMDL
