MODEL 1
REMARK VINA RESULT:    -6.386      0.000      0.000
REMARK INTER + INTRA:          -7.995
REMARK INTER:                  -7.693
REMARK INTRA:                  -0.302
REMARK UNBOUND:                -0.302
REMARK SMILES O=c1c(O)c(-c2ccc(O)c(O)c2)oc2cc(O)cc(O)c12
REMARK SMILES IDX 5 1 3 2 2 3 1 4 22 5 20 6 19 7 17 8 16 9 15 10 14 11 6 12
REMARK SMILES IDX 7 13 8 14 9 15 13 16 11 17 10 18 12 20 4 22 21 24 18 26
REMARK H PARENT 10 19 12 21 4 23 21 25 18 27
REMARK Flexibility Score: inf
ROOT
ATOM      1  C   UNL     1      14.420  55.865  34.492  1.00  0.00     0.180 A 
ATOM      2  C   UNL     1      14.157  55.651  33.128  1.00  0.00     0.208 A 
ATOM      3  C   UNL     1      14.626  56.585  32.190  1.00  0.00     0.238 A 
ATOM      4  O   UNL     1      14.341  56.418  30.975  1.00  0.00    -0.285 OA
ATOM      5  C   UNL     1      15.366  57.711  32.626  1.00  0.00     0.111 A 
ATOM      6  C   UNL     1      15.923  58.700  31.760  1.00  0.00     0.134 A 
ATOM      7  C   UNL     1      16.524  59.839  32.310  1.00  0.00     0.093 A 
ATOM      8  C   UNL     1      16.643  59.994  33.693  1.00  0.00     0.123 A 
ATOM      9  C   UNL     1      16.155  59.007  34.545  1.00  0.00     0.094 A 
ATOM     10  C   UNL     1      15.519  57.876  34.028  1.00  0.00     0.146 A 
ATOM     11  O   UNL     1      15.058  56.964  34.875  1.00  0.00    -0.452 OA
ENDROOT
BRANCH   1  12
ATOM     12  C   UNL     1      13.979  54.913  35.537  1.00  0.00     0.025 A 
ATOM     13  C   UNL     1      14.867  53.975  36.095  1.00  0.00     0.016 A 
ATOM     14  C   UNL     1      14.435  53.103  37.097  1.00  0.00     0.051 A 
ATOM     15  C   UNL     1      13.116  53.163  37.567  1.00  0.00     0.157 A 
ATOM     16  C   UNL     1      12.665  54.982  36.028  1.00  0.00     0.062 A 
ATOM     17  C   UNL     1      12.229  54.110  37.031  1.00  0.00     0.158 A 
BRANCH  15  18
ATOM     18  O   UNL     1      12.688  52.290  38.567  1.00  0.00    -0.504 OA
ATOM     19  H   UNL     1      11.933  51.632  38.409  1.00  0.00     0.293 HD
ENDBRANCH  15  18
BRANCH  17  20
ATOM     20  O   UNL     1      10.912  54.200  37.482  1.00  0.00    -0.504 OA
ATOM     21  H   UNL     1      10.565  53.633  38.246  1.00  0.00     0.293 HD
ENDBRANCH  17  20
ENDBRANCH   1  12
BRANCH   2  22
ATOM     22  O   UNL     1      13.407  54.545  32.721  1.00  0.00    -0.502 OA
ATOM     23  H   UNL     1      13.016  53.881  33.379  1.00  0.00     0.293 HD
ENDBRANCH   2  22
BRANCH   6  24
ATOM     24  O   UNL     1      15.940  58.596  30.366  1.00  0.00    -0.507 OA
ATOM     25  H   UNL     1      16.380  59.259  29.745  1.00  0.00     0.293 HD
ENDBRANCH   6  24
BRANCH   8  26
ATOM     26  O   UNL     1      17.256  61.125  34.231  1.00  0.00    -0.508 OA
ATOM     27  H   UNL     1      18.120  61.491  33.850  1.00  0.00     0.293 HD
ENDBRANCH   8  26
TORSDOF 6
ENDMDL
MODEL 2
REMARK VINA RESULT:    -5.655      1.271      1.435
REMARK INTER + INTRA:          -7.115
REMARK INTER:                  -6.813
REMARK INTRA:                  -0.302
REMARK UNBOUND:                -0.302
REMARK SMILES O=c1c(O)c(-c2ccc(O)c(O)c2)oc2cc(O)cc(O)c12
REMARK SMILES IDX 5 1 3 2 2 3 1 4 22 5 20 6 19 7 17 8 16 9 15 10 14 11 6 12
REMARK SMILES IDX 7 13 8 14 9 15 13 16 11 17 10 18 12 20 4 22 21 24 18 26
REMARK H PARENT 10 19 12 21 4 23 21 25 18 27
REMARK Flexibility Score: inf
ROOT
ATOM      1  C   UNL     1      14.416  55.854  34.543  1.00  0.00     0.180 A 
ATOM      2  C   UNL     1      13.483  56.051  33.511  1.00  0.00     0.208 A 
ATOM      3  C   UNL     1      13.507  57.258  32.794  1.00  0.00     0.238 A 
ATOM      4  O   UNL     1      12.635  57.452  31.907  1.00  0.00    -0.285 OA
ATOM      5  C   UNL     1      14.473  58.245  33.106  1.00  0.00     0.111 A 
ATOM      6  C   UNL     1      14.615  59.488  32.419  1.00  0.00     0.134 A 
ATOM      7  C   UNL     1      15.520  60.443  32.898  1.00  0.00     0.093 A 
ATOM      8  C   UNL     1      16.334  60.174  34.002  1.00  0.00     0.123 A 
ATOM      9  C   UNL     1      16.245  58.941  34.643  1.00  0.00     0.094 A 
ATOM     10  C   UNL     1      15.326  57.982  34.210  1.00  0.00     0.146 A 
ATOM     11  O   UNL     1      15.266  56.824  34.856  1.00  0.00    -0.452 OA
ENDROOT
BRANCH   1  12
ATOM     12  C   UNL     1      14.469  54.598  35.327  1.00  0.00     0.025 A 
ATOM     13  C   UNL     1      15.419  53.600  35.047  1.00  0.00     0.016 A 
ATOM     14  C   UNL     1      15.465  52.434  35.816  1.00  0.00     0.051 A 
ATOM     15  C   UNL     1      14.575  52.254  36.883  1.00  0.00     0.157 A 
ATOM     16  C   UNL     1      13.594  54.422  36.411  1.00  0.00     0.062 A 
ATOM     17  C   UNL     1      13.637  53.255  37.182  1.00  0.00     0.158 A 
BRANCH  15  18
ATOM     18  O   UNL     1      14.624  51.088  37.647  1.00  0.00    -0.504 OA
ATOM     19  H   UNL     1      13.829  50.781  38.196  1.00  0.00     0.293 HD
ENDBRANCH  15  18
BRANCH  17  20
ATOM     20  O   UNL     1      12.742  53.110  38.242  1.00  0.00    -0.504 OA
ATOM     21  H   UNL     1      12.303  52.223  38.457  1.00  0.00     0.293 HD
ENDBRANCH  17  20
ENDBRANCH   1  12
BRANCH   2  22
ATOM     22  O   UNL     1      12.524  55.074  33.233  1.00  0.00    -0.502 OA
ATOM     23  H   UNL     1      12.516  54.551  32.365  1.00  0.00     0.293 HD
ENDBRANCH   2  22
BRANCH   6  24
ATOM     24  O   UNL     1      13.917  59.819  31.254  1.00  0.00    -0.507 OA
ATOM     25  H   UNL     1      13.720  60.760  30.949  1.00  0.00     0.293 HD
ENDBRANCH   6  24
BRANCH   8  26
ATOM     26  O   UNL     1      17.243  61.125  34.463  1.00  0.00    -0.508 OA
ATOM     27  H   UNL     1      17.087  62.116  34.328  1.00  0.00     0.293 HD
ENDBRANCH   8  26
TORSDOF 6
ENDMDL
MODEL 3
REMARK VINA RESULT:    -5.318      2.517      3.515
REMARK INTER + INTRA:          -6.709
REMARK INTER:                  -6.388
REMARK INTRA:                  -0.321
REMARK UNBOUND:                -0.302
REMARK SMILES O=c1c(O)c(-c2ccc(O)c(O)c2)oc2cc(O)cc(O)c12
REMARK SMILES IDX 5 1 3 2 2 3 1 4 22 5 20 6 19 7 17 8 16 9 15 10 14 11 6 12
REMARK SMILES IDX 7 13 8 14 9 15 13 16 11 17 10 18 12 20 4 22 21 24 18 26
REMARK H PARENT 10 19 12 21 4 23 21 25 18 27
REMARK Flexibility Score: inf
ROOT
ATOM      1  C   UNL     1      15.040  56.164  33.968  1.00  0.00     0.180 A 
ATOM      2  C   UNL     1      16.241  56.734  33.514  1.00  0.00     0.208 A 
ATOM      3  C   UNL     1      16.388  58.130  33.547  1.00  0.00     0.238 A 
ATOM      4  O   UNL     1      17.444  58.638  33.089  1.00  0.00    -0.285 OA
ATOM      5  C   UNL     1      15.338  58.937  34.048  1.00  0.00     0.111 A 
ATOM      6  C   UNL     1      15.392  60.358  34.165  1.00  0.00     0.134 A 
ATOM      7  C   UNL     1      14.247  61.064  34.552  1.00  0.00     0.093 A 
ATOM      8  C   UNL     1      13.068  60.394  34.888  1.00  0.00     0.123 A 
ATOM      9  C   UNL     1      13.022  59.003  34.835  1.00  0.00     0.094 A 
ATOM     10  C   UNL     1      14.138  58.274  34.418  1.00  0.00     0.146 A 
ATOM     11  O   UNL     1      14.049  56.950  34.370  1.00  0.00    -0.452 OA
ENDROOT
BRANCH   1  12
ATOM     12  C   UNL     1      14.821  54.699  33.987  1.00  0.00     0.025 A 
ATOM     13  C   UNL     1      14.325  54.018  32.861  1.00  0.00     0.016 A 
ATOM     14  C   UNL     1      14.150  52.633  32.894  1.00  0.00     0.051 A 
ATOM     15  C   UNL     1      14.479  51.905  34.045  1.00  0.00     0.157 A 
ATOM     16  C   UNL     1      15.169  53.962  35.131  1.00  0.00     0.062 A 
ATOM     17  C   UNL     1      14.993  52.574  35.168  1.00  0.00     0.158 A 
BRANCH  15  18
ATOM     18  O   UNL     1      14.301  50.522  34.075  1.00  0.00    -0.504 OA
ATOM     19  H   UNL     1      13.376  50.106  34.088  1.00  0.00     0.293 HD
ENDBRANCH  15  18
BRANCH  17  20
ATOM     20  O   UNL     1      15.337  51.878  36.326  1.00  0.00    -0.504 OA
ATOM     21  H   UNL     1      14.642  51.566  36.993  1.00  0.00     0.293 HD
ENDBRANCH  17  20
ENDBRANCH   1  12
BRANCH   2  22
ATOM     22  O   UNL     1      17.257  55.921  33.004  1.00  0.00    -0.502 OA
ATOM     23  H   UNL     1      17.592  55.098  33.491  1.00  0.00     0.293 HD
ENDBRANCH   2  22
BRANCH   6  24
ATOM     24  O   UNL     1      16.546  61.115  33.942  1.00  0.00    -0.507 OA
ATOM     25  H   UNL     1      16.599  61.918  33.334  1.00  0.00     0.293 HD
ENDBRANCH   6  24
BRANCH   8  26
ATOM     26  O   UNL     1      11.936  61.104  35.287  1.00  0.00    -0.508 OA
ATOM     27  H   UNL     1      11.243  60.695  35.903  1.00  0.00     0.293 HD
ENDBRANCH   8  26
TORSDOF 6
ENDMDL
MODEL 4
REMARK VINA RESULT:    -5.259      3.236      7.111
REMARK INTER + INTRA:          -6.638
REMARK INTER:                  -6.323
REMARK INTRA:                  -0.314
REMARK UNBOUND:                -0.302
REMARK SMILES O=c1c(O)c(-c2ccc(O)c(O)c2)oc2cc(O)cc(O)c12
REMARK SMILES IDX 5 1 3 2 2 3 1 4 22 5 20 6 19 7 17 8 16 9 15 10 14 11 6 12
REMARK SMILES IDX 7 13 8 14 9 15 13 16 11 17 10 18 12 20 4 22 21 24 18 26
REMARK H PARENT 10 19 12 21 4 23 21 25 18 27
REMARK Flexibility Score: inf
ROOT
ATOM      1  C   UNL     1      14.924  54.543  33.574  1.00  0.00     0.180 A 
ATOM      2  C   UNL     1      14.993  53.643  34.651  1.00  0.00     0.208 A 
ATOM      3  C   UNL     1      14.615  52.306  34.445  1.00  0.00     0.238 A 
ATOM      4  O   UNL     1      14.627  51.517  35.426  1.00  0.00    -0.285 OA
ATOM      5  C   UNL     1      14.189  51.883  33.163  1.00  0.00     0.111 A 
ATOM      6  C   UNL     1      13.821  50.544  32.832  1.00  0.00     0.134 A 
ATOM      7  C   UNL     1      13.290  50.268  31.566  1.00  0.00     0.093 A 
ATOM      8  C   UNL     1      13.175  51.269  30.598  1.00  0.00     0.123 A 
ATOM      9  C   UNL     1      13.587  52.566  30.892  1.00  0.00     0.094 A 
ATOM     10  C   UNL     1      14.086  52.881  32.158  1.00  0.00     0.146 A 
ATOM     11  O   UNL     1      14.458  54.132  32.401  1.00  0.00    -0.452 OA
ENDROOT
BRANCH   1  12
ATOM     12  C   UNL     1      15.329  55.962  33.706  1.00  0.00     0.025 A 
ATOM     13  C   UNL     1      14.438  56.934  34.194  1.00  0.00     0.016 A 
ATOM     14  C   UNL     1      14.850  58.262  34.333  1.00  0.00     0.051 A 
ATOM     15  C   UNL     1      16.159  58.636  34.002  1.00  0.00     0.157 A 
ATOM     16  C   UNL     1      16.646  56.338  33.396  1.00  0.00     0.062 A 
ATOM     17  C   UNL     1      17.061  57.667  33.533  1.00  0.00     0.158 A 
BRANCH  15  18
ATOM     18  O   UNL     1      16.566  59.962  34.141  1.00  0.00    -0.504 OA
ATOM     19  H   UNL     1      17.543  60.226  34.082  1.00  0.00     0.293 HD
ENDBRANCH  15  18
BRANCH  17  20
ATOM     20  O   UNL     1      18.373  58.005  33.202  1.00  0.00    -0.504 OA
ATOM     21  H   UNL     1      18.680  58.091  32.241  1.00  0.00     0.293 HD
ENDBRANCH  17  20
ENDBRANCH   1  12
BRANCH   2  22
ATOM     22  O   UNL     1      15.396  54.085  35.914  1.00  0.00    -0.502 OA
ATOM     23  H   UNL     1      15.598  55.058  36.110  1.00  0.00     0.293 HD
ENDBRANCH   2  22
BRANCH   6  24
ATOM     24  O   UNL     1      13.982  49.455  33.693  1.00  0.00    -0.507 OA
ATOM     25  H   UNL     1      14.265  49.522  34.659  1.00  0.00     0.293 HD
ENDBRANCH   6  24
BRANCH   8  26
ATOM     26  O   UNL     1      12.660  50.981  29.335  1.00  0.00    -0.508 OA
ATOM     27  H   UNL     1      13.206  50.486  28.640  1.00  0.00     0.293 HD
ENDBRANCH   8  26
TORSDOF 6
ENDMDL
MODEL 5
REMARK VINA RESULT:    -5.004      5.135      6.821
REMARK INTER + INTRA:          -6.330
REMARK INTER:                  -6.075
REMARK INTRA:                  -0.255
REMARK UNBOUND:                -0.302
REMARK SMILES O=c1c(O)c(-c2ccc(O)c(O)c2)oc2cc(O)cc(O)c12
REMARK SMILES IDX 5 1 3 2 2 3 1 4 22 5 20 6 19 7 17 8 16 9 15 10 14 11 6 12
REMARK SMILES IDX 7 13 8 14 9 15 13 16 11 17 10 18 12 20 4 22 21 24 18 26
REMARK H PARENT 10 19 12 21 4 23 21 25 18 27
REMARK Flexibility Score: inf
ROOT
ATOM      1  C   UNL     1      14.552  50.564  33.189  1.00  0.00     0.180 A 
ATOM      2  C   UNL     1      14.232  51.476  32.168  1.00  0.00     0.208 A 
ATOM      3  C   UNL     1      14.123  52.839  32.484  1.00  0.00     0.238 A 
ATOM      4  O   UNL     1      13.783  53.645  31.578  1.00  0.00    -0.285 OA
ATOM      5  C   UNL     1      14.350  53.276  33.811  1.00  0.00     0.111 A 
ATOM      6  C   UNL     1      14.306  54.638  34.236  1.00  0.00     0.134 A 
ATOM      7  C   UNL     1      14.418  54.941  35.598  1.00  0.00     0.093 A 
ATOM      8  C   UNL     1      14.638  53.935  36.543  1.00  0.00     0.123 A 
ATOM      9  C   UNL     1      14.742  52.609  36.132  1.00  0.00     0.094 A 
ATOM     10  C   UNL     1      14.598  52.273  34.784  1.00  0.00     0.146 A 
ATOM     11  O   UNL     1      14.694  50.995  34.436  1.00  0.00    -0.452 OA
ENDROOT
BRANCH   1  12
ATOM     12  C   UNL     1      14.708  49.114  32.929  1.00  0.00     0.025 A 
ATOM     13  C   UNL     1      13.709  48.193  33.293  1.00  0.00     0.016 A 
ATOM     14  C   UNL     1      13.868  46.833  33.016  1.00  0.00     0.051 A 
ATOM     15  C   UNL     1      15.018  46.374  32.359  1.00  0.00     0.157 A 
ATOM     16  C   UNL     1      15.848  48.651  32.252  1.00  0.00     0.062 A 
ATOM     17  C   UNL     1      16.011  47.289  31.974  1.00  0.00     0.158 A 
BRANCH  15  18
ATOM     18  O   UNL     1      15.173  45.016  32.085  1.00  0.00    -0.504 OA
ATOM     19  H   UNL     1      15.255  44.331  32.828  1.00  0.00     0.293 HD
ENDBRANCH  15  18
BRANCH  17  20
ATOM     20  O   UNL     1      17.163  46.866  31.312  1.00  0.00    -0.504 OA
ATOM     21  H   UNL     1      17.906  47.507  31.061  1.00  0.00     0.293 HD
ENDBRANCH  17  20
ENDBRANCH   1  12
BRANCH   2  22
ATOM     22  O   UNL     1      13.990  51.021  30.869  1.00  0.00    -0.502 OA
ATOM     23  H   UNL     1      14.724  50.941  30.175  1.00  0.00     0.293 HD
ENDBRANCH   2  22
BRANCH   6  24
ATOM     24  O   UNL     1      14.183  55.724  33.363  1.00  0.00    -0.507 OA
ATOM     25  H   UNL     1      14.238  55.662  32.358  1.00  0.00     0.293 HD
ENDBRANCH   6  24
BRANCH   8  26
ATOM     26  O   UNL     1      14.764  54.248  37.896  1.00  0.00    -0.508 OA
ATOM     27  H   UNL     1      14.189  53.799  38.599  1.00  0.00     0.293 HD
ENDBRANCH   8  26
TORSDOF 6
ENDMDL
MODEL 6
REMARK VINA RESULT:    -4.983      6.646     10.021
REMARK INTER + INTRA:          -6.305
REMARK INTER:                  -5.993
REMARK INTRA:                  -0.312
REMARK UNBOUND:                -0.302
REMARK SMILES O=c1c(O)c(-c2ccc(O)c(O)c2)oc2cc(O)cc(O)c12
REMARK SMILES IDX 5 1 3 2 2 3 1 4 22 5 20 6 19 7 17 8 16 9 15 10 14 11 6 12
REMARK SMILES IDX 7 13 8 14 9 15 13 16 11 17 10 18 12 20 4 22 21 24 18 26
REMARK H PARENT 10 19 12 21 4 23 21 25 18 27
REMARK Flexibility Score: inf
ROOT
ATOM      1  C   UNL     1      14.244  49.109  33.229  1.00  0.00     0.180 A 
ATOM      2  C   UNL     1      15.068  48.625  32.199  1.00  0.00     0.208 A 
ATOM      3  C   UNL     1      15.197  47.238  32.025  1.00  0.00     0.238 A 
ATOM      4  O   UNL     1      15.979  46.810  31.136  1.00  0.00    -0.285 OA
ATOM      5  C   UNL     1      14.490  46.352  32.873  1.00  0.00     0.111 A 
ATOM      6  C   UNL     1      14.515  44.929  32.763  1.00  0.00     0.134 A 
ATOM      7  C   UNL     1      13.880  44.150  33.737  1.00  0.00     0.093 A 
ATOM      8  C   UNL     1      13.166  44.743  34.782  1.00  0.00     0.123 A 
ATOM      9  C   UNL     1      13.085  46.130  34.864  1.00  0.00     0.094 A 
ATOM     10  C   UNL     1      13.739  46.935  33.928  1.00  0.00     0.146 A 
ATOM     11  O   UNL     1      13.646  48.254  34.049  1.00  0.00    -0.452 OA
ENDROOT
BRANCH   1  12
ATOM     12  C   UNL     1      14.038  50.557  33.459  1.00  0.00     0.025 A 
ATOM     13  C   UNL     1      12.911  51.226  32.948  1.00  0.00     0.016 A 
ATOM     14  C   UNL     1      12.725  52.588  33.198  1.00  0.00     0.051 A 
ATOM     15  C   UNL     1      13.653  53.299  33.971  1.00  0.00     0.157 A 
ATOM     16  C   UNL     1      14.953  51.270  34.251  1.00  0.00     0.062 A 
ATOM     17  C   UNL     1      14.771  52.634  34.502  1.00  0.00     0.158 A 
BRANCH  15  18
ATOM     18  O   UNL     1      13.465  54.659  34.217  1.00  0.00    -0.504 OA
ATOM     19  H   UNL     1      13.363  55.325  33.460  1.00  0.00     0.293 HD
ENDBRANCH  15  18
BRANCH  17  20
ATOM     20  O   UNL     1      15.709  53.311  35.281  1.00  0.00    -0.504 OA
ATOM     21  H   UNL     1      15.435  53.933  36.032  1.00  0.00     0.293 HD
ENDBRANCH  17  20
ENDBRANCH   1  12
BRANCH   2  22
ATOM     22  O   UNL     1      15.775  49.516  31.386  1.00  0.00    -0.502 OA
ATOM     23  H   UNL     1      16.293  50.301  31.762  1.00  0.00     0.293 HD
ENDBRANCH   2  22
BRANCH   6  24
ATOM     24  O   UNL     1      15.121  44.240  31.709  1.00  0.00    -0.507 OA
ATOM     25  H   UNL     1      14.648  43.585  31.103  1.00  0.00     0.293 HD
ENDBRANCH   6  24
BRANCH   8  26
ATOM     26  O   UNL     1      12.524  43.958  35.739  1.00  0.00    -0.508 OA
ATOM     27  H   UNL     1      11.893  43.212  35.475  1.00  0.00     0.293 HD
ENDBRANCH   8  26
TORSDOF 6
ENDMDL
MODEL 7
REMARK VINA RESULT:    -4.971      2.003      3.808
REMARK INTER + INTRA:          -6.290
REMARK INTER:                  -5.973
REMARK INTRA:                  -0.317
REMARK UNBOUND:                -0.302
REMARK SMILES O=c1c(O)c(-c2ccc(O)c(O)c2)oc2cc(O)cc(O)c12
REMARK SMILES IDX 5 1 3 2 2 3 1 4 22 5 20 6 19 7 17 8 16 9 15 10 14 11 6 12
REMARK SMILES IDX 7 13 8 14 9 15 13 16 11 17 10 18 12 20 4 22 21 24 18 26
REMARK H PARENT 10 19 12 21 4 23 21 25 18 27
REMARK Flexibility Score: inf
ROOT
ATOM      1  C   UNL     1      14.608  54.752  33.729  1.00  0.00     0.180 A 
ATOM      2  C   UNL     1      15.111  56.064  33.696  1.00  0.00     0.208 A 
ATOM      3  C   UNL     1      15.487  56.618  32.462  1.00  0.00     0.238 A 
ATOM      4  O   UNL     1      15.987  57.773  32.444  1.00  0.00    -0.285 OA
ATOM      5  C   UNL     1      15.342  55.859  31.275  1.00  0.00     0.111 A 
ATOM      6  C   UNL     1      15.655  56.333  29.966  1.00  0.00     0.134 A 
ATOM      7  C   UNL     1      15.596  55.452  28.880  1.00  0.00     0.093 A 
ATOM      8  C   UNL     1      15.174  54.131  29.047  1.00  0.00     0.123 A 
ATOM      9  C   UNL     1      14.809  53.675  30.311  1.00  0.00     0.094 A 
ATOM     10  C   UNL     1      14.893  54.520  31.419  1.00  0.00     0.146 A 
ATOM     11  O   UNL     1      14.547  54.043  32.609  1.00  0.00    -0.452 OA
ENDROOT
BRANCH   1  12
ATOM     12  C   UNL     1      14.167  54.109  34.988  1.00  0.00     0.025 A 
ATOM     13  C   UNL     1      15.043  53.315  35.750  1.00  0.00     0.016 A 
ATOM     14  C   UNL     1      14.612  52.738  36.948  1.00  0.00     0.051 A 
ATOM     15  C   UNL     1      13.307  52.956  37.409  1.00  0.00     0.157 A 
ATOM     16  C   UNL     1      12.868  54.342  35.466  1.00  0.00     0.062 A 
ATOM     17  C   UNL     1      12.432  53.765  36.665  1.00  0.00     0.158 A 
BRANCH  15  18
ATOM     18  O   UNL     1      12.880  52.378  38.604  1.00  0.00    -0.504 OA
ATOM     19  H   UNL     1      12.539  51.424  38.639  1.00  0.00     0.293 HD
ENDBRANCH  15  18
BRANCH  17  20
ATOM     20  O   UNL     1      11.130  54.008  37.100  1.00  0.00    -0.504 OA
ATOM     21  H   UNL     1      10.644  53.374  37.722  1.00  0.00     0.293 HD
ENDBRANCH  17  20
ENDBRANCH   1  12
BRANCH   2  22
ATOM     22  O   UNL     1      15.266  56.788  34.881  1.00  0.00    -0.502 OA
ATOM     23  H   UNL     1      15.611  56.366  35.735  1.00  0.00     0.293 HD
ENDBRANCH   2  22
BRANCH   6  24
ATOM     24  O   UNL     1      15.998  57.658  29.677  1.00  0.00    -0.507 OA
ATOM     25  H   UNL     1      16.758  58.162  30.108  1.00  0.00     0.293 HD
ENDBRANCH   6  24
BRANCH   8  26
ATOM     26  O   UNL     1      15.103  53.264  27.957  1.00  0.00    -0.508 OA
ATOM     27  H   UNL     1      14.847  53.594  27.033  1.00  0.00     0.293 HD
ENDBRANCH   8  26
TORSDOF 6
ENDMDL
MODEL 8
REMARK VINA RESULT:    -4.946      2.427      3.274
REMARK INTER + INTRA:          -6.260
REMARK INTER:                  -5.931
REMARK INTRA:                  -0.329
REMARK UNBOUND:                -0.302
REMARK SMILES O=c1c(O)c(-c2ccc(O)c(O)c2)oc2cc(O)cc(O)c12
REMARK SMILES IDX 5 1 3 2 2 3 1 4 22 5 20 6 19 7 17 8 16 9 15 10 14 11 6 12
REMARK SMILES IDX 7 13 8 14 9 15 13 16 11 17 10 18 12 20 4 22 21 24 18 26
REMARK H PARENT 10 19 12 21 4 23 21 25 18 27
REMARK Flexibility Score: inf
ROOT
ATOM      1  C   UNL     1      14.047  56.025  34.375  1.00  0.00     0.180 A 
ATOM      2  C   UNL     1      12.832  56.643  34.717  1.00  0.00     0.208 A 
ATOM      3  C   UNL     1      12.769  58.045  34.757  1.00  0.00     0.238 A 
ATOM      4  O   UNL     1      11.694  58.593  35.116  1.00  0.00    -0.285 OA
ATOM      5  C   UNL     1      13.916  58.812  34.440  1.00  0.00     0.111 A 
ATOM      6  C   UNL     1      13.956  60.238  34.410  1.00  0.00     0.134 A 
ATOM      7  C   UNL     1      15.179  60.891  34.211  1.00  0.00     0.093 A 
ATOM      8  C   UNL     1      16.351  60.168  33.977  1.00  0.00     0.123 A 
ATOM      9  C   UNL     1      16.312  58.777  33.945  1.00  0.00     0.094 A 
ATOM     10  C   UNL     1      15.114  58.097  34.176  1.00  0.00     0.146 A 
ATOM     11  O   UNL     1      15.122  56.770  34.148  1.00  0.00    -0.452 OA
ENDROOT
BRANCH   1  12
ATOM     12  C   UNL     1      14.185  54.553  34.288  1.00  0.00     0.025 A 
ATOM     13  C   UNL     1      13.847  53.855  33.115  1.00  0.00     0.016 A 
ATOM     14  C   UNL     1      14.008  52.469  33.047  1.00  0.00     0.051 A 
ATOM     15  C   UNL     1      14.521  51.762  34.142  1.00  0.00     0.157 A 
ATOM     16  C   UNL     1      14.718  53.842  35.375  1.00  0.00     0.062 A 
ATOM     17  C   UNL     1      14.880  52.454  35.311  1.00  0.00     0.158 A 
BRANCH  15  18
ATOM     18  O   UNL     1      14.679  50.378  34.072  1.00  0.00    -0.504 OA
ATOM     19  H   UNL     1      14.859  49.822  34.900  1.00  0.00     0.293 HD
ENDBRANCH  15  18
BRANCH  17  20
ATOM     20  O   UNL     1      15.400  51.780  36.416  1.00  0.00    -0.504 OA
ATOM     21  H   UNL     1      15.139  50.827  36.636  1.00  0.00     0.293 HD
ENDBRANCH  17  20
ENDBRANCH   1  12
BRANCH   2  22
ATOM     22  O   UNL     1      11.717  55.868  35.047  1.00  0.00    -0.502 OA
ATOM     23  H   UNL     1      11.142  56.061  35.858  1.00  0.00     0.293 HD
ENDBRANCH   2  22
BRANCH   6  24
ATOM     24  O   UNL     1      12.828  61.053  34.540  1.00  0.00    -0.507 OA
ATOM     25  H   UNL     1      12.133  61.192  33.822  1.00  0.00     0.293 HD
ENDBRANCH   6  24
BRANCH   8  26
ATOM     26  O   UNL     1      17.562  60.827  33.765  1.00  0.00    -0.508 OA
ATOM     27  H   UNL     1      18.334  60.738  34.414  1.00  0.00     0.293 HD
ENDBRANCH   8  26
TORSDOF 6
ENDMDL
MODEL 9
REMARK VINA RESULT:    -4.923      2.612      6.420
REMARK INTER + INTRA:          -6.232
REMARK INTER:                  -5.913
REMARK INTRA:                  -0.319
REMARK UNBOUND:                -0.302
REMARK SMILES O=c1c(O)c(-c2ccc(O)c(O)c2)oc2cc(O)cc(O)c12
REMARK SMILES IDX 5 1 3 2 2 3 1 4 22 5 20 6 19 7 17 8 16 9 15 10 14 11 6 12
REMARK SMILES IDX 7 13 8 14 9 15 13 16 11 17 10 18 12 20 4 22 21 24 18 26
REMARK H PARENT 10 19 12 21 4 23 21 25 18 27
REMARK Flexibility Score: inf
ROOT
ATOM      1  C   UNL     1      15.246  55.782  33.529  1.00  0.00     0.180 A 
ATOM      2  C   UNL     1      14.820  54.860  34.500  1.00  0.00     0.208 A 
ATOM      3  C   UNL     1      14.436  53.572  34.092  1.00  0.00     0.238 A 
ATOM      4  O   UNL     1      14.003  52.767  34.959  1.00  0.00    -0.285 OA
ATOM      5  C   UNL     1      14.499  53.218  32.723  1.00  0.00     0.111 A 
ATOM      6  C   UNL     1      14.172  51.929  32.203  1.00  0.00     0.134 A 
ATOM      7  C   UNL     1      14.145  51.731  30.817  1.00  0.00     0.093 A 
ATOM      8  C   UNL     1      14.496  52.757  29.936  1.00  0.00     0.123 A 
ATOM      9  C   UNL     1      14.874  54.000  30.435  1.00  0.00     0.094 A 
ATOM     10  C   UNL     1      14.875  54.239  31.811  1.00  0.00     0.146 A 
ATOM     11  O   UNL     1      15.231  55.442  32.246  1.00  0.00    -0.452 OA
ENDROOT
BRANCH   1  12
ATOM     12  C   UNL     1      15.690  57.150  33.884  1.00  0.00     0.025 A 
ATOM     13  C   UNL     1      17.050  57.454  34.066  1.00  0.00     0.016 A 
ATOM     14  C   UNL     1      17.447  58.757  34.377  1.00  0.00     0.051 A 
ATOM     15  C   UNL     1      16.494  59.778  34.497  1.00  0.00     0.157 A 
ATOM     16  C   UNL     1      14.742  58.181  33.984  1.00  0.00     0.062 A 
ATOM     17  C   UNL     1      15.135  59.487  34.296  1.00  0.00     0.158 A 
BRANCH  15  18
ATOM     18  O   UNL     1      16.894  61.077  34.808  1.00  0.00    -0.504 OA
ATOM     19  H   UNL     1      17.049  61.772  34.086  1.00  0.00     0.293 HD
ENDBRANCH  15  18
BRANCH  17  20
ATOM     20  O   UNL     1      14.163  60.481  34.400  1.00  0.00    -0.504 OA
ATOM     21  H   UNL     1      14.387  61.465  34.311  1.00  0.00     0.293 HD
ENDBRANCH  17  20
ENDBRANCH   1  12
BRANCH   2  22
ATOM     22  O   UNL     1      14.745  55.236  35.844  1.00  0.00    -0.502 OA
ATOM     23  H   UNL     1      15.194  54.708  36.582  1.00  0.00     0.293 HD
ENDBRANCH   2  22
BRANCH   6  24
ATOM     24  O   UNL     1      13.897  50.813  32.999  1.00  0.00    -0.507 OA
ATOM     25  H   UNL     1      12.999  50.607  33.409  1.00  0.00     0.293 HD
ENDBRANCH   6  24
BRANCH   8  26
ATOM     26  O   UNL     1      14.481  52.545  28.558  1.00  0.00    -0.508 OA
ATOM     27  H   UNL     1      14.631  53.304  27.903  1.00  0.00     0.293 HD
ENDBRANCH   8  26
TORSDOF 6
ENDMDL
