MODEL 1
REMARK VINA RESULT:    -4.330      0.000      0.000
REMARK INTER + INTRA:          -9.805
REMARK INTER:                  -7.874
REMARK INTRA:                  -1.931
REMARK UNBOUND:                -1.931
REMARK SMILES CCCCCCCCCCCCCCCC(=O)[O-]
REMARK SMILES IDX 9 1 10 2 11 3 12 4 13 5 14 6 15 7 16 8 17 9 18 10 8 11 7 12
REMARK SMILES IDX 6 13 5 14 4 15 3 16 2 17 1 18
REMARK H PARENT
REMARK Flexibility Score: inf
ROOT
ATOM      1  C   UNL     1       1.348  50.607  21.810  1.00  0.00     0.000 C 
ENDROOT
BRANCH   1   2
ATOM      2  C   UNL     1       2.102  49.277  21.653  1.00  0.00     0.000 C 
BRANCH   2   3
ATOM      3  C   UNL     1       1.161  48.061  21.656  1.00  0.00     0.000 C 
BRANCH   3   4
ATOM      4  C   UNL     1       0.141  48.117  22.813  1.00  0.00     0.000 C 
BRANCH   4   5
ATOM      5  C   UNL     1      -0.458  46.746  23.171  1.00  0.00     0.000 C 
BRANCH   5   6
ATOM      6  C   UNL     1      -0.423  46.454  24.680  1.00  0.00     0.006 C 
BRANCH   6   7
ATOM      7  C   UNL     1      -1.460  47.280  25.453  1.00  0.00     0.053 C 
BRANCH   7   8
ATOM      8  C   UNL     1      -2.840  47.089  24.904  1.00  0.00     0.041 C 
ATOM      9  O   UNL     1      -3.479  48.070  24.440  1.00  0.00    -0.550 OA
ATOM     10  O   UNL     1      -3.406  45.821  24.870  1.00  0.00    -0.550 OA
ENDBRANCH   7   8
ENDBRANCH   6   7
ENDBRANCH   5   6
ENDBRANCH   4   5
ENDBRANCH   3   4
ENDBRANCH   2   3
ENDBRANCH   1   2
BRANCH   1  11
ATOM     11  C   UNL     1       2.206  51.695  22.479  1.00  0.00     0.000 C 
BRANCH  11  12
ATOM     12  C   UNL     1       2.366  51.485  23.996  1.00  0.00    -0.000 C 
BRANCH  12  13
ATOM     13  C   UNL     1       1.051  51.267  24.767  1.00  0.00    -0.000 C 
BRANCH  13  14
ATOM     14  C   UNL     1       1.127  50.104  25.769  1.00  0.00    -0.000 C 
BRANCH  14  15
ATOM     15  C   UNL     1       2.347  49.197  25.537  1.00  0.00    -0.000 C 
BRANCH  15  16
ATOM     16  C   UNL     1       3.298  49.113  26.751  1.00  0.00    -0.000 C 
BRANCH  16  17
ATOM     17  C   UNL     1       2.534  48.981  28.076  1.00  0.00    -0.003 C 
ATOM     18  C   UNL     1       3.212  49.778  29.186  1.00  0.00     0.004 C 
ENDBRANCH  16  17
ENDBRANCH  15  16
ENDBRANCH  14  15
ENDBRANCH  13  14
ENDBRANCH  12  13
ENDBRANCH  11  12
ENDBRANCH   1  11
TORSDOF 14
ENDMDL
MODEL 2
REMARK VINA RESULT:    -4.261      1.736      3.506
REMARK INTER + INTRA:          -9.680
REMARK INTER:                  -8.329
REMARK INTRA:                  -1.351
REMARK UNBOUND:                -1.931
REMARK SMILES CCCCCCCCCCCCCCCC(=O)[O-]
REMARK SMILES IDX 9 1 10 2 11 3 12 4 13 5 14 6 15 7 16 8 17 9 18 10 8 11 7 12
REMARK SMILES IDX 6 13 5 14 4 15 3 16 2 17 1 18
REMARK H PARENT
REMARK Flexibility Score: inf
ROOT
ATOM      1  C   UNL     1       0.130  47.961  22.911  1.00  0.00     0.000 C 
ENDROOT
BRANCH   1   2
ATOM      2  C   UNL     1      -0.482  46.565  23.102  1.00  0.00     0.000 C 
BRANCH   2   3
ATOM      3  C   UNL     1      -0.715  46.219  24.582  1.00  0.00     0.000 C 
BRANCH   3   4
ATOM      4  C   UNL     1      -1.677  47.212  25.267  1.00  0.00     0.000 C 
BRANCH   4   5
ATOM      5  C   UNL     1      -2.993  46.568  25.737  1.00  0.00     0.000 C 
BRANCH   5   6
ATOM      6  C   UNL     1      -3.885  46.114  24.570  1.00  0.00     0.006 C 
BRANCH   6   7
ATOM      7  C   UNL     1      -4.988  45.149  25.026  1.00  0.00     0.053 C 
BRANCH   7   8
ATOM      8  C   UNL     1      -5.211  44.053  24.030  1.00  0.00     0.041 C 
ATOM      9  O   UNL     1      -5.876  44.273  22.983  1.00  0.00    -0.550 OA
ATOM     10  O   UNL     1      -4.654  42.798  24.240  1.00  0.00    -0.550 OA
ENDBRANCH   7   8
ENDBRANCH   6   7
ENDBRANCH   5   6
ENDBRANCH   4   5
ENDBRANCH   3   4
ENDBRANCH   2   3
ENDBRANCH   1   2
BRANCH   1  11
ATOM     11  C   UNL     1       1.035  48.043  21.669  1.00  0.00     0.000 C 
BRANCH  11  12
ATOM     12  C   UNL     1       2.009  49.234  21.713  1.00  0.00    -0.000 C 
BRANCH  12  13
ATOM     13  C   UNL     1       1.413  50.545  22.258  1.00  0.00    -0.000 C 
BRANCH  13  14
ATOM     14  C   UNL     1       2.482  51.526  22.768  1.00  0.00    -0.000 C 
BRANCH  14  15
ATOM     15  C   UNL     1       2.487  51.657  24.300  1.00  0.00    -0.000 C 
BRANCH  15  16
ATOM     16  C   UNL     1       1.664  50.566  25.019  1.00  0.00    -0.000 C 
BRANCH  16  17
ATOM     17  C   UNL     1       2.560  49.505  25.675  1.00  0.00    -0.003 C 
ATOM     18  C   UNL     1       1.729  48.479  26.441  1.00  0.00     0.004 C 
ENDBRANCH  16  17
ENDBRANCH  15  16
ENDBRANCH  14  15
ENDBRANCH  13  14
ENDBRANCH  12  13
ENDBRANCH  11  12
ENDBRANCH   1  11
TORSDOF 14
ENDMDL
MODEL 3
REMARK VINA RESULT:    -4.249      0.903      1.889
REMARK INTER + INTRA:          -9.658
REMARK INTER:                  -7.847
REMARK INTRA:                  -1.811
REMARK UNBOUND:                -1.931
REMARK SMILES CCCCCCCCCCCCCCCC(=O)[O-]
REMARK SMILES IDX 9 1 10 2 11 3 12 4 13 5 14 6 15 7 16 8 17 9 18 10 8 11 7 12
REMARK SMILES IDX 6 13 5 14 4 15 3 16 2 17 1 18
REMARK H PARENT
REMARK Flexibility Score: inf
ROOT
ATOM      1  C   UNL     1       0.706  50.735  21.985  1.00  0.00     0.000 C 
ENDROOT
BRANCH   1   2
ATOM      2  C   UNL     1       1.754  49.692  21.567  1.00  0.00     0.000 C 
BRANCH   2   3
ATOM      3  C   UNL     1       1.262  48.248  21.769  1.00  0.00     0.000 C 
BRANCH   3   4
ATOM      4  C   UNL     1       0.184  48.150  22.869  1.00  0.00     0.000 C 
BRANCH   4   5
ATOM      5  C   UNL     1      -0.412  46.739  23.019  1.00  0.00     0.000 C 
BRANCH   5   6
ATOM      6  C   UNL     1      -0.501  46.281  24.484  1.00  0.00     0.006 C 
BRANCH   6   7
ATOM      7  C   UNL     1      -1.611  47.011  25.253  1.00  0.00     0.053 C 
BRANCH   7   8
ATOM      8  C   UNL     1      -2.972  46.599  24.783  1.00  0.00     0.041 C 
ATOM      9  O   UNL     1      -3.253  45.379  24.645  1.00  0.00    -0.550 OA
ATOM     10  O   UNL     1      -3.942  47.561  24.530  1.00  0.00    -0.550 OA
ENDBRANCH   7   8
ENDBRANCH   6   7
ENDBRANCH   5   6
ENDBRANCH   4   5
ENDBRANCH   3   4
ENDBRANCH   2   3
ENDBRANCH   1   2
BRANCH   1  11
ATOM     11  C   UNL     1       1.109  52.166  21.585  1.00  0.00     0.000 C 
BRANCH  11  12
ATOM     12  C   UNL     1       1.461  53.051  22.794  1.00  0.00    -0.000 C 
BRANCH  12  13
ATOM     13  C   UNL     1       2.931  52.981  23.248  1.00  0.00    -0.000 C 
BRANCH  13  14
ATOM     14  C   UNL     1       3.177  51.913  24.326  1.00  0.00    -0.000 C 
BRANCH  14  15
ATOM     15  C   UNL     1       2.063  51.867  25.385  1.00  0.00    -0.000 C 
BRANCH  15  16
ATOM     16  C   UNL     1       1.411  50.475  25.540  1.00  0.00    -0.000 C 
BRANCH  16  17
ATOM     17  C   UNL     1       2.447  49.343  25.490  1.00  0.00    -0.003 C 
ATOM     18  C   UNL     1       3.103  49.134  26.851  1.00  0.00     0.004 C 
ENDBRANCH  16  17
ENDBRANCH  15  16
ENDBRANCH  14  15
ENDBRANCH  13  14
ENDBRANCH  12  13
ENDBRANCH  11  12
ENDBRANCH   1  11
TORSDOF 14
ENDMDL
MODEL 4
REMARK VINA RESULT:    -4.222      3.103      5.257
REMARK INTER + INTRA:          -9.608
REMARK INTER:                  -8.949
REMARK INTRA:                  -0.659
REMARK UNBOUND:                -1.931
REMARK SMILES CCCCCCCCCCCCCCCC(=O)[O-]
REMARK SMILES IDX 9 1 10 2 11 3 12 4 13 5 14 6 15 7 16 8 17 9 18 10 8 11 7 12
REMARK SMILES IDX 6 13 5 14 4 15 3 16 2 17 1 18
REMARK H PARENT
REMARK Flexibility Score: inf
ROOT
ATOM      1  C   UNL     1      -0.533  46.549  23.073  1.00  0.00     0.000 C 
ENDROOT
BRANCH   1   2
ATOM      2  C   UNL     1      -0.794  46.216  24.550  1.00  0.00     0.000 C 
BRANCH   2   3
ATOM      3  C   UNL     1      -2.291  46.230  24.903  1.00  0.00     0.000 C 
BRANCH   3   4
ATOM      4  C   UNL     1      -3.006  44.938  24.457  1.00  0.00     0.000 C 
BRANCH   4   5
ATOM      5  C   UNL     1      -4.531  45.094  24.326  1.00  0.00     0.000 C 
BRANCH   5   6
ATOM      6  C   UNL     1      -5.186  43.937  23.554  1.00  0.00     0.006 C 
BRANCH   6   7
ATOM      7  C   UNL     1      -5.713  42.841  24.490  1.00  0.00     0.053 C 
BRANCH   7   8
ATOM      8  C   UNL     1      -7.201  42.909  24.639  1.00  0.00     0.041 C 
ATOM      9  O   UNL     1      -7.771  42.323  25.597  1.00  0.00    -0.550 OA
ATOM     10  O   UNL     1      -7.957  43.649  23.738  1.00  0.00    -0.550 OA
ENDBRANCH   7   8
ENDBRANCH   6   7
ENDBRANCH   5   6
ENDBRANCH   4   5
ENDBRANCH   3   4
ENDBRANCH   2   3
ENDBRANCH   1   2
BRANCH   1  11
ATOM     11  C   UNL     1      -0.004  47.981  22.877  1.00  0.00     0.000 C 
BRANCH  11  12
ATOM     12  C   UNL     1       1.078  48.077  21.786  1.00  0.00    -0.000 C 
BRANCH  12  13
ATOM     13  C   UNL     1       2.099  49.215  21.977  1.00  0.00    -0.000 C 
BRANCH  13  14
ATOM     14  C   UNL     1       1.711  50.502  21.231  1.00  0.00    -0.000 C 
BRANCH  14  15
ATOM     15  C   UNL     1       1.645  51.729  22.155  1.00  0.00    -0.000 C 
BRANCH  15  16
ATOM     16  C   UNL     1       2.347  51.521  23.515  1.00  0.00    -0.000 C 
BRANCH  16  17
ATOM     17  C   UNL     1       3.383  52.616  23.804  1.00  0.00    -0.003 C 
ATOM     18  C   UNL     1       3.250  53.775  22.821  1.00  0.00     0.004 C 
ENDBRANCH  16  17
ENDBRANCH  15  16
ENDBRANCH  14  15
ENDBRANCH  13  14
ENDBRANCH  12  13
ENDBRANCH  11  12
ENDBRANCH   1  11
TORSDOF 14
ENDMDL
MODEL 5
REMARK VINA RESULT:    -4.163      1.299      2.330
REMARK INTER + INTRA:          -9.500
REMARK INTER:                  -7.671
REMARK INTRA:                  -1.829
REMARK UNBOUND:                -1.931
REMARK SMILES CCCCCCCCCCCCCCCC(=O)[O-]
REMARK SMILES IDX 9 1 10 2 11 3 12 4 13 5 14 6 15 7 16 8 17 9 18 10 8 11 7 12
REMARK SMILES IDX 6 13 5 14 4 15 3 16 2 17 1 18
REMARK H PARENT
REMARK Flexibility Score: inf
ROOT
ATOM      1  C   UNL     1       1.825  53.523  22.485  1.00  0.00     0.000 C 
ENDROOT
BRANCH   1   2
ATOM      2  C   UNL     1       1.122  52.686  21.406  1.00  0.00     0.000 C 
BRANCH   2   3
ATOM      3  C   UNL     1       1.764  51.300  21.221  1.00  0.00     0.000 C 
BRANCH   3   4
ATOM      4  C   UNL     1       0.904  50.175  21.834  1.00  0.00     0.000 C 
BRANCH   4   5
ATOM      5  C   UNL     1       1.455  48.764  21.561  1.00  0.00     0.000 C 
BRANCH   5   6
ATOM      6  C   UNL     1       0.631  47.659  22.242  1.00  0.00     0.006 C 
BRANCH   6   7
ATOM      7  C   UNL     1      -0.304  48.217  23.324  1.00  0.00     0.053 C 
BRANCH   7   8
ATOM      8  C   UNL     1      -1.316  47.202  23.757  1.00  0.00     0.041 C 
ATOM      9  O   UNL     1      -1.166  45.988  23.457  1.00  0.00    -0.550 OA
ATOM     10  O   UNL     1      -2.409  47.591  24.521  1.00  0.00    -0.550 OA
ENDBRANCH   7   8
ENDBRANCH   6   7
ENDBRANCH   5   6
ENDBRANCH   4   5
ENDBRANCH   3   4
ENDBRANCH   2   3
ENDBRANCH   1   2
BRANCH   1  11
ATOM     11  C   UNL     1       3.212  52.965  22.851  1.00  0.00     0.000 C 
BRANCH  11  12
ATOM     12  C   UNL     1       3.252  52.325  24.251  1.00  0.00    -0.000 C 
BRANCH  12  13
ATOM     13  C   UNL     1       1.957  52.472  25.072  1.00  0.00    -0.000 C 
BRANCH  13  14
ATOM     14  C   UNL     1       1.476  51.144  25.679  1.00  0.00    -0.000 C 
BRANCH  14  15
ATOM     15  C   UNL     1       2.428  49.973  25.381  1.00  0.00    -0.000 C 
BRANCH  15  16
ATOM     16  C   UNL     1       2.007  48.646  26.050  1.00  0.00    -0.000 C 
BRANCH  16  17
ATOM     17  C   UNL     1       2.529  48.533  27.490  1.00  0.00    -0.003 C 
ATOM     18  C   UNL     1       3.941  49.097  27.610  1.00  0.00     0.004 C 
ENDBRANCH  16  17
ENDBRANCH  15  16
ENDBRANCH  14  15
ENDBRANCH  13  14
ENDBRANCH  12  13
ENDBRANCH  11  12
ENDBRANCH   1  11
TORSDOF 14
ENDMDL
MODEL 6
REMARK VINA RESULT:    -4.152      3.085      5.518
REMARK INTER + INTRA:          -9.480
REMARK INTER:                  -7.347
REMARK INTRA:                  -2.133
REMARK UNBOUND:                -1.931
REMARK SMILES CCCCCCCCCCCCCCCC(=O)[O-]
REMARK SMILES IDX 9 1 10 2 11 3 12 4 13 5 14 6 15 7 16 8 17 9 18 10 8 11 7 12
REMARK SMILES IDX 6 13 5 14 4 15 3 16 2 17 1 18
REMARK H PARENT
REMARK Flexibility Score: inf
ROOT
ATOM      1  C   UNL     1      -0.580  48.387  23.521  1.00  0.00     0.000 C 
ENDROOT
BRANCH   1   2
ATOM      2  C   UNL     1      -0.066  48.477  24.966  1.00  0.00     0.000 C 
BRANCH   2   3
ATOM      3  C   UNL     1      -0.066  49.917  25.505  1.00  0.00     0.000 C 
BRANCH   3   4
ATOM      4  C   UNL     1       1.360  50.427  25.804  1.00  0.00     0.000 C 
BRANCH   4   5
ATOM      5  C   UNL     1       2.445  49.350  25.630  1.00  0.00     0.000 C 
BRANCH   5   6
ATOM      6  C   UNL     1       3.286  49.140  26.900  1.00  0.00     0.006 C 
BRANCH   6   7
ATOM      7  C   UNL     1       2.416  48.842  28.129  1.00  0.00     0.053 C 
BRANCH   7   8
ATOM      8  C   UNL     1       2.772  49.724  29.285  1.00  0.00     0.041 C 
ATOM      9  O   UNL     1       3.631  50.635  29.147  1.00  0.00    -0.550 OA
ATOM     10  O   UNL     1       2.131  49.563  30.507  1.00  0.00    -0.550 OA
ENDBRANCH   7   8
ENDBRANCH   6   7
ENDBRANCH   5   6
ENDBRANCH   4   5
ENDBRANCH   3   4
ENDBRANCH   2   3
ENDBRANCH   1   2
BRANCH   1  11
ATOM     11  C   UNL     1       0.212  47.374  22.676  1.00  0.00     0.000 C 
BRANCH  11  12
ATOM     12  C   UNL     1       0.994  48.033  21.525  1.00  0.00    -0.000 C 
BRANCH  12  13
ATOM     13  C   UNL     1       2.077  49.037  21.963  1.00  0.00    -0.000 C 
BRANCH  13  14
ATOM     14  C   UNL     1       1.915  50.419  21.309  1.00  0.00    -0.000 C 
BRANCH  14  15
ATOM     15  C   UNL     1       0.836  51.278  21.990  1.00  0.00    -0.000 C 
BRANCH  15  16
ATOM     16  C   UNL     1       1.404  52.487  22.766  1.00  0.00    -0.000 C 
BRANCH  16  17
ATOM     17  C   UNL     1       2.890  52.309  23.106  1.00  0.00    -0.003 C 
ATOM     18  C   UNL     1       3.311  53.239  24.240  1.00  0.00     0.004 C 
ENDBRANCH  16  17
ENDBRANCH  15  16
ENDBRANCH  14  15
ENDBRANCH  13  14
ENDBRANCH  12  13
ENDBRANCH  11  12
ENDBRANCH   1  11
TORSDOF 14
ENDMDL
MODEL 7
REMARK VINA RESULT:    -4.113      2.730      5.329
REMARK INTER + INTRA:          -9.411
REMARK INTER:                  -7.760
REMARK INTRA:                  -1.650
REMARK UNBOUND:                -1.931
REMARK SMILES CCCCCCCCCCCCCCCC(=O)[O-]
REMARK SMILES IDX 9 1 10 2 11 3 12 4 13 5 14 6 15 7 16 8 17 9 18 10 8 11 7 12
REMARK SMILES IDX 6 13 5 14 4 15 3 16 2 17 1 18
REMARK H PARENT
REMARK Flexibility Score: inf
ROOT
ATOM      1  C   UNL     1       2.464  52.397  22.745  1.00  0.00     0.000 C 
ENDROOT
BRANCH   1   2
ATOM      2  C   UNL     1       2.010  53.380  23.834  1.00  0.00     0.000 C 
BRANCH   2   3
ATOM      3  C   UNL     1       0.879  52.812  24.709  1.00  0.00     0.000 C 
BRANCH   3   4
ATOM      4  C   UNL     1       1.420  51.952  25.871  1.00  0.00     0.000 C 
BRANCH   4   5
ATOM      5  C   UNL     1       1.141  50.448  25.703  1.00  0.00     0.000 C 
BRANCH   5   6
ATOM      6  C   UNL     1       2.423  49.620  25.517  1.00  0.00     0.006 C 
BRANCH   6   7
ATOM      7  C   UNL     1       2.513  48.459  26.517  1.00  0.00     0.053 C 
BRANCH   7   8
ATOM      8  C   UNL     1       2.776  48.947  27.908  1.00  0.00     0.041 C 
ATOM      9  O   UNL     1       3.925  49.346  28.234  1.00  0.00    -0.550 OA
ATOM     10  O   UNL     1       1.743  48.995  28.836  1.00  0.00    -0.550 OA
ENDBRANCH   7   8
ENDBRANCH   6   7
ENDBRANCH   5   6
ENDBRANCH   4   5
ENDBRANCH   3   4
ENDBRANCH   2   3
ENDBRANCH   1   2
BRANCH   1  11
ATOM     11  C   UNL     1       1.293  51.592  22.152  1.00  0.00     0.000 C 
BRANCH  11  12
ATOM     12  C   UNL     1       1.754  50.483  21.189  1.00  0.00    -0.000 C 
BRANCH  12  13
ATOM     13  C   UNL     1       2.117  49.145  21.859  1.00  0.00    -0.000 C 
BRANCH  13  14
ATOM     14  C   UNL     1       1.000  48.094  21.748  1.00  0.00    -0.000 C 
BRANCH  14  15
ATOM     15  C   UNL     1       0.180  47.957  23.042  1.00  0.00    -0.000 C 
BRANCH  15  16
ATOM     16  C   UNL     1      -0.624  46.641  23.130  1.00  0.00    -0.000 C 
BRANCH  16  17
ATOM     17  C   UNL     1      -1.348  46.495  24.476  1.00  0.00    -0.003 C 
ATOM     18  C   UNL     1      -2.442  45.434  24.401  1.00  0.00     0.004 C 
ENDBRANCH  16  17
ENDBRANCH  15  16
ENDBRANCH  14  15
ENDBRANCH  13  14
ENDBRANCH  12  13
ENDBRANCH  11  12
ENDBRANCH   1  11
TORSDOF 14
ENDMDL
MODEL 8
REMARK VINA RESULT:    -4.080      2.660      5.112
REMARK INTER + INTRA:          -9.350
REMARK INTER:                  -7.508
REMARK INTRA:                  -1.843
REMARK UNBOUND:                -1.931
REMARK SMILES CCCCCCCCCCCCCCCC(=O)[O-]
REMARK SMILES IDX 9 1 10 2 11 3 12 4 13 5 14 6 15 7 16 8 17 9 18 10 8 11 7 12
REMARK SMILES IDX 6 13 5 14 4 15 3 16 2 17 1 18
REMARK H PARENT
REMARK Flexibility Score: inf
ROOT
ATOM      1  C   UNL     1       2.158  49.177  21.702  1.00  0.00     0.000 C 
ENDROOT
BRANCH   1   2
ATOM      2  C   UNL     1       1.522  50.573  21.785  1.00  0.00     0.000 C 
BRANCH   2   3
ATOM      3  C   UNL     1       2.174  51.455  22.864  1.00  0.00     0.000 C 
BRANCH   3   4
ATOM      4  C   UNL     1       1.521  51.257  24.249  1.00  0.00     0.000 C 
BRANCH   4   5
ATOM      5  C   UNL     1       2.489  50.702  25.310  1.00  0.00     0.000 C 
BRANCH   5   6
ATOM      6  C   UNL     1       2.340  49.187  25.520  1.00  0.00     0.006 C 
BRANCH   6   7
ATOM      7  C   UNL     1       3.109  48.694  26.753  1.00  0.00     0.053 C 
BRANCH   7   8
ATOM      8  C   UNL     1       2.665  49.398  27.999  1.00  0.00     0.041 C 
ATOM      9  O   UNL     1       3.494  50.044  28.692  1.00  0.00    -0.550 OA
ATOM     10  O   UNL     1       1.328  49.368  28.375  1.00  0.00    -0.550 OA
ENDBRANCH   7   8
ENDBRANCH   6   7
ENDBRANCH   5   6
ENDBRANCH   4   5
ENDBRANCH   3   4
ENDBRANCH   2   3
ENDBRANCH   1   2
BRANCH   1  11
ATOM     11  C   UNL     1       1.109  48.060  21.566  1.00  0.00     0.000 C 
BRANCH  11  12
ATOM     12  C   UNL     1       0.176  47.960  22.787  1.00  0.00    -0.000 C 
BRANCH  12  13
ATOM     13  C   UNL     1      -0.504  46.591  22.978  1.00  0.00    -0.000 C 
BRANCH  13  14
ATOM     14  C   UNL     1      -0.708  46.222  24.457  1.00  0.00    -0.000 C 
BRANCH  14  15
ATOM     15  C   UNL     1      -0.807  47.456  25.370  1.00  0.00    -0.000 C 
BRANCH  15  16
ATOM     16  C   UNL     1      -2.180  47.606  26.061  1.00  0.00    -0.000 C 
BRANCH  16  17
ATOM     17  C   UNL     1      -2.894  48.903  25.653  1.00  0.00    -0.003 C 
ATOM     18  C   UNL     1      -1.904  49.934  25.121  1.00  0.00     0.004 C 
ENDBRANCH  16  17
ENDBRANCH  15  16
ENDBRANCH  14  15
ENDBRANCH  13  14
ENDBRANCH  12  13
ENDBRANCH  11  12
ENDBRANCH   1  11
TORSDOF 14
ENDMDL
MODEL 9
REMARK VINA RESULT:    -4.068      3.986      5.899
REMARK INTER + INTRA:          -9.328
REMARK INTER:                  -7.543
REMARK INTRA:                  -1.785
REMARK UNBOUND:                -1.931
REMARK SMILES CCCCCCCCCCCCCCCC(=O)[O-]
REMARK SMILES IDX 9 1 10 2 11 3 12 4 13 5 14 6 15 7 16 8 17 9 18 10 8 11 7 12
REMARK SMILES IDX 6 13 5 14 4 15 3 16 2 17 1 18
REMARK H PARENT
REMARK Flexibility Score: inf
ROOT
ATOM      1  C   UNL     1       2.063  49.251  21.998  1.00  0.00     0.000 C 
ENDROOT
BRANCH   1   2
ATOM      2  C   UNL     1       1.814  50.604  21.314  1.00  0.00     0.000 C 
BRANCH   2   3
ATOM      3  C   UNL     1       1.187  51.639  22.263  1.00  0.00     0.000 C 
BRANCH   3   4
ATOM      4  C   UNL     1       1.891  53.010  22.175  1.00  0.00     0.000 C 
BRANCH   4   5
ATOM      5  C   UNL     1       3.294  53.021  22.807  1.00  0.00     0.000 C 
BRANCH   5   6
ATOM      6  C   UNL     1       3.270  52.751  24.320  1.00  0.00     0.006 C 
BRANCH   6   7
ATOM      7  C   UNL     1       2.502  53.834  25.090  1.00  0.00     0.053 C 
BRANCH   7   8
ATOM      8  C   UNL     1       3.313  55.084  25.240  1.00  0.00     0.041 C 
ATOM      9  O   UNL     1       3.059  56.094  24.533  1.00  0.00    -0.550 OA
ATOM     10  O   UNL     1       4.328  55.146  26.187  1.00  0.00    -0.550 OA
ENDBRANCH   7   8
ENDBRANCH   6   7
ENDBRANCH   5   6
ENDBRANCH   4   5
ENDBRANCH   3   4
ENDBRANCH   2   3
ENDBRANCH   1   2
BRANCH   1  11
ATOM     11  C   UNL     1       1.076  48.166  21.533  1.00  0.00     0.000 C 
BRANCH  11  12
ATOM     12  C   UNL     1       0.241  47.580  22.687  1.00  0.00    -0.000 C 
BRANCH  12  13
ATOM     13  C   UNL     1      -0.315  48.616  23.681  1.00  0.00    -0.000 C 
BRANCH  13  14
ATOM     14  C   UNL     1       0.269  48.465  25.095  1.00  0.00    -0.000 C 
BRANCH  14  15
ATOM     15  C   UNL     1       1.025  49.720  25.564  1.00  0.00    -0.000 C 
BRANCH  15  16
ATOM     16  C   UNL     1       2.551  49.516  25.684  1.00  0.00    -0.000 C 
BRANCH  16  17
ATOM     17  C   UNL     1       2.910  48.431  26.710  1.00  0.00    -0.003 C 
ATOM     18  C   UNL     1       2.763  48.951  28.137  1.00  0.00     0.004 C 
ENDBRANCH  16  17
ENDBRANCH  15  16
ENDBRANCH  14  15
ENDBRANCH  13  14
ENDBRANCH  12  13
ENDBRANCH  11  12
ENDBRANCH   1  11
TORSDOF 14
ENDMDL
