MODEL 1
REMARK VINA RESULT:    -5.678      0.000      0.000
REMARK INTER + INTRA:          -9.327
REMARK INTER:                  -8.002
REMARK INTRA:                  -1.325
REMARK UNBOUND:                -1.325
REMARK SMILES OCC1=C[C@@H](O)[C@H]2C=CO[C@@H](O[C@@H]3O[C@@H](CO)[C@H](O)[C@@H](O)[C@H]3O)[C@@H]12
REMARK SMILES IDX 12 1 11 2 8 3 9 4 7 5 10 6 24 7 5 8 3 9 4 10 6 11 2 13 1 14
REMARK SMILES IDX 13 16 22 17 14 18 20 19 15 20 18 21 23 22 21 24 16 26 17 27
REMARK SMILES IDX 19 29
REMARK H PARENT 6 12 1 15 23 23 21 25 17 28 19 30
REMARK Flexibility Score: inf
ROOT
ATOM      1  O   UNL     1     -21.618  29.905  -2.100  1.00  0.00    -0.310 OA
ENDROOT
BRANCH   1   2
ATOM      2  C   UNL     1     -20.200  30.048  -2.410  1.00  0.00     0.316 C 
ATOM      3  C   UNL     1     -17.614  31.229  -2.642  1.00  0.00     0.018 C 
ATOM      4  C   UNL     1     -18.093  30.847  -1.444  1.00  0.00     0.186 C 
ATOM      5  C   UNL     1     -18.378  30.999  -3.941  1.00  0.00     0.061 C 
ATOM      6  O   UNL     1     -19.467  30.531  -1.278  1.00  0.00    -0.472 OA
ATOM      7  C   UNL     1     -19.902  30.949  -3.652  1.00  0.00     0.096 C 
ATOM      8  C   UNL     1     -18.289  32.266  -4.828  1.00  0.00     0.145 C 
ATOM      9  C   UNL     1     -20.261  32.418  -3.603  1.00  0.00    -0.036 C 
ATOM     10  C   UNL     1     -19.362  33.143  -4.277  1.00  0.00     0.007 C 
BRANCH   8  11
ATOM     11  O   UNL     1     -17.021  32.876  -4.803  1.00  0.00    -0.388 OA
ATOM     12  H   UNL     1     -17.071  33.567  -4.088  1.00  0.00     0.211 HD
ENDBRANCH   8  11
BRANCH   9  13
ATOM     13  C   UNL     1     -21.592  32.993  -3.177  1.00  0.00     0.187 C 
BRANCH  13  14
ATOM     14  O   UNL     1     -22.621  32.330  -3.864  1.00  0.00    -0.392 OA
ATOM     15  H   UNL     1     -23.475  32.757  -3.569  1.00  0.00     0.211 HD
ENDBRANCH  13  14
ENDBRANCH   9  13
ENDBRANCH   1   2
BRANCH   1  16
ATOM     16  C   UNL     1     -22.307  29.055  -3.025  1.00  0.00     0.286 C 
ATOM     17  C   UNL     1     -22.588  27.555  -2.617  1.00  0.00     0.202 C 
ATOM     18  O   UNL     1     -23.530  29.577  -3.475  1.00  0.00    -0.341 OA
ATOM     19  C   UNL     1     -23.530  27.692  -1.382  1.00  0.00     0.179 C 
ATOM     20  C   UNL     1     -24.542  29.739  -2.470  1.00  0.00     0.178 C 
ATOM     21  C   UNL     1     -24.847  28.371  -1.743  1.00  0.00     0.177 C 
BRANCH  17  22
ATOM     22  O   UNL     1     -23.114  26.833  -3.739  1.00  0.00    -0.385 OA
ATOM     23  H   UNL     1     -22.855  25.857  -3.589  1.00  0.00     0.211 HD
ENDBRANCH  17  22
BRANCH  19  24
ATOM     24  O   UNL     1     -23.658  26.487  -0.642  1.00  0.00    -0.387 OA
ATOM     25  H   UNL     1     -23.866  25.793  -1.346  1.00  0.00     0.211 HD
ENDBRANCH  19  24
BRANCH  20  26
ATOM     26  C   UNL     1     -25.814  30.302  -3.152  1.00  0.00     0.191 C 
BRANCH  26  27
ATOM     27  O   UNL     1     -25.571  31.609  -3.607  1.00  0.00    -0.394 OA
ATOM     28  H   UNL     1     -24.619  31.636  -3.898  1.00  0.00     0.210 HD
ENDBRANCH  26  27
ENDBRANCH  20  26
BRANCH  21  29
ATOM     29  O   UNL     1     -25.561  28.624  -0.521  1.00  0.00    -0.387 OA
ATOM     30  H   UNL     1     -24.961  28.240   0.209  1.00  0.00     0.211 HD
ENDBRANCH  21  29
ENDBRANCH   1  16
TORSDOF 10
ENDMDL
MODEL 2
REMARK VINA RESULT:    -5.546      2.628      7.516
REMARK INTER + INTRA:          -9.140
REMARK INTER:                  -7.854
REMARK INTRA:                  -1.287
REMARK UNBOUND:                -1.325
REMARK SMILES OCC1=C[C@@H](O)[C@H]2C=CO[C@@H](O[C@@H]3O[C@@H](CO)[C@H](O)[C@@H](O)[C@H]3O)[C@@H]12
REMARK SMILES IDX 12 1 11 2 8 3 9 4 7 5 10 6 24 7 5 8 3 9 4 10 6 11 2 13 1 14
REMARK SMILES IDX 13 16 22 17 14 18 20 19 15 20 18 21 23 22 21 24 16 26 17 27
REMARK SMILES IDX 19 29
REMARK H PARENT 6 12 1 15 23 23 21 25 17 28 19 30
REMARK Flexibility Score: inf
ROOT
ATOM      1  O   UNL     1     -18.378  31.723  -4.829  1.00  0.00    -0.310 OA
ENDROOT
BRANCH   1   2
ATOM      2  C   UNL     1     -19.789  31.768  -4.459  1.00  0.00     0.316 C 
ATOM      3  C   UNL     1     -22.138  32.224  -2.906  1.00  0.00     0.018 C 
ATOM      4  C   UNL     1     -21.466  33.251  -3.459  1.00  0.00     0.186 C 
ATOM      5  C   UNL     1     -21.735  30.770  -3.124  1.00  0.00     0.061 C 
ATOM      6  O   UNL     1     -20.159  33.067  -3.980  1.00  0.00    -0.472 OA
ATOM      7  C   UNL     1     -20.213  30.684  -3.416  1.00  0.00     0.096 C 
ATOM      8  C   UNL     1     -21.821  30.000  -1.782  1.00  0.00     0.145 C 
ATOM      9  C   UNL     1     -19.624  30.726  -2.023  1.00  0.00    -0.036 C 
ATOM     10  C   UNL     1     -20.525  30.327  -1.120  1.00  0.00     0.007 C 
BRANCH   8  11
ATOM     11  O   UNL     1     -22.937  30.360  -1.003  1.00  0.00    -0.388 OA
ATOM     12  H   UNL     1     -23.710  30.363  -1.630  1.00  0.00     0.211 HD
ENDBRANCH   8  11
BRANCH   9  13
ATOM     13  C   UNL     1     -18.157  30.853  -1.683  1.00  0.00     0.187 C 
BRANCH  13  14
ATOM     14  O   UNL     1     -17.426  29.926  -2.443  1.00  0.00    -0.392 OA
ATOM     15  H   UNL     1     -17.371  29.095  -1.892  1.00  0.00     0.211 HD
ENDBRANCH  13  14
ENDBRANCH   9  13
ENDBRANCH   1   2
BRANCH   1  16
ATOM     16  C   UNL     1     -18.057  30.604  -5.664  1.00  0.00     0.286 C 
ATOM     17  C   UNL     1     -18.010  30.811  -7.229  1.00  0.00     0.202 C 
ATOM     18  O   UNL     1     -16.862  29.958  -5.316  1.00  0.00    -0.341 OA
ATOM     19  C   UNL     1     -16.847  31.831  -7.419  1.00  0.00     0.179 C 
ATOM     20  C   UNL     1     -15.667  30.742  -5.464  1.00  0.00     0.178 C 
ATOM     21  C   UNL     1     -15.512  31.266  -6.945  1.00  0.00     0.177 C 
BRANCH  17  22
ATOM     22  O   UNL     1     -17.858  29.545  -7.887  1.00  0.00    -0.385 OA
ATOM     23  H   UNL     1     -18.130  29.701  -8.858  1.00  0.00     0.211 HD
ENDBRANCH  17  22
BRANCH  19  24
ATOM     24  O   UNL     1     -16.826  32.419  -8.712  1.00  0.00    -0.387 OA
ATOM     25  H   UNL     1     -16.352  31.734  -9.281  1.00  0.00     0.211 HD
ENDBRANCH  19  24
BRANCH  20  26
ATOM     26  C   UNL     1     -14.460  29.862  -5.056  1.00  0.00     0.191 C 
BRANCH  26  27
ATOM     27  O   UNL     1     -13.391  30.680  -4.651  1.00  0.00    -0.394 OA
ATOM     28  H   UNL     1     -12.876  30.160  -3.977  1.00  0.00     0.210 HD
ENDBRANCH  26  27
ENDBRANCH  20  26
BRANCH  21  29
ATOM     29  O   UNL     1     -14.546  32.331  -6.980  1.00  0.00    -0.387 OA
ATOM     30  H   UNL     1     -14.040  32.244  -6.100  1.00  0.00     0.211 HD
ENDBRANCH  21  29
ENDBRANCH   1  16
TORSDOF 10
ENDMDL
MODEL 3
REMARK VINA RESULT:    -5.502      2.514      4.250
REMARK INTER + INTRA:          -9.079
REMARK INTER:                  -8.031
REMARK INTRA:                  -1.047
REMARK UNBOUND:                -1.325
REMARK SMILES OCC1=C[C@@H](O)[C@H]2C=CO[C@@H](O[C@@H]3O[C@@H](CO)[C@H](O)[C@@H](O)[C@H]3O)[C@@H]12
REMARK SMILES IDX 12 1 11 2 8 3 9 4 7 5 10 6 24 7 5 8 3 9 4 10 6 11 2 13 1 14
REMARK SMILES IDX 13 16 22 17 14 18 20 19 15 20 18 21 23 22 21 24 16 26 17 27
REMARK SMILES IDX 19 29
REMARK H PARENT 6 12 1 15 23 23 21 25 17 28 19 30
REMARK Flexibility Score: inf
ROOT
ATOM      1  O   UNL     1     -19.484  32.292  -3.725  1.00  0.00    -0.310 OA
ENDROOT
BRANCH   1   2
ATOM      2  C   UNL     1     -18.479  32.576  -4.744  1.00  0.00     0.316 C 
ATOM      3  C   UNL     1     -16.628  32.153  -6.872  1.00  0.00     0.018 C 
ATOM      4  C   UNL     1     -17.954  32.143  -7.099  1.00  0.00     0.186 C 
ATOM      5  C   UNL     1     -16.034  32.453  -5.501  1.00  0.00     0.061 C 
ATOM      6  O   UNL     1     -18.875  32.064  -6.021  1.00  0.00    -0.472 OA
ATOM      7  C   UNL     1     -17.046  32.060  -4.392  1.00  0.00     0.096 C 
ATOM      8  C   UNL     1     -14.878  31.465  -5.208  1.00  0.00     0.145 C 
ATOM      9  C   UNL     1     -16.807  30.572  -4.263  1.00  0.00    -0.036 C 
ATOM     10  C   UNL     1     -15.586  30.252  -4.706  1.00  0.00     0.007 C 
BRANCH   8  11
ATOM     11  O   UNL     1     -14.073  31.199  -6.331  1.00  0.00    -0.388 OA
ATOM     12  H   UNL     1     -13.532  30.399  -6.090  1.00  0.00     0.211 HD
ENDBRANCH   8  11
BRANCH   9  13
ATOM     13  C   UNL     1     -17.638  29.606  -3.449  1.00  0.00     0.187 C 
BRANCH  13  14
ATOM     14  O   UNL     1     -18.816  29.308  -4.151  1.00  0.00    -0.392 OA
ATOM     15  H   UNL     1     -18.901  30.002  -4.864  1.00  0.00     0.211 HD
ENDBRANCH  13  14
ENDBRANCH   9  13
ENDBRANCH   1   2
BRANCH   1  16
ATOM     16  C   UNL     1     -20.824  32.473  -4.199  1.00  0.00     0.286 C 
ATOM     17  C   UNL     1     -21.737  31.201  -4.402  1.00  0.00     0.202 C 
ATOM     18  O   UNL     1     -21.578  33.383  -3.443  1.00  0.00    -0.341 OA
ATOM     19  C   UNL     1     -21.871  30.624  -2.960  1.00  0.00     0.179 C 
ATOM     20  C   UNL     1     -21.835  32.996  -2.083  1.00  0.00     0.178 C 
ATOM     21  C   UNL     1     -22.568  31.599  -2.019  1.00  0.00     0.177 C 
BRANCH  17  22
ATOM     22  O   UNL     1     -22.961  31.575  -5.052  1.00  0.00    -0.385 OA
ATOM     23  H   UNL     1     -22.687  31.991  -5.943  1.00  0.00     0.211 HD
ENDBRANCH  17  22
BRANCH  19  24
ATOM     24  O   UNL     1     -22.378  29.297  -2.936  1.00  0.00    -0.387 OA
ATOM     25  H   UNL     1     -23.012  29.296  -2.150  1.00  0.00     0.211 HD
ENDBRANCH  19  24
BRANCH  20  26
ATOM     26  C   UNL     1     -22.689  34.104  -1.420  1.00  0.00     0.191 C 
BRANCH  26  27
ATOM     27  O   UNL     1     -24.050  33.757  -1.482  1.00  0.00    -0.394 OA
ATOM     28  H   UNL     1     -24.375  34.044  -2.378  1.00  0.00     0.210 HD
ENDBRANCH  26  27
ENDBRANCH  20  26
BRANCH  21  29
ATOM     29  O   UNL     1     -22.475  31.068  -0.686  1.00  0.00    -0.387 OA
ATOM     30  H   UNL     1     -22.381  30.061  -0.819  1.00  0.00     0.211 HD
ENDBRANCH  21  29
ENDBRANCH   1  16
TORSDOF 10
ENDMDL
MODEL 4
REMARK VINA RESULT:    -5.474      2.310      6.791
REMARK INTER + INTRA:          -9.039
REMARK INTER:                  -8.219
REMARK INTRA:                  -0.820
REMARK UNBOUND:                -1.325
REMARK SMILES OCC1=C[C@@H](O)[C@H]2C=CO[C@@H](O[C@@H]3O[C@@H](CO)[C@H](O)[C@@H](O)[C@H]3O)[C@@H]12
REMARK SMILES IDX 12 1 11 2 8 3 9 4 7 5 10 6 24 7 5 8 3 9 4 10 6 11 2 13 1 14
REMARK SMILES IDX 13 16 22 17 14 18 20 19 15 20 18 21 23 22 21 24 16 26 17 27
REMARK SMILES IDX 19 29
REMARK H PARENT 6 12 1 15 23 23 21 25 17 28 19 30
REMARK Flexibility Score: inf
ROOT
ATOM      1  O   UNL     1     -19.111  31.498  -4.096  1.00  0.00    -0.310 OA
ENDROOT
BRANCH   1   2
ATOM      2  C   UNL     1     -20.033  30.418  -3.758  1.00  0.00     0.316 C 
ATOM      3  C   UNL     1     -22.477  28.983  -3.439  1.00  0.00     0.018 C 
ATOM      4  C   UNL     1     -21.939  29.167  -4.659  1.00  0.00     0.186 C 
ATOM      5  C   UNL     1     -21.795  29.463  -2.163  1.00  0.00     0.061 C 
ATOM      6  O   UNL     1     -20.896  30.110  -4.859  1.00  0.00    -0.472 OA
ATOM      7  C   UNL     1     -20.888  30.682  -2.477  1.00  0.00     0.096 C 
ATOM      8  C   UNL     1     -22.844  30.111  -1.225  1.00  0.00     0.145 C 
ATOM      9  C   UNL     1     -21.883  31.822  -2.474  1.00  0.00    -0.036 C 
ATOM     10  C   UNL     1     -22.965  31.499  -1.758  1.00  0.00     0.007 C 
BRANCH   8  11
ATOM     11  O   UNL     1     -24.074  29.427  -1.206  1.00  0.00    -0.388 OA
ATOM     12  H   UNL     1     -24.689  29.966  -1.773  1.00  0.00     0.211 HD
ENDBRANCH   8  11
BRANCH   9  13
ATOM     13  C   UNL     1     -21.603  33.246  -2.897  1.00  0.00     0.187 C 
BRANCH  13  14
ATOM     14  O   UNL     1     -21.783  33.358  -4.284  1.00  0.00    -0.392 OA
ATOM     15  H   UNL     1     -22.652  33.832  -4.417  1.00  0.00     0.211 HD
ENDBRANCH  13  14
ENDBRANCH   9  13
ENDBRANCH   1   2
BRANCH   1  16
ATOM     16  C   UNL     1     -17.900  31.456  -3.333  1.00  0.00     0.286 C 
ATOM     17  C   UNL     1     -17.292  30.050  -2.947  1.00  0.00     0.202 C 
ATOM     18  O   UNL     1     -16.849  32.200  -3.890  1.00  0.00    -0.341 OA
ATOM     19  C   UNL     1     -16.946  29.420  -4.330  1.00  0.00     0.179 C 
ATOM     20  C   UNL     1     -16.369  31.738  -5.163  1.00  0.00     0.178 C 
ATOM     21  C   UNL     1     -15.896  30.234  -5.079  1.00  0.00     0.177 C 
BRANCH  17  22
ATOM     22  O   UNL     1     -16.198  30.223  -2.036  1.00  0.00    -0.385 OA
ATOM     23  H   UNL     1     -16.323  29.515  -1.311  1.00  0.00     0.211 HD
ENDBRANCH  17  22
BRANCH  19  24
ATOM     24  O   UNL     1     -16.687  28.025  -4.258  1.00  0.00    -0.387 OA
ATOM     25  H   UNL     1     -15.705  27.951  -4.480  1.00  0.00     0.211 HD
ENDBRANCH  19  24
BRANCH  20  26
ATOM     26  C   UNL     1     -15.207  32.662  -5.604  1.00  0.00     0.191 C 
BRANCH  26  27
ATOM     27  O   UNL     1     -13.995  31.952  -5.572  1.00  0.00    -0.394 OA
ATOM     28  H   UNL     1     -13.270  32.624  -5.688  1.00  0.00     0.210 HD
ENDBRANCH  26  27
ENDBRANCH  20  26
BRANCH  21  29
ATOM     29  O   UNL     1     -15.783  29.691  -6.406  1.00  0.00    -0.387 OA
ATOM     30  H   UNL     1     -16.576  29.055  -6.490  1.00  0.00     0.211 HD
ENDBRANCH  21  29
ENDBRANCH   1  16
TORSDOF 10
ENDMDL
MODEL 5
REMARK VINA RESULT:    -5.418      2.712      7.685
REMARK INTER + INTRA:          -8.960
REMARK INTER:                  -8.136
REMARK INTRA:                  -0.825
REMARK UNBOUND:                -1.325
REMARK SMILES OCC1=C[C@@H](O)[C@H]2C=CO[C@@H](O[C@@H]3O[C@@H](CO)[C@H](O)[C@@H](O)[C@H]3O)[C@@H]12
REMARK SMILES IDX 12 1 11 2 8 3 9 4 7 5 10 6 24 7 5 8 3 9 4 10 6 11 2 13 1 14
REMARK SMILES IDX 13 16 22 17 14 18 20 19 15 20 18 21 23 22 21 24 16 26 17 27
REMARK SMILES IDX 19 29
REMARK H PARENT 6 12 1 15 23 23 21 25 17 28 19 30
REMARK Flexibility Score: inf
ROOT
ATOM      1  O   UNL     1     -17.463  32.489  -4.717  1.00  0.00    -0.310 OA
ENDROOT
BRANCH   1   2
ATOM      2  C   UNL     1     -18.898  32.340  -4.496  1.00  0.00     0.316 C 
ATOM      3  C   UNL     1     -21.417  32.336  -3.158  1.00  0.00     0.018 C 
ATOM      4  C   UNL     1     -20.819  33.492  -3.499  1.00  0.00     0.186 C 
ATOM      5  C   UNL     1     -20.832  30.974  -3.517  1.00  0.00     0.061 C 
ATOM      6  O   UNL     1     -19.456  33.516  -3.897  1.00  0.00    -0.472 OA
ATOM      7  C   UNL     1     -19.290  31.084  -3.653  1.00  0.00     0.096 C 
ATOM      8  C   UNL     1     -20.953  30.020  -2.302  1.00  0.00     0.145 C 
ATOM      9  C   UNL     1     -18.841  30.990  -2.212  1.00  0.00    -0.036 C 
ATOM     10  C   UNL     1     -19.770  30.380  -1.468  1.00  0.00     0.007 C 
BRANCH   8  11
ATOM     11  O   UNL     1     -22.169  30.154  -1.607  1.00  0.00    -0.388 OA
ATOM     12  H   UNL     1     -21.969  30.742  -0.829  1.00  0.00     0.211 HD
ENDBRANCH   8  11
BRANCH   9  13
ATOM     13  C   UNL     1     -17.435  31.216  -1.704  1.00  0.00     0.187 C 
BRANCH  13  14
ATOM     14  O   UNL     1     -16.633  30.122  -2.065  1.00  0.00    -0.392 OA
ATOM     15  H   UNL     1     -16.034  30.443  -2.796  1.00  0.00     0.211 HD
ENDBRANCH  13  14
ENDBRANCH   9  13
ENDBRANCH   1   2
BRANCH   1  16
ATOM     16  C   UNL     1     -17.035  31.953  -5.974  1.00  0.00     0.286 C 
ATOM     17  C   UNL     1     -15.764  32.577  -6.674  1.00  0.00     0.202 C 
ATOM     18  O   UNL     1     -16.836  30.564  -5.962  1.00  0.00    -0.341 OA
ATOM     19  C   UNL     1     -14.615  32.270  -5.666  1.00  0.00     0.179 C 
ATOM     20  C   UNL     1     -15.780  30.096  -5.108  1.00  0.00     0.178 C 
ATOM     21  C   UNL     1     -14.403  30.772  -5.483  1.00  0.00     0.177 C 
BRANCH  17  22
ATOM     22  O   UNL     1     -15.614  32.032  -7.993  1.00  0.00    -0.385 OA
ATOM     23  H   UNL     1     -15.585  31.019  -7.875  1.00  0.00     0.211 HD
ENDBRANCH  17  22
BRANCH  19  24
ATOM     24  O   UNL     1     -13.434  33.017  -5.923  1.00  0.00    -0.387 OA
ATOM     25  H   UNL     1     -13.779  33.919  -6.220  1.00  0.00     0.211 HD
ENDBRANCH  19  24
BRANCH  20  26
ATOM     26  C   UNL     1     -15.699  28.555  -5.242  1.00  0.00     0.191 C 
BRANCH  26  27
ATOM     27  O   UNL     1     -16.304  27.948  -4.128  1.00  0.00    -0.394 OA
ATOM     28  H   UNL     1     -16.356  28.645  -3.419  1.00  0.00     0.210 HD
ENDBRANCH  26  27
ENDBRANCH  20  26
BRANCH  21  29
ATOM     29  O   UNL     1     -13.467  30.587  -4.407  1.00  0.00    -0.387 OA
ATOM     30  H   UNL     1     -12.697  31.218  -4.628  1.00  0.00     0.211 HD
ENDBRANCH  21  29
ENDBRANCH   1  16
TORSDOF 10
ENDMDL
MODEL 6
REMARK VINA RESULT:    -5.400      1.685      3.301
REMARK INTER + INTRA:          -8.935
REMARK INTER:                  -7.931
REMARK INTRA:                  -1.005
REMARK UNBOUND:                -1.325
REMARK SMILES OCC1=C[C@@H](O)[C@H]2C=CO[C@@H](O[C@@H]3O[C@@H](CO)[C@H](O)[C@@H](O)[C@H]3O)[C@@H]12
REMARK SMILES IDX 12 1 11 2 8 3 9 4 7 5 10 6 24 7 5 8 3 9 4 10 6 11 2 13 1 14
REMARK SMILES IDX 13 16 22 17 14 18 20 19 15 20 18 21 23 22 21 24 16 26 17 27
REMARK SMILES IDX 19 29
REMARK H PARENT 6 12 1 15 23 23 21 25 17 28 19 30
REMARK Flexibility Score: inf
ROOT
ATOM      1  O   UNL     1     -20.791  31.145  -3.180  1.00  0.00    -0.310 OA
ENDROOT
BRANCH   1   2
ATOM      2  C   UNL     1     -19.441  30.824  -2.727  1.00  0.00     0.316 C 
ATOM      3  C   UNL     1     -16.633  31.069  -2.286  1.00  0.00     0.018 C 
ATOM      4  C   UNL     1     -17.509  31.815  -1.588  1.00  0.00     0.186 C 
ATOM      5  C   UNL     1     -17.076  30.014  -3.293  1.00  0.00     0.061 C 
ATOM      6  O   UNL     1     -18.867  31.912  -1.993  1.00  0.00    -0.472 OA
ATOM      7  C   UNL     1     -18.467  30.389  -3.870  1.00  0.00     0.096 C 
ATOM      8  C   UNL     1     -16.196  30.106  -4.564  1.00  0.00     0.145 C 
ATOM      9  C   UNL     1     -18.101  31.385  -4.948  1.00  0.00    -0.036 C 
ATOM     10  C   UNL     1     -16.835  31.208  -5.341  1.00  0.00     0.007 C 
BRANCH   8  11
ATOM     11  O   UNL     1     -14.839  30.354  -4.285  1.00  0.00    -0.388 OA
ATOM     12  H   UNL     1     -14.830  30.863  -3.430  1.00  0.00     0.211 HD
ENDBRANCH   8  11
BRANCH   9  13
ATOM     13  C   UNL     1     -19.070  32.233  -5.741  1.00  0.00     0.187 C 
BRANCH  13  14
ATOM     14  O   UNL     1     -19.490  33.313  -4.950  1.00  0.00    -0.392 OA
ATOM     15  H   UNL     1     -18.669  33.675  -4.512  1.00  0.00     0.211 HD
ENDBRANCH  13  14
ENDBRANCH   9  13
ENDBRANCH   1   2
BRANCH   1  16
ATOM     16  C   UNL     1     -21.740  31.192  -2.109  1.00  0.00     0.286 C 
ATOM     17  C   UNL     1     -23.185  31.762  -2.397  1.00  0.00     0.202 C 
ATOM     18  O   UNL     1     -21.925  29.964  -1.456  1.00  0.00    -0.341 OA
ATOM     19  C   UNL     1     -23.765  30.755  -3.436  1.00  0.00     0.179 C 
ATOM     20  C   UNL     1     -22.491  28.915  -2.258  1.00  0.00     0.178 C 
ATOM     21  C   UNL     1     -23.885  29.349  -2.860  1.00  0.00     0.177 C 
BRANCH  17  22
ATOM     22  O   UNL     1     -23.913  31.896  -1.168  1.00  0.00    -0.385 OA
ATOM     23  H   UNL     1     -24.882  32.074  -1.436  1.00  0.00     0.211 HD
ENDBRANCH  17  22
BRANCH  19  24
ATOM     24  O   UNL     1     -24.929  31.238  -4.091  1.00  0.00    -0.387 OA
ATOM     25  H   UNL     1     -25.325  31.890  -3.429  1.00  0.00     0.211 HD
ENDBRANCH  19  24
BRANCH  20  26
ATOM     26  C   UNL     1     -22.637  27.654  -1.370  1.00  0.00     0.191 C 
BRANCH  26  27
ATOM     27  O   UNL     1     -23.972  27.517  -0.954  1.00  0.00    -0.394 OA
ATOM     28  H   UNL     1     -24.133  28.230  -0.279  1.00  0.00     0.210 HD
ENDBRANCH  26  27
ENDBRANCH  20  26
BRANCH  21  29
ATOM     29  O   UNL     1     -24.242  28.462  -3.934  1.00  0.00    -0.387 OA
ATOM     30  H   UNL     1     -24.580  29.079  -4.672  1.00  0.00     0.211 HD
ENDBRANCH  21  29
ENDBRANCH   1  16
TORSDOF 10
ENDMDL
MODEL 7
REMARK VINA RESULT:    -5.350      2.671      7.360
REMARK INTER + INTRA:          -8.864
REMARK INTER:                  -7.820
REMARK INTRA:                  -1.044
REMARK UNBOUND:                -1.325
REMARK SMILES OCC1=C[C@@H](O)[C@H]2C=CO[C@@H](O[C@@H]3O[C@@H](CO)[C@H](O)[C@@H](O)[C@H]3O)[C@@H]12
REMARK SMILES IDX 12 1 11 2 8 3 9 4 7 5 10 6 24 7 5 8 3 9 4 10 6 11 2 13 1 14
REMARK SMILES IDX 13 16 22 17 14 18 20 19 15 20 18 21 23 22 21 24 16 26 17 27
REMARK SMILES IDX 19 29
REMARK H PARENT 6 12 1 15 23 23 21 25 17 28 19 30
REMARK Flexibility Score: inf
ROOT
ATOM      1  O   UNL     1     -18.074  30.956  -3.827  1.00  0.00    -0.310 OA
ENDROOT
BRANCH   1   2
ATOM      2  C   UNL     1     -19.193  30.162  -3.330  1.00  0.00     0.316 C 
ATOM      3  C   UNL     1     -21.867  29.248  -2.944  1.00  0.00     0.018 C 
ATOM      4  C   UNL     1     -21.211  28.997  -4.092  1.00  0.00     0.186 C 
ATOM      5  C   UNL     1     -21.215  29.966  -1.768  1.00  0.00     0.061 C 
ATOM      6  O   UNL     1     -20.008  29.682  -4.406  1.00  0.00    -0.472 OA
ATOM      7  C   UNL     1     -20.088  30.901  -2.282  1.00  0.00     0.096 C 
ATOM      8  C   UNL     1     -22.206  30.999  -1.175  1.00  0.00     0.145 C 
ATOM      9  C   UNL     1     -20.866  32.127  -2.707  1.00  0.00    -0.036 C 
ATOM     10  C   UNL     1     -22.041  32.181  -2.070  1.00  0.00     0.007 C 
BRANCH   8  11
ATOM     11  O   UNL     1     -23.533  30.534  -1.126  1.00  0.00    -0.388 OA
ATOM     12  H   UNL     1     -23.951  30.830  -1.980  1.00  0.00     0.211 HD
ENDBRANCH   8  11
BRANCH   9  13
ATOM     13  C   UNL     1     -20.311  33.315  -3.458  1.00  0.00     0.187 C 
BRANCH  13  14
ATOM     14  O   UNL     1     -20.225  32.998  -4.822  1.00  0.00    -0.392 OA
ATOM     15  H   UNL     1     -20.192  33.869  -5.311  1.00  0.00     0.211 HD
ENDBRANCH  13  14
ENDBRANCH   9  13
ENDBRANCH   1   2
BRANCH   1  16
ATOM     16  C   UNL     1     -17.764  30.684  -5.199  1.00  0.00     0.286 C 
ATOM     17  C   UNL     1     -17.118  31.828  -6.075  1.00  0.00     0.202 C 
ATOM     18  O   UNL     1     -16.967  29.545  -5.388  1.00  0.00    -0.341 OA
ATOM     19  C   UNL     1     -15.750  32.085  -5.373  1.00  0.00     0.179 C 
ATOM     20  C   UNL     1     -15.644  29.616  -4.833  1.00  0.00     0.178 C 
ATOM     21  C   UNL     1     -14.852  30.853  -5.410  1.00  0.00     0.177 C 
BRANCH  17  22
ATOM     22  O   UNL     1     -17.059  31.420  -7.449  1.00  0.00    -0.385 OA
ATOM     23  H   UNL     1     -17.954  30.970  -7.645  1.00  0.00     0.211 HD
ENDBRANCH  17  22
BRANCH  19  24
ATOM     24  O   UNL     1     -15.130  33.294  -5.785  1.00  0.00    -0.387 OA
ATOM     25  H   UNL     1     -14.399  33.435  -5.103  1.00  0.00     0.211 HD
ENDBRANCH  19  24
BRANCH  20  26
ATOM     26  C   UNL     1     -14.915  28.288  -5.156  1.00  0.00     0.191 C 
BRANCH  26  27
ATOM     27  O   UNL     1     -13.577  28.365  -4.731  1.00  0.00    -0.394 OA
ATOM     28  H   UNL     1     -13.037  27.868  -5.404  1.00  0.00     0.210 HD
ENDBRANCH  26  27
ENDBRANCH  20  26
BRANCH  21  29
ATOM     29  O   UNL     1     -13.705  31.119  -4.582  1.00  0.00    -0.387 OA
ATOM     30  H   UNL     1     -12.908  31.008  -5.208  1.00  0.00     0.211 HD
ENDBRANCH  21  29
ENDBRANCH   1  16
TORSDOF 10
ENDMDL
MODEL 8
REMARK VINA RESULT:    -5.319      3.006      7.807
REMARK INTER + INTRA:          -8.821
REMARK INTER:                  -7.766
REMARK INTRA:                  -1.054
REMARK UNBOUND:                -1.325
REMARK SMILES OCC1=C[C@@H](O)[C@H]2C=CO[C@@H](O[C@@H]3O[C@@H](CO)[C@H](O)[C@@H](O)[C@H]3O)[C@@H]12
REMARK SMILES IDX 12 1 11 2 8 3 9 4 7 5 10 6 24 7 5 8 3 9 4 10 6 11 2 13 1 14
REMARK SMILES IDX 13 16 22 17 14 18 20 19 15 20 18 21 23 22 21 24 16 26 17 27
REMARK SMILES IDX 19 29
REMARK H PARENT 6 12 1 15 23 23 21 25 17 28 19 30
REMARK Flexibility Score: inf
ROOT
ATOM      1  O   UNL     1     -17.814  30.957  -5.436  1.00  0.00    -0.310 OA
ENDROOT
BRANCH   1   2
ATOM      2  C   UNL     1     -19.126  31.286  -4.888  1.00  0.00     0.316 C 
ATOM      3  C   UNL     1     -21.107  32.308  -3.109  1.00  0.00     0.018 C 
ATOM      4  C   UNL     1     -20.378  33.136  -3.880  1.00  0.00     0.186 C 
ATOM      5  C   UNL     1     -20.973  30.792  -3.182  1.00  0.00     0.061 C 
ATOM      6  O   UNL     1     -19.212  32.673  -4.543  1.00  0.00    -0.472 OA
ATOM      7  C   UNL     1     -19.546  30.412  -3.662  1.00  0.00     0.096 C 
ATOM      8  C   UNL     1     -20.968  30.201  -1.750  1.00  0.00     0.145 C 
ATOM      9  C   UNL     1     -18.749  30.505  -2.379  1.00  0.00    -0.036 C 
ATOM     10  C   UNL     1     -19.550  30.370  -1.317  1.00  0.00     0.007 C 
BRANCH   8  11
ATOM     11  O   UNL     1     -21.880  30.832  -0.883  1.00  0.00    -0.388 OA
ATOM     12  H   UNL     1     -21.713  30.435   0.015  1.00  0.00     0.211 HD
ENDBRANCH   8  11
BRANCH   9  13
ATOM     13  C   UNL     1     -17.245  30.414  -2.260  1.00  0.00     0.187 C 
BRANCH  13  14
ATOM     14  O   UNL     1     -16.775  29.414  -3.126  1.00  0.00    -0.392 OA
ATOM     15  H   UNL     1     -17.077  28.544  -2.740  1.00  0.00     0.211 HD
ENDBRANCH  13  14
ENDBRANCH   9  13
ENDBRANCH   1   2
BRANCH   1  16
ATOM     16  C   UNL     1     -17.041  32.117  -5.765  1.00  0.00     0.286 C 
ATOM     17  C   UNL     1     -15.641  32.323  -5.065  1.00  0.00     0.202 C 
ATOM     18  O   UNL     1     -16.822  32.284  -7.141  1.00  0.00    -0.341 OA
ATOM     19  C   UNL     1     -14.809  31.103  -5.565  1.00  0.00     0.179 C 
ATOM     20  C   UNL     1     -16.035  31.261  -7.772  1.00  0.00     0.178 C 
ATOM     21  C   UNL     1     -14.624  31.122  -7.078  1.00  0.00     0.177 C 
BRANCH  17  22
ATOM     22  O   UNL     1     -15.119  33.621  -5.386  1.00  0.00    -0.385 OA
ATOM     23  H   UNL     1     -14.569  33.909  -4.575  1.00  0.00     0.211 HD
ENDBRANCH  17  22
BRANCH  19  24
ATOM     24  O   UNL     1     -13.621  30.893  -4.815  1.00  0.00    -0.387 OA
ATOM     25  H   UNL     1     -12.891  30.910  -5.512  1.00  0.00     0.211 HD
ENDBRANCH  19  24
BRANCH  20  26
ATOM     26  C   UNL     1     -15.885  31.623  -9.270  1.00  0.00     0.191 C 
BRANCH  26  27
ATOM     27  O   UNL     1     -17.135  31.990  -9.798  1.00  0.00    -0.394 OA
ATOM     28  H   UNL     1     -17.027  32.907 -10.169  1.00  0.00     0.210 HD
ENDBRANCH  26  27
ENDBRANCH  20  26
BRANCH  21  29
ATOM     29  O   UNL     1     -14.019  29.875  -7.463  1.00  0.00    -0.387 OA
ATOM     30  H   UNL     1     -14.196  29.805  -8.464  1.00  0.00     0.211 HD
ENDBRANCH  21  29
ENDBRANCH   1  16
TORSDOF 10
ENDMDL
MODEL 9
REMARK VINA RESULT:    -5.246      2.126      6.699
REMARK INTER + INTRA:          -8.717
REMARK INTER:                  -7.784
REMARK INTRA:                  -0.933
REMARK UNBOUND:                -1.325
REMARK SMILES OCC1=C[C@@H](O)[C@H]2C=CO[C@@H](O[C@@H]3O[C@@H](CO)[C@H](O)[C@@H](O)[C@H]3O)[C@@H]12
REMARK SMILES IDX 12 1 11 2 8 3 9 4 7 5 10 6 24 7 5 8 3 9 4 10 6 11 2 13 1 14
REMARK SMILES IDX 13 16 22 17 14 18 20 19 15 20 18 21 23 22 21 24 16 26 17 27
REMARK SMILES IDX 19 29
REMARK H PARENT 6 12 1 15 23 23 21 25 17 28 19 30
REMARK Flexibility Score: inf
ROOT
ATOM      1  O   UNL     1     -20.488  30.873  -5.395  1.00  0.00    -0.310 OA
ENDROOT
BRANCH   1   2
ATOM      2  C   UNL     1     -21.628  30.090  -4.929  1.00  0.00     0.316 C 
ATOM      3  C   UNL     1     -24.224  29.476  -3.919  1.00  0.00     0.018 C 
ATOM      4  C   UNL     1     -24.058  29.892  -5.188  1.00  0.00     0.186 C 
ATOM      5  C   UNL     1     -23.051  29.245  -2.973  1.00  0.00     0.061 C 
ATOM      6  O   UNL     1     -22.830  30.468  -5.609  1.00  0.00    -0.472 OA
ATOM      7  C   UNL     1     -21.858  30.148  -3.384  1.00  0.00     0.096 C 
ATOM      8  C   UNL     1     -23.389  29.823  -1.575  1.00  0.00     0.145 C 
ATOM      9  C   UNL     1     -22.226  31.467  -2.740  1.00  0.00    -0.036 C 
ATOM     10  C   UNL     1     -23.069  31.272  -1.720  1.00  0.00     0.007 C 
BRANCH   8  11
ATOM     11  O   UNL     1     -24.722  29.596  -1.186  1.00  0.00    -0.388 OA
ATOM     12  H   UNL     1     -25.005  28.773  -1.667  1.00  0.00     0.211 HD
ENDBRANCH   8  11
BRANCH   9  13
ATOM     13  C   UNL     1     -21.515  32.785  -2.947  1.00  0.00     0.187 C 
BRANCH  13  14
ATOM     14  O   UNL     1     -21.886  33.317  -4.191  1.00  0.00    -0.392 OA
ATOM     15  H   UNL     1     -22.729  33.830  -4.037  1.00  0.00     0.211 HD
ENDBRANCH  13  14
ENDBRANCH   9  13
ENDBRANCH   1   2
BRANCH   1  16
ATOM     16  C   UNL     1     -19.304  30.085  -5.567  1.00  0.00     0.286 C 
ATOM     17  C   UNL     1     -18.254  30.519  -6.664  1.00  0.00     0.202 C 
ATOM     18  O   UNL     1     -18.578  29.882  -4.384  1.00  0.00    -0.341 OA
ATOM     19  C   UNL     1     -17.768  31.912  -6.160  1.00  0.00     0.179 C 
ATOM     20  C   UNL     1     -18.018  31.064  -3.790  1.00  0.00     0.178 C 
ATOM     21  C   UNL     1     -17.073  31.817  -4.807  1.00  0.00     0.177 C 
BRANCH  17  22
ATOM     22  O   UNL     1     -17.246  29.508  -6.804  1.00  0.00    -0.385 OA
ATOM     23  H   UNL     1     -17.676  28.758  -7.347  1.00  0.00     0.211 HD
ENDBRANCH  17  22
BRANCH  19  24
ATOM     24  O   UNL     1     -17.062  32.647  -7.149  1.00  0.00    -0.387 OA
ATOM     25  H   UNL     1     -17.786  33.157  -7.634  1.00  0.00     0.211 HD
ENDBRANCH  19  24
BRANCH  20  26
ATOM     26  C   UNL     1     -17.242  30.643  -2.517  1.00  0.00     0.191 C 
BRANCH  26  27
ATOM     27  O   UNL     1     -16.196  29.771  -2.864  1.00  0.00    -0.394 OA
ATOM     28  H   UNL     1     -16.016  29.211  -2.061  1.00  0.00     0.210 HD
ENDBRANCH  26  27
ENDBRANCH  20  26
BRANCH  21  29
ATOM     29  O   UNL     1     -16.834  33.156  -4.340  1.00  0.00    -0.387 OA
ATOM     30  H   UNL     1     -16.226  33.039  -3.530  1.00  0.00     0.211 HD
ENDBRANCH  21  29
ENDBRANCH   1  16
TORSDOF 10
ENDMDL
