MODEL 1
REMARK VINA RESULT:    -7.970      0.000      0.000
REMARK INTER + INTRA:          -8.619
REMARK INTER:                  -8.669
REMARK INTRA:                   0.050
REMARK UNBOUND:                 0.050
REMARK SMILES C[C@@H]1[C@H](C)CC[C@]2(C(=O)[O-])CC[C@]3(C)C(=CC[C@H]4[C@]5(C)CC[C@H](O)C(C)(C)[C@H]5CC[C@@]43C)[C@@H]12
REMARK SMILES IDX 7 1 6 2 11 3 33 4 5 5 12 6 15 7 2 8 3 9 13 10 16 11 1 12
REMARK SMILES IDX 4 13 14 14 31 15 17 16 18 17 30 18 32 19 19 20 29 21 28 22
REMARK SMILES IDX 21 23 20 24 25 25 22 26 23 27 26 28 27 29 8 30 9 31 10 32
REMARK SMILES IDX 24 33
REMARK H PARENT 24 34
REMARK Flexibility Score: inf
ROOT
ATOM      1  C   UNL     1     174.531 173.578 177.045  1.00  0.00     0.017 C 
ATOM      2  C   UNL     1     175.628 173.355 178.144  1.00  0.00     0.014 C 
ATOM      3  C   UNL     1     175.053 174.580 175.957  1.00  0.00     0.014 C 
ATOM      4  C   UNL     1     173.269 174.148 177.775  1.00  0.00     0.030 C 
ATOM      5  C   UNL     1     175.073 172.884 179.515  1.00  0.00     0.004 C 
ATOM      6  C   UNL     1     174.596 176.028 176.219  1.00  0.00     0.013 C 
ATOM      7  C   UNL     1     172.389 174.919 176.783  1.00  0.00    -0.063 C 
ATOM      8  C   UNL     1     172.610 173.102 178.740  1.00  0.00    -0.003 C 
ATOM      9  C   UNL     1     173.701 172.185 179.408  1.00  0.00    -0.011 C 
ATOM     10  C   UNL     1     173.020 176.200 176.152  1.00  0.00    -0.006 C 
ATOM     11  C   UNL     1     171.215 174.404 176.350  1.00  0.00    -0.027 C 
ATOM     12  C   UNL     1     171.711 173.837 179.757  1.00  0.00     0.008 C 
ATOM     13  C   UNL     1     173.290 171.591 180.766  1.00  0.00     0.008 C 
ATOM     14  C   UNL     1     172.701 177.338 177.170  1.00  0.00     0.017 C 
ATOM     15  C   UNL     1     172.445 176.534 174.637  1.00  0.00    -0.020 C 
ATOM     16  C   UNL     1     170.575 174.858 175.080  1.00  0.00     0.032 C 
ATOM     17  C   UNL     1     171.681 175.269 174.084  1.00  0.00     0.006 C 
ATOM     18  C   UNL     1     173.582 176.872 173.612  1.00  0.00     0.008 C 
ATOM     19  C   UNL     1     171.507 177.792 174.668  1.00  0.00     0.012 C 
ATOM     20  C   UNL     1     171.239 175.236 172.553  1.00  0.00    -0.025 C 
ATOM     21  C   UNL     1     173.122 176.964 172.148  1.00  0.00     0.005 C 
ATOM     22  C   UNL     1     172.485 175.634 171.680  1.00  0.00     0.003 C 
ATOM     23  C   UNL     1     170.829 173.755 172.190  1.00  0.00     0.010 C 
ATOM     24  C   UNL     1     170.008 176.159 172.286  1.00  0.00     0.012 C 
ATOM     25  C   UNL     1     172.303 175.507 170.104  1.00  0.00    -0.006 C 
ATOM     26  C   UNL     1     171.250 173.270 170.787  1.00  0.00     0.033 C 
ATOM     27  C   UNL     1     171.247 174.401 169.752  1.00  0.00     0.120 C 
ATOM     28  C   UNL     1     173.680 175.132 169.482  1.00  0.00     0.014 C 
ATOM     29  C   UNL     1     171.853 176.832 169.439  1.00  0.00     0.014 C 
ENDROOT
BRANCH   1  30
ATOM     30  C   UNL     1     174.215 172.268 176.323  1.00  0.00     0.048 C 
ATOM     31  O   UNL     1     174.886 171.226 176.550  1.00  0.00    -0.550 OA
ATOM     32  O   UNL     1     173.253 172.231 175.321  1.00  0.00    -0.550 OA
ENDBRANCH   1  30
BRANCH  27  33
ATOM     33  O   UNL     1     171.484 173.867 168.470  1.00  0.00    -0.393 OA
ATOM     34  H   UNL     1     171.119 174.512 167.810  1.00  0.00     0.210 HD
ENDBRANCH  27  33
TORSDOF 2
ENDMDL
MODEL 2
REMARK VINA RESULT:    -7.952      2.992      5.315
REMARK INTER + INTRA:          -8.599
REMARK INTER:                  -8.650
REMARK INTRA:                   0.051
REMARK UNBOUND:                 0.050
REMARK SMILES C[C@@H]1[C@H](C)CC[C@]2(C(=O)[O-])CC[C@]3(C)C(=CC[C@H]4[C@]5(C)CC[C@H](O)C(C)(C)[C@H]5CC[C@@]43C)[C@@H]12
REMARK SMILES IDX 7 1 6 2 11 3 33 4 5 5 12 6 15 7 2 8 3 9 13 10 16 11 1 12
REMARK SMILES IDX 4 13 14 14 31 15 17 16 18 17 30 18 32 19 19 20 29 21 28 22
REMARK SMILES IDX 21 23 20 24 25 25 22 26 23 27 26 28 27 29 8 30 9 31 10 32
REMARK SMILES IDX 24 33
REMARK H PARENT 24 34
REMARK Flexibility Score: inf
ROOT
ATOM      1  C   UNL     1     171.854 172.802 177.047  1.00  0.00     0.017 C 
ATOM      2  C   UNL     1     170.731 172.979 178.126  1.00  0.00     0.014 C 
ATOM      3  C   UNL     1     171.372 171.824 175.920  1.00  0.00     0.014 C 
ATOM      4  C   UNL     1     173.108 172.230 177.789  1.00  0.00     0.030 C 
ATOM      5  C   UNL     1     171.247 173.417 179.523  1.00  0.00     0.004 C 
ATOM      6  C   UNL     1     171.845 170.377 176.150  1.00  0.00     0.013 C 
ATOM      7  C   UNL     1     174.022 171.500 176.796  1.00  0.00    -0.063 C 
ATOM      8  C   UNL     1     173.730 173.256 178.798  1.00  0.00    -0.003 C 
ATOM      9  C   UNL     1     172.611 174.139 179.467  1.00  0.00    -0.011 C 
ATOM     10  C   UNL     1     173.424 170.229 176.114  1.00  0.00    -0.006 C 
ATOM     11  C   UNL     1     175.197 172.044 176.404  1.00  0.00    -0.027 C 
ATOM     12  C   UNL     1     174.617 172.505 179.814  1.00  0.00     0.008 C 
ATOM     13  C   UNL     1     172.983 174.699 180.850  1.00  0.00     0.008 C 
ATOM     14  C   UNL     1     173.738 169.067 177.107  1.00  0.00     0.017 C 
ATOM     15  C   UNL     1     174.038 169.947 174.604  1.00  0.00    -0.020 C 
ATOM     16  C   UNL     1     175.872 171.636 175.137  1.00  0.00     0.032 C 
ATOM     17  C   UNL     1     174.795 171.238 174.105  1.00  0.00     0.006 C 
ATOM     18  C   UNL     1     172.929 169.622 173.544  1.00  0.00     0.008 C 
ATOM     19  C   UNL     1     174.993 168.702 174.621  1.00  0.00     0.012 C 
ATOM     20  C   UNL     1     175.270 171.322 172.586  1.00  0.00    -0.025 C 
ATOM     21  C   UNL     1     173.423 169.579 172.089  1.00  0.00     0.005 C 
ATOM     22  C   UNL     1     174.050 170.931 171.673  1.00  0.00     0.003 C 
ATOM     23  C   UNL     1     175.666 172.818 172.274  1.00  0.00     0.010 C 
ATOM     24  C   UNL     1     176.521 170.424 172.320  1.00  0.00     0.012 C 
ATOM     25  C   UNL     1     174.266 171.106 170.107  1.00  0.00    -0.006 C 
ATOM     26  C   UNL     1     175.270 173.336 170.877  1.00  0.00     0.033 C 
ATOM     27  C   UNL     1     175.312 172.237 169.810  1.00  0.00     0.120 C 
ATOM     28  C   UNL     1     172.897 171.478 169.464  1.00  0.00     0.014 C 
ATOM     29  C   UNL     1     174.750 169.806 169.414  1.00  0.00     0.014 C 
ENDROOT
BRANCH   1  30
ATOM     30  C   UNL     1     172.168 174.137 176.370  1.00  0.00     0.048 C 
ATOM     31  O   UNL     1     171.480 175.163 176.616  1.00  0.00    -0.550 OA
ATOM     32  O   UNL     1     173.147 174.216 175.387  1.00  0.00    -0.550 OA
ENDBRANCH   1  30
BRANCH  27  33
ATOM     33  O   UNL     1     175.096 172.804 168.539  1.00  0.00    -0.393 OA
ATOM     34  H   UNL     1     175.180 173.788 168.637  1.00  0.00     0.210 HD
ENDBRANCH  27  33
TORSDOF 2
ENDMDL
MODEL 3
REMARK VINA RESULT:    -7.695      3.525      7.805
REMARK INTER + INTRA:          -8.319
REMARK INTER:                  -8.374
REMARK INTRA:                   0.055
REMARK UNBOUND:                 0.050
REMARK SMILES C[C@@H]1[C@H](C)CC[C@]2(C(=O)[O-])CC[C@]3(C)C(=CC[C@H]4[C@]5(C)CC[C@H](O)C(C)(C)[C@H]5CC[C@@]43C)[C@@H]12
REMARK SMILES IDX 7 1 6 2 11 3 33 4 5 5 12 6 15 7 2 8 3 9 13 10 16 11 1 12
REMARK SMILES IDX 4 13 14 14 31 15 17 16 18 17 30 18 32 19 19 20 29 21 28 22
REMARK SMILES IDX 21 23 20 24 25 25 22 26 23 27 26 28 27 29 8 30 9 31 10 32
REMARK SMILES IDX 24 33
REMARK H PARENT 24 34
REMARK Flexibility Score: inf
ROOT
ATOM      1  C   UNL     1     174.655 169.032 173.482  1.00  0.00     0.017 C 
ATOM      2  C   UNL     1     174.588 167.769 172.555  1.00  0.00     0.014 C 
ATOM      3  C   UNL     1     173.474 169.008 174.514  1.00  0.00     0.014 C 
ATOM      4  C   UNL     1     174.558 170.284 172.547  1.00  0.00     0.030 C 
ATOM      5  C   UNL     1     175.293 167.943 171.183  1.00  0.00     0.004 C 
ATOM      6  C   UNL     1     172.264 169.839 174.048  1.00  0.00     0.013 C 
ATOM      7  C   UNL     1     174.045 171.494 173.337  1.00  0.00    -0.063 C 
ATOM      8  C   UNL     1     175.816 170.443 171.624  1.00  0.00    -0.003 C 
ATOM      9  C   UNL     1     176.382 169.038 171.194  1.00  0.00    -0.011 C 
ATOM     10  C   UNL     1     172.594 171.384 173.903  1.00  0.00    -0.006 C 
ATOM     11  C   UNL     1     174.876 172.507 173.675  1.00  0.00    -0.027 C 
ATOM     12  C   UNL     1     175.467 171.361 170.433  1.00  0.00     0.008 C 
ATOM     13  C   UNL     1     177.157 169.043 169.866  1.00  0.00     0.008 C 
ATOM     14  C   UNL     1     171.680 171.879 172.740  1.00  0.00     0.017 C 
ATOM     15  C   UNL     1     172.365 172.252 175.293  1.00  0.00    -0.020 C 
ATOM     16  C   UNL     1     174.570 173.437 174.803  1.00  0.00     0.032 C 
ATOM     17  C   UNL     1     173.771 172.670 175.878  1.00  0.00     0.006 C 
ATOM     18  C   UNL     1     171.623 171.438 176.408  1.00  0.00     0.008 C 
ATOM     19  C   UNL     1     171.472 173.512 175.015  1.00  0.00     0.012 C 
ATOM     20  C   UNL     1     173.847 173.303 177.338  1.00  0.00    -0.025 C 
ATOM     21  C   UNL     1     171.591 172.117 177.787  1.00  0.00     0.005 C 
ATOM     22  C   UNL     1     173.022 172.381 178.311  1.00  0.00     0.003 C 
ATOM     23  C   UNL     1     175.356 173.293 177.802  1.00  0.00     0.010 C 
ATOM     24  C   UNL     1     173.345 174.782 177.354  1.00  0.00     0.012 C 
ATOM     25  C   UNL     1     173.103 172.749 179.856  1.00  0.00    -0.006 C 
ATOM     26  C   UNL     1     175.596 172.958 179.288  1.00  0.00     0.033 C 
ATOM     27  C   UNL     1     174.462 173.459 180.191  1.00  0.00     0.120 C 
ATOM     28  C   UNL     1     172.985 171.432 180.679  1.00  0.00     0.014 C 
ATOM     29  C   UNL     1     171.949 173.674 180.319  1.00  0.00     0.014 C 
ENDROOT
BRANCH   1  30
ATOM     30  C   UNL     1     175.951 169.039 174.293  1.00  0.00     0.048 C 
ATOM     31  O   UNL     1     176.721 168.043 174.289  1.00  0.00    -0.550 OA
ATOM     32  O   UNL     1     176.247 170.102 175.138  1.00  0.00    -0.550 OA
ENDBRANCH   1  30
BRANCH  27  33
ATOM     33  O   UNL     1     174.814 173.265 181.541  1.00  0.00    -0.393 OA
ATOM     34  H   UNL     1     175.082 174.148 181.906  1.00  0.00     0.210 HD
ENDBRANCH  27  33
TORSDOF 2
ENDMDL
MODEL 4
REMARK VINA RESULT:    -7.597      2.452      7.616
REMARK INTER + INTRA:          -8.213
REMARK INTER:                  -8.377
REMARK INTRA:                   0.164
REMARK UNBOUND:                 0.050
REMARK SMILES C[C@@H]1[C@H](C)CC[C@]2(C(=O)[O-])CC[C@]3(C)C(=CC[C@H]4[C@]5(C)CC[C@H](O)C(C)(C)[C@H]5CC[C@@]43C)[C@@H]12
REMARK SMILES IDX 7 1 6 2 11 3 33 4 5 5 12 6 15 7 2 8 3 9 13 10 16 11 1 12
REMARK SMILES IDX 4 13 14 14 31 15 17 16 18 17 30 18 32 19 19 20 29 21 28 22
REMARK SMILES IDX 21 23 20 24 25 25 22 26 23 27 26 28 27 29 8 30 9 31 10 32
REMARK SMILES IDX 24 33
REMARK H PARENT 24 34
REMARK Flexibility Score: inf
ROOT
ATOM      1  C   UNL     1     171.431 177.501 173.587  1.00  0.00     0.017 C 
ATOM      2  C   UNL     1     171.456 178.795 172.702  1.00  0.00     0.014 C 
ATOM      3  C   UNL     1     172.648 177.500 174.577  1.00  0.00     0.014 C 
ATOM      4  C   UNL     1     171.502 176.282 172.608  1.00  0.00     0.030 C 
ATOM      5  C   UNL     1     170.703 178.661 171.351  1.00  0.00     0.004 C 
ATOM      6  C   UNL     1     173.846 176.695 174.040  1.00  0.00     0.013 C 
ATOM      7  C   UNL     1     172.052 175.050 173.338  1.00  0.00    -0.063 C 
ATOM      8  C   UNL     1     170.213 176.144 171.726  1.00  0.00    -0.003 C 
ATOM      9  C   UNL     1     169.623 177.558 171.364  1.00  0.00    -0.011 C 
ATOM     10  C   UNL     1     173.522 175.153 173.855  1.00  0.00    -0.006 C 
ATOM     11  C   UNL     1     171.240 174.019 173.672  1.00  0.00    -0.027 C 
ATOM     12  C   UNL     1     170.526 175.269 170.493  1.00  0.00     0.008 C 
ATOM     13  C   UNL     1     168.800 177.591 170.066  1.00  0.00     0.008 C 
ATOM     14  C   UNL     1     174.397 174.705 172.644  1.00  0.00     0.017 C 
ATOM     15  C   UNL     1     173.806 174.241 175.206  1.00  0.00    -0.020 C 
ATOM     16  C   UNL     1     171.593 173.055 174.755  1.00  0.00     0.032 C 
ATOM     17  C   UNL     1     172.426 173.793 175.826  1.00  0.00     0.006 C 
ATOM     18  C   UNL     1     174.582 175.023 176.320  1.00  0.00     0.008 C 
ATOM     19  C   UNL     1     174.697 172.998 174.854  1.00  0.00     0.012 C 
ATOM     20  C   UNL     1     172.406 173.110 177.266  1.00  0.00    -0.025 C 
ATOM     21  C   UNL     1     174.669 174.298 177.674  1.00  0.00     0.005 C 
ATOM     22  C   UNL     1     173.259 174.005 178.239  1.00  0.00     0.003 C 
ATOM     23  C   UNL     1     170.915 173.092 177.784  1.00  0.00     0.010 C 
ATOM     24  C   UNL     1     172.919 171.635 177.215  1.00  0.00     0.012 C 
ATOM     25  C   UNL     1     173.236 173.585 179.774  1.00  0.00    -0.006 C 
ATOM     26  C   UNL     1     170.727 173.375 179.288  1.00  0.00     0.033 C 
ATOM     27  C   UNL     1     171.895 172.854 180.133  1.00  0.00     0.120 C 
ATOM     28  C   UNL     1     173.375 174.875 180.635  1.00  0.00     0.014 C 
ATOM     29  C   UNL     1     174.413 172.655 180.163  1.00  0.00     0.014 C 
ENDROOT
BRANCH   1  30
ATOM     30  C   UNL     1     170.165 177.456 174.444  1.00  0.00     0.048 C 
ATOM     31  O   UNL     1     169.882 176.435 175.125  1.00  0.00    -0.550 OA
ATOM     32  O   UNL     1     169.247 178.498 174.399  1.00  0.00    -0.550 OA
ENDBRANCH   1  30
BRANCH  27  33
ATOM     33  O   UNL     1     171.591 173.000 181.500  1.00  0.00    -0.393 OA
ATOM     34  H   UNL     1     171.384 173.959 181.655  1.00  0.00     0.210 HD
ENDBRANCH  27  33
TORSDOF 2
ENDMDL
MODEL 5
REMARK VINA RESULT:    -7.425      4.744      8.025
REMARK INTER + INTRA:          -8.026
REMARK INTER:                  -8.084
REMARK INTRA:                   0.058
REMARK UNBOUND:                 0.050
REMARK SMILES C[C@@H]1[C@H](C)CC[C@]2(C(=O)[O-])CC[C@]3(C)C(=CC[C@H]4[C@]5(C)CC[C@H](O)C(C)(C)[C@H]5CC[C@@]43C)[C@@H]12
REMARK SMILES IDX 7 1 6 2 11 3 33 4 5 5 12 6 15 7 2 8 3 9 13 10 16 11 1 12
REMARK SMILES IDX 4 13 14 14 31 15 17 16 18 17 30 18 32 19 19 20 29 21 28 22
REMARK SMILES IDX 21 23 20 24 25 25 22 26 23 27 26 28 27 29 8 30 9 31 10 32
REMARK SMILES IDX 24 33
REMARK H PARENT 24 34
REMARK Flexibility Score: inf
ROOT
ATOM      1  C   UNL     1     178.219 169.756 173.116  1.00  0.00     0.017 C 
ATOM      2  C   UNL     1     179.495 168.867 172.912  1.00  0.00     0.014 C 
ATOM      3  C   UNL     1     177.548 169.429 174.495  1.00  0.00     0.014 C 
ATOM      4  C   UNL     1     177.251 169.434 171.929  1.00  0.00     0.030 C 
ATOM      5  C   UNL     1     179.902 168.661 171.429  1.00  0.00     0.004 C 
ATOM      6  C   UNL     1     176.398 168.413 174.367  1.00  0.00     0.013 C 
ATOM      7  C   UNL     1     175.807 169.779 172.318  1.00  0.00    -0.063 C 
ATOM      8  C   UNL     1     177.813 169.915 170.547  1.00  0.00    -0.003 C 
ATOM      9  C   UNL     1     179.380 169.774 170.495  1.00  0.00    -0.011 C 
ATOM     10  C   UNL     1     175.191 168.951 173.489  1.00  0.00    -0.006 C 
ATOM     11  C   UNL     1     175.187 170.863 171.795  1.00  0.00    -0.027 C 
ATOM     12  C   UNL     1     177.086 169.168 169.408  1.00  0.00     0.008 C 
ATOM     13  C   UNL     1     179.959 169.608 169.080  1.00  0.00     0.008 C 
ATOM     14  C   UNL     1     174.600 167.681 172.804  1.00  0.00     0.017 C 
ATOM     15  C   UNL     1     174.053 169.786 174.352  1.00  0.00    -0.020 C 
ATOM     16  C   UNL     1     174.013 171.499 172.463  1.00  0.00     0.032 C 
ATOM     17  C   UNL     1     174.152 171.319 173.991  1.00  0.00     0.006 C 
ATOM     18  C   UNL     1     174.249 169.663 175.903  1.00  0.00     0.008 C 
ATOM     19  C   UNL     1     172.617 169.227 174.056  1.00  0.00     0.012 C 
ATOM     20  C   UNL     1     173.335 172.376 174.859  1.00  0.00    -0.025 C 
ATOM     21  C   UNL     1     173.362 170.599 176.740  1.00  0.00     0.005 C 
ATOM     22  C   UNL     1     173.620 172.081 176.378  1.00  0.00     0.003 C 
ATOM     23  C   UNL     1     173.880 173.819 174.521  1.00  0.00     0.010 C 
ATOM     24  C   UNL     1     171.809 172.345 174.525  1.00  0.00     0.012 C 
ATOM     25  C   UNL     1     173.024 173.129 177.416  1.00  0.00    -0.006 C 
ATOM     26  C   UNL     1     173.986 174.790 175.715  1.00  0.00     0.033 C 
ATOM     27  C   UNL     1     172.893 174.550 176.763  1.00  0.00     0.120 C 
ATOM     28  C   UNL     1     173.984 173.202 178.641  1.00  0.00     0.014 C 
ATOM     29  C   UNL     1     171.632 172.717 177.959  1.00  0.00     0.014 C 
ENDROOT
BRANCH   1  30
ATOM     30  C   UNL     1     178.593 171.238 173.145  1.00  0.00     0.048 C 
ATOM     31  O   UNL     1     179.799 171.600 173.188  1.00  0.00    -0.550 OA
ATOM     32  O   UNL     1     177.605 172.211 173.239  1.00  0.00    -0.550 OA
ENDBRANCH   1  30
BRANCH  27  33
ATOM     33  O   UNL     1     172.948 175.561 177.741  1.00  0.00    -0.393 OA
ATOM     34  H   UNL     1     173.880 175.903 177.761  1.00  0.00     0.210 HD
ENDBRANCH  27  33
TORSDOF 2
ENDMDL
MODEL 6
REMARK VINA RESULT:    -7.347      2.480      7.517
REMARK INTER + INTRA:          -7.941
REMARK INTER:                  -7.990
REMARK INTRA:                   0.049
REMARK UNBOUND:                 0.050
REMARK SMILES C[C@@H]1[C@H](C)CC[C@]2(C(=O)[O-])CC[C@]3(C)C(=CC[C@H]4[C@]5(C)CC[C@H](O)C(C)(C)[C@H]5CC[C@@]43C)[C@@H]12
REMARK SMILES IDX 7 1 6 2 11 3 33 4 5 5 12 6 15 7 2 8 3 9 13 10 16 11 1 12
REMARK SMILES IDX 4 13 14 14 31 15 17 16 18 17 30 18 32 19 19 20 29 21 28 22
REMARK SMILES IDX 21 23 20 24 25 25 22 26 23 27 26 28 27 29 8 30 9 31 10 32
REMARK SMILES IDX 24 33
REMARK H PARENT 24 34
REMARK Flexibility Score: inf
ROOT
ATOM      1  C   UNL     1     168.211 176.612 173.092  1.00  0.00     0.017 C 
ATOM      2  C   UNL     1     166.935 177.499 172.879  1.00  0.00     0.014 C 
ATOM      3  C   UNL     1     168.887 176.961 174.463  1.00  0.00     0.014 C 
ATOM      4  C   UNL     1     169.176 176.914 171.897  1.00  0.00     0.030 C 
ATOM      5  C   UNL     1     166.523 177.682 171.393  1.00  0.00     0.004 C 
ATOM      6  C   UNL     1     170.038 177.974 174.315  1.00  0.00     0.013 C 
ATOM      7  C   UNL     1     170.620 176.573 172.286  1.00  0.00    -0.063 C 
ATOM      8  C   UNL     1     168.608 176.411 170.524  1.00  0.00    -0.003 C 
ATOM      9  C   UNL     1     167.041 176.553 170.476  1.00  0.00    -0.011 C 
ATOM     10  C   UNL     1     171.241 177.420 173.442  1.00  0.00    -0.006 C 
ATOM     11  C   UNL     1     171.237 175.481 171.779  1.00  0.00    -0.027 C 
ATOM     12  C   UNL     1     169.332 177.138 169.371  1.00  0.00     0.008 C 
ATOM     13  C   UNL     1     166.457 176.696 169.060  1.00  0.00     0.008 C 
ATOM     14  C   UNL     1     171.831 178.678 172.734  1.00  0.00     0.017 C 
ATOM     15  C   UNL     1     172.381 176.598 174.315  1.00  0.00    -0.020 C 
ATOM     16  C   UNL     1     172.412 174.854 172.454  1.00  0.00     0.032 C 
ATOM     17  C   UNL     1     172.279 175.059 173.978  1.00  0.00     0.006 C 
ATOM     18  C   UNL     1     172.191 176.747 175.863  1.00  0.00     0.008 C 
ATOM     19  C   UNL     1     173.817 177.150 174.004  1.00  0.00     0.012 C 
ATOM     20  C   UNL     1     173.098 174.015 174.861  1.00  0.00    -0.025 C 
ATOM     21  C   UNL     1     173.079 175.823 176.713  1.00  0.00     0.005 C 
ATOM     22  C   UNL     1     172.819 174.336 176.376  1.00  0.00     0.003 C 
ATOM     23  C   UNL     1     172.550 172.568 174.549  1.00  0.00     0.010 C 
ATOM     24  C   UNL     1     174.623 174.040 174.521  1.00  0.00     0.012 C 
ATOM     25  C   UNL     1     173.417 173.305 177.429  1.00  0.00    -0.006 C 
ATOM     26  C   UNL     1     172.448 171.617 175.759  1.00  0.00     0.033 C 
ATOM     27  C   UNL     1     173.544 171.873 176.799  1.00  0.00     0.120 C 
ATOM     28  C   UNL     1     172.461 173.252 178.658  1.00  0.00     0.014 C 
ATOM     29  C   UNL     1     174.811 173.723 177.961  1.00  0.00     0.014 C 
ENDROOT
BRANCH   1  30
ATOM     30  C   UNL     1     167.836 175.131 173.147  1.00  0.00     0.048 C 
ATOM     31  O   UNL     1     166.630 174.768 173.123  1.00  0.00    -0.550 OA
ATOM     32  O   UNL     1     168.815 174.164 173.338  1.00  0.00    -0.550 OA
ENDBRANCH   1  30
BRANCH  27  33
ATOM     33  O   UNL     1     173.492 170.877 177.794  1.00  0.00    -0.393 OA
ATOM     34  H   UNL     1     173.019 170.096 177.404  1.00  0.00     0.210 HD
ENDBRANCH  27  33
TORSDOF 2
ENDMDL
MODEL 7
REMARK VINA RESULT:    -7.106      4.085      6.333
REMARK INTER + INTRA:          -7.679
REMARK INTER:                  -7.745
REMARK INTRA:                   0.066
REMARK UNBOUND:                 0.050
REMARK SMILES C[C@@H]1[C@H](C)CC[C@]2(C(=O)[O-])CC[C@]3(C)C(=CC[C@H]4[C@]5(C)CC[C@H](O)C(C)(C)[C@H]5CC[C@@]43C)[C@@H]12
REMARK SMILES IDX 7 1 6 2 11 3 33 4 5 5 12 6 15 7 2 8 3 9 13 10 16 11 1 12
REMARK SMILES IDX 4 13 14 14 31 15 17 16 18 17 30 18 32 19 19 20 29 21 28 22
REMARK SMILES IDX 21 23 20 24 25 25 22 26 23 27 26 28 27 29 8 30 9 31 10 32
REMARK SMILES IDX 24 33
REMARK H PARENT 24 34
REMARK Flexibility Score: inf
ROOT
ATOM      1  C   UNL     1     174.194 173.873 176.594  1.00  0.00     0.017 C 
ATOM      2  C   UNL     1     173.600 175.162 177.260  1.00  0.00     0.014 C 
ATOM      3  C   UNL     1     175.161 174.266 175.424  1.00  0.00     0.014 C 
ATOM      4  C   UNL     1     172.980 173.039 176.062  1.00  0.00     0.030 C 
ATOM      5  C   UNL     1     172.250 174.939 177.994  1.00  0.00     0.004 C 
ATOM      6  C   UNL     1     174.468 174.241 174.048  1.00  0.00     0.013 C 
ATOM      7  C   UNL     1     173.436 172.104 174.934  1.00  0.00    -0.063 C 
ATOM      8  C   UNL     1     172.088 172.472 177.220  1.00  0.00    -0.003 C 
ATOM      9  C   UNL     1     172.031 173.476 178.432  1.00  0.00    -0.011 C 
ATOM     10  C   UNL     1     173.963 172.795 173.637  1.00  0.00    -0.006 C 
ATOM     11  C   UNL     1     173.545 170.770 175.138  1.00  0.00    -0.027 C 
ATOM     12  C   UNL     1     170.699 172.095 176.662  1.00  0.00     0.008 C 
ATOM     13  C   UNL     1     170.768 173.354 179.301  1.00  0.00     0.008 C 
ATOM     14  C   UNL     1     172.686 173.048 172.779  1.00  0.00     0.017 C 
ATOM     15  C   UNL     1     175.093 171.894 172.830  1.00  0.00    -0.020 C 
ATOM     16  C   UNL     1     174.402 169.907 174.272  1.00  0.00     0.032 C 
ATOM     17  C   UNL     1     175.605 170.738 173.775  1.00  0.00     0.006 C 
ATOM     18  C   UNL     1     176.347 172.729 172.399  1.00  0.00     0.008 C 
ATOM     19  C   UNL     1     174.488 171.312 171.503  1.00  0.00     0.012 C 
ATOM     20  C   UNL     1     176.869 169.875 173.333  1.00  0.00    -0.025 C 
ATOM     21  C   UNL     1     177.518 171.896 171.852  1.00  0.00     0.005 C 
ATOM     22  C   UNL     1     178.009 170.870 172.901  1.00  0.00     0.003 C 
ATOM     23  C   UNL     1     177.371 169.057 174.587  1.00  0.00     0.010 C 
ATOM     24  C   UNL     1     176.509 168.859 172.203  1.00  0.00     0.012 C 
ATOM     25  C   UNL     1     179.421 170.214 172.574  1.00  0.00    -0.006 C 
ATOM     26  C   UNL     1     178.900 168.932 174.734  1.00  0.00     0.033 C 
ATOM     27  C   UNL     1     179.617 168.882 173.380  1.00  0.00     0.120 C 
ATOM     28  C   UNL     1     180.534 171.231 172.965  1.00  0.00     0.014 C 
ATOM     29  C   UNL     1     179.607 169.899 171.068  1.00  0.00     0.014 C 
ENDROOT
BRANCH   1  30
ATOM     30  C   UNL     1     175.021 173.075 177.602  1.00  0.00     0.048 C 
ATOM     31  O   UNL     1     175.110 173.447 178.802  1.00  0.00    -0.550 OA
ATOM     32  O   UNL     1     175.780 171.987 177.187  1.00  0.00    -0.550 OA
ENDBRANCH   1  30
BRANCH  27  33
ATOM     33  O   UNL     1     180.985 168.610 173.580  1.00  0.00    -0.393 OA
ATOM     34  H   UNL     1     181.494 169.170 172.937  1.00  0.00     0.210 HD
ENDBRANCH  27  33
TORSDOF 2
ENDMDL
MODEL 8
REMARK VINA RESULT:    -7.082      2.247      3.885
REMARK INTER + INTRA:          -7.653
REMARK INTER:                  -7.703
REMARK INTRA:                   0.051
REMARK UNBOUND:                 0.050
REMARK SMILES C[C@@H]1[C@H](C)CC[C@]2(C(=O)[O-])CC[C@]3(C)C(=CC[C@H]4[C@]5(C)CC[C@H](O)C(C)(C)[C@H]5CC[C@@]43C)[C@@H]12
REMARK SMILES IDX 7 1 6 2 11 3 33 4 5 5 12 6 15 7 2 8 3 9 13 10 16 11 1 12
REMARK SMILES IDX 4 13 14 14 31 15 17 16 18 17 30 18 32 19 19 20 29 21 28 22
REMARK SMILES IDX 21 23 20 24 25 25 22 26 23 27 26 28 27 29 8 30 9 31 10 32
REMARK SMILES IDX 24 33
REMARK H PARENT 24 34
REMARK Flexibility Score: inf
ROOT
ATOM      1  C   UNL     1     172.597 172.945 175.876  1.00  0.00     0.017 C 
ATOM      2  C   UNL     1     172.514 171.570 176.624  1.00  0.00     0.014 C 
ATOM      3  C   UNL     1     172.143 172.777 174.384  1.00  0.00     0.014 C 
ATOM      4  C   UNL     1     174.087 173.417 175.960  1.00  0.00     0.030 C 
ATOM      5  C   UNL     1     173.440 171.459 177.865  1.00  0.00     0.004 C 
ATOM      6  C   UNL     1     173.331 172.575 173.424  1.00  0.00     0.013 C 
ATOM      7  C   UNL     1     174.395 174.399 174.822  1.00  0.00    -0.063 C 
ATOM      8  C   UNL     1     174.523 173.772 177.424  1.00  0.00    -0.003 C 
ATOM      9  C   UNL     1     173.814 172.830 178.468  1.00  0.00    -0.011 C 
ATOM     10  C   UNL     1     174.305 173.825 173.373  1.00  0.00    -0.006 C 
ATOM     11  C   UNL     1     174.548 175.721 175.067  1.00  0.00    -0.027 C 
ATOM     12  C   UNL     1     176.063 173.755 177.520  1.00  0.00     0.008 C 
ATOM     13  C   UNL     1     174.584 172.648 179.787  1.00  0.00     0.008 C 
ATOM     14  C   UNL     1     175.716 173.220 173.102  1.00  0.00     0.017 C 
ATOM     15  C   UNL     1     173.882 174.960 172.246  1.00  0.00    -0.020 C 
ATOM     16  C   UNL     1     174.377 176.747 173.997  1.00  0.00     0.032 C 
ATOM     17  C   UNL     1     173.327 176.241 172.984  1.00  0.00     0.006 C 
ATOM     18  C   UNL     1     172.758 174.465 171.271  1.00  0.00     0.008 C 
ATOM     19  C   UNL     1     175.110 175.320 171.338  1.00  0.00     0.012 C 
ATOM     20  C   UNL     1     172.624 177.387 172.129  1.00  0.00    -0.025 C 
ATOM     21  C   UNL     1     172.173 175.555 170.358  1.00  0.00     0.005 C 
ATOM     22  C   UNL     1     171.562 176.708 171.188  1.00  0.00     0.003 C 
ATOM     23  C   UNL     1     171.866 178.350 173.124  1.00  0.00     0.010 C 
ATOM     24  C   UNL     1     173.665 178.236 171.332  1.00  0.00     0.012 C 
ATOM     25  C   UNL     1     170.629 177.697 170.361  1.00  0.00    -0.006 C 
ATOM     26  C   UNL     1     170.499 178.872 172.637  1.00  0.00     0.033 C 
ATOM     27  C   UNL     1     170.453 179.061 171.116  1.00  0.00     0.120 C 
ATOM     28  C   UNL     1     169.240 177.018 170.176  1.00  0.00     0.014 C 
ATOM     29  C   UNL     1     171.176 177.998 168.942  1.00  0.00     0.014 C 
ENDROOT
BRANCH   1  30
ATOM     30  C   UNL     1     171.651 173.964 176.513  1.00  0.00     0.048 C 
ATOM     31  O   UNL     1     170.891 173.636 177.462  1.00  0.00    -0.550 OA
ATOM     32  O   UNL     1     171.533 175.243 175.982  1.00  0.00    -0.550 OA
ENDBRANCH   1  30
BRANCH  27  33
ATOM     33  O   UNL     1     169.243 179.685 170.755  1.00  0.00    -0.393 OA
ATOM     34  H   UNL     1     169.339 179.991 169.815  1.00  0.00     0.210 HD
ENDBRANCH  27  33
TORSDOF 2
ENDMDL
MODEL 9
REMARK VINA RESULT:    -7.065      3.846      6.800
REMARK INTER + INTRA:          -7.634
REMARK INTER:                  -7.684
REMARK INTRA:                   0.050
REMARK UNBOUND:                 0.050
REMARK SMILES C[C@@H]1[C@H](C)CC[C@]2(C(=O)[O-])CC[C@]3(C)C(=CC[C@H]4[C@]5(C)CC[C@H](O)C(C)(C)[C@H]5CC[C@@]43C)[C@@H]12
REMARK SMILES IDX 7 1 6 2 11 3 33 4 5 5 12 6 15 7 2 8 3 9 13 10 16 11 1 12
REMARK SMILES IDX 4 13 14 14 31 15 17 16 18 17 30 18 32 19 19 20 29 21 28 22
REMARK SMILES IDX 21 23 20 24 25 25 22 26 23 27 26 28 27 29 8 30 9 31 10 32
REMARK SMILES IDX 24 33
REMARK H PARENT 24 34
REMARK Flexibility Score: inf
ROOT
ATOM      1  C   UNL     1     172.175 174.127 173.769  1.00  0.00     0.017 C 
ATOM      2  C   UNL     1     170.907 175.029 173.578  1.00  0.00     0.014 C 
ATOM      3  C   UNL     1     171.919 172.700 173.169  1.00  0.00     0.014 C 
ATOM      4  C   UNL     1     172.446 174.048 175.308  1.00  0.00     0.030 C 
ATOM      5  C   UNL     1     170.798 176.203 174.587  1.00  0.00     0.004 C 
ATOM      6  C   UNL     1     171.459 171.685 174.232  1.00  0.00     0.013 C 
ATOM      7  C   UNL     1     173.255 172.787 175.638  1.00  0.00    -0.063 C 
ATOM      8  C   UNL     1     172.886 175.426 175.913  1.00  0.00    -0.003 C 
ATOM      9  C   UNL     1     172.160 176.618 175.184  1.00  0.00    -0.011 C 
ATOM     10  C   UNL     1     172.554 171.422 175.349  1.00  0.00    -0.006 C 
ATOM     11  C   UNL     1     174.562 172.869 175.979  1.00  0.00    -0.027 C 
ATOM     12  C   UNL     1     172.669 175.410 177.441  1.00  0.00     0.008 C 
ATOM     13  C   UNL     1     172.011 177.890 176.037  1.00  0.00     0.008 C 
ATOM     14  C   UNL     1     171.738 171.118 176.643  1.00  0.00     0.017 C 
ATOM     15  C   UNL     1     173.615 170.208 174.977  1.00  0.00    -0.020 C 
ATOM     16  C   UNL     1     175.487 171.705 175.847  1.00  0.00     0.032 C 
ATOM     17  C   UNL     1     175.027 170.836 174.657  1.00  0.00     0.006 C 
ATOM     18  C   UNL     1     173.181 169.380 173.719  1.00  0.00     0.008 C 
ATOM     19  C   UNL     1     173.709 169.177 176.157  1.00  0.00     0.012 C 
ATOM     20  C   UNL     1     176.165 169.911 174.034  1.00  0.00    -0.025 C 
ATOM     21  C   UNL     1     174.241 168.395 173.199  1.00  0.00     0.005 C 
ATOM     22  C   UNL     1     175.545 169.133 172.815  1.00  0.00     0.003 C 
ATOM     23  C   UNL     1     177.319 170.844 173.494  1.00  0.00     0.010 C 
ATOM     24  C   UNL     1     176.779 168.949 175.100  1.00  0.00     0.012 C 
ATOM     25  C   UNL     1     176.562 168.270 171.947  1.00  0.00    -0.006 C 
ATOM     26  C   UNL     1     177.970 170.402 172.168  1.00  0.00     0.033 C 
ATOM     27  C   UNL     1     178.007 168.877 172.013  1.00  0.00     0.120 C 
ATOM     28  C   UNL     1     176.063 168.265 170.472  1.00  0.00     0.014 C 
ATOM     29  C   UNL     1     176.639 166.790 172.401  1.00  0.00     0.014 C 
ENDROOT
BRANCH   1  30
ATOM     30  C   UNL     1     173.373 174.712 173.020  1.00  0.00     0.048 C 
ATOM     31  O   UNL     1     173.235 175.703 172.255  1.00  0.00    -0.550 OA
ATOM     32  O   UNL     1     174.615 174.092 173.085  1.00  0.00    -0.550 OA
ENDBRANCH   1  30
BRANCH  27  33
ATOM     33  O   UNL     1     178.750 168.538 170.865  1.00  0.00    -0.393 OA
ATOM     34  H   UNL     1     178.144 168.629 170.084  1.00  0.00     0.210 HD
ENDBRANCH  27  33
TORSDOF 2
ENDMDL
