MODEL 1
REMARK VINA RESULT:    -3.103      0.000      0.000
REMARK INTER + INTRA:          -3.600
REMARK INTER:                  -3.556
REMARK INTRA:                  -0.044
REMARK UNBOUND:                -0.044
REMARK SMILES CC(C)[C@@H]([NH3+])C(=O)[O-]
REMARK SMILES IDX 4 1 5 2 6 6 7 7 8 8 2 9 1 10 3 11
REMARK H PARENT 5 3 5 4 5 5
REMARK Flexibility Score: inf
ROOT
ATOM      1  C   UNL     1       3.755  14.052  19.861  1.00  0.00     0.230 C 
ENDROOT
BRANCH   1   2
ATOM      2  N   UNL     1       2.286  13.997  19.858  1.00  0.00    -0.350 N 
ATOM      3  H   UNL     1       1.933  13.154  20.363  1.00  0.00     0.345 HD
ATOM      4  H   UNL     1       1.931  13.982  18.874  1.00  0.00     0.345 HD
ATOM      5  H   UNL     1       1.904  14.851  20.326  1.00  0.00     0.345 HD
ENDBRANCH   1   2
BRANCH   1   6
ATOM      6  C   UNL     1       4.344  12.683  19.610  1.00  0.00     0.099 C 
ATOM      7  O   UNL     1       4.356  11.810  20.519  1.00  0.00    -0.544 OA
ATOM      8  O   UNL     1       4.851  12.369  18.356  1.00  0.00    -0.544 OA
ENDBRANCH   1   6
BRANCH   1   9
ATOM      9  C   UNL     1       4.297  15.130  18.875  1.00  0.00     0.047 C 
ATOM     10  C   UNL     1       3.319  16.308  18.745  1.00  0.00     0.014 C 
ATOM     11  C   UNL     1       5.699  15.648  19.234  1.00  0.00     0.014 C 
ENDBRANCH   1   9
TORSDOF 3
ENDMDL
MODEL 2
REMARK VINA RESULT:    -3.072      4.344      4.969
REMARK INTER + INTRA:          -3.565
REMARK INTER:                  -3.522
REMARK INTRA:                  -0.044
REMARK UNBOUND:                -0.044
REMARK SMILES CC(C)[C@@H]([NH3+])C(=O)[O-]
REMARK SMILES IDX 4 1 5 2 6 6 7 7 8 8 2 9 1 10 3 11
REMARK H PARENT 5 3 5 4 5 5
REMARK Flexibility Score: inf
ROOT
ATOM      1  C   UNL     1       5.446  11.479  16.339  1.00  0.00     0.230 C 
ENDROOT
BRANCH   1   2
ATOM      2  N   UNL     1       4.638  12.244  17.300  1.00  0.00    -0.350 N 
ATOM      3  H   UNL     1       5.233  12.682  18.039  1.00  0.00     0.345 HD
ATOM      4  H   UNL     1       3.933  11.617  17.753  1.00  0.00     0.345 HD
ATOM      5  H   UNL     1       4.121  13.001  16.796  1.00  0.00     0.345 HD
ENDBRANCH   1   2
BRANCH   1   6
ATOM      6  C   UNL     1       4.686  11.257  15.053  1.00  0.00     0.099 C 
ATOM      7  O   UNL     1       4.060  12.203  14.503  1.00  0.00    -0.544 OA
ATOM      8  O   UNL     1       4.698  10.006  14.450  1.00  0.00    -0.544 OA
ENDBRANCH   1   6
BRANCH   1   9
ATOM      9  C   UNL     1       6.843  12.133  16.109  1.00  0.00     0.047 C 
ATOM     10  C   UNL     1       6.951  13.485  16.830  1.00  0.00     0.014 C 
ATOM     11  C   UNL     1       8.022  11.229  16.505  1.00  0.00     0.014 C 
ENDBRANCH   1   9
TORSDOF 3
ENDMDL
MODEL 3
REMARK VINA RESULT:    -3.072     11.646     12.289
REMARK INTER + INTRA:          -3.565
REMARK INTER:                  -3.509
REMARK INTRA:                  -0.056
REMARK UNBOUND:                -0.044
REMARK SMILES CC(C)[C@@H]([NH3+])C(=O)[O-]
REMARK SMILES IDX 4 1 5 2 6 6 7 7 8 8 2 9 1 10 3 11
REMARK H PARENT 5 3 5 4 5 5
REMARK Flexibility Score: inf
ROOT
ATOM      1  C   UNL     1       7.436  17.048   7.853  1.00  0.00     0.230 C 
ENDROOT
BRANCH   1   2
ATOM      2  N   UNL     1       6.240  17.113   7.000  1.00  0.00    -0.350 N 
ATOM      3  H   UNL     1       6.339  16.507   6.155  1.00  0.00     0.345 HD
ATOM      4  H   UNL     1       6.070  18.100   6.697  1.00  0.00     0.345 HD
ATOM      5  H   UNL     1       5.406  16.794   7.544  1.00  0.00     0.345 HD
ENDBRANCH   1   2
BRANCH   1   6
ATOM      6  C   UNL     1       7.730  18.396   8.469  1.00  0.00     0.099 C 
ATOM      7  O   UNL     1       7.416  18.641   9.664  1.00  0.00    -0.544 OA
ATOM      8  O   UNL     1       8.383  19.369   7.722  1.00  0.00    -0.544 OA
ENDBRANCH   1   6
BRANCH   1   9
ATOM      9  C   UNL     1       7.329  15.911   8.914  1.00  0.00     0.047 C 
ATOM     10  C   UNL     1       6.317  14.839   8.481  1.00  0.00     0.014 C 
ATOM     11  C   UNL     1       8.677  15.255   9.256  1.00  0.00     0.014 C 
ENDBRANCH   1   9
TORSDOF 3
ENDMDL
MODEL 4
REMARK VINA RESULT:    -3.022     18.306     18.998
REMARK INTER + INTRA:          -3.508
REMARK INTER:                  -3.464
REMARK INTRA:                  -0.044
REMARK UNBOUND:                -0.044
REMARK SMILES CC(C)[C@@H]([NH3+])C(=O)[O-]
REMARK SMILES IDX 4 1 5 2 6 6 7 7 8 8 2 9 1 10 3 11
REMARK H PARENT 5 3 5 4 5 5
REMARK Flexibility Score: inf
ROOT
ATOM      1  C   UNL     1      -9.668  13.682   6.098  1.00  0.00     0.230 C 
ENDROOT
BRANCH   1   2
ATOM      2  N   UNL     1      -9.660  14.220   4.730  1.00  0.00    -0.350 N 
ATOM      3  H   UNL     1      -9.929  15.229   4.713  1.00  0.00     0.345 HD
ATOM      4  H   UNL     1     -10.323  13.678   4.128  1.00  0.00     0.345 HD
ATOM      5  H   UNL     1      -8.702  14.124   4.322  1.00  0.00     0.345 HD
ENDBRANCH   1   2
BRANCH   1   6
ATOM      6  C   UNL     1     -10.525  12.441   6.183  1.00  0.00     0.099 C 
ATOM      7  O   UNL     1     -10.721  11.722   5.167  1.00  0.00    -0.544 OA
ATOM      8  O   UNL     1     -11.081  12.068   7.400  1.00  0.00    -0.544 OA
ENDBRANCH   1   6
BRANCH   1   9
ATOM      9  C   UNL     1      -8.223  13.455   6.638  1.00  0.00     0.047 C 
ATOM     10  C   UNL     1      -7.189  14.229   5.807  1.00  0.00     0.014 C 
ATOM     11  C   UNL     1      -8.060  13.793   8.129  1.00  0.00     0.014 C 
ENDBRANCH   1   9
TORSDOF 3
ENDMDL
MODEL 5
REMARK VINA RESULT:    -3.019     16.958     17.552
REMARK INTER + INTRA:          -3.504
REMARK INTER:                  -3.458
REMARK INTRA:                  -0.046
REMARK UNBOUND:                -0.044
REMARK SMILES CC(C)[C@@H]([NH3+])C(=O)[O-]
REMARK SMILES IDX 4 1 5 2 6 6 7 7 8 8 2 9 1 10 3 11
REMARK H PARENT 5 3 5 4 5 5
REMARK Flexibility Score: inf
ROOT
ATOM      1  C   UNL     1      -9.548  15.332   8.519  1.00  0.00     0.230 C 
ENDROOT
BRANCH   1   2
ATOM      2  N   UNL     1     -10.666  15.532   7.586  1.00  0.00    -0.350 N 
ATOM      3  H   UNL     1     -10.665  16.499   7.189  1.00  0.00     0.345 HD
ATOM      4  H   UNL     1     -11.575  15.362   8.074  1.00  0.00     0.345 HD
ATOM      5  H   UNL     1     -10.589  14.848   6.798  1.00  0.00     0.345 HD
ENDBRANCH   1   2
BRANCH   1   6
ATOM      6  C   UNL     1      -9.928  15.772   9.914  1.00  0.00     0.099 C 
ATOM      7  O   UNL     1     -10.760  15.113  10.594  1.00  0.00    -0.544 OA
ATOM      8  O   UNL     1      -9.332  16.898  10.469  1.00  0.00    -0.544 OA
ENDBRANCH   1   6
BRANCH   1   9
ATOM      9  C   UNL     1      -9.011  13.870   8.474  1.00  0.00     0.047 C 
ATOM     10  C   UNL     1     -10.010  12.930   7.783  1.00  0.00     0.014 C 
ATOM     11  C   UNL     1      -7.626  13.739   7.818  1.00  0.00     0.014 C 
ENDBRANCH   1   9
TORSDOF 3
ENDMDL
MODEL 6
REMARK VINA RESULT:    -3.016     17.837     18.554
REMARK INTER + INTRA:          -3.501
REMARK INTER:                  -3.437
REMARK INTRA:                  -0.064
REMARK UNBOUND:                -0.044
REMARK SMILES CC(C)[C@@H]([NH3+])C(=O)[O-]
REMARK SMILES IDX 4 1 5 2 6 6 7 7 8 8 2 9 1 10 3 11
REMARK H PARENT 5 3 5 4 5 5
REMARK Flexibility Score: inf
ROOT
ATOM      1  C   UNL     1     -10.238  13.321   7.556  1.00  0.00     0.230 C 
ENDROOT
BRANCH   1   2
ATOM      2  N   UNL     1     -10.861  12.203   8.279  1.00  0.00    -0.350 N 
ATOM      3  H   UNL     1     -11.655  11.792   7.738  1.00  0.00     0.345 HD
ATOM      4  H   UNL     1     -11.211  12.528   9.209  1.00  0.00     0.345 HD
ATOM      5  H   UNL     1     -10.149  11.454   8.444  1.00  0.00     0.345 HD
ENDBRANCH   1   2
BRANCH   1   6
ATOM      6  C   UNL     1      -9.125  13.935   8.373  1.00  0.00     0.099 C 
ATOM      7  O   UNL     1      -7.981  13.407   8.402  1.00  0.00    -0.544 OA
ATOM      8  O   UNL     1      -9.352  15.111   9.077  1.00  0.00    -0.544 OA
ENDBRANCH   1   6
BRANCH   1   9
ATOM      9  C   UNL     1      -9.777  12.903   6.127  1.00  0.00     0.047 C 
ATOM     10  C   UNL     1     -10.793  11.956   5.470  1.00  0.00     0.014 C 
ATOM     11  C   UNL     1      -9.488  14.092   5.197  1.00  0.00     0.014 C 
ENDBRANCH   1   9
TORSDOF 3
ENDMDL
MODEL 7
REMARK VINA RESULT:    -3.006     17.467     18.284
REMARK INTER + INTRA:          -3.489
REMARK INTER:                  -3.566
REMARK INTRA:                   0.077
REMARK UNBOUND:                -0.044
REMARK SMILES CC(C)[C@@H]([NH3+])C(=O)[O-]
REMARK SMILES IDX 4 1 5 2 6 6 7 7 8 8 2 9 1 10 3 11
REMARK H PARENT 5 3 5 4 5 5
REMARK Flexibility Score: inf
ROOT
ATOM      1  C   UNL     1      -8.380  14.363   5.533  1.00  0.00     0.230 C 
ENDROOT
BRANCH   1   2
ATOM      2  N   UNL     1      -9.512  13.445   5.724  1.00  0.00    -0.350 N 
ATOM      3  H   UNL     1     -10.080  13.706   6.562  1.00  0.00     0.345 HD
ATOM      4  H   UNL     1      -9.164  12.465   5.837  1.00  0.00     0.345 HD
ATOM      5  H   UNL     1     -10.131  13.473   4.881  1.00  0.00     0.345 HD
ENDBRANCH   1   2
BRANCH   1   6
ATOM      6  C   UNL     1      -8.760  15.773   5.919  1.00  0.00     0.099 C 
ATOM      7  O   UNL     1      -8.401  16.754   5.214  1.00  0.00    -0.544 OA
ATOM      8  O   UNL     1      -9.540  15.993   7.048  1.00  0.00    -0.544 OA
ENDBRANCH   1   6
BRANCH   1   9
ATOM      9  C   UNL     1      -7.099  13.862   6.266  1.00  0.00     0.047 C 
ATOM     10  C   UNL     1      -5.892  14.762   5.958  1.00  0.00     0.014 C 
ATOM     11  C   UNL     1      -7.273  13.715   7.786  1.00  0.00     0.014 C 
ENDBRANCH   1   9
TORSDOF 3
ENDMDL
MODEL 8
REMARK VINA RESULT:    -2.997      9.247      9.806
REMARK INTER + INTRA:          -3.479
REMARK INTER:                  -3.434
REMARK INTRA:                  -0.046
REMARK UNBOUND:                -0.044
REMARK SMILES CC(C)[C@@H]([NH3+])C(=O)[O-]
REMARK SMILES IDX 4 1 5 2 6 6 7 7 8 8 2 9 1 10 3 11
REMARK H PARENT 5 3 5 4 5 5
REMARK Flexibility Score: inf
ROOT
ATOM      1  C   UNL     1       6.749  19.357  11.609  1.00  0.00     0.230 C 
ENDROOT
BRANCH   1   2
ATOM      2  N   UNL     1       6.559  18.140  10.806  1.00  0.00    -0.350 N 
ATOM      3  H   UNL     1       6.667  17.277  11.386  1.00  0.00     0.345 HD
ATOM      4  H   UNL     1       7.251  18.116  10.022  1.00  0.00     0.345 HD
ATOM      5  H   UNL     1       5.599  18.143  10.390  1.00  0.00     0.345 HD
ENDBRANCH   1   2
BRANCH   1   6
ATOM      6  C   UNL     1       5.484  19.713  12.353  1.00  0.00     0.099 C 
ATOM      7  O   UNL     1       4.615  18.835  12.605  1.00  0.00    -0.544 OA
ATOM      8  O   UNL     1       5.285  21.016  12.793  1.00  0.00    -0.544 OA
ENDBRANCH   1   6
BRANCH   1   9
ATOM      9  C   UNL     1       7.988  19.242  12.548  1.00  0.00     0.047 C 
ATOM     10  C   UNL     1       8.886  18.063  12.144  1.00  0.00     0.014 C 
ATOM     11  C   UNL     1       8.821  20.533  12.633  1.00  0.00     0.014 C 
ENDBRANCH   1   9
TORSDOF 3
ENDMDL
MODEL 9
REMARK VINA RESULT:    -2.997      3.790      4.594
REMARK INTER + INTRA:          -3.479
REMARK INTER:                  -3.423
REMARK INTRA:                  -0.056
REMARK UNBOUND:                -0.044
REMARK SMILES CC(C)[C@@H]([NH3+])C(=O)[O-]
REMARK SMILES IDX 4 1 5 2 6 6 7 7 8 8 2 9 1 10 3 11
REMARK H PARENT 5 3 5 4 5 5
REMARK Flexibility Score: inf
ROOT
ATOM      1  C   UNL     1       5.330  12.744  16.129  1.00  0.00     0.230 C 
ENDROOT
BRANCH   1   2
ATOM      2  N   UNL     1       4.186  13.324  15.411  1.00  0.00    -0.350 N 
ATOM      3  H   UNL     1       3.287  13.140  15.910  1.00  0.00     0.345 HD
ATOM      4  H   UNL     1       4.130  12.926  14.445  1.00  0.00     0.345 HD
ATOM      5  H   UNL     1       4.315  14.359  15.327  1.00  0.00     0.345 HD
ENDBRANCH   1   2
BRANCH   1   6
ATOM      6  C   UNL     1       5.362  13.220  17.562  1.00  0.00     0.099 C 
ATOM      7  O   UNL     1       4.831  12.539  18.480  1.00  0.00    -0.544 OA
ATOM      8  O   UNL     1       6.010  14.407  17.881  1.00  0.00    -0.544 OA
ENDBRANCH   1   6
BRANCH   1   9
ATOM      9  C   UNL     1       5.360  11.190  16.009  1.00  0.00     0.047 C 
ATOM     10  C   UNL     1       4.672  10.717  14.720  1.00  0.00     0.014 C 
ATOM     11  C   UNL     1       6.773  10.590  16.103  1.00  0.00     0.014 C 
ENDBRANCH   1   9
TORSDOF 3
ENDMDL
