MODEL 1
REMARK VINA RESULT:    22.977      0.000      0.000
REMARK INTER + INTRA:          28.023
REMARK INTER:                  28.350
REMARK INTRA:                  -0.328
REMARK UNBOUND:                -0.328
REMARK SMILES Oc1cc(O)c2cc(O)c(-c3cc(O)c(O)c(O)c3)[o+]c2c1
REMARK SMILES IDX 10 1 20 2 21 3 22 4 2 5 3 6 4 7 6 8 7 9 8 10 11 11 12 12
REMARK SMILES IDX 13 13 19 14 15 15 17 16 14 17 16 19 18 21 9 23 1 25 5 27
REMARK H PARENT 14 18 16 20 18 22 9 24 1 26 5 28
REMARK Flexibility Score: inf
ROOT
ATOM      1  C   UNL     1      -6.274   7.404  16.012  1.00  0.00     0.402 A 
ATOM      2  O   UNL     1      -5.869   6.408  16.795  1.00  0.00    -0.202 OA
ATOM      3  C   UNL     1      -6.043   5.125  16.493  1.00  0.00     0.368 A 
ATOM      4  C   UNL     1      -5.580   4.150  17.380  1.00  0.00     0.162 A 
ATOM      5  C   UNL     1      -5.746   2.794  17.086  1.00  0.00     0.128 A 
ATOM      6  C   UNL     1      -6.377   2.411  15.900  1.00  0.00     0.093 A 
ATOM      7  C   UNL     1      -6.849   3.369  14.995  1.00  0.00     0.136 A 
ATOM      8  C   UNL     1      -6.685   4.748  15.290  1.00  0.00     0.125 A 
ATOM      9  C   UNL     1      -7.139   5.777  14.448  1.00  0.00     0.078 A 
ATOM     10  C   UNL     1      -6.945   7.114  14.809  1.00  0.00     0.223 A 
ENDROOT
BRANCH   1  11
ATOM     11  C   UNL     1      -6.014   8.794  16.453  1.00  0.00     0.091 A 
ATOM     12  C   UNL     1      -7.035   9.594  16.994  1.00  0.00     0.068 A 
ATOM     13  C   UNL     1      -6.774  10.915  17.384  1.00  0.00     0.162 A 
ATOM     14  C   UNL     1      -4.735   9.345  16.275  1.00  0.00     0.068 A 
ATOM     15  C   UNL     1      -5.485  11.450  17.223  1.00  0.00     0.200 A 
ATOM     16  C   UNL     1      -4.469  10.665  16.666  1.00  0.00     0.162 A 
BRANCH  13  17
ATOM     17  O   UNL     1      -7.793  11.698  17.926  1.00  0.00    -0.504 OA
ATOM     18  H   UNL     1      -7.642  12.670  18.171  1.00  0.00     0.293 HD
ENDBRANCH  13  17
BRANCH  15  19
ATOM     19  O   UNL     1      -5.200  12.761  17.608  1.00  0.00    -0.502 OA
ATOM     20  H   UNL     1      -4.384  12.995  18.161  1.00  0.00     0.293 HD
ENDBRANCH  15  19
BRANCH  16  21
ATOM     21  O   UNL     1      -3.193  11.203  16.501  1.00  0.00    -0.504 OA
ATOM     22  H   UNL     1      -2.908  12.049  16.979  1.00  0.00     0.293 HD
ENDBRANCH  16  21
ENDBRANCH   1  11
BRANCH  10  23
ATOM     23  O   UNL     1      -7.439   8.135  13.998  1.00  0.00    -0.500 OA
ATOM     24  H   UNL     1      -7.877   8.962  14.388  1.00  0.00     0.294 HD
ENDBRANCH  10  23
BRANCH   5  25
ATOM     25  O   UNL     1      -5.287   1.816  17.966  1.00  0.00    -0.507 OA
ATOM     26  H   UNL     1      -5.159   0.855  17.669  1.00  0.00     0.293 HD
ENDBRANCH   5  25
BRANCH   7  27
ATOM     27  O   UNL     1      -7.465   2.905  13.830  1.00  0.00    -0.507 OA
ATOM     28  H   UNL     1      -7.560   3.443  12.981  1.00  0.00     0.293 HD
ENDBRANCH   7  27
TORSDOF 7
ENDMDL
MODEL 2
REMARK VINA RESULT:    23.890      1.507      7.270
REMARK INTER + INTRA:          29.149
REMARK INTER:                  29.520
REMARK INTRA:                  -0.372
REMARK UNBOUND:                -0.328
REMARK SMILES Oc1cc(O)c2cc(O)c(-c3cc(O)c(O)c(O)c3)[o+]c2c1
REMARK SMILES IDX 10 1 20 2 21 3 22 4 2 5 3 6 4 7 6 8 7 9 8 10 11 11 12 12
REMARK SMILES IDX 13 13 19 14 15 15 17 16 14 17 16 19 18 21 9 23 1 25 5 27
REMARK H PARENT 14 18 16 20 18 22 9 24 1 26 5 28
REMARK Flexibility Score: inf
ROOT
ATOM      1  C   UNL     1      -6.263   8.082  16.579  1.00  0.00     0.402 A 
ATOM      2  O   UNL     1      -7.347   8.714  17.021  1.00  0.00    -0.202 OA
ATOM      3  C   UNL     1      -7.379  10.018  17.274  1.00  0.00     0.368 A 
ATOM      4  C   UNL     1      -8.567  10.592  17.734  1.00  0.00     0.162 A 
ATOM      5  C   UNL     1      -8.631  11.961  18.005  1.00  0.00     0.128 A 
ATOM      6  C   UNL     1      -7.501  12.761  17.814  1.00  0.00     0.093 A 
ATOM      7  C   UNL     1      -6.299  12.210  17.355  1.00  0.00     0.136 A 
ATOM      8  C   UNL     1      -6.229  10.819  17.080  1.00  0.00     0.125 A 
ATOM      9  C   UNL     1      -5.063  10.179  16.629  1.00  0.00     0.078 A 
ATOM     10  C   UNL     1      -5.070   8.802  16.384  1.00  0.00     0.223 A 
ENDROOT
BRANCH   1  11
ATOM     11  C   UNL     1      -6.355   6.626  16.323  1.00  0.00     0.091 A 
ATOM     12  C   UNL     1      -6.843   6.125  15.104  1.00  0.00     0.068 A 
ATOM     13  C   UNL     1      -6.943   4.743  14.891  1.00  0.00     0.162 A 
ATOM     14  C   UNL     1      -6.001   5.725  17.340  1.00  0.00     0.068 A 
ATOM     15  C   UNL     1      -6.565   3.849  15.907  1.00  0.00     0.200 A 
ATOM     16  C   UNL     1      -6.098   4.342  17.131  1.00  0.00     0.162 A 
BRANCH  13  17
ATOM     17  O   UNL     1      -7.422   4.256  13.675  1.00  0.00    -0.504 OA
ATOM     18  H   UNL     1      -7.237   3.306  13.373  1.00  0.00     0.293 HD
ENDBRANCH  13  17
BRANCH  15  19
ATOM     19  O   UNL     1      -6.652   2.470  15.717  1.00  0.00    -0.502 OA
ATOM     20  H   UNL     1      -7.046   2.065  14.876  1.00  0.00     0.293 HD
ENDBRANCH  15  19
BRANCH  16  21
ATOM     21  O   UNL     1      -5.731   3.451  18.139  1.00  0.00    -0.504 OA
ATOM     22  H   UNL     1      -6.360   3.222  18.899  1.00  0.00     0.293 HD
ENDBRANCH  16  21
ENDBRANCH   1  11
BRANCH  10  23
ATOM     23  O   UNL     1      -3.899   8.158  15.984  1.00  0.00    -0.500 OA
ATOM     24  H   UNL     1      -3.726   7.921  15.014  1.00  0.00     0.294 HD
ENDBRANCH  10  23
BRANCH   5  25
ATOM     25  O   UNL     1      -9.811  12.540  18.464  1.00  0.00    -0.507 OA
ATOM     26  H   UNL     1     -10.116  12.432  19.425  1.00  0.00     0.293 HD
ENDBRANCH   5  25
BRANCH   7  27
ATOM     27  O   UNL     1      -5.216  13.077  17.186  1.00  0.00    -0.507 OA
ATOM     28  H   UNL     1      -4.568  13.038  16.414  1.00  0.00     0.293 HD
ENDBRANCH   7  27
TORSDOF 7
ENDMDL
MODEL 3
REMARK VINA RESULT:    24.346      1.914      3.275
REMARK INTER + INTRA:          29.712
REMARK INTER:                  29.537
REMARK INTRA:                   0.174
REMARK UNBOUND:                -0.328
REMARK SMILES Oc1cc(O)c2cc(O)c(-c3cc(O)c(O)c(O)c3)[o+]c2c1
REMARK SMILES IDX 10 1 20 2 21 3 22 4 2 5 3 6 4 7 6 8 7 9 8 10 11 11 12 12
REMARK SMILES IDX 13 13 19 14 15 15 17 16 14 17 16 19 18 21 9 23 1 25 5 27
REMARK H PARENT 14 18 16 20 18 22 9 24 1 26 5 28
REMARK Flexibility Score: inf
ROOT
ATOM      1  C   UNL     1      -6.905   8.061  16.571  1.00  0.00     0.402 A 
ATOM      2  O   UNL     1      -7.324   7.256  15.598  1.00  0.00    -0.202 OA
ATOM      3  C   UNL     1      -6.889   6.009  15.445  1.00  0.00     0.368 A 
ATOM      4  C   UNL     1      -7.392   5.239  14.394  1.00  0.00     0.162 A 
ATOM      5  C   UNL     1      -6.956   3.924  14.211  1.00  0.00     0.128 A 
ATOM      6  C   UNL     1      -6.013   3.377  15.085  1.00  0.00     0.093 A 
ATOM      7  C   UNL     1      -5.494   4.128  16.146  1.00  0.00     0.136 A 
ATOM      8  C   UNL     1      -5.932   5.464  16.334  1.00  0.00     0.125 A 
ATOM      9  C   UNL     1      -5.457   6.295  17.362  1.00  0.00     0.078 A 
ATOM     10  C   UNL     1      -5.934   7.605  17.482  1.00  0.00     0.223 A 
ENDROOT
BRANCH   1  11
ATOM     11  C   UNL     1      -7.471   9.428  16.643  1.00  0.00     0.091 A 
ATOM     12  C   UNL     1      -7.580  10.112  17.866  1.00  0.00     0.068 A 
ATOM     13  C   UNL     1      -8.141  11.396  17.917  1.00  0.00     0.162 A 
ATOM     14  C   UNL     1      -7.962  10.033  15.475  1.00  0.00     0.068 A 
ATOM     15  C   UNL     1      -8.609  12.002  16.738  1.00  0.00     0.200 A 
ATOM     16  C   UNL     1      -8.522  11.317  15.520  1.00  0.00     0.162 A 
BRANCH  13  17
ATOM     17  O   UNL     1      -8.239  12.068  19.134  1.00  0.00    -0.504 OA
ATOM     18  H   UNL     1      -8.025  11.610  20.013  1.00  0.00     0.293 HD
ENDBRANCH  13  17
BRANCH  15  19
ATOM     19  O   UNL     1      -9.167  13.280  16.763  1.00  0.00    -0.502 OA
ATOM     20  H   UNL     1      -9.615  13.688  15.952  1.00  0.00     0.293 HD
ENDBRANCH  15  19
BRANCH  16  21
ATOM     21  O   UNL     1      -8.995  11.919  14.355  1.00  0.00    -0.504 OA
ATOM     22  H   UNL     1      -8.454  11.915  13.499  1.00  0.00     0.293 HD
ENDBRANCH  16  21
ENDBRANCH   1  11
BRANCH  10  23
ATOM     23  O   UNL     1      -5.426   8.446  18.472  1.00  0.00    -0.500 OA
ATOM     24  H   UNL     1      -5.014   8.080  19.322  1.00  0.00     0.294 HD
ENDBRANCH  10  23
BRANCH   5  25
ATOM     25  O   UNL     1      -7.452   3.150  13.165  1.00  0.00    -0.507 OA
ATOM     26  H   UNL     1      -7.916   3.571  12.368  1.00  0.00     0.293 HD
ENDBRANCH   5  25
BRANCH   7  27
ATOM     27  O   UNL     1      -4.558   3.506  16.977  1.00  0.00    -0.507 OA
ATOM     28  H   UNL     1      -3.729   3.954  17.338  1.00  0.00     0.293 HD
ENDBRANCH   7  27
TORSDOF 7
ENDMDL
MODEL 4
REMARK VINA RESULT:    24.445      1.743      2.201
REMARK INTER + INTRA:          29.833
REMARK INTER:                  29.418
REMARK INTRA:                   0.415
REMARK UNBOUND:                -0.328
REMARK SMILES Oc1cc(O)c2cc(O)c(-c3cc(O)c(O)c(O)c3)[o+]c2c1
REMARK SMILES IDX 10 1 20 2 21 3 22 4 2 5 3 6 4 7 6 8 7 9 8 10 11 11 12 12
REMARK SMILES IDX 13 13 19 14 15 15 17 16 14 17 16 19 18 21 9 23 1 25 5 27
REMARK H PARENT 14 18 16 20 18 22 9 24 1 26 5 28
REMARK Flexibility Score: inf
ROOT
ATOM      1  C   UNL     1      -6.851   7.409  16.731  1.00  0.00     0.402 A 
ATOM      2  O   UNL     1      -6.541   6.295  17.388  1.00  0.00    -0.202 OA
ATOM      3  C   UNL     1      -6.173   5.170  16.783  1.00  0.00     0.368 A 
ATOM      4  C   UNL     1      -5.864   4.051  17.560  1.00  0.00     0.162 A 
ATOM      5  C   UNL     1      -5.472   2.855  16.950  1.00  0.00     0.128 A 
ATOM      6  C   UNL     1      -5.388   2.780  15.558  1.00  0.00     0.093 A 
ATOM      7  C   UNL     1      -5.694   3.887  14.758  1.00  0.00     0.136 A 
ATOM      8  C   UNL     1      -6.094   5.102  15.371  1.00  0.00     0.125 A 
ATOM      9  C   UNL     1      -6.431   6.258  14.648  1.00  0.00     0.078 A 
ATOM     10  C   UNL     1      -6.822   7.419  15.324  1.00  0.00     0.223 A 
ENDROOT
BRANCH   1  11
ATOM     11  C   UNL     1      -7.235   8.603  17.518  1.00  0.00     0.091 A 
ATOM     12  C   UNL     1      -7.587   8.504  18.876  1.00  0.00     0.068 A 
ATOM     13  C   UNL     1      -7.970   9.643  19.597  1.00  0.00     0.162 A 
ATOM     14  C   UNL     1      -7.307   9.854  16.884  1.00  0.00     0.068 A 
ATOM     15  C   UNL     1      -8.017  10.894  18.959  1.00  0.00     0.200 A 
ATOM     16  C   UNL     1      -7.688  10.996  17.601  1.00  0.00     0.162 A 
BRANCH  13  17
ATOM     17  O   UNL     1      -8.310   9.535  20.945  1.00  0.00    -0.504 OA
ATOM     18  H   UNL     1      -9.141   9.979  21.321  1.00  0.00     0.293 HD
ENDBRANCH  13  17
BRANCH  15  19
ATOM     19  O   UNL     1      -8.392  12.042  19.657  1.00  0.00    -0.502 OA
ATOM     20  H   UNL     1      -9.129  12.655  19.330  1.00  0.00     0.293 HD
ENDBRANCH  15  19
BRANCH  16  21
ATOM     21  O   UNL     1      -7.743  12.237  16.969  1.00  0.00    -0.504 OA
ATOM     22  H   UNL     1      -8.626  12.682  16.750  1.00  0.00     0.293 HD
ENDBRANCH  16  21
ENDBRANCH   1  11
BRANCH  10  23
ATOM     23  O   UNL     1      -7.204   8.551  14.605  1.00  0.00    -0.500 OA
ATOM     24  H   UNL     1      -6.604   8.962  13.900  1.00  0.00     0.294 HD
ENDBRANCH  10  23
BRANCH   5  25
ATOM     25  O   UNL     1      -5.162   1.735  17.718  1.00  0.00    -0.507 OA
ATOM     26  H   UNL     1      -5.363   1.701  18.711  1.00  0.00     0.293 HD
ENDBRANCH   5  25
BRANCH   7  27
ATOM     27  O   UNL     1      -5.582   3.731  13.373  1.00  0.00    -0.507 OA
ATOM     28  H   UNL     1      -6.343   3.850  12.722  1.00  0.00     0.293 HD
ENDBRANCH   7  27
TORSDOF 7
ENDMDL
