MODEL 1
REMARK VINA RESULT:    -3.537      0.000      0.000
REMARK INTER + INTRA:          -5.329
REMARK INTER:                  -4.777
REMARK INTRA:                  -0.552
REMARK UNBOUND:                -0.552
REMARK SMILES C[C@H](O)[C@@H](O)[C@H](O)[C@H](O)C=O
REMARK SMILES IDX 4 1 2 2 1 3 3 4 6 6 8 7 10 8 11 9 9 10 7 12 5 14
REMARK H PARENT 3 5 9 11 7 13 5 15
REMARK Flexibility Score: inf
ROOT
ATOM      1  C   UNL     1      70.495  35.000  59.202  1.00  0.00     0.174 C 
ENDROOT
BRANCH   1   2
ATOM      2  C   UNL     1      69.416  35.596  58.259  1.00  0.00     0.142 C 
ATOM      3  C   UNL     1      69.904  36.861  57.539  1.00  0.00     0.041 C 
BRANCH   2   4
ATOM      4  O   UNL     1      68.279  35.914  59.020  1.00  0.00    -0.391 OA
ATOM      5  H   UNL     1      68.206  35.228  59.734  1.00  0.00     0.211 HD
ENDBRANCH   2   4
ENDBRANCH   1   2
BRANCH   1   6
ATOM      6  C   UNL     1      70.842  33.513  58.887  1.00  0.00     0.181 C 
BRANCH   6   7
ATOM      7  C   UNL     1      71.294  32.706  60.136  1.00  0.00     0.209 C 
BRANCH   7   8
ATOM      8  C   UNL     1      71.677  31.280  59.826  1.00  0.00     0.258 C 
ATOM      9  O   UNL     1      70.819  30.453  59.560  1.00  0.00    -0.300 OA
ENDBRANCH   7   8
BRANCH   7  10
ATOM     10  O   UNL     1      72.361  33.354  60.781  1.00  0.00    -0.383 OA
ATOM     11  H   UNL     1      72.395  34.289  60.447  1.00  0.00     0.211 HD
ENDBRANCH   7  10
ENDBRANCH   6   7
BRANCH   6  12
ATOM     12  O   UNL     1      69.812  32.861  58.183  1.00  0.00    -0.387 OA
ATOM     13  H   UNL     1      70.221  32.343  57.444  1.00  0.00     0.211 HD
ENDBRANCH   6  12
ENDBRANCH   1   6
BRANCH   1  14
ATOM     14  O   UNL     1      70.115  35.163  60.548  1.00  0.00    -0.388 OA
ATOM     15  H   UNL     1      69.686  34.320  60.851  1.00  0.00     0.211 HD
ENDBRANCH   1  14
TORSDOF 8
ENDMDL
MODEL 2
REMARK VINA RESULT:    -3.504     21.323     22.390
REMARK INTER + INTRA:          -5.285
REMARK INTER:                  -4.739
REMARK INTRA:                  -0.546
REMARK UNBOUND:                -0.552
REMARK SMILES C[C@H](O)[C@@H](O)[C@H](O)[C@H](O)C=O
REMARK SMILES IDX 4 1 2 2 1 3 3 4 6 6 8 7 10 8 11 9 9 10 7 12 5 14
REMARK H PARENT 3 5 9 11 7 13 5 15
REMARK Flexibility Score: inf
ROOT
ATOM      1  C   UNL     1      56.300  18.734  50.894  1.00  0.00     0.174 C 
ENDROOT
BRANCH   1   2
ATOM      2  C   UNL     1      57.597  17.915  50.654  1.00  0.00     0.142 C 
ATOM      3  C   UNL     1      58.794  18.808  50.299  1.00  0.00     0.041 C 
BRANCH   2   4
ATOM      4  O   UNL     1      57.371  17.014  49.600  1.00  0.00    -0.391 OA
ATOM      5  H   UNL     1      56.472  17.217  49.231  1.00  0.00     0.211 HD
ENDBRANCH   2   4
ENDBRANCH   1   2
BRANCH   1   6
ATOM      6  C   UNL     1      56.153  19.247  52.359  1.00  0.00     0.181 C 
BRANCH   6   7
ATOM      7  C   UNL     1      54.696  19.639  52.732  1.00  0.00     0.209 C 
BRANCH   7   8
ATOM      8  C   UNL     1      54.581  20.326  54.071  1.00  0.00     0.258 C 
ATOM      9  O   UNL     1      54.878  19.733  55.097  1.00  0.00    -0.300 OA
ENDBRANCH   7   8
BRANCH   7  10
ATOM     10  O   UNL     1      54.134  20.453  51.733  1.00  0.00    -0.383 OA
ATOM     11  H   UNL     1      54.865  20.731  51.122  1.00  0.00     0.211 HD
ENDBRANCH   7  10
ENDBRANCH   6   7
BRANCH   6  12
ATOM     12  O   UNL     1      56.716  18.361  53.296  1.00  0.00    -0.387 OA
ATOM     13  H   UNL     1      56.331  17.461  53.143  1.00  0.00     0.211 HD
ENDBRANCH   6  12
ENDBRANCH   1   6
BRANCH   1  14
ATOM     14  O   UNL     1      55.171  17.993  50.495  1.00  0.00    -0.388 OA
ATOM     15  H   UNL     1      54.558  18.605  50.009  1.00  0.00     0.211 HD
ENDBRANCH   1  14
TORSDOF 8
ENDMDL
MODEL 3
REMARK VINA RESULT:    -3.420      1.942      4.633
REMARK INTER + INTRA:          -5.172
REMARK INTER:                  -4.658
REMARK INTRA:                  -0.514
REMARK UNBOUND:                -0.552
REMARK SMILES C[C@H](O)[C@@H](O)[C@H](O)[C@H](O)C=O
REMARK SMILES IDX 4 1 2 2 1 3 3 4 6 6 8 7 10 8 11 9 9 10 7 12 5 14
REMARK H PARENT 3 5 9 11 7 13 5 15
REMARK Flexibility Score: inf
ROOT
ATOM      1  C   UNL     1      71.560  32.199  60.470  1.00  0.00     0.174 C 
ENDROOT
BRANCH   1   2
ATOM      2  C   UNL     1      72.361  30.959  60.949  1.00  0.00     0.142 C 
ATOM      3  C   UNL     1      71.447  29.783  61.322  1.00  0.00     0.041 C 
BRANCH   2   4
ATOM      4  O   UNL     1      73.122  31.320  62.073  1.00  0.00    -0.391 OA
ATOM      5  H   UNL     1      73.447  32.245  61.918  1.00  0.00     0.211 HD
ENDBRANCH   2   4
ENDBRANCH   1   2
BRANCH   1   6
ATOM      6  C   UNL     1      71.199  32.158  58.954  1.00  0.00     0.181 C 
BRANCH   6   7
ATOM      7  C   UNL     1      71.137  33.565  58.295  1.00  0.00     0.209 C 
BRANCH   7   8
ATOM      8  C   UNL     1      71.048  33.522  56.790  1.00  0.00     0.258 C 
ATOM      9  O   UNL     1      72.043  33.301  56.117  1.00  0.00    -0.300 OA
ENDBRANCH   7   8
BRANCH   7  10
ATOM     10  O   UNL     1      70.059  34.304  58.813  1.00  0.00    -0.383 OA
ATOM     11  H   UNL     1      69.977  34.084  59.778  1.00  0.00     0.211 HD
ENDBRANCH   7  10
ENDBRANCH   6   7
BRANCH   6  12
ATOM     12  O   UNL     1      72.022  31.274  58.232  1.00  0.00    -0.387 OA
ATOM     13  H   UNL     1      71.532  30.986  57.420  1.00  0.00     0.211 HD
ENDBRANCH   6  12
ENDBRANCH   1   6
BRANCH   1  14
ATOM     14  O   UNL     1      72.247  33.384  60.801  1.00  0.00    -0.388 OA
ATOM     15  H   UNL     1      71.861  33.738  61.644  1.00  0.00     0.211 HD
ENDBRANCH   1  14
TORSDOF 8
ENDMDL
MODEL 4
REMARK VINA RESULT:    -3.316     20.799     21.847
REMARK INTER + INTRA:          -5.031
REMARK INTER:                  -4.676
REMARK INTRA:                  -0.356
REMARK UNBOUND:                -0.552
REMARK SMILES C[C@H](O)[C@@H](O)[C@H](O)[C@H](O)C=O
REMARK SMILES IDX 4 1 2 2 1 3 3 4 6 6 8 7 10 8 11 9 9 10 7 12 5 14
REMARK H PARENT 3 5 9 11 7 13 5 15
REMARK Flexibility Score: inf
ROOT
ATOM      1  C   UNL     1      57.655  17.856  50.666  1.00  0.00     0.174 C 
ENDROOT
BRANCH   1   2
ATOM      2  C   UNL     1      56.398  18.717  50.960  1.00  0.00     0.142 C 
ATOM      3  C   UNL     1      56.230  19.015  52.456  1.00  0.00     0.041 C 
BRANCH   2   4
ATOM      4  O   UNL     1      55.262  18.028  50.502  1.00  0.00    -0.391 OA
ATOM      5  H   UNL     1      55.176  18.221  49.532  1.00  0.00     0.211 HD
ENDBRANCH   2   4
ENDBRANCH   1   2
BRANCH   1   6
ATOM      6  C   UNL     1      58.962  18.693  50.525  1.00  0.00     0.181 C 
BRANCH   6   7
ATOM      7  C   UNL     1      60.251  17.825  50.487  1.00  0.00     0.209 C 
BRANCH   7   8
ATOM      8  C   UNL     1      60.387  16.895  51.667  1.00  0.00     0.258 C 
ATOM      9  O   UNL     1      60.394  17.337  52.805  1.00  0.00    -0.300 OA
ENDBRANCH   7   8
BRANCH   7  10
ATOM     10  O   UNL     1      60.311  17.087  49.292  1.00  0.00    -0.383 OA
ATOM     11  H   UNL     1      59.801  16.246  49.429  1.00  0.00     0.211 HD
ENDBRANCH   7  10
ENDBRANCH   6   7
BRANCH   6  12
ATOM     12  O   UNL     1      58.905  19.598  49.449  1.00  0.00    -0.387 OA
ATOM     13  H   UNL     1      59.077  20.509  49.800  1.00  0.00     0.211 HD
ENDBRANCH   6  12
ENDBRANCH   1   6
BRANCH   1  14
ATOM     14  O   UNL     1      57.442  17.046  49.534  1.00  0.00    -0.388 OA
ATOM     15  H   UNL     1      58.249  17.102  48.959  1.00  0.00     0.211 HD
ENDBRANCH   1  14
TORSDOF 8
ENDMDL
MODEL 5
REMARK VINA RESULT:    -3.252     20.034     21.445
REMARK INTER + INTRA:          -4.944
REMARK INTER:                  -4.585
REMARK INTRA:                  -0.359
REMARK UNBOUND:                -0.552
REMARK SMILES C[C@H](O)[C@@H](O)[C@H](O)[C@H](O)C=O
REMARK SMILES IDX 4 1 2 2 1 3 3 4 6 6 8 7 10 8 11 9 9 10 7 12 5 14
REMARK H PARENT 3 5 9 11 7 13 5 15
REMARK Flexibility Score: inf
ROOT
ATOM      1  C   UNL     1      57.476  17.945  51.116  1.00  0.00     0.174 C 
ENDROOT
BRANCH   1   2
ATOM      2  C   UNL     1      56.182  18.753  51.403  1.00  0.00     0.142 C 
ATOM      3  C   UNL     1      55.777  18.702  52.882  1.00  0.00     0.041 C 
BRANCH   2   4
ATOM      4  O   UNL     1      55.139  18.223  50.626  1.00  0.00    -0.391 OA
ATOM      5  H   UNL     1      54.293  18.397  51.117  1.00  0.00     0.211 HD
ENDBRANCH   2   4
ENDBRANCH   1   2
BRANCH   1   6
ATOM      6  C   UNL     1      58.782  18.772  51.318  1.00  0.00     0.181 C 
BRANCH   6   7
ATOM      7  C   UNL     1      59.607  18.952  50.013  1.00  0.00     0.209 C 
BRANCH   7   8
ATOM      8  C   UNL     1      60.638  20.051  50.099  1.00  0.00     0.258 C 
ATOM      9  O   UNL     1      60.356  21.191  49.764  1.00  0.00    -0.300 OA
ENDBRANCH   7   8
BRANCH   7  10
ATOM     10  O   UNL     1      60.231  17.744  49.654  1.00  0.00    -0.383 OA
ATOM     11  H   UNL     1      61.130  17.731  50.075  1.00  0.00     0.211 HD
ENDBRANCH   7  10
ENDBRANCH   6   7
BRANCH   6  12
ATOM     12  O   UNL     1      58.544  19.999  51.965  1.00  0.00    -0.387 OA
ATOM     13  H   UNL     1      58.024  19.820  52.789  1.00  0.00     0.211 HD
ENDBRANCH   6  12
ENDBRANCH   1   6
BRANCH   1  14
ATOM     14  O   UNL     1      57.425  17.376  49.829  1.00  0.00    -0.388 OA
ATOM     15  H   UNL     1      57.111  16.438  49.919  1.00  0.00     0.211 HD
ENDBRANCH   1  14
TORSDOF 8
ENDMDL
MODEL 6
REMARK VINA RESULT:    -3.211     21.286     22.345
REMARK INTER + INTRA:          -4.889
REMARK INTER:                  -3.933
REMARK INTRA:                  -0.956
REMARK UNBOUND:                -0.552
REMARK SMILES C[C@H](O)[C@@H](O)[C@H](O)[C@H](O)C=O
REMARK SMILES IDX 4 1 2 2 1 3 3 4 6 6 8 7 10 8 11 9 9 10 7 12 5 14
REMARK H PARENT 3 5 9 11 7 13 5 15
REMARK Flexibility Score: inf
ROOT
ATOM      1  C   UNL     1      55.333  19.436  52.970  1.00  0.00     0.174 C 
ENDROOT
BRANCH   1   2
ATOM      2  C   UNL     1      55.141  19.003  51.492  1.00  0.00     0.142 C 
ATOM      3  C   UNL     1      56.474  18.691  50.797  1.00  0.00     0.041 C 
BRANCH   2   4
ATOM      4  O   UNL     1      54.497  20.041  50.799  1.00  0.00    -0.391 OA
ATOM      5  H   UNL     1      55.152  20.405  50.146  1.00  0.00     0.211 HD
ENDBRANCH   2   4
ENDBRANCH   1   2
BRANCH   1   6
ATOM      6  C   UNL     1      53.995  19.546  53.763  1.00  0.00     0.181 C 
BRANCH   6   7
ATOM      7  C   UNL     1      53.825  20.903  54.502  1.00  0.00     0.209 C 
BRANCH   7   8
ATOM      8  C   UNL     1      53.008  21.910  53.730  1.00  0.00     0.258 C 
ATOM      9  O   UNL     1      53.338  22.241  52.602  1.00  0.00    -0.300 OA
ENDBRANCH   7   8
BRANCH   7  10
ATOM     10  O   UNL     1      53.255  20.704  55.772  1.00  0.00    -0.383 OA
ATOM     11  H   UNL     1      52.455  20.127  55.658  1.00  0.00     0.211 HD
ENDBRANCH   7  10
ENDBRANCH   6   7
BRANCH   6  12
ATOM     12  O   UNL     1      52.875  19.233  52.970  1.00  0.00    -0.387 OA
ATOM     13  H   UNL     1      52.534  18.346  53.251  1.00  0.00     0.211 HD
ENDBRANCH   6  12
ENDBRANCH   1   6
BRANCH   1  14
ATOM     14  O   UNL     1      56.069  20.635  53.039  1.00  0.00    -0.388 OA
ATOM     15  H   UNL     1      55.584  21.259  53.640  1.00  0.00     0.211 HD
ENDBRANCH   1  14
TORSDOF 8
ENDMDL
MODEL 7
REMARK VINA RESULT:    -3.182     15.567     16.132
REMARK INTER + INTRA:          -4.850
REMARK INTER:                  -4.143
REMARK INTRA:                  -0.707
REMARK UNBOUND:                -0.552
REMARK SMILES C[C@H](O)[C@@H](O)[C@H](O)[C@H](O)C=O
REMARK SMILES IDX 4 1 2 2 1 3 3 4 6 6 8 7 10 8 11 9 9 10 7 12 5 14
REMARK H PARENT 3 5 9 11 7 13 5 15
REMARK Flexibility Score: inf
ROOT
ATOM      1  C   UNL     1      55.161  28.025  59.998  1.00  0.00     0.174 C 
ENDROOT
BRANCH   1   2
ATOM      2  C   UNL     1      53.870  28.884  59.929  1.00  0.00     0.142 C 
ATOM      3  C   UNL     1      53.466  29.215  58.485  1.00  0.00     0.041 C 
BRANCH   2   4
ATOM      4  O   UNL     1      54.088  30.083  60.628  1.00  0.00    -0.391 OA
ATOM      5  H   UNL     1      53.932  30.825  59.987  1.00  0.00     0.211 HD
ENDBRANCH   2   4
ENDBRANCH   1   2
BRANCH   1   6
ATOM      6  C   UNL     1      55.497  27.524  61.436  1.00  0.00     0.181 C 
BRANCH   6   7
ATOM      7  C   UNL     1      56.387  26.251  61.455  1.00  0.00     0.209 C 
BRANCH   7   8
ATOM      8  C   UNL     1      57.861  26.548  61.584  1.00  0.00     0.258 C 
ATOM      9  O   UNL     1      58.346  27.524  61.032  1.00  0.00    -0.300 OA
ENDBRANCH   7   8
BRANCH   7  10
ATOM     10  O   UNL     1      55.986  25.385  62.487  1.00  0.00    -0.383 OA
ATOM     11  H   UNL     1      56.407  24.501  62.323  1.00  0.00     0.211 HD
ENDBRANCH   7  10
ENDBRANCH   6   7
BRANCH   6  12
ATOM     12  O   UNL     1      56.021  28.546  62.250  1.00  0.00    -0.387 OA
ATOM     13  H   UNL     1      57.008  28.540  62.159  1.00  0.00     0.211 HD
ENDBRANCH   6  12
ENDBRANCH   1   6
BRANCH   1  14
ATOM     14  O   UNL     1      56.246  28.722  59.433  1.00  0.00    -0.388 OA
ATOM     15  H   UNL     1      56.745  28.094  58.849  1.00  0.00     0.211 HD
ENDBRANCH   1  14
TORSDOF 8
ENDMDL
MODEL 8
REMARK VINA RESULT:    -3.173     20.753     22.164
REMARK INTER + INTRA:          -4.837
REMARK INTER:                  -4.333
REMARK INTRA:                  -0.504
REMARK UNBOUND:                -0.552
REMARK SMILES C[C@H](O)[C@@H](O)[C@H](O)[C@H](O)C=O
REMARK SMILES IDX 4 1 2 2 1 3 3 4 6 6 8 7 10 8 11 9 9 10 7 12 5 14
REMARK H PARENT 3 5 9 11 7 13 5 15
REMARK Flexibility Score: inf
ROOT
ATOM      1  C   UNL     1      58.166  18.119  50.142  1.00  0.00     0.174 C 
ENDROOT
BRANCH   1   2
ATOM      2  C   UNL     1      59.684  17.805  50.212  1.00  0.00     0.142 C 
ATOM      3  C   UNL     1      60.540  19.075  50.293  1.00  0.00     0.041 C 
BRANCH   2   4
ATOM      4  O   UNL     1      60.048  17.082  49.063  1.00  0.00    -0.391 OA
ATOM      5  H   UNL     1      59.270  17.106  48.446  1.00  0.00     0.211 HD
ENDBRANCH   2   4
ENDBRANCH   1   2
BRANCH   1   6
ATOM      6  C   UNL     1      57.553  18.534  51.514  1.00  0.00     0.181 C 
BRANCH   6   7
ATOM      7  C   UNL     1      56.002  18.633  51.494  1.00  0.00     0.209 C 
BRANCH   7   8
ATOM      8  C   UNL     1      55.419  19.215  52.758  1.00  0.00     0.258 C 
ATOM      9  O   UNL     1      55.343  18.539  53.773  1.00  0.00    -0.300 OA
ENDBRANCH   7   8
BRANCH   7  10
ATOM     10  O   UNL     1      55.571  19.381  50.385  1.00  0.00    -0.383 OA
ATOM     11  H   UNL     1      54.971  18.803  49.844  1.00  0.00     0.211 HD
ENDBRANCH   7  10
ENDBRANCH   6   7
BRANCH   6  12
ATOM     12  O   UNL     1      58.017  17.729  52.572  1.00  0.00    -0.387 OA
ATOM     13  H   UNL     1      58.522  16.970  52.186  1.00  0.00     0.211 HD
ENDBRANCH   6  12
ENDBRANCH   1   6
BRANCH   1  14
ATOM     14  O   UNL     1      57.465  17.036  49.575  1.00  0.00    -0.388 OA
ATOM     15  H   UNL     1      56.563  17.004  49.988  1.00  0.00     0.211 HD
ENDBRANCH   1  14
TORSDOF 8
ENDMDL
