MODEL 1
REMARK VINA RESULT:    -3.075      0.000      0.000
REMARK INTER + INTRA:          -4.826
REMARK INTER:                  -4.333
REMARK INTRA:                  -0.493
REMARK UNBOUND:                -0.493
REMARK SMILES CCCCCCCCC=O
REMARK SMILES IDX 5 1 4 2 3 3 2 4 1 5 6 6 7 7 8 8 9 9 10 10
REMARK H PARENT
REMARK Flexibility Score: inf
ROOT
ATOM      1  C   UNL     1      10.065  -4.823  -1.326  1.00  0.00     0.000 C 
ENDROOT
BRANCH   1   2
ATOM      2  C   UNL     1       9.559  -5.009  -2.765  1.00  0.00    -0.000 C 
BRANCH   2   3
ATOM      3  C   UNL     1       9.273  -3.655  -3.425  1.00  0.00    -0.000 C 
BRANCH   3   4
ATOM      4  C   UNL     1       8.201  -2.881  -2.650  1.00  0.00    -0.003 C 
ATOM      5  C   UNL     1       6.807  -3.430  -2.942  1.00  0.00     0.004 C 
ENDBRANCH   3   4
ENDBRANCH   2   3
ENDBRANCH   1   2
BRANCH   1   6
ATOM      6  C   UNL     1      11.334  -5.639  -1.032  1.00  0.00     0.000 C 
BRANCH   6   7
ATOM      7  C   UNL     1      12.513  -4.758  -0.583  1.00  0.00     0.008 C 
BRANCH   7   8
ATOM      8  C   UNL     1      12.769  -3.584  -1.541  1.00  0.00     0.072 C 
BRANCH   8   9
ATOM      9  C   UNL     1      13.239  -4.042  -2.891  1.00  0.00     0.224 C 
ATOM     10  O   UNL     1      12.992  -3.389  -3.893  1.00  0.00    -0.303 OA
ENDBRANCH   8   9
ENDBRANCH   7   8
ENDBRANCH   6   7
ENDBRANCH   1   6
TORSDOF 7
ENDMDL
MODEL 2
REMARK VINA RESULT:    -2.915      1.168      1.688
REMARK INTER + INTRA:          -4.601
REMARK INTER:                  -3.947
REMARK INTRA:                  -0.653
REMARK UNBOUND:                -0.493
REMARK SMILES CCCCCCCCC=O
REMARK SMILES IDX 5 1 4 2 3 3 2 4 1 5 6 6 7 7 8 8 9 9 10 10
REMARK H PARENT
REMARK Flexibility Score: inf
ROOT
ATOM      1  C   UNL     1       9.275  -5.326  -0.704  1.00  0.00     0.000 C 
ENDROOT
BRANCH   1   2
ATOM      2  C   UNL     1       8.331  -5.421  -1.911  1.00  0.00    -0.000 C 
BRANCH   2   3
ATOM      3  C   UNL     1       7.452  -4.169  -2.020  1.00  0.00    -0.000 C 
BRANCH   3   4
ATOM      4  C   UNL     1       8.223  -3.010  -2.663  1.00  0.00    -0.003 C 
ATOM      5  C   UNL     1       8.726  -3.389  -4.053  1.00  0.00     0.004 C 
ENDBRANCH   3   4
ENDBRANCH   2   3
ENDBRANCH   1   2
BRANCH   1   6
ATOM      6  C   UNL     1      10.752  -5.198  -1.113  1.00  0.00     0.000 C 
BRANCH   6   7
ATOM      7  C   UNL     1      11.064  -5.923  -2.434  1.00  0.00     0.008 C 
BRANCH   7   8
ATOM      8  C   UNL     1      12.303  -5.352  -3.140  1.00  0.00     0.072 C 
BRANCH   8   9
ATOM      9  C   UNL     1      12.311  -3.851  -3.154  1.00  0.00     0.224 C 
ATOM     10  O   UNL     1      12.994  -3.238  -3.958  1.00  0.00    -0.303 OA
ENDBRANCH   8   9
ENDBRANCH   7   8
ENDBRANCH   6   7
ENDBRANCH   1   6
TORSDOF 7
ENDMDL
MODEL 3
REMARK VINA RESULT:    -2.676     11.149     13.232
REMARK INTER + INTRA:          -4.263
REMARK INTER:                  -3.876
REMARK INTRA:                  -0.387
REMARK UNBOUND:                -0.493
REMARK SMILES CCCCCCCCC=O
REMARK SMILES IDX 5 1 4 2 3 3 2 4 1 5 6 6 7 7 8 8 9 9 10 10
REMARK H PARENT
REMARK Flexibility Score: inf
ROOT
ATOM      1  C   UNL     1      16.378   1.657   8.768  1.00  0.00     0.000 C 
ENDROOT
BRANCH   1   2
ATOM      2  C   UNL     1      16.524   2.656   7.611  1.00  0.00    -0.000 C 
BRANCH   2   3
ATOM      3  C   UNL     1      17.765   3.537   7.800  1.00  0.00    -0.000 C 
BRANCH   3   4
ATOM      4  C   UNL     1      19.048   2.747   7.516  1.00  0.00    -0.003 C 
ATOM      5  C   UNL     1      20.230   3.683   7.285  1.00  0.00     0.004 C 
ENDBRANCH   3   4
ENDBRANCH   2   3
ENDBRANCH   1   2
BRANCH   1   6
ATOM      6  C   UNL     1      16.305   0.198   8.288  1.00  0.00     0.000 C 
BRANCH   6   7
ATOM      7  C   UNL     1      15.789   0.076   6.843  1.00  0.00     0.008 C 
BRANCH   7   8
ATOM      8  C   UNL     1      16.509  -1.026   6.052  1.00  0.00     0.072 C 
BRANCH   8   9
ATOM      9  C   UNL     1      15.975  -2.394   6.366  1.00  0.00     0.224 C 
ATOM     10  O   UNL     1      14.799  -2.663   6.180  1.00  0.00    -0.303 OA
ENDBRANCH   8   9
ENDBRANCH   7   8
ENDBRANCH   6   7
ENDBRANCH   1   6
TORSDOF 7
ENDMDL
MODEL 4
REMARK VINA RESULT:    -2.671      1.309      2.041
REMARK INTER + INTRA:          -4.257
REMARK INTER:                  -3.847
REMARK INTRA:                  -0.410
REMARK UNBOUND:                -0.493
REMARK SMILES CCCCCCCCC=O
REMARK SMILES IDX 5 1 4 2 3 3 2 4 1 5 6 6 7 7 8 8 9 9 10 10
REMARK H PARENT
REMARK Flexibility Score: inf
ROOT
ATOM      1  C   UNL     1       9.416  -3.689  -2.999  1.00  0.00     0.000 C 
ENDROOT
BRANCH   1   2
ATOM      2  C   UNL     1       8.099  -2.912  -2.847  1.00  0.00    -0.000 C 
BRANCH   2   3
ATOM      3  C   UNL     1       6.916  -3.869  -2.661  1.00  0.00    -0.000 C 
BRANCH   3   4
ATOM      4  C   UNL     1       6.139  -3.540  -1.380  1.00  0.00    -0.003 C 
ATOM      5  C   UNL     1       6.292  -4.649  -0.344  1.00  0.00     0.004 C 
ENDBRANCH   3   4
ENDBRANCH   2   3
ENDBRANCH   1   2
BRANCH   1   6
ATOM      6  C   UNL     1       9.863  -4.362  -1.691  1.00  0.00     0.000 C 
BRANCH   6   7
ATOM      7  C   UNL     1      11.340  -4.083  -1.359  1.00  0.00     0.008 C 
BRANCH   7   8
ATOM      8  C   UNL     1      12.297  -5.058  -2.060  1.00  0.00     0.072 C 
BRANCH   8   9
ATOM      9  C   UNL     1      13.225  -4.362  -3.012  1.00  0.00     0.224 C 
ATOM     10  O   UNL     1      12.945  -3.264  -3.466  1.00  0.00    -0.303 OA
ENDBRANCH   8   9
ENDBRANCH   7   8
ENDBRANCH   6   7
ENDBRANCH   1   6
TORSDOF 7
ENDMDL
MODEL 5
REMARK VINA RESULT:    -2.659      2.329      2.813
REMARK INTER + INTRA:          -4.240
REMARK INTER:                  -4.044
REMARK INTRA:                  -0.196
REMARK UNBOUND:                -0.493
REMARK SMILES CCCCCCCCC=O
REMARK SMILES IDX 5 1 4 2 3 3 2 4 1 5 6 6 7 7 8 8 9 9 10 10
REMARK H PARENT
REMARK Flexibility Score: inf
ROOT
ATOM      1  C   UNL     1       9.158  -4.930  -1.525  1.00  0.00     0.000 C 
ENDROOT
BRANCH   1   2
ATOM      2  C   UNL     1       8.994  -5.805  -0.273  1.00  0.00    -0.000 C 
BRANCH   2   3
ATOM      3  C   UNL     1       7.511  -6.047   0.036  1.00  0.00    -0.000 C 
BRANCH   3   4
ATOM      4  C   UNL     1       7.172  -5.624   1.470  1.00  0.00    -0.003 C 
ATOM      5  C   UNL     1       6.039  -4.602   1.488  1.00  0.00     0.004 C 
ENDBRANCH   3   4
ENDBRANCH   2   3
ENDBRANCH   1   2
BRANCH   1   6
ATOM      6  C   UNL     1      10.597  -4.933  -2.067  1.00  0.00     0.000 C 
BRANCH   6   7
ATOM      7  C   UNL     1      11.641  -4.645  -0.974  1.00  0.00     0.008 C 
BRANCH   7   8
ATOM      8  C   UNL     1      12.824  -3.813  -1.494  1.00  0.00     0.072 C 
BRANCH   8   9
ATOM      9  C   UNL     1      13.181  -4.155  -2.912  1.00  0.00     0.224 C 
ATOM     10  O   UNL     1      13.050  -3.332  -3.803  1.00  0.00    -0.303 OA
ENDBRANCH   8   9
ENDBRANCH   7   8
ENDBRANCH   6   7
ENDBRANCH   1   6
TORSDOF 7
ENDMDL
MODEL 6
REMARK VINA RESULT:    -2.655      1.927      2.680
REMARK INTER + INTRA:          -4.235
REMARK INTER:                  -3.661
REMARK INTRA:                  -0.574
REMARK UNBOUND:                -0.493
REMARK SMILES CCCCCCCCC=O
REMARK SMILES IDX 5 1 4 2 3 3 2 4 1 5 6 6 7 7 8 8 9 9 10 10
REMARK H PARENT
REMARK Flexibility Score: inf
ROOT
ATOM      1  C   UNL     1      11.979  -3.961  -3.576  1.00  0.00     0.000 C 
ENDROOT
BRANCH   1   2
ATOM      2  C   UNL     1      11.169  -5.197  -3.996  1.00  0.00    -0.000 C 
BRANCH   2   3
ATOM      3  C   UNL     1       9.726  -5.108  -3.483  1.00  0.00    -0.000 C 
BRANCH   3   4
ATOM      4  C   UNL     1       9.570  -3.961  -2.478  1.00  0.00    -0.003 C 
ATOM      5  C   UNL     1       8.391  -3.066  -2.844  1.00  0.00     0.004 C 
ENDBRANCH   3   4
ENDBRANCH   2   3
ENDBRANCH   1   2
BRANCH   1   6
ATOM      6  C   UNL     1      13.296  -4.325  -2.871  1.00  0.00     0.000 C 
BRANCH   6   7
ATOM      7  C   UNL     1      13.238  -5.702  -2.185  1.00  0.00     0.008 C 
BRANCH   7   8
ATOM      8  C   UNL     1      12.782  -5.612  -0.721  1.00  0.00     0.072 C 
BRANCH   8   9
ATOM      9  C   UNL     1      13.464  -4.500   0.022  1.00  0.00     0.224 C 
ATOM     10  O   UNL     1      14.560  -4.671   0.532  1.00  0.00    -0.303 OA
ENDBRANCH   8   9
ENDBRANCH   7   8
ENDBRANCH   6   7
ENDBRANCH   1   6
TORSDOF 7
ENDMDL
MODEL 7
REMARK VINA RESULT:    -2.615      9.542     11.105
REMARK INTER + INTRA:          -4.178
REMARK INTER:                  -3.506
REMARK INTRA:                  -0.672
REMARK UNBOUND:                -0.493
REMARK SMILES CCCCCCCCC=O
REMARK SMILES IDX 5 1 4 2 3 3 2 4 1 5 6 6 7 7 8 8 9 9 10 10
REMARK H PARENT
REMARK Flexibility Score: inf
ROOT
ATOM      1  C   UNL     1       7.848   4.940  -7.291  1.00  0.00     0.000 C 
ENDROOT
BRANCH   1   2
ATOM      2  C   UNL     1       8.086   6.423  -7.611  1.00  0.00    -0.000 C 
BRANCH   2   3
ATOM      3  C   UNL     1       9.586   6.738  -7.673  1.00  0.00    -0.000 C 
BRANCH   3   4
ATOM      4  C   UNL     1       9.985   7.241  -9.066  1.00  0.00    -0.003 C 
ATOM      5  C   UNL     1      10.140   6.081 -10.046  1.00  0.00     0.004 C 
ENDBRANCH   3   4
ENDBRANCH   2   3
ENDBRANCH   1   2
BRANCH   1   6
ATOM      6  C   UNL     1       9.130   4.215  -6.847  1.00  0.00     0.000 C 
BRANCH   6   7
ATOM      7  C   UNL     1       9.517   3.066  -7.796  1.00  0.00     0.008 C 
BRANCH   7   8
ATOM      8  C   UNL     1       8.417   2.752  -8.821  1.00  0.00     0.072 C 
BRANCH   8   9
ATOM      9  C   UNL     1       7.889   1.354  -8.681  1.00  0.00     0.224 C 
ATOM     10  O   UNL     1       8.649   0.414  -8.508  1.00  0.00    -0.303 OA
ENDBRANCH   8   9
ENDBRANCH   7   8
ENDBRANCH   6   7
ENDBRANCH   1   6
TORSDOF 7
ENDMDL
MODEL 8
REMARK VINA RESULT:    -2.613     11.865     14.015
REMARK INTER + INTRA:          -4.175
REMARK INTER:                  -3.448
REMARK INTRA:                  -0.726
REMARK UNBOUND:                -0.493
REMARK SMILES CCCCCCCCC=O
REMARK SMILES IDX 5 1 4 2 3 3 2 4 1 5 6 6 7 7 8 8 9 9 10 10
REMARK H PARENT
REMARK Flexibility Score: inf
ROOT
ATOM      1  C   UNL     1      17.984   3.453   7.717  1.00  0.00     0.000 C 
ENDROOT
BRANCH   1   2
ATOM      2  C   UNL     1      19.517   3.495   7.628  1.00  0.00    -0.000 C 
BRANCH   2   3
ATOM      3  C   UNL     1      20.034   2.487   6.594  1.00  0.00    -0.000 C 
BRANCH   3   4
ATOM      4  C   UNL     1      20.055   1.067   7.174  1.00  0.00    -0.003 C 
ATOM      5  C   UNL     1      19.500   0.057   6.174  1.00  0.00     0.004 C 
ENDBRANCH   3   4
ENDBRANCH   2   3
ENDBRANCH   1   2
BRANCH   1   6
ATOM      6  C   UNL     1      17.481   2.860   9.043  1.00  0.00     0.000 C 
BRANCH   6   7
ATOM      7  C   UNL     1      16.688   1.556   8.844  1.00  0.00     0.008 C 
BRANCH   7   8
ATOM      8  C   UNL     1      16.154   1.404   7.412  1.00  0.00     0.072 C 
BRANCH   8   9
ATOM      9  C   UNL     1      15.849  -0.025   7.065  1.00  0.00     0.224 C 
ATOM     10  O   UNL     1      15.779  -0.383   5.900  1.00  0.00    -0.303 OA
ENDBRANCH   8   9
ENDBRANCH   7   8
ENDBRANCH   6   7
ENDBRANCH   1   6
TORSDOF 7
ENDMDL
MODEL 9
REMARK VINA RESULT:    -2.533     10.906     12.387
REMARK INTER + INTRA:          -4.062
REMARK INTER:                  -3.424
REMARK INTRA:                  -0.638
REMARK UNBOUND:                -0.493
REMARK SMILES CCCCCCCCC=O
REMARK SMILES IDX 5 1 4 2 3 3 2 4 1 5 6 6 7 7 8 8 9 9 10 10
REMARK H PARENT
REMARK Flexibility Score: inf
ROOT
ATOM      1  C   UNL     1       9.053   6.026  -9.760  1.00  0.00     0.000 C 
ENDROOT
BRANCH   1   2
ATOM      2  C   UNL     1       9.148   4.500  -9.908  1.00  0.00    -0.000 C 
BRANCH   2   3
ATOM      3  C   UNL     1       8.341   3.792  -8.814  1.00  0.00    -0.000 C 
BRANCH   3   4
ATOM      4  C   UNL     1       9.247   2.910  -7.946  1.00  0.00    -0.003 C 
ATOM      5  C   UNL     1       9.833   3.702  -6.781  1.00  0.00     0.004 C 
ENDBRANCH   3   4
ENDBRANCH   2   3
ENDBRANCH   1   2
BRANCH   1   6
ATOM      6  C   UNL     1      10.399   6.673  -9.394  1.00  0.00     0.000 C 
BRANCH   6   7
ATOM      7  C   UNL     1      10.359   7.393  -8.034  1.00  0.00     0.008 C 
BRANCH   7   8
ATOM      8  C   UNL     1       8.933   7.519  -7.477  1.00  0.00     0.072 C 
BRANCH   8   9
ATOM      9  C   UNL     1       8.705   8.832  -6.785  1.00  0.00     0.224 C 
ATOM     10  O   UNL     1       9.450   9.205  -5.893  1.00  0.00    -0.303 OA
ENDBRANCH   8   9
ENDBRANCH   7   8
ENDBRANCH   6   7
ENDBRANCH   1   6
TORSDOF 7
ENDMDL
