MODEL 1
REMARK VINA RESULT:    -6.493      0.000      0.000
REMARK INTER + INTRA:          -7.922
REMARK INTER:                  -7.631
REMARK INTRA:                  -0.291
REMARK UNBOUND:                -0.291
REMARK SMILES O=c1c(O)c(-c2ccc(O)c(O)c2)oc2cc(O)ccc12
REMARK SMILES IDX 5 1 3 2 2 3 1 4 21 5 15 6 14 7 16 8 17 9 19 10 20 11 6 12
REMARK SMILES IDX 7 13 8 14 9 15 13 16 11 17 10 18 12 20 4 22 18 24
REMARK H PARENT 10 19 12 21 4 23 18 25
REMARK Flexibility Score: inf
ROOT
ATOM      1  C   UNL     1       6.986 -17.764 -38.496  1.00  0.00     0.180 A 
ATOM      2  C   UNL     1       7.063 -16.385 -38.782  1.00  0.00     0.208 A 
ATOM      3  C   UNL     1       8.281 -15.855 -39.234  1.00  0.00     0.235 A 
ATOM      4  O   UNL     1       8.373 -14.627 -39.508  1.00  0.00    -0.285 OA
ATOM      5  C   UNL     1       9.394 -16.701 -39.370  1.00  0.00     0.069 A 
ATOM      6  C   UNL     1       9.242 -18.064 -39.039  1.00  0.00     0.142 A 
ATOM      7  O   UNL     1       8.068 -18.528 -38.624  1.00  0.00    -0.452 OA
ATOM      8  C   UNL     1      10.330 -18.938 -39.152  1.00  0.00     0.094 A 
ATOM      9  C   UNL     1      11.571 -18.465 -39.592  1.00  0.00     0.119 A 
ATOM     10  C   UNL     1      11.725 -17.112 -39.922  1.00  0.00     0.047 A 
ATOM     11  C   UNL     1      10.645 -16.231 -39.812  1.00  0.00     0.020 A 
ENDROOT
BRANCH   1  12
ATOM     12  C   UNL     1       5.733 -18.402 -38.033  1.00  0.00     0.025 A 
ATOM     13  C   UNL     1       5.321 -18.321 -36.692  1.00  0.00     0.016 A 
ATOM     14  C   UNL     1       4.121 -18.911 -36.284  1.00  0.00     0.051 A 
ATOM     15  C   UNL     1       3.310 -19.578 -37.211  1.00  0.00     0.157 A 
ATOM     16  C   UNL     1       4.906 -19.054 -38.963  1.00  0.00     0.062 A 
ATOM     17  C   UNL     1       3.704 -19.646 -38.558  1.00  0.00     0.158 A 
BRANCH  15  18
ATOM     18  O   UNL     1       2.115 -20.167 -36.801  1.00  0.00    -0.504 OA
ATOM     19  H   UNL     1       1.959 -21.164 -36.884  1.00  0.00     0.293 HD
ENDBRANCH  15  18
BRANCH  17  20
ATOM     20  O   UNL     1       2.916 -20.296 -39.508  1.00  0.00    -0.504 OA
ATOM     21  H   UNL     1       2.152 -19.830 -39.983  1.00  0.00     0.293 HD
ENDBRANCH  17  20
ENDBRANCH   1  12
BRANCH   2  22
ATOM     22  O   UNL     1       5.952 -15.559 -38.591  1.00  0.00    -0.502 OA
ATOM     23  H   UNL     1       5.547 -15.015 -39.343  1.00  0.00     0.293 HD
ENDBRANCH   2  22
BRANCH   9  24
ATOM     24  O   UNL     1      12.643 -19.348 -39.699  1.00  0.00    -0.508 OA
ATOM     25  H   UNL     1      13.433 -19.151 -40.302  1.00  0.00     0.293 HD
ENDBRANCH   9  24
TORSDOF 5
ENDMDL
MODEL 2
REMARK VINA RESULT:    -6.308      3.085      7.930
REMARK INTER + INTRA:          -7.705
REMARK INTER:                  -7.388
REMARK INTRA:                  -0.318
REMARK UNBOUND:                -0.291
REMARK SMILES O=c1c(O)c(-c2ccc(O)c(O)c2)oc2cc(O)ccc12
REMARK SMILES IDX 5 1 3 2 2 3 1 4 21 5 15 6 14 7 16 8 17 9 19 10 20 11 6 12
REMARK SMILES IDX 7 13 8 14 9 15 13 16 11 17 10 18 12 20 4 22 18 24
REMARK H PARENT 10 19 12 21 4 23 18 25
REMARK Flexibility Score: inf
ROOT
ATOM      1  C   UNL     1       3.471 -17.755 -37.389  1.00  0.00     0.180 A 
ATOM      2  C   UNL     1       2.422 -18.597 -37.816  1.00  0.00     0.208 A 
ATOM      3  C   UNL     1       1.187 -18.527 -37.153  1.00  0.00     0.235 A 
ATOM      4  O   UNL     1       0.230 -19.261 -37.522  1.00  0.00    -0.285 OA
ATOM      5  C   UNL     1       1.032 -17.641 -36.074  1.00  0.00     0.069 A 
ATOM      6  C   UNL     1       2.137 -16.850 -35.694  1.00  0.00     0.142 A 
ATOM      7  O   UNL     1       3.287 -16.940 -36.353  1.00  0.00    -0.452 OA
ATOM      8  C   UNL     1       2.026 -15.963 -34.617  1.00  0.00     0.094 A 
ATOM      9  C   UNL     1       0.821 -15.853 -33.915  1.00  0.00     0.119 A 
ATOM     10  C   UNL     1      -0.280 -16.636 -34.291  1.00  0.00     0.047 A 
ATOM     11  C   UNL     1      -0.178 -17.526 -35.365  1.00  0.00     0.020 A 
ENDROOT
BRANCH   1  12
ATOM     12  C   UNL     1       4.796 -17.756 -38.049  1.00  0.00     0.025 A 
ATOM     13  C   UNL     1       5.825 -18.617 -37.626  1.00  0.00     0.016 A 
ATOM     14  C   UNL     1       7.060 -18.616 -38.280  1.00  0.00     0.051 A 
ATOM     15  C   UNL     1       7.282 -17.767 -39.372  1.00  0.00     0.157 A 
ATOM     16  C   UNL     1       5.018 -16.922 -39.157  1.00  0.00     0.062 A 
ATOM     17  C   UNL     1       6.254 -16.919 -39.814  1.00  0.00     0.158 A 
BRANCH  15  18
ATOM     18  O   UNL     1       8.515 -17.768 -40.021  1.00  0.00    -0.504 OA
ATOM     19  H   UNL     1       9.205 -18.490 -39.849  1.00  0.00     0.293 HD
ENDBRANCH  15  18
BRANCH  17  20
ATOM     20  O   UNL     1       6.439 -16.066 -40.903  1.00  0.00    -0.504 OA
ATOM     21  H   UNL     1       7.116 -15.312 -40.886  1.00  0.00     0.293 HD
ENDBRANCH  17  20
ENDBRANCH   1  12
BRANCH   2  22
ATOM     22  O   UNL     1       2.622 -19.503 -38.861  1.00  0.00    -0.502 OA
ATOM     23  H   UNL     1       1.985 -19.572 -39.645  1.00  0.00     0.293 HD
ENDBRANCH   2  22
BRANCH   9  24
ATOM     24  O   UNL     1       0.726 -14.964 -32.847  1.00  0.00    -0.508 OA
ATOM     25  H   UNL     1       1.430 -14.253 -32.686  1.00  0.00     0.293 HD
ENDBRANCH   9  24
TORSDOF 5
ENDMDL
MODEL 3
REMARK VINA RESULT:    -6.109      3.542      6.710
REMARK INTER + INTRA:          -7.471
REMARK INTER:                  -7.265
REMARK INTRA:                  -0.206
REMARK UNBOUND:                -0.291
REMARK SMILES O=c1c(O)c(-c2ccc(O)c(O)c2)oc2cc(O)ccc12
REMARK SMILES IDX 5 1 3 2 2 3 1 4 21 5 15 6 14 7 16 8 17 9 19 10 20 11 6 12
REMARK SMILES IDX 7 13 8 14 9 15 13 16 11 17 10 18 12 20 4 22 18 24
REMARK H PARENT 10 19 12 21 4 23 18 25
REMARK Flexibility Score: inf
ROOT
ATOM      1  C   UNL     1      13.049 -18.629 -39.624  1.00  0.00     0.180 A 
ATOM      2  C   UNL     1      13.589 -19.199 -40.797  1.00  0.00     0.208 A 
ATOM      3  C   UNL     1      14.981 -19.337 -40.902  1.00  0.00     0.235 A 
ATOM      4  O   UNL     1      15.488 -19.853 -41.935  1.00  0.00    -0.285 OA
ATOM      5  C   UNL     1      15.800 -18.889 -39.853  1.00  0.00     0.069 A 
ATOM      6  C   UNL     1      15.185 -18.308 -38.724  1.00  0.00     0.142 A 
ATOM      7  O   UNL     1      13.861 -18.204 -38.660  1.00  0.00    -0.452 OA
ATOM      8  C   UNL     1      15.967 -17.841 -37.662  1.00  0.00     0.094 A 
ATOM      9  C   UNL     1      17.361 -17.947 -37.713  1.00  0.00     0.119 A 
ATOM     10  C   UNL     1      17.976 -18.525 -38.832  1.00  0.00     0.047 A 
ATOM     11  C   UNL     1      17.203 -18.994 -39.898  1.00  0.00     0.020 A 
ENDROOT
BRANCH   1  12
ATOM     12  C   UNL     1      11.591 -18.467 -39.430  1.00  0.00     0.025 A 
ATOM     13  C   UNL     1      10.892 -19.217 -38.468  1.00  0.00     0.016 A 
ATOM     14  C   UNL     1       9.519 -19.029 -38.286  1.00  0.00     0.051 A 
ATOM     15  C   UNL     1       8.827 -18.081 -39.051  1.00  0.00     0.157 A 
ATOM     16  C   UNL     1      10.896 -17.503 -40.180  1.00  0.00     0.062 A 
ATOM     17  C   UNL     1       9.521 -17.313 -40.001  1.00  0.00     0.158 A 
BRANCH  15  18
ATOM     18  O   UNL     1       7.457 -17.897 -38.869  1.00  0.00    -0.504 OA
ATOM     19  H   UNL     1       6.885 -18.595 -38.408  1.00  0.00     0.293 HD
ENDBRANCH  15  18
BRANCH  17  20
ATOM     20  O   UNL     1       8.863 -16.356 -40.774  1.00  0.00    -0.504 OA
ATOM     21  H   UNL     1       9.218 -16.056 -41.674  1.00  0.00     0.293 HD
ENDBRANCH  17  20
ENDBRANCH   1  12
BRANCH   2  22
ATOM     22  O   UNL     1      12.751 -19.591 -41.844  1.00  0.00    -0.502 OA
ATOM     23  H   UNL     1      11.800 -19.255 -41.931  1.00  0.00     0.293 HD
ENDBRANCH   2  22
BRANCH   9  24
ATOM     24  O   UNL     1      18.125 -17.477 -36.647  1.00  0.00    -0.508 OA
ATOM     25  H   UNL     1      17.694 -17.056 -35.832  1.00  0.00     0.293 HD
ENDBRANCH   9  24
TORSDOF 5
ENDMDL
MODEL 4
REMARK VINA RESULT:    -6.098      2.029      3.364
REMARK INTER + INTRA:          -7.459
REMARK INTER:                  -7.417
REMARK INTRA:                  -0.042
REMARK UNBOUND:                -0.291
REMARK SMILES O=c1c(O)c(-c2ccc(O)c(O)c2)oc2cc(O)ccc12
REMARK SMILES IDX 5 1 3 2 2 3 1 4 21 5 15 6 14 7 16 8 17 9 19 10 20 11 6 12
REMARK SMILES IDX 7 13 8 14 9 15 13 16 11 17 10 18 12 20 4 22 18 24
REMARK H PARENT 10 19 12 21 4 23 18 25
REMARK Flexibility Score: inf
ROOT
ATOM      1  C   UNL     1       6.846 -17.626 -39.293  1.00  0.00     0.180 A 
ATOM      2  C   UNL     1       8.217 -17.755 -38.989  1.00  0.00     0.208 A 
ATOM      3  C   UNL     1       9.145 -16.982 -39.703  1.00  0.00     0.235 A 
ATOM      4  O   UNL     1      10.375 -17.072 -39.443  1.00  0.00    -0.285 OA
ATOM      5  C   UNL     1       8.690 -16.117 -40.712  1.00  0.00     0.069 A 
ATOM      6  C   UNL     1       7.305 -16.063 -40.973  1.00  0.00     0.142 A 
ATOM      7  O   UNL     1       6.458 -16.805 -40.267  1.00  0.00    -0.452 OA
ATOM      8  C   UNL     1       6.813 -15.221 -41.977  1.00  0.00     0.094 A 
ATOM      9  C   UNL     1       7.691 -14.430 -42.727  1.00  0.00     0.119 A 
ATOM     10  C   UNL     1       9.068 -14.480 -42.470  1.00  0.00     0.047 A 
ATOM     11  C   UNL     1       9.568 -15.319 -41.469  1.00  0.00     0.020 A 
ENDROOT
BRANCH   1  12
ATOM     12  C   UNL     1       5.805 -18.392 -38.572  1.00  0.00     0.025 A 
ATOM     13  C   UNL     1       5.739 -18.396 -37.167  1.00  0.00     0.016 A 
ATOM     14  C   UNL     1       4.732 -19.107 -36.509  1.00  0.00     0.051 A 
ATOM     15  C   UNL     1       3.771 -19.815 -37.242  1.00  0.00     0.157 A 
ATOM     16  C   UNL     1       4.826 -19.086 -39.302  1.00  0.00     0.062 A 
ATOM     17  C   UNL     1       3.817 -19.801 -38.646  1.00  0.00     0.158 A 
BRANCH  15  18
ATOM     18  O   UNL     1       2.769 -20.525 -36.583  1.00  0.00    -0.504 OA
ATOM     19  H   UNL     1       2.983 -21.321 -35.994  1.00  0.00     0.293 HD
ENDBRANCH  15  18
BRANCH  17  20
ATOM     20  O   UNL     1       2.871 -20.488 -39.406  1.00  0.00    -0.504 OA
ATOM     21  H   UNL     1       2.454 -21.356 -39.089  1.00  0.00     0.293 HD
ENDBRANCH  17  20
ENDBRANCH   1  12
BRANCH   2  22
ATOM     22  O   UNL     1       8.643 -18.660 -38.013  1.00  0.00    -0.502 OA
ATOM     23  H   UNL     1       9.306 -18.405 -37.291  1.00  0.00     0.293 HD
ENDBRANCH   2  22
BRANCH   9  24
ATOM     24  O   UNL     1       7.185 -13.597 -43.722  1.00  0.00    -0.508 OA
ATOM     25  H   UNL     1       6.408 -13.882 -44.307  1.00  0.00     0.293 HD
ENDBRANCH   9  24
TORSDOF 5
ENDMDL
MODEL 5
REMARK VINA RESULT:    -6.052      2.738      6.555
REMARK INTER + INTRA:          -7.404
REMARK INTER:                  -7.080
REMARK INTRA:                  -0.324
REMARK UNBOUND:                -0.291
REMARK SMILES O=c1c(O)c(-c2ccc(O)c(O)c2)oc2cc(O)ccc12
REMARK SMILES IDX 5 1 3 2 2 3 1 4 21 5 15 6 14 7 16 8 17 9 19 10 20 11 6 12
REMARK SMILES IDX 7 13 8 14 9 15 13 16 11 17 10 18 12 20 4 22 18 24
REMARK H PARENT 10 19 12 21 4 23 18 25
REMARK Flexibility Score: inf
ROOT
ATOM      1  C   UNL     1       5.780 -16.651 -39.533  1.00  0.00     0.180 A 
ATOM      2  C   UNL     1       4.809 -15.811 -38.949  1.00  0.00     0.208 A 
ATOM      3  C   UNL     1       3.859 -16.375 -38.084  1.00  0.00     0.235 A 
ATOM      4  O   UNL     1       2.986 -15.644 -37.541  1.00  0.00    -0.285 OA
ATOM      5  C   UNL     1       3.884 -17.757 -37.838  1.00  0.00     0.069 A 
ATOM      6  C   UNL     1       4.873 -18.533 -38.480  1.00  0.00     0.142 A 
ATOM      7  O   UNL     1       5.761 -17.958 -39.285  1.00  0.00    -0.452 OA
ATOM      8  C   UNL     1       4.926 -19.915 -38.268  1.00  0.00     0.094 A 
ATOM      9  C   UNL     1       4.001 -20.535 -37.420  1.00  0.00     0.119 A 
ATOM     10  C   UNL     1       3.018 -19.767 -36.780  1.00  0.00     0.047 A 
ATOM     11  C   UNL     1       2.957 -18.386 -36.986  1.00  0.00     0.020 A 
ENDROOT
BRANCH   1  12
ATOM     12  C   UNL     1       6.827 -16.129 -40.440  1.00  0.00     0.025 A 
ATOM     13  C   UNL     1       8.059 -15.666 -39.947  1.00  0.00     0.016 A 
ATOM     14  C   UNL     1       9.042 -15.200 -40.825  1.00  0.00     0.051 A 
ATOM     15  C   UNL     1       8.814 -15.202 -42.207  1.00  0.00     0.157 A 
ATOM     16  C   UNL     1       6.612 -16.148 -41.828  1.00  0.00     0.062 A 
ATOM     17  C   UNL     1       7.593 -15.682 -42.710  1.00  0.00     0.158 A 
BRANCH  15  18
ATOM     18  O   UNL     1       9.795 -14.735 -43.080  1.00  0.00    -0.504 OA
ATOM     19  H   UNL     1      10.474 -15.359 -43.498  1.00  0.00     0.293 HD
ENDBRANCH  15  18
BRANCH  17  20
ATOM     20  O   UNL     1       7.337 -15.704 -44.081  1.00  0.00    -0.504 OA
ATOM     21  H   UNL     1       7.260 -16.570 -44.600  1.00  0.00     0.293 HD
ENDBRANCH  17  20
ENDBRANCH   1  12
BRANCH   2  22
ATOM     22  O   UNL     1       4.778 -14.447 -39.251  1.00  0.00    -0.502 OA
ATOM     23  H   UNL     1       5.402 -14.029 -39.931  1.00  0.00     0.293 HD
ENDBRANCH   2  22
BRANCH   9  24
ATOM     24  O   UNL     1       4.068 -21.912 -37.220  1.00  0.00    -0.508 OA
ATOM     25  H   UNL     1       3.817 -22.330 -36.331  1.00  0.00     0.293 HD
ENDBRANCH   9  24
TORSDOF 5
ENDMDL
MODEL 6
REMARK VINA RESULT:    -6.030      1.597      6.487
REMARK INTER + INTRA:          -7.378
REMARK INTER:                  -7.557
REMARK INTRA:                   0.179
REMARK UNBOUND:                -0.291
REMARK SMILES O=c1c(O)c(-c2ccc(O)c(O)c2)oc2cc(O)ccc12
REMARK SMILES IDX 5 1 3 2 2 3 1 4 21 5 15 6 14 7 16 8 17 9 19 10 20 11 6 12
REMARK SMILES IDX 7 13 8 14 9 15 13 16 11 17 10 18 12 20 4 22 18 24
REMARK H PARENT 10 19 12 21 4 23 18 25
REMARK Flexibility Score: inf
ROOT
ATOM      1  C   UNL     1       7.173 -17.434 -38.948  1.00  0.00     0.180 A 
ATOM      2  C   UNL     1       6.777 -16.129 -39.312  1.00  0.00     0.208 A 
ATOM      3  C   UNL     1       5.422 -15.781 -39.211  1.00  0.00     0.235 A 
ATOM      4  O   UNL     1       5.044 -14.618 -39.520  1.00  0.00    -0.285 OA
ATOM      5  C   UNL     1       4.494 -16.739 -38.772  1.00  0.00     0.069 A 
ATOM      6  C   UNL     1       4.966 -18.029 -38.450  1.00  0.00     0.142 A 
ATOM      7  O   UNL     1       6.259 -18.316 -38.551  1.00  0.00    -0.452 OA
ATOM      8  C   UNL     1       4.070 -19.015 -38.018  1.00  0.00     0.094 A 
ATOM      9  C   UNL     1       2.706 -18.727 -37.903  1.00  0.00     0.119 A 
ATOM     10  C   UNL     1       2.234 -17.446 -38.221  1.00  0.00     0.047 A 
ATOM     11  C   UNL     1       3.120 -16.455 -38.654  1.00  0.00     0.020 A 
ENDROOT
BRANCH   1  12
ATOM     12  C   UNL     1       8.585 -17.872 -39.009  1.00  0.00     0.025 A 
ATOM     13  C   UNL     1       9.440 -17.449 -40.042  1.00  0.00     0.016 A 
ATOM     14  C   UNL     1      10.777 -17.857 -40.064  1.00  0.00     0.051 A 
ATOM     15  C   UNL     1      11.282 -18.681 -39.050  1.00  0.00     0.157 A 
ATOM     16  C   UNL     1       9.103 -18.681 -37.984  1.00  0.00     0.062 A 
ATOM     17  C   UNL     1      10.441 -19.092 -38.003  1.00  0.00     0.158 A 
BRANCH  15  18
ATOM     18  O   UNL     1      12.615 -19.088 -39.077  1.00  0.00    -0.504 OA
ATOM     19  H   UNL     1      13.280 -18.686 -39.727  1.00  0.00     0.293 HD
ENDBRANCH  15  18
BRANCH  17  20
ATOM     20  O   UNL     1      10.914 -19.907 -36.975  1.00  0.00    -0.504 OA
ATOM     21  H   UNL     1      11.298 -20.828 -37.152  1.00  0.00     0.293 HD
ENDBRANCH  17  20
ENDBRANCH   1  12
BRANCH   2  22
ATOM     22  O   UNL     1       7.717 -15.213 -39.792  1.00  0.00    -0.502 OA
ATOM     23  H   UNL     1       8.031 -15.214 -40.755  1.00  0.00     0.293 HD
ENDBRANCH   2  22
BRANCH   9  24
ATOM     24  O   UNL     1       1.829 -19.719 -37.471  1.00  0.00    -0.508 OA
ATOM     25  H   UNL     1       1.642 -19.868 -36.486  1.00  0.00     0.293 HD
ENDBRANCH   9  24
TORSDOF 5
ENDMDL
MODEL 7
REMARK VINA RESULT:    -6.029      2.237      2.993
REMARK INTER + INTRA:          -7.377
REMARK INTER:                  -7.066
REMARK INTRA:                  -0.311
REMARK UNBOUND:                -0.291
REMARK SMILES O=c1c(O)c(-c2ccc(O)c(O)c2)oc2cc(O)ccc12
REMARK SMILES IDX 5 1 3 2 2 3 1 4 21 5 15 6 14 7 16 8 17 9 19 10 20 11 6 12
REMARK SMILES IDX 7 13 8 14 9 15 13 16 11 17 10 18 12 20 4 22 18 24
REMARK H PARENT 10 19 12 21 4 23 18 25
REMARK Flexibility Score: inf
ROOT
ATOM      1  C   UNL     1       4.338 -17.144 -38.139  1.00  0.00     0.180 A 
ATOM      2  C   UNL     1       4.435 -16.178 -39.163  1.00  0.00     0.208 A 
ATOM      3  C   UNL     1       5.657 -16.025 -39.835  1.00  0.00     0.235 A 
ATOM      4  O   UNL     1       5.766 -15.176 -40.761  1.00  0.00    -0.285 OA
ATOM      5  C   UNL     1       6.754 -16.817 -39.460  1.00  0.00     0.069 A 
ATOM      6  C   UNL     1       6.583 -17.743 -38.410  1.00  0.00     0.142 A 
ATOM      7  O   UNL     1       5.406 -17.865 -37.805  1.00  0.00    -0.452 OA
ATOM      8  C   UNL     1       7.655 -18.544 -38.000  1.00  0.00     0.094 A 
ATOM      9  C   UNL     1       8.900 -18.432 -38.629  1.00  0.00     0.119 A 
ATOM     10  C   UNL     1       9.074 -17.514 -39.674  1.00  0.00     0.047 A 
ATOM     11  C   UNL     1       8.009 -16.709 -40.089  1.00  0.00     0.020 A 
ENDROOT
BRANCH   1  12
ATOM     12  C   UNL     1       3.078 -17.379 -37.398  1.00  0.00     0.025 A 
ATOM     13  C   UNL     1       2.728 -16.598 -36.283  1.00  0.00     0.016 A 
ATOM     14  C   UNL     1       1.521 -16.823 -35.614  1.00  0.00     0.051 A 
ATOM     15  C   UNL     1       0.643 -17.822 -36.055  1.00  0.00     0.157 A 
ATOM     16  C   UNL     1       2.184 -18.365 -37.849  1.00  0.00     0.062 A 
ATOM     17  C   UNL     1       0.976 -18.594 -37.181  1.00  0.00     0.158 A 
BRANCH  15  18
ATOM     18  O   UNL     1      -0.558 -18.045 -35.384  1.00  0.00    -0.504 OA
ATOM     19  H   UNL     1      -0.659 -18.797 -34.713  1.00  0.00     0.293 HD
ENDBRANCH  15  18
BRANCH  17  20
ATOM     20  O   UNL     1       0.121 -19.590 -37.650  1.00  0.00    -0.504 OA
ATOM     21  H   UNL     1      -0.568 -19.412 -38.371  1.00  0.00     0.293 HD
ENDBRANCH  17  20
ENDBRANCH   1  12
BRANCH   2  22
ATOM     22  O   UNL     1       3.339 -15.371 -39.481  1.00  0.00    -0.502 OA
ATOM     23  H   UNL     1       3.397 -14.360 -39.489  1.00  0.00     0.293 HD
ENDBRANCH   2  22
BRANCH   9  24
ATOM     24  O   UNL     1       9.956 -19.237 -38.210  1.00  0.00    -0.508 OA
ATOM     25  H   UNL     1       9.814 -20.002 -37.559  1.00  0.00     0.293 HD
ENDBRANCH   9  24
TORSDOF 5
ENDMDL
MODEL 8
REMARK VINA RESULT:    -5.966      2.598      3.235
REMARK INTER + INTRA:          -7.303
REMARK INTER:                  -7.099
REMARK INTRA:                  -0.204
REMARK UNBOUND:                -0.291
REMARK SMILES O=c1c(O)c(-c2ccc(O)c(O)c2)oc2cc(O)ccc12
REMARK SMILES IDX 5 1 3 2 2 3 1 4 21 5 15 6 14 7 16 8 17 9 19 10 20 11 6 12
REMARK SMILES IDX 7 13 8 14 9 15 13 16 11 17 10 18 12 20 4 22 18 24
REMARK H PARENT 10 19 12 21 4 23 18 25
REMARK Flexibility Score: inf
ROOT
ATOM      1  C   UNL     1       5.583 -16.633 -38.312  1.00  0.00     0.180 A 
ATOM      2  C   UNL     1       4.714 -15.593 -38.706  1.00  0.00     0.208 A 
ATOM      3  C   UNL     1       5.259 -14.338 -39.015  1.00  0.00     0.235 A 
ATOM      4  O   UNL     1       4.505 -13.395 -39.379  1.00  0.00    -0.285 OA
ATOM      5  C   UNL     1       6.645 -14.141 -38.905  1.00  0.00     0.069 A 
ATOM      6  C   UNL     1       7.443 -15.224 -38.482  1.00  0.00     0.142 A 
ATOM      7  O   UNL     1       6.889 -16.401 -38.207  1.00  0.00    -0.452 OA
ATOM      8  C   UNL     1       8.828 -15.066 -38.351  1.00  0.00     0.094 A 
ATOM      9  C   UNL     1       9.427 -13.835 -38.639  1.00  0.00     0.119 A 
ATOM     10  C   UNL     1       8.637 -12.757 -39.062  1.00  0.00     0.047 A 
ATOM     11  C   UNL     1       7.253 -12.905 -39.195  1.00  0.00     0.020 A 
ENDROOT
BRANCH   1  12
ATOM     12  C   UNL     1       5.088 -17.990 -37.988  1.00  0.00     0.025 A 
ATOM     13  C   UNL     1       5.078 -18.471 -36.667  1.00  0.00     0.016 A 
ATOM     14  C   UNL     1       4.583 -19.747 -36.384  1.00  0.00     0.051 A 
ATOM     15  C   UNL     1       4.080 -20.555 -37.411  1.00  0.00     0.157 A 
ATOM     16  C   UNL     1       4.562 -18.797 -39.012  1.00  0.00     0.062 A 
ATOM     17  C   UNL     1       4.067 -20.075 -38.731  1.00  0.00     0.158 A 
BRANCH  15  18
ATOM     18  O   UNL     1       3.589 -21.828 -37.125  1.00  0.00    -0.504 OA
ATOM     19  H   UNL     1       4.201 -22.633 -37.072  1.00  0.00     0.293 HD
ENDBRANCH  15  18
BRANCH  17  20
ATOM     20  O   UNL     1       3.566 -20.852 -39.776  1.00  0.00    -0.504 OA
ATOM     21  H   UNL     1       2.581 -21.077 -39.854  1.00  0.00     0.293 HD
ENDBRANCH  17  20
ENDBRANCH   1  12
BRANCH   2  22
ATOM     22  O   UNL     1       3.334 -15.806 -38.758  1.00  0.00    -0.502 OA
ATOM     23  H   UNL     1       2.924 -16.575 -39.273  1.00  0.00     0.293 HD
ENDBRANCH   2  22
BRANCH   9  24
ATOM     24  O   UNL     1      10.806 -13.694 -38.505  1.00  0.00    -0.508 OA
ATOM     25  H   UNL     1      11.222 -12.822 -38.199  1.00  0.00     0.293 HD
ENDBRANCH   9  24
TORSDOF 5
ENDMDL
MODEL 9
REMARK VINA RESULT:    -5.964      2.625      3.425
REMARK INTER + INTRA:          -7.302
REMARK INTER:                  -7.024
REMARK INTRA:                  -0.277
REMARK UNBOUND:                -0.291
REMARK SMILES O=c1c(O)c(-c2ccc(O)c(O)c2)oc2cc(O)ccc12
REMARK SMILES IDX 5 1 3 2 2 3 1 4 21 5 15 6 14 7 16 8 17 9 19 10 20 11 6 12
REMARK SMILES IDX 7 13 8 14 9 15 13 16 11 17 10 18 12 20 4 22 18 24
REMARK H PARENT 10 19 12 21 4 23 18 25
REMARK Flexibility Score: inf
ROOT
ATOM      1  C   UNL     1       5.409 -17.066 -38.914  1.00  0.00     0.180 A 
ATOM      2  C   UNL     1       4.691 -15.868 -38.719  1.00  0.00     0.208 A 
ATOM      3  C   UNL     1       5.201 -14.678 -39.261  1.00  0.00     0.235 A 
ATOM      4  O   UNL     1       4.572 -13.595 -39.110  1.00  0.00    -0.285 OA
ATOM      5  C   UNL     1       6.417 -14.705 -39.963  1.00  0.00     0.069 A 
ATOM      6  C   UNL     1       7.087 -15.939 -40.093  1.00  0.00     0.142 A 
ATOM      7  O   UNL     1       6.565 -17.046 -39.573  1.00  0.00    -0.452 OA
ATOM      8  C   UNL     1       8.306 -16.006 -40.777  1.00  0.00     0.094 A 
ATOM      9  C   UNL     1       8.866 -14.851 -41.334  1.00  0.00     0.119 A 
ATOM     10  C   UNL     1       8.203 -13.623 -41.208  1.00  0.00     0.047 A 
ATOM     11  C   UNL     1       6.985 -13.546 -40.526  1.00  0.00     0.020 A 
ENDROOT
BRANCH   1  12
ATOM     12  C   UNL     1       4.928 -18.364 -38.390  1.00  0.00     0.025 A 
ATOM     13  C   UNL     1       4.334 -19.320 -39.234  1.00  0.00     0.016 A 
ATOM     14  C   UNL     1       3.910 -20.549 -38.721  1.00  0.00     0.051 A 
ATOM     15  C   UNL     1       4.083 -20.846 -37.362  1.00  0.00     0.157 A 
ATOM     16  C   UNL     1       5.118 -18.676 -37.034  1.00  0.00     0.062 A 
ATOM     17  C   UNL     1       4.693 -19.905 -36.516  1.00  0.00     0.158 A 
BRANCH  15  18
ATOM     18  O   UNL     1       3.656 -22.071 -36.854  1.00  0.00    -0.504 OA
ATOM     19  H   UNL     1       3.700 -22.279 -35.863  1.00  0.00     0.293 HD
ENDBRANCH  15  18
BRANCH  17  20
ATOM     20  O   UNL     1       4.886 -20.173 -35.161  1.00  0.00    -0.504 OA
ATOM     21  H   UNL     1       5.666 -19.785 -34.643  1.00  0.00     0.293 HD
ENDBRANCH  17  20
ENDBRANCH   1  12
BRANCH   2  22
ATOM     22  O   UNL     1       3.508 -15.864 -37.975  1.00  0.00    -0.502 OA
ATOM     23  H   UNL     1       2.812 -15.135 -38.068  1.00  0.00     0.293 HD
ENDBRANCH   2  22
BRANCH   9  24
ATOM     24  O   UNL     1      10.080 -14.935 -42.012  1.00  0.00    -0.508 OA
ATOM     25  H   UNL     1      10.379 -14.210 -42.654  1.00  0.00     0.293 HD
ENDBRANCH   9  24
TORSDOF 5
ENDMDL
