MODEL 1
REMARK VINA RESULT:    -6.530      0.000      0.000
REMARK INTER + INTRA:          -9.801
REMARK INTER:                  -9.011
REMARK INTRA:                  -0.791
REMARK UNBOUND:                -0.791
REMARK SMILES CC[C@@H](CC[C@@H](C)[C@H]1CC[C@@H]2[C@@H]3CC=C4C[C@H](O)CC[C@]4(C)[C@H]3CC[C@@]21C)C(C)C
REMARK SMILES IDX 5 1 4 2 3 3 2 4 1 5 28 6 29 7 30 8 6 9 7 10 8 11 9 12 26 13
REMARK SMILES IDX 10 14 11 15 25 16 27 17 12 18 24 19 23 20 13 21 21 22 14 23
REMARK SMILES IDX 15 24 20 25 22 26 16 27 19 28 17 29 18 30
REMARK H PARENT 18 31
REMARK Flexibility Score: inf
ROOT
ATOM      1  C   UNL     1      -2.726  39.043   1.543  1.00  0.00     0.004 C 
ENDROOT
BRANCH   1   2
ATOM      2  C   UNL     1      -1.763  40.251   1.437  1.00  0.00     0.004 C 
BRANCH   2   3
ATOM      3  C   UNL     1      -2.018  41.134   0.183  1.00  0.00    -0.009 C 
BRANCH   3   4
ATOM      4  C   UNL     1      -2.603  40.261  -0.965  1.00  0.00     0.000 C 
ATOM      5  C   UNL     1      -3.585  40.990  -1.882  1.00  0.00     0.004 C 
ENDBRANCH   3   4
BRANCH   3   6
ATOM      6  C   UNL     1      -0.716  41.933  -0.180  1.00  0.00    -0.014 C 
ATOM      7  C   UNL     1       0.022  41.375  -1.410  1.00  0.00     0.007 C 
ATOM      8  C   UNL     1       0.250  42.118   1.000  1.00  0.00     0.007 C 
ENDBRANCH   3   6
ENDBRANCH   2   3
ENDBRANCH   1   2
BRANCH   1   9
ATOM      9  C   UNL     1      -3.564  38.990   2.853  1.00  0.00    -0.011 C 
ATOM     10  C   UNL     1      -3.416  40.283   3.676  1.00  0.00     0.008 C 
BRANCH   9  11
ATOM     11  C   UNL     1      -5.077  38.573   2.707  1.00  0.00    -0.002 C 
ATOM     12  C   UNL     1      -6.030  38.919   3.866  1.00  0.00     0.005 C 
ATOM     13  C   UNL     1      -5.802  39.055   1.419  1.00  0.00    -0.026 C 
ATOM     14  C   UNL     1      -7.422  39.082   3.250  1.00  0.00     0.005 C 
ATOM     15  C   UNL     1      -7.296  38.723   1.751  1.00  0.00    -0.001 C 
ATOM     16  C   UNL     1      -5.234  38.363   0.130  1.00  0.00     0.007 C 
ATOM     17  C   UNL     1      -5.658  40.596   1.234  1.00  0.00     0.012 C 
ATOM     18  C   UNL     1      -7.811  37.271   1.353  1.00  0.00     0.000 C 
ATOM     19  C   UNL     1      -6.240  37.477  -0.596  1.00  0.00     0.005 C 
ATOM     20  C   UNL     1      -6.858  36.498   0.410  1.00  0.00     0.003 C 
ATOM     21  C   UNL     1      -8.203  36.333   2.513  1.00  0.00     0.031 C 
ATOM     22  C   UNL     1      -7.550  35.238  -0.237  1.00  0.00    -0.008 C 
ATOM     23  C   UNL     1      -8.619  34.962   2.045  1.00  0.00    -0.027 C 
ATOM     24  C   UNL     1      -8.287  34.435   0.845  1.00  0.00    -0.065 C 
ATOM     25  C   UNL     1      -6.452  34.321  -0.868  1.00  0.00     0.014 C 
ATOM     26  C   UNL     1      -8.566  35.653  -1.336  1.00  0.00     0.016 C 
ATOM     27  C   UNL     1      -8.750  33.029   0.513  1.00  0.00     0.063 C 
ATOM     28  C   UNL     1      -6.949  32.914  -1.248  1.00  0.00     0.033 C 
ATOM     29  C   UNL     1      -7.596  32.196  -0.058  1.00  0.00     0.118 C 
BRANCH  29  30
ATOM     30  O   UNL     1      -6.628  31.955   0.933  1.00  0.00    -0.393 OA
ATOM     31  H   UNL     1      -6.104  32.793   1.031  1.00  0.00     0.210 HD
ENDBRANCH  29  30
ENDBRANCH   9  11
ENDBRANCH   1   9
TORSDOF 7
ENDMDL
MODEL 2
REMARK VINA RESULT:    -5.712      2.706      8.307
REMARK INTER + INTRA:          -8.673
REMARK INTER:                  -7.464
REMARK INTRA:                  -1.209
REMARK UNBOUND:                -0.791
REMARK SMILES CC[C@@H](CC[C@@H](C)[C@H]1CC[C@@H]2[C@@H]3CC=C4C[C@H](O)CC[C@]4(C)[C@H]3CC[C@@]21C)C(C)C
REMARK SMILES IDX 5 1 4 2 3 3 2 4 1 5 28 6 29 7 30 8 6 9 7 10 8 11 9 12 26 13
REMARK SMILES IDX 10 14 11 15 25 16 27 17 12 18 24 19 23 20 13 21 21 22 14 23
REMARK SMILES IDX 15 24 20 25 22 26 16 27 19 28 17 29 18 30
REMARK H PARENT 18 31
REMARK Flexibility Score: inf
ROOT
ATOM      1  C   UNL     1      -7.918  33.126  -1.232  1.00  0.00     0.004 C 
ENDROOT
BRANCH   1   2
ATOM      2  C   UNL     1      -7.085  32.175  -0.338  1.00  0.00     0.004 C 
BRANCH   2   3
ATOM      3  C   UNL     1      -7.769  30.799  -0.098  1.00  0.00    -0.009 C 
BRANCH   3   4
ATOM      4  C   UNL     1      -8.788  30.512  -1.238  1.00  0.00     0.000 C 
ATOM      5  C   UNL     1      -8.348  29.438  -2.231  1.00  0.00     0.004 C 
ENDBRANCH   3   4
BRANCH   3   6
ATOM      6  C   UNL     1      -8.357  30.742   1.357  1.00  0.00    -0.014 C 
ATOM      7  C   UNL     1      -7.406  31.314   2.424  1.00  0.00     0.007 C 
ATOM      8  C   UNL     1      -8.868  29.352   1.768  1.00  0.00     0.007 C 
ENDBRANCH   3   6
ENDBRANCH   2   3
ENDBRANCH   1   2
BRANCH   1   9
ATOM      9  C   UNL     1      -8.233  34.511  -0.594  1.00  0.00    -0.011 C 
ATOM     10  C   UNL     1      -8.784  34.366   0.836  1.00  0.00     0.008 C 
BRANCH   9  11
ATOM     11  C   UNL     1      -7.092  35.595  -0.662  1.00  0.00    -0.002 C 
ATOM     12  C   UNL     1      -5.830  35.257  -1.478  1.00  0.00     0.005 C 
ATOM     13  C   UNL     1      -7.518  37.015  -1.132  1.00  0.00    -0.026 C 
ATOM     14  C   UNL     1      -5.262  36.590  -1.972  1.00  0.00     0.005 C 
ATOM     15  C   UNL     1      -6.131  37.708  -1.351  1.00  0.00    -0.001 C 
ATOM     16  C   UNL     1      -8.461  37.719  -0.094  1.00  0.00     0.007 C 
ATOM     17  C   UNL     1      -8.271  36.955  -2.495  1.00  0.00     0.012 C 
ATOM     18  C   UNL     1      -5.494  38.447  -0.094  1.00  0.00     0.000 C 
ATOM     19  C   UNL     1      -7.868  38.977   0.532  1.00  0.00     0.005 C 
ATOM     20  C   UNL     1      -6.476  38.649   1.086  1.00  0.00     0.003 C 
ATOM     21  C   UNL     1      -4.186  37.855   0.468  1.00  0.00     0.031 C 
ATOM     22  C   UNL     1      -5.930  39.678   2.148  1.00  0.00    -0.008 C 
ATOM     23  C   UNL     1      -3.690  38.581   1.693  1.00  0.00    -0.027 C 
ATOM     24  C   UNL     1      -4.468  39.351   2.487  1.00  0.00    -0.065 C 
ATOM     25  C   UNL     1      -6.777  39.556   3.457  1.00  0.00     0.014 C 
ATOM     26  C   UNL     1      -6.011  41.135   1.617  1.00  0.00     0.016 C 
ATOM     27  C   UNL     1      -3.845  40.001   3.707  1.00  0.00     0.063 C 
ATOM     28  C   UNL     1      -6.158  40.266   4.674  1.00  0.00     0.033 C 
ATOM     29  C   UNL     1      -4.725  39.793   4.944  1.00  0.00     0.118 C 
BRANCH  29  30
ATOM     30  O   UNL     1      -4.737  38.437   5.315  1.00  0.00    -0.393 OA
ATOM     31  H   UNL     1      -3.995  37.998   4.821  1.00  0.00     0.210 HD
ENDBRANCH  29  30
ENDBRANCH   9  11
ENDBRANCH   1   9
TORSDOF 7
ENDMDL
MODEL 3
REMARK VINA RESULT:    -5.560      2.379      8.374
REMARK INTER + INTRA:          -8.464
REMARK INTER:                  -7.994
REMARK INTRA:                  -0.470
REMARK UNBOUND:                -0.791
REMARK SMILES CC[C@@H](CC[C@@H](C)[C@H]1CC[C@@H]2[C@@H]3CC=C4C[C@H](O)CC[C@]4(C)[C@H]3CC[C@@]21C)C(C)C
REMARK SMILES IDX 5 1 4 2 3 3 2 4 1 5 28 6 29 7 30 8 6 9 7 10 8 11 9 12 26 13
REMARK SMILES IDX 10 14 11 15 25 16 27 17 12 18 24 19 23 20 13 21 21 22 14 23
REMARK SMILES IDX 15 24 20 25 22 26 16 27 19 28 17 29 18 30
REMARK H PARENT 18 31
REMARK Flexibility Score: inf
ROOT
ATOM      1  C   UNL     1      -7.613  34.413   0.661  1.00  0.00     0.004 C 
ENDROOT
BRANCH   1   2
ATOM      2  C   UNL     1      -8.658  33.299   0.409  1.00  0.00     0.004 C 
BRANCH   2   3
ATOM      3  C   UNL     1      -8.332  31.969   1.146  1.00  0.00    -0.009 C 
BRANCH   3   4
ATOM      4  C   UNL     1      -6.864  31.999   1.661  1.00  0.00     0.000 C 
ATOM      5  C   UNL     1      -6.692  31.584   3.121  1.00  0.00     0.004 C 
ENDBRANCH   3   4
BRANCH   3   6
ATOM      6  C   UNL     1      -8.696  30.747   0.229  1.00  0.00    -0.014 C 
ATOM      7  C   UNL     1      -9.046  29.474   1.018  1.00  0.00     0.007 C 
ATOM      8  C   UNL     1      -7.649  30.450  -0.855  1.00  0.00     0.007 C 
ENDBRANCH   3   6
ENDBRANCH   2   3
ENDBRANCH   1   2
BRANCH   1   9
ATOM      9  C   UNL     1      -6.720  34.759  -0.566  1.00  0.00    -0.011 C 
ATOM     10  C   UNL     1      -7.221  34.067  -1.847  1.00  0.00     0.008 C 
BRANCH   9  11
ATOM     11  C   UNL     1      -6.430  36.288  -0.817  1.00  0.00    -0.002 C 
ATOM     12  C   UNL     1      -6.136  36.734  -2.261  1.00  0.00     0.005 C 
ATOM     13  C   UNL     1      -7.496  37.288  -0.286  1.00  0.00    -0.026 C 
ATOM     14  C   UNL     1      -6.583  38.193  -2.365  1.00  0.00     0.005 C 
ATOM     15  C   UNL     1      -7.035  38.628  -0.951  1.00  0.00    -0.001 C 
ATOM     16  C   UNL     1      -7.555  37.306   1.282  1.00  0.00     0.007 C 
ATOM     17  C   UNL     1      -8.918  36.927  -0.812  1.00  0.00     0.012 C 
ATOM     18  C   UNL     1      -5.984  39.506  -0.140  1.00  0.00     0.000 C 
ATOM     19  C   UNL     1      -7.156  38.639   1.904  1.00  0.00     0.005 C 
ATOM     20  C   UNL     1      -5.800  39.069   1.333  1.00  0.00     0.003 C 
ATOM     21  C   UNL     1      -4.585  39.668  -0.770  1.00  0.00     0.031 C 
ATOM     22  C   UNL     1      -5.040  40.156   2.186  1.00  0.00    -0.008 C 
ATOM     23  C   UNL     1      -3.640  40.461   0.095  1.00  0.00    -0.027 C 
ATOM     24  C   UNL     1      -3.795  40.639   1.426  1.00  0.00    -0.065 C 
ATOM     25  C   UNL     1      -4.573  39.512   3.533  1.00  0.00     0.014 C 
ATOM     26  C   UNL     1      -5.951  41.376   2.489  1.00  0.00     0.016 C 
ATOM     27  C   UNL     1      -2.750  41.437   2.182  1.00  0.00     0.063 C 
ATOM     28  C   UNL     1      -3.552  40.357   4.314  1.00  0.00     0.033 C 
ATOM     29  C   UNL     1      -2.327  40.706   3.461  1.00  0.00     0.118 C 
BRANCH  29  30
ATOM     30  O   UNL     1      -1.621  39.532   3.145  1.00  0.00    -0.393 OA
ATOM     31  H   UNL     1      -1.987  39.201   2.283  1.00  0.00     0.210 HD
ENDBRANCH  29  30
ENDBRANCH   9  11
ENDBRANCH   1   9
TORSDOF 7
ENDMDL
MODEL 4
REMARK VINA RESULT:    -5.236      2.131      5.204
REMARK INTER + INTRA:          -8.016
REMARK INTER:                  -6.436
REMARK INTRA:                  -1.580
REMARK UNBOUND:                -0.791
REMARK SMILES CC[C@@H](CC[C@@H](C)[C@H]1CC[C@@H]2[C@@H]3CC=C4C[C@H](O)CC[C@]4(C)[C@H]3CC[C@@]21C)C(C)C
REMARK SMILES IDX 5 1 4 2 3 3 2 4 1 5 28 6 29 7 30 8 6 9 7 10 8 11 9 12 26 13
REMARK SMILES IDX 10 14 11 15 25 16 27 17 12 18 24 19 23 20 13 21 21 22 14 23
REMARK SMILES IDX 15 24 20 25 22 26 16 27 19 28 17 29 18 30
REMARK H PARENT 18 31
REMARK Flexibility Score: inf
ROOT
ATOM      1  C   UNL     1      -3.994  40.575   3.989  1.00  0.00     0.004 C 
ENDROOT
BRANCH   1   2
ATOM      2  C   UNL     1      -5.395  40.975   4.515  1.00  0.00     0.004 C 
BRANCH   2   3
ATOM      3  C   UNL     1      -6.544  40.107   3.928  1.00  0.00    -0.009 C 
BRANCH   3   4
ATOM      4  C   UNL     1      -6.009  38.686   3.588  1.00  0.00     0.000 C 
ATOM      5  C   UNL     1      -6.101  37.679   4.734  1.00  0.00     0.004 C 
ENDBRANCH   3   4
BRANCH   3   6
ATOM      6  C   UNL     1      -7.232  40.866   2.738  1.00  0.00    -0.014 C 
ATOM      7  C   UNL     1      -8.712  41.198   2.999  1.00  0.00     0.007 C 
ATOM      8  C   UNL     1      -7.057  40.177   1.376  1.00  0.00     0.007 C 
ENDBRANCH   3   6
ENDBRANCH   2   3
ENDBRANCH   1   2
BRANCH   1   9
ATOM      9  C   UNL     1      -3.394  41.545   2.931  1.00  0.00    -0.011 C 
ATOM     10  C   UNL     1      -1.974  41.999   3.316  1.00  0.00     0.008 C 
BRANCH   9  11
ATOM     11  C   UNL     1      -3.457  41.075   1.427  1.00  0.00    -0.002 C 
ATOM     12  C   UNL     1      -3.180  42.125   0.336  1.00  0.00     0.005 C 
ATOM     13  C   UNL     1      -2.578  39.848   1.052  1.00  0.00    -0.026 C 
ATOM     14  C   UNL     1      -2.614  41.365  -0.865  1.00  0.00     0.005 C 
ATOM     15  C   UNL     1      -2.666  39.860  -0.511  1.00  0.00    -0.001 C 
ATOM     16  C   UNL     1      -3.082  38.531   1.740  1.00  0.00     0.007 C 
ATOM     17  C   UNL     1      -1.094  40.069   1.474  1.00  0.00     0.012 C 
ATOM     18  C   UNL     1      -3.867  39.047  -1.167  1.00  0.00     0.000 C 
ATOM     19  C   UNL     1      -3.573  37.468   0.764  1.00  0.00     0.005 C 
ATOM     20  C   UNL     1      -4.598  38.099  -0.185  1.00  0.00     0.003 C 
ATOM     21  C   UNL     1      -4.931  39.871  -1.920  1.00  0.00     0.031 C 
ATOM     22  C   UNL     1      -5.527  37.068  -0.933  1.00  0.00    -0.008 C 
ATOM     23  C   UNL     1      -6.059  39.025  -2.453  1.00  0.00    -0.027 C 
ATOM     24  C   UNL     1      -6.377  37.798  -1.984  1.00  0.00    -0.065 C 
ATOM     25  C   UNL     1      -6.492  36.406   0.104  1.00  0.00     0.014 C 
ATOM     26  C   UNL     1      -4.694  35.963  -1.637  1.00  0.00     0.016 C 
ATOM     27  C   UNL     1      -7.558  37.068  -2.594  1.00  0.00     0.063 C 
ATOM     28  C   UNL     1      -7.657  35.625  -0.529  1.00  0.00     0.033 C 
ATOM     29  C   UNL     1      -8.465  36.492  -1.501  1.00  0.00     0.118 C 
BRANCH  29  30
ATOM     30  O   UNL     1      -9.100  37.528  -0.794  1.00  0.00    -0.393 OA
ATOM     31  H   UNL     1      -9.742  37.098  -0.169  1.00  0.00     0.210 HD
ENDBRANCH  29  30
ENDBRANCH   9  11
ENDBRANCH   1   9
TORSDOF 7
ENDMDL
MODEL 5
REMARK VINA RESULT:    -5.027      2.680      8.383
REMARK INTER + INTRA:          -7.728
REMARK INTER:                  -6.722
REMARK INTRA:                  -1.006
REMARK UNBOUND:                -0.791
REMARK SMILES CC[C@@H](CC[C@@H](C)[C@H]1CC[C@@H]2[C@@H]3CC=C4C[C@H](O)CC[C@]4(C)[C@H]3CC[C@@]21C)C(C)C
REMARK SMILES IDX 5 1 4 2 3 3 2 4 1 5 28 6 29 7 30 8 6 9 7 10 8 11 9 12 26 13
REMARK SMILES IDX 10 14 11 15 25 16 27 17 12 18 24 19 23 20 13 21 21 22 14 23
REMARK SMILES IDX 15 24 20 25 22 26 16 27 19 28 17 29 18 30
REMARK H PARENT 18 31
REMARK Flexibility Score: inf
ROOT
ATOM      1  C   UNL     1      -6.877  32.856   0.375  1.00  0.00     0.004 C 
ENDROOT
BRANCH   1   2
ATOM      2  C   UNL     1      -7.144  31.960  -0.860  1.00  0.00     0.004 C 
BRANCH   2   3
ATOM      3  C   UNL     1      -8.542  31.281  -0.838  1.00  0.00    -0.009 C 
BRANCH   3   4
ATOM      4  C   UNL     1      -8.455  29.919  -0.091  1.00  0.00     0.000 C 
ATOM      5  C   UNL     1      -9.034  29.929   1.322  1.00  0.00     0.004 C 
ENDBRANCH   3   4
BRANCH   3   6
ATOM      6  C   UNL     1      -9.123  31.211  -2.296  1.00  0.00    -0.014 C 
ATOM      7  C   UNL     1      -8.561  30.041  -3.122  1.00  0.00     0.007 C 
ATOM      8  C   UNL     1      -9.016  32.532  -3.073  1.00  0.00     0.007 C 
ENDBRANCH   3   6
ENDBRANCH   2   3
ENDBRANCH   1   2
BRANCH   1   9
ATOM      9  C   UNL     1      -7.733  34.155   0.434  1.00  0.00    -0.011 C 
ATOM     10  C   UNL     1      -8.391  34.339   1.814  1.00  0.00     0.008 C 
BRANCH   9  11
ATOM     11  C   UNL     1      -7.035  35.482  -0.050  1.00  0.00    -0.002 C 
ATOM     12  C   UNL     1      -6.004  35.376  -1.188  1.00  0.00     0.005 C 
ATOM     13  C   UNL     1      -7.980  36.648  -0.458  1.00  0.00    -0.026 C 
ATOM     14  C   UNL     1      -6.021  36.721  -1.917  1.00  0.00     0.005 C 
ATOM     15  C   UNL     1      -6.982  37.646  -1.135  1.00  0.00    -0.001 C 
ATOM     16  C   UNL     1      -8.770  37.222   0.771  1.00  0.00     0.007 C 
ATOM     17  C   UNL     1      -9.023  36.182  -1.518  1.00  0.00     0.012 C 
ATOM     18  C   UNL     1      -6.279  38.710  -0.183  1.00  0.00     0.000 C 
ATOM     19  C   UNL     1      -8.436  38.672   1.102  1.00  0.00     0.005 C 
ATOM     20  C   UNL     1      -6.914  38.817   1.224  1.00  0.00     0.003 C 
ATOM     21  C   UNL     1      -4.751  38.583  -0.011  1.00  0.00     0.031 C 
ATOM     22  C   UNL     1      -6.434  40.103   1.999  1.00  0.00    -0.008 C 
ATOM     23  C   UNL     1      -4.182  39.592   0.953  1.00  0.00    -0.027 C 
ATOM     24  C   UNL     1      -4.908  40.235   1.896  1.00  0.00    -0.065 C 
ATOM     25  C   UNL     1      -6.813  39.959   3.509  1.00  0.00     0.014 C 
ATOM     26  C   UNL     1      -7.092  41.388   1.425  1.00  0.00     0.016 C 
ATOM     27  C   UNL     1      -4.200  41.206   2.821  1.00  0.00     0.063 C 
ATOM     28  C   UNL     1      -6.129  40.984   4.431  1.00  0.00     0.033 C 
ATOM     29  C   UNL     1      -4.603  40.959   4.280  1.00  0.00     0.118 C 
BRANCH  29  30
ATOM     30  O   UNL     1      -4.104  39.722   4.724  1.00  0.00    -0.393 OA
ATOM     31  H   UNL     1      -3.508  39.380   4.007  1.00  0.00     0.210 HD
ENDBRANCH  29  30
ENDBRANCH   9  11
ENDBRANCH   1   9
TORSDOF 7
ENDMDL
MODEL 6
REMARK VINA RESULT:    -5.022      2.499      8.063
REMARK INTER + INTRA:          -7.721
REMARK INTER:                  -6.223
REMARK INTRA:                  -1.499
REMARK UNBOUND:                -0.791
REMARK SMILES CC[C@@H](CC[C@@H](C)[C@H]1CC[C@@H]2[C@@H]3CC=C4C[C@H](O)CC[C@]4(C)[C@H]3CC[C@@]21C)C(C)C
REMARK SMILES IDX 5 1 4 2 3 3 2 4 1 5 28 6 29 7 30 8 6 9 7 10 8 11 9 12 26 13
REMARK SMILES IDX 10 14 11 15 25 16 27 17 12 18 24 19 23 20 13 21 21 22 14 23
REMARK SMILES IDX 15 24 20 25 22 26 16 27 19 28 17 29 18 30
REMARK H PARENT 18 31
REMARK Flexibility Score: inf
ROOT
ATOM      1  C   UNL     1      -8.267  35.438  -1.946  1.00  0.00     0.004 C 
ENDROOT
BRANCH   1   2
ATOM      2  C   UNL     1      -8.966  34.139  -1.472  1.00  0.00     0.004 C 
BRANCH   2   3
ATOM      3  C   UNL     1      -8.016  33.169  -0.715  1.00  0.00    -0.009 C 
BRANCH   3   4
ATOM      4  C   UNL     1      -7.687  31.944  -1.617  1.00  0.00     0.000 C 
ATOM      5  C   UNL     1      -8.621  31.763  -2.812  1.00  0.00     0.004 C 
ENDBRANCH   3   4
BRANCH   3   6
ATOM      6  C   UNL     1      -8.620  32.822   0.693  1.00  0.00    -0.014 C 
ATOM      7  C   UNL     1      -8.103  33.731   1.821  1.00  0.00     0.007 C 
ATOM      8  C   UNL     1      -8.487  31.341   1.079  1.00  0.00     0.007 C 
ENDBRANCH   3   6
ENDBRANCH   2   3
ENDBRANCH   1   2
BRANCH   1   9
ATOM      9  C   UNL     1      -7.107  35.925  -1.029  1.00  0.00    -0.011 C 
ATOM     10  C   UNL     1      -5.736  35.448  -1.543  1.00  0.00     0.008 C 
BRANCH   9  11
ATOM     11  C   UNL     1      -7.084  37.462  -0.678  1.00  0.00    -0.002 C 
ATOM     12  C   UNL     1      -7.709  38.438  -1.692  1.00  0.00     0.005 C 
ATOM     13  C   UNL     1      -7.681  37.862   0.701  1.00  0.00    -0.026 C 
ATOM     14  C   UNL     1      -8.195  39.646  -0.889  1.00  0.00     0.005 C 
ATOM     15  C   UNL     1      -7.754  39.421   0.576  1.00  0.00    -0.001 C 
ATOM     16  C   UNL     1      -6.814  37.327   1.894  1.00  0.00     0.007 C 
ATOM     17  C   UNL     1      -9.125  37.302   0.873  1.00  0.00     0.012 C 
ATOM     18  C   UNL     1      -6.466  40.236   1.033  1.00  0.00     0.000 C 
ATOM     19  C   UNL     1      -6.184  38.422   2.747  1.00  0.00     0.005 C 
ATOM     20  C   UNL     1      -5.437  39.399   1.830  1.00  0.00     0.003 C 
ATOM     21  C   UNL     1      -5.707  41.006  -0.068  1.00  0.00     0.031 C 
ATOM     22  C   UNL     1      -4.370  40.301   2.559  1.00  0.00    -0.008 C 
ATOM     23  C   UNL     1      -4.469  41.696   0.444  1.00  0.00    -0.027 C 
ATOM     24  C   UNL     1      -3.826  41.356   1.584  1.00  0.00    -0.065 C 
ATOM     25  C   UNL     1      -3.177  39.404   3.026  1.00  0.00     0.014 C 
ATOM     26  C   UNL     1      -4.983  41.022   3.790  1.00  0.00     0.016 C 
ATOM     27  C   UNL     1      -2.572  42.118   1.967  1.00  0.00     0.063 C 
ATOM     28  C   UNL     1      -1.929  40.192   3.462  1.00  0.00     0.033 C 
ATOM     29  C   UNL     1      -1.450  41.154   2.368  1.00  0.00     0.118 C 
BRANCH  29  30
ATOM     30  O   UNL     1      -1.011  40.419   1.252  1.00  0.00    -0.393 OA
ATOM     31  H   UNL     1      -0.498  39.645   1.603  1.00  0.00     0.210 HD
ENDBRANCH  29  30
ENDBRANCH   9  11
ENDBRANCH   1   9
TORSDOF 7
ENDMDL
MODEL 7
REMARK VINA RESULT:    -4.893      1.722      4.225
REMARK INTER + INTRA:          -7.542
REMARK INTER:                  -6.707
REMARK INTRA:                  -0.836
REMARK UNBOUND:                -0.791
REMARK SMILES CC[C@@H](CC[C@@H](C)[C@H]1CC[C@@H]2[C@@H]3CC=C4C[C@H](O)CC[C@]4(C)[C@H]3CC[C@@]21C)C(C)C
REMARK SMILES IDX 5 1 4 2 3 3 2 4 1 5 28 6 29 7 30 8 6 9 7 10 8 11 9 12 26 13
REMARK SMILES IDX 10 14 11 15 25 16 27 17 12 18 24 19 23 20 13 21 21 22 14 23
REMARK SMILES IDX 15 24 20 25 22 26 16 27 19 28 17 29 18 30
REMARK H PARENT 18 31
REMARK Flexibility Score: inf
ROOT
ATOM      1  C   UNL     1      -2.562  40.115   3.059  1.00  0.00     0.004 C 
ENDROOT
BRANCH   1   2
ATOM      2  C   UNL     1      -3.472  40.616   4.207  1.00  0.00     0.004 C 
BRANCH   2   3
ATOM      3  C   UNL     1      -4.386  39.506   4.798  1.00  0.00    -0.009 C 
BRANCH   3   4
ATOM      4  C   UNL     1      -4.502  38.327   3.789  1.00  0.00     0.000 C 
ATOM      5  C   UNL     1      -5.710  38.404   2.856  1.00  0.00     0.004 C 
ENDBRANCH   3   4
BRANCH   3   6
ATOM      6  C   UNL     1      -5.751  40.129   5.262  1.00  0.00    -0.014 C 
ATOM      7  C   UNL     1      -5.901  41.616   4.894  1.00  0.00     0.007 C 
ATOM      8  C   UNL     1      -6.068  39.898   6.747  1.00  0.00     0.007 C 
ENDBRANCH   3   6
ENDBRANCH   2   3
ENDBRANCH   1   2
BRANCH   1   9
ATOM      9  C   UNL     1      -2.701  40.904   1.724  1.00  0.00    -0.011 C 
ATOM     10  C   UNL     1      -1.561  40.569   0.745  1.00  0.00     0.008 C 
BRANCH   9  11
ATOM     11  C   UNL     1      -4.105  40.842   1.012  1.00  0.00    -0.002 C 
ATOM     12  C   UNL     1      -5.082  42.008   1.251  1.00  0.00     0.005 C 
ATOM     13  C   UNL     1      -4.087  40.630  -0.529  1.00  0.00    -0.026 C 
ATOM     14  C   UNL     1      -5.969  42.095   0.007  1.00  0.00     0.005 C 
ATOM     15  C   UNL     1      -5.580  40.909  -0.907  1.00  0.00    -0.001 C 
ATOM     16  C   UNL     1      -3.553  39.207  -0.920  1.00  0.00     0.007 C 
ATOM     17  C   UNL     1      -3.183  41.687  -1.232  1.00  0.00     0.012 C 
ATOM     18  C   UNL     1      -6.572  39.666  -0.869  1.00  0.00     0.000 C 
ATOM     19  C   UNL     1      -4.584  38.325  -1.614  1.00  0.00     0.005 C 
ATOM     20  C   UNL     1      -5.863  38.294  -0.769  1.00  0.00     0.003 C 
ATOM     21  C   UNL     1      -7.692  39.706   0.191  1.00  0.00     0.031 C 
ATOM     22  C   UNL     1      -6.836  37.095  -1.089  1.00  0.00    -0.008 C 
ATOM     23  C   UNL     1      -8.543  38.461   0.194  1.00  0.00    -0.027 C 
ATOM     24  C   UNL     1      -8.153  37.273  -0.319  1.00  0.00    -0.065 C 
ATOM     25  C   UNL     1      -6.170  35.760  -0.620  1.00  0.00     0.014 C 
ATOM     26  C   UNL     1      -7.147  37.008  -2.608  1.00  0.00     0.016 C 
ATOM     27  C   UNL     1      -9.101  36.093  -0.223  1.00  0.00     0.063 C 
ATOM     28  C   UNL     1      -7.131  34.558  -0.577  1.00  0.00     0.033 C 
ATOM     29  C   UNL     1      -8.367  34.845   0.284  1.00  0.00     0.118 C 
BRANCH  29  30
ATOM     30  O   UNL     1      -7.980  35.015   1.625  1.00  0.00    -0.393 OA
ATOM     31  H   UNL     1      -8.721  34.661   2.184  1.00  0.00     0.210 HD
ENDBRANCH  29  30
ENDBRANCH   9  11
ENDBRANCH   1   9
TORSDOF 7
ENDMDL
MODEL 8
REMARK VINA RESULT:    -4.874      2.720      7.799
REMARK INTER + INTRA:          -7.517
REMARK INTER:                  -6.390
REMARK INTRA:                  -1.127
REMARK UNBOUND:                -0.791
REMARK SMILES CC[C@@H](CC[C@@H](C)[C@H]1CC[C@@H]2[C@@H]3CC=C4C[C@H](O)CC[C@]4(C)[C@H]3CC[C@@]21C)C(C)C
REMARK SMILES IDX 5 1 4 2 3 3 2 4 1 5 28 6 29 7 30 8 6 9 7 10 8 11 9 12 26 13
REMARK SMILES IDX 10 14 11 15 25 16 27 17 12 18 24 19 23 20 13 21 21 22 14 23
REMARK SMILES IDX 15 24 20 25 22 26 16 27 19 28 17 29 18 30
REMARK H PARENT 18 31
REMARK Flexibility Score: inf
ROOT
ATOM      1  C   UNL     1      -7.966  34.448  -1.049  1.00  0.00     0.004 C 
ENDROOT
BRANCH   1   2
ATOM      2  C   UNL     1      -9.122  34.132  -0.067  1.00  0.00     0.004 C 
BRANCH   2   3
ATOM      3  C   UNL     1      -8.642  33.479   1.259  1.00  0.00    -0.009 C 
BRANCH   3   4
ATOM      4  C   UNL     1      -8.117  34.578   2.228  1.00  0.00     0.000 C 
ATOM      5  C   UNL     1      -9.069  35.755   2.432  1.00  0.00     0.004 C 
ENDBRANCH   3   4
BRANCH   3   6
ATOM      6  C   UNL     1      -7.629  32.320   0.948  1.00  0.00    -0.014 C 
ATOM      7  C   UNL     1      -8.285  31.097   0.283  1.00  0.00     0.007 C 
ATOM      8  C   UNL     1      -6.778  31.896   2.155  1.00  0.00     0.007 C 
ENDBRANCH   3   6
ENDBRANCH   2   3
ENDBRANCH   1   2
BRANCH   1   9
ATOM      9  C   UNL     1      -7.759  35.961  -1.348  1.00  0.00    -0.011 C 
ATOM     10  C   UNL     1      -8.961  36.803  -0.880  1.00  0.00     0.008 C 
BRANCH   9  11
ATOM     11  C   UNL     1      -6.397  36.595  -0.872  1.00  0.00    -0.002 C 
ATOM     12  C   UNL     1      -5.128  35.729  -0.978  1.00  0.00     0.005 C 
ATOM     13  C   UNL     1      -6.016  37.964  -1.504  1.00  0.00    -0.026 C 
ATOM     14  C   UNL     1      -3.955  36.696  -1.154  1.00  0.00     0.005 C 
ATOM     15  C   UNL     1      -4.530  38.127  -1.038  1.00  0.00    -0.001 C 
ATOM     16  C   UNL     1      -6.988  39.110  -1.053  1.00  0.00     0.007 C 
ATOM     17  C   UNL     1      -6.052  37.894  -3.060  1.00  0.00     0.012 C 
ATOM     18  C   UNL     1      -4.294  38.845   0.362  1.00  0.00     0.000 C 
ATOM     19  C   UNL     1      -6.318  40.207  -0.233  1.00  0.00     0.005 C 
ATOM     20  C   UNL     1      -5.545  39.563   0.924  1.00  0.00     0.003 C 
ATOM     21  C   UNL     1      -3.689  37.983   1.489  1.00  0.00     0.031 C 
ATOM     22  C   UNL     1      -5.190  40.543   2.106  1.00  0.00    -0.008 C 
ATOM     23  C   UNL     1      -3.560  38.727   2.793  1.00  0.00    -0.027 C 
ATOM     24  C   UNL     1      -4.265  39.837   3.109  1.00  0.00    -0.065 C 
ATOM     25  C   UNL     1      -6.507  40.941   2.851  1.00  0.00     0.014 C 
ATOM     26  C   UNL     1      -4.486  41.825   1.587  1.00  0.00     0.016 C 
ATOM     27  C   UNL     1      -4.055  40.470   4.471  1.00  0.00     0.063 C 
ATOM     28  C   UNL     1      -6.279  41.630   4.208  1.00  0.00     0.033 C 
ATOM     29  C   UNL     1      -5.400  40.785   5.137  1.00  0.00     0.118 C 
BRANCH  29  30
ATOM     30  O   UNL     1      -6.072  39.596   5.472  1.00  0.00    -0.393 OA
ATOM     31  H   UNL     1      -7.035  39.747   5.279  1.00  0.00     0.210 HD
ENDBRANCH  29  30
ENDBRANCH   9  11
ENDBRANCH   1   9
TORSDOF 7
ENDMDL
MODEL 9
REMARK VINA RESULT:    -4.633      2.472      8.366
REMARK INTER + INTRA:          -7.183
REMARK INTER:                  -6.606
REMARK INTRA:                  -0.577
REMARK UNBOUND:                -0.791
REMARK SMILES CC[C@@H](CC[C@@H](C)[C@H]1CC[C@@H]2[C@@H]3CC=C4C[C@H](O)CC[C@]4(C)[C@H]3CC[C@@]21C)C(C)C
REMARK SMILES IDX 5 1 4 2 3 3 2 4 1 5 28 6 29 7 30 8 6 9 7 10 8 11 9 12 26 13
REMARK SMILES IDX 10 14 11 15 25 16 27 17 12 18 24 19 23 20 13 21 21 22 14 23
REMARK SMILES IDX 15 24 20 25 22 26 16 27 19 28 17 29 18 30
REMARK H PARENT 18 31
REMARK Flexibility Score: inf
ROOT
ATOM      1  C   UNL     1      -8.041  35.045   0.493  1.00  0.00     0.004 C 
ENDROOT
BRANCH   1   2
ATOM      2  C   UNL     1      -8.642  33.875  -0.325  1.00  0.00     0.004 C 
BRANCH   2   3
ATOM      3  C   UNL     1      -8.460  32.490   0.356  1.00  0.00    -0.009 C 
BRANCH   3   4
ATOM      4  C   UNL     1      -7.115  32.459   1.137  1.00  0.00     0.000 C 
ATOM      5  C   UNL     1      -7.184  31.769   2.498  1.00  0.00     0.004 C 
ENDBRANCH   3   4
BRANCH   3   6
ATOM      6  C   UNL     1      -8.646  31.345  -0.704  1.00  0.00    -0.014 C 
ATOM      7  C   UNL     1      -7.477  30.347  -0.737  1.00  0.00     0.007 C 
ATOM      8  C   UNL     1      -8.974  31.853  -2.116  1.00  0.00     0.007 C 
ENDBRANCH   3   6
ENDBRANCH   2   3
ENDBRANCH   1   2
BRANCH   1   9
ATOM      9  C   UNL     1      -6.729  35.644  -0.091  1.00  0.00    -0.011 C 
ATOM     10  C   UNL     1      -6.182  34.791  -1.250  1.00  0.00     0.008 C 
BRANCH   9  11
ATOM     11  C   UNL     1      -6.760  37.174  -0.470  1.00  0.00    -0.002 C 
ATOM     12  C   UNL     1      -7.905  37.665  -1.374  1.00  0.00     0.005 C 
ATOM     13  C   UNL     1      -6.712  38.178   0.717  1.00  0.00    -0.026 C 
ATOM     14  C   UNL     1      -8.133  39.138  -1.025  1.00  0.00     0.005 C 
ATOM     15  C   UNL     1      -7.047  39.531   0.003  1.00  0.00    -0.001 C 
ATOM     16  C   UNL     1      -5.332  38.140   1.463  1.00  0.00     0.007 C 
ATOM     17  C   UNL     1      -7.827  37.869   1.761  1.00  0.00     0.012 C 
ATOM     18  C   UNL     1      -5.818  40.353  -0.585  1.00  0.00     0.000 C 
ATOM     19  C   UNL     1      -4.541  39.439   1.375  1.00  0.00     0.005 C 
ATOM     20  C   UNL     1      -4.435  39.859  -0.096  1.00  0.00     0.003 C 
ATOM     21  C   UNL     1      -5.758  40.507  -2.118  1.00  0.00     0.031 C 
ATOM     22  C   UNL     1      -3.288  40.895  -0.405  1.00  0.00    -0.008 C 
ATOM     23  C   UNL     1      -4.530  41.245  -2.587  1.00  0.00    -0.027 C 
ATOM     24  C   UNL     1      -3.398  41.377  -1.859  1.00  0.00    -0.065 C 
ATOM     25  C   UNL     1      -1.903  40.192  -0.225  1.00  0.00     0.014 C 
ATOM     26  C   UNL     1      -3.366  42.125   0.541  1.00  0.00     0.016 C 
ATOM     27  C   UNL     1      -2.226  42.123  -2.466  1.00  0.00     0.063 C 
ATOM     28  C   UNL     1      -0.715  40.984  -0.799  1.00  0.00     0.033 C 
ATOM     29  C   UNL     1      -0.924  41.336  -2.277  1.00  0.00     0.118 C 
BRANCH  29  30
ATOM     30  O   UNL     1      -0.945  40.159  -3.045  1.00  0.00    -0.393 OA
ATOM     31  H   UNL     1      -1.672  40.267  -3.714  1.00  0.00     0.210 HD
ENDBRANCH  29  30
ENDBRANCH   9  11
ENDBRANCH   1   9
TORSDOF 7
ENDMDL
