MODEL 1
REMARK VINA RESULT:    -6.271      0.000      0.000
REMARK INTER + INTRA:         -10.094
REMARK INTER:                  -9.388
REMARK INTRA:                  -0.706
REMARK UNBOUND:                -0.706
REMARK SMILES O=c1c(O[C@@H]2O[C@H](CO)[C@H](O)[C@H](O)[C@@H]2O)c(-c2cc(O)c(O)c(O)c2)oc2cc(O)cc(O)c12
REMARK SMILES IDX 4 1 3 2 16 3 26 4 2 5 27 6 1 7 34 8 28 9 32 10 29 11 31 12
REMARK SMILES IDX 17 13 18 14 19 15 25 16 21 17 23 18 20 19 22 21 24 23 33 25
REMARK SMILES IDX 30 27 5 29 14 30 6 31 12 32 7 33 10 34 15 35 13 37 8 39 9 40
REMARK SMILES IDX 11 42
REMARK H PARENT 20 20 22 22 24 24 33 26 30 28 15 36 13 38 9 41 11 43
REMARK Flexibility Score: inf
ROOT
ATOM      1  O   UNL     1     -10.855  32.413   8.309  1.00  0.00    -0.454 OA
ENDROOT
BRANCH   1   2
ATOM      2  C   UNL     1     -10.329  33.629   7.837  1.00  0.00     0.214 A 
ATOM      3  C   UNL     1      -9.253  33.599   6.930  1.00  0.00     0.181 A 
ATOM      4  O   UNL     1      -8.761  34.732   6.443  1.00  0.00    -0.452 OA
ATOM      5  C   UNL     1     -10.844  34.881   8.226  1.00  0.00     0.239 A 
ATOM      6  C   UNL     1      -9.231  35.929   6.763  1.00  0.00     0.146 A 
ATOM      7  O   UNL     1     -11.723  34.929   9.124  1.00  0.00    -0.285 OA
ATOM      8  C   UNL     1     -10.331  36.067   7.649  1.00  0.00     0.111 A 
ATOM      9  C   UNL     1      -8.613  37.057   6.216  1.00  0.00     0.094 A 
ATOM     10  C   UNL     1     -10.822  37.379   7.924  1.00  0.00     0.134 A 
ATOM     11  C   UNL     1      -9.062  38.337   6.544  1.00  0.00     0.123 A 
ATOM     12  C   UNL     1     -10.156  38.491   7.394  1.00  0.00     0.093 A 
BRANCH   3  13
ATOM     13  C   UNL     1      -8.664  32.326   6.463  1.00  0.00     0.029 A 
ATOM     14  C   UNL     1      -9.424  31.394   5.744  1.00  0.00     0.062 A 
ATOM     15  C   UNL     1      -8.859  30.193   5.300  1.00  0.00     0.162 A 
ATOM     16  C   UNL     1      -7.332  32.028   6.773  1.00  0.00     0.062 A 
ATOM     17  C   UNL     1      -7.504  29.908   5.592  1.00  0.00     0.200 A 
ATOM     18  C   UNL     1      -6.750  30.834   6.338  1.00  0.00     0.162 A 
BRANCH  15  19
ATOM     19  O   UNL     1      -9.679  29.318   4.583  1.00  0.00    -0.504 OA
ATOM     20  H   UNL     1      -9.342  28.509   4.084  1.00  0.00     0.293 HD
ENDBRANCH  15  19
BRANCH  17  21
ATOM     21  O   UNL     1      -6.881  28.733   5.166  1.00  0.00    -0.502 OA
ATOM     22  H   UNL     1      -6.508  28.592   4.238  1.00  0.00     0.293 HD
ENDBRANCH  17  21
BRANCH  18  23
ATOM     23  O   UNL     1      -5.415  30.585   6.655  1.00  0.00    -0.504 OA
ATOM     24  H   UNL     1      -4.942  31.056   7.417  1.00  0.00     0.293 HD
ENDBRANCH  18  23
ENDBRANCH   3  13
BRANCH  10  25
ATOM     25  O   UNL     1     -11.969  37.639   8.678  1.00  0.00    -0.507 OA
ATOM     26  H   UNL     1     -12.372  37.000   9.348  1.00  0.00     0.293 HD
ENDBRANCH  10  25
BRANCH  11  27
ATOM     27  O   UNL     1      -8.434  39.465   6.021  1.00  0.00    -0.508 OA
ATOM     28  H   UNL     1      -7.562  39.812   6.403  1.00  0.00     0.293 HD
ENDBRANCH  11  27
ENDBRANCH   1   2
BRANCH   1  29
ATOM     29  C   UNL     1     -12.231  32.183   8.620  1.00  0.00     0.339 C 
ATOM     30  C   UNL     1     -12.630  30.737   8.293  1.00  0.00     0.214 C 
ATOM     31  O   UNL     1     -12.542  32.538   9.959  1.00  0.00    -0.332 OA
ATOM     32  C   UNL     1     -11.943  29.748   9.240  1.00  0.00     0.180 C 
ATOM     33  C   UNL     1     -11.970  31.691  10.948  1.00  0.00     0.179 C 
ATOM     34  C   UNL     1     -12.189  30.170  10.697  1.00  0.00     0.177 C 
BRANCH  30  35
ATOM     35  O   UNL     1     -12.298  30.449   6.958  1.00  0.00    -0.384 OA
ATOM     36  H   UNL     1     -12.478  31.274   6.434  1.00  0.00     0.211 HD
ENDBRANCH  30  35
BRANCH  32  37
ATOM     37  O   UNL     1     -10.571  29.670   8.948  1.00  0.00    -0.387 OA
ATOM     38  H   UNL     1     -10.422  30.171   8.104  1.00  0.00     0.211 HD
ENDBRANCH  32  37
BRANCH  33  39
ATOM     39  C   UNL     1     -10.542  32.127  11.347  1.00  0.00     0.191 C 
BRANCH  39  40
ATOM     40  O   UNL     1     -10.394  33.516  11.338  1.00  0.00    -0.394 OA
ATOM     41  H   UNL     1     -11.201  33.884  11.782  1.00  0.00     0.210 HD
ENDBRANCH  39  40
ENDBRANCH  33  39
BRANCH  34  42
ATOM     42  O   UNL     1     -11.400  29.393  11.564  1.00  0.00    -0.387 OA
ATOM     43  H   UNL     1     -11.944  29.230  12.378  1.00  0.00     0.211 HD
ENDBRANCH  34  42
ENDBRANCH   1  29
TORSDOF 13
ENDMDL
MODEL 2
REMARK VINA RESULT:    -6.167     15.720     19.006
REMARK INTER + INTRA:          -9.937
REMARK INTER:                  -8.000
REMARK INTRA:                  -1.937
REMARK UNBOUND:                -0.706
REMARK SMILES O=c1c(O[C@@H]2O[C@H](CO)[C@H](O)[C@H](O)[C@@H]2O)c(-c2cc(O)c(O)c(O)c2)oc2cc(O)cc(O)c12
REMARK SMILES IDX 4 1 3 2 16 3 26 4 2 5 27 6 1 7 34 8 28 9 32 10 29 11 31 12
REMARK SMILES IDX 17 13 18 14 19 15 25 16 21 17 23 18 20 19 22 21 24 23 33 25
REMARK SMILES IDX 30 27 5 29 14 30 6 31 12 32 7 33 10 34 15 35 13 37 8 39 9 40
REMARK SMILES IDX 11 42
REMARK H PARENT 20 20 22 22 24 24 33 26 30 28 15 36 13 38 9 41 11 43
REMARK Flexibility Score: inf
ROOT
ATOM      1  O   UNL     1       3.572  44.810   1.905  1.00  0.00    -0.454 OA
ENDROOT
BRANCH   1   2
ATOM      2  C   UNL     1       2.801  45.215   3.010  1.00  0.00     0.214 A 
ATOM      3  C   UNL     1       1.398  45.163   2.915  1.00  0.00     0.181 A 
ATOM      4  O   UNL     1       0.648  45.508   3.955  1.00  0.00    -0.452 OA
ATOM      5  C   UNL     1       3.377  45.660   4.216  1.00  0.00     0.239 A 
ATOM      6  C   UNL     1       1.148  45.908   5.115  1.00  0.00     0.146 A 
ATOM      7  O   UNL     1       4.622  45.825   4.275  1.00  0.00    -0.285 OA
ATOM      8  C   UNL     1       2.550  45.970   5.321  1.00  0.00     0.111 A 
ATOM      9  C   UNL     1       0.263  46.280   6.131  1.00  0.00     0.094 A 
ATOM     10  C   UNL     1       3.032  46.368   6.605  1.00  0.00     0.134 A 
ATOM     11  C   UNL     1       0.748  46.729   7.361  1.00  0.00     0.123 A 
ATOM     12  C   UNL     1       2.122  46.774   7.589  1.00  0.00     0.093 A 
BRANCH   3  13
ATOM     13  C   UNL     1       0.716  44.697   1.689  1.00  0.00     0.029 A 
ATOM     14  C   UNL     1       0.489  45.561   0.610  1.00  0.00     0.062 A 
ATOM     15  C   UNL     1      -0.152  45.112  -0.550  1.00  0.00     0.162 A 
ATOM     16  C   UNL     1       0.255  43.377   1.616  1.00  0.00     0.062 A 
ATOM     17  C   UNL     1      -0.591  43.769  -0.630  1.00  0.00     0.200 A 
ATOM     18  C   UNL     1      -0.387  42.910   0.466  1.00  0.00     0.162 A 
BRANCH  15  19
ATOM     19  O   UNL     1      -0.334  46.031  -1.586  1.00  0.00    -0.504 OA
ATOM     20  H   UNL     1      -0.989  45.908  -2.343  1.00  0.00     0.293 HD
ENDBRANCH  15  19
BRANCH  17  21
ATOM     21  O   UNL     1      -1.226  43.260  -1.766  1.00  0.00    -0.502 OA
ATOM     22  H   UNL     1      -2.213  43.355  -1.955  1.00  0.00     0.293 HD
ENDBRANCH  17  21
BRANCH  18  23
ATOM     23  O   UNL     1      -0.815  41.583   0.429  1.00  0.00    -0.504 OA
ATOM     24  H   UNL     1      -0.186  40.806   0.599  1.00  0.00     0.293 HD
ENDBRANCH  18  23
ENDBRANCH   3  13
BRANCH  10  25
ATOM     25  O   UNL     1       4.381  46.350   6.971  1.00  0.00    -0.507 OA
ATOM     26  H   UNL     1       5.149  46.502   6.335  1.00  0.00     0.293 HD
ENDBRANCH  10  25
BRANCH  11  27
ATOM     27  O   UNL     1      -0.130  47.123   8.368  1.00  0.00    -0.508 OA
ATOM     28  H   UNL     1      -0.960  47.669   8.165  1.00  0.00     0.293 HD
ENDBRANCH  11  27
ENDBRANCH   1   2
BRANCH   1  29
ATOM     29  C   UNL     1       4.045  45.681   0.874  1.00  0.00     0.339 C 
ATOM     30  C   UNL     1       5.580  45.679   0.819  1.00  0.00     0.214 C 
ATOM     31  O   UNL     1       3.460  45.385  -0.384  1.00  0.00    -0.332 OA
ATOM     32  C   UNL     1       6.111  44.327   0.332  1.00  0.00     0.180 C 
ATOM     33  C   UNL     1       3.875  44.152  -0.959  1.00  0.00     0.179 C 
ATOM     34  C   UNL     1       5.419  43.942  -0.985  1.00  0.00     0.177 C 
BRANCH  30  35
ATOM     35  O   UNL     1       6.095  45.980   2.092  1.00  0.00    -0.384 OA
ATOM     36  H   UNL     1       6.458  46.903   2.042  1.00  0.00     0.211 HD
ENDBRANCH  30  35
BRANCH  32  37
ATOM     37  O   UNL     1       5.925  43.347   1.321  1.00  0.00    -0.387 OA
ATOM     38  H   UNL     1       5.051  43.532   1.755  1.00  0.00     0.211 HD
ENDBRANCH  32  37
BRANCH  33  39
ATOM     39  C   UNL     1       3.024  42.956  -0.476  1.00  0.00     0.191 C 
BRANCH  39  40
ATOM     40  O   UNL     1       3.684  42.197   0.494  1.00  0.00    -0.394 OA
ATOM     41  H   UNL     1       3.080  42.169   1.281  1.00  0.00     0.210 HD
ENDBRANCH  39  40
ENDBRANCH  33  39
BRANCH  34  42
ATOM     42  O   UNL     1       5.746  42.620  -1.334  1.00  0.00    -0.387 OA
ATOM     43  H   UNL     1       4.906  42.094  -1.285  1.00  0.00     0.211 HD
ENDBRANCH  34  42
ENDBRANCH   1  29
TORSDOF 13
ENDMDL
MODEL 3
REMARK VINA RESULT:    -6.150     16.030     19.024
REMARK INTER + INTRA:          -9.912
REMARK INTER:                  -8.235
REMARK INTRA:                  -1.677
REMARK UNBOUND:                -0.706
REMARK SMILES O=c1c(O[C@@H]2O[C@H](CO)[C@H](O)[C@H](O)[C@@H]2O)c(-c2cc(O)c(O)c(O)c2)oc2cc(O)cc(O)c12
REMARK SMILES IDX 4 1 3 2 16 3 26 4 2 5 27 6 1 7 34 8 28 9 32 10 29 11 31 12
REMARK SMILES IDX 17 13 18 14 19 15 25 16 21 17 23 18 20 19 22 21 24 23 33 25
REMARK SMILES IDX 30 27 5 29 14 30 6 31 12 32 7 33 10 34 15 35 13 37 8 39 9 40
REMARK SMILES IDX 11 42
REMARK H PARENT 20 20 22 22 24 24 33 26 30 28 15 36 13 38 9 41 11 43
REMARK Flexibility Score: inf
ROOT
ATOM      1  O   UNL     1       2.354  44.504   1.497  1.00  0.00    -0.454 OA
ENDROOT
BRANCH   1   2
ATOM      2  C   UNL     1       3.042  43.571   0.700  1.00  0.00     0.214 A 
ATOM      3  C   UNL     1       2.452  43.138  -0.502  1.00  0.00     0.181 A 
ATOM      4  O   UNL     1       3.095  42.284  -1.289  1.00  0.00    -0.452 OA
ATOM      5  C   UNL     1       4.307  43.059   1.050  1.00  0.00     0.239 A 
ATOM      6  C   UNL     1       4.296  41.797  -1.011  1.00  0.00     0.146 A 
ATOM      7  O   UNL     1       4.792  43.343   2.175  1.00  0.00    -0.285 OA
ATOM      8  C   UNL     1       4.987  42.191   0.164  1.00  0.00     0.111 A 
ATOM      9  C   UNL     1       4.864  40.876  -1.895  1.00  0.00     0.094 A 
ATOM     10  C   UNL     1       6.295  41.666   0.391  1.00  0.00     0.134 A 
ATOM     11  C   UNL     1       6.118  40.322  -1.628  1.00  0.00     0.123 A 
ATOM     12  C   UNL     1       6.821  40.715  -0.491  1.00  0.00     0.093 A 
BRANCH   3  13
ATOM     13  C   UNL     1       1.134  43.637  -0.947  1.00  0.00     0.029 A 
ATOM     14  C   UNL     1       1.024  44.762  -1.774  1.00  0.00     0.062 A 
ATOM     15  C   UNL     1      -0.227  45.227  -2.196  1.00  0.00     0.162 A 
ATOM     16  C   UNL     1      -0.031  42.997  -0.506  1.00  0.00     0.062 A 
ATOM     17  C   UNL     1      -1.401  44.559  -1.770  1.00  0.00     0.200 A 
ATOM     18  C   UNL     1      -1.289  43.446  -0.917  1.00  0.00     0.162 A 
BRANCH  15  19
ATOM     19  O   UNL     1      -0.254  46.350  -3.026  1.00  0.00    -0.504 OA
ATOM     20  H   UNL     1      -0.357  47.297  -2.694  1.00  0.00     0.293 HD
ENDBRANCH  15  19
BRANCH  17  21
ATOM     21  O   UNL     1      -2.676  44.969  -2.167  1.00  0.00    -0.502 OA
ATOM     22  H   UNL     1      -2.907  45.282  -3.099  1.00  0.00     0.293 HD
ENDBRANCH  17  21
BRANCH  18  23
ATOM     23  O   UNL     1      -2.422  42.768  -0.467  1.00  0.00    -0.504 OA
ATOM     24  H   UNL     1      -2.398  41.790  -0.202  1.00  0.00     0.293 HD
ENDBRANCH  18  23
ENDBRANCH   3  13
BRANCH  10  25
ATOM     25  O   UNL     1       7.125  42.069   1.442  1.00  0.00    -0.507 OA
ATOM     26  H   UNL     1       7.707  42.894   1.428  1.00  0.00     0.293 HD
ENDBRANCH  10  25
BRANCH  11  27
ATOM     27  O   UNL     1       6.678  39.385  -2.495  1.00  0.00    -0.508 OA
ATOM     28  H   UNL     1       6.133  38.951  -3.231  1.00  0.00     0.293 HD
ENDBRANCH  11  27
ENDBRANCH   1   2
BRANCH   1  29
ATOM     29  C   UNL     1       2.962  45.609   2.173  1.00  0.00     0.339 C 
ATOM     30  C   UNL     1       2.411  46.941   1.645  1.00  0.00     0.214 C 
ATOM     31  O   UNL     1       2.849  45.499   3.583  1.00  0.00    -0.332 OA
ATOM     32  C   UNL     1       0.943  47.125   2.039  1.00  0.00     0.180 C 
ATOM     33  C   UNL     1       1.529  45.658   4.089  1.00  0.00     0.179 C 
ATOM     34  C   UNL     1       0.782  46.916   3.554  1.00  0.00     0.177 C 
BRANCH  30  35
ATOM     35  O   UNL     1       2.554  46.988   0.247  1.00  0.00    -0.384 OA
ATOM     36  H   UNL     1       1.738  46.572  -0.138  1.00  0.00     0.211 HD
ENDBRANCH  30  35
BRANCH  32  37
ATOM     37  O   UNL     1       0.129  46.244   1.307  1.00  0.00    -0.387 OA
ATOM     38  H   UNL     1       0.030  46.627   0.395  1.00  0.00     0.211 HD
ENDBRANCH  32  37
BRANCH  33  39
ATOM     39  C   UNL     1       0.733  44.333   4.096  1.00  0.00     0.191 C 
BRANCH  39  40
ATOM     40  O   UNL     1       0.022  44.140   2.909  1.00  0.00    -0.394 OA
ATOM     41  H   UNL     1      -0.886  44.507   3.066  1.00  0.00     0.210 HD
ENDBRANCH  39  40
ENDBRANCH  33  39
BRANCH  34  42
ATOM     42  O   UNL     1      -0.581  46.881   3.894  1.00  0.00    -0.387 OA
ATOM     43  H   UNL     1      -1.054  47.464   3.245  1.00  0.00     0.211 HD
ENDBRANCH  34  42
ENDBRANCH   1  29
TORSDOF 13
ENDMDL
MODEL 4
REMARK VINA RESULT:    -5.999      1.918      3.340
REMARK INTER + INTRA:          -9.686
REMARK INTER:                  -8.630
REMARK INTRA:                  -1.056
REMARK UNBOUND:                -0.706
REMARK SMILES O=c1c(O[C@@H]2O[C@H](CO)[C@H](O)[C@H](O)[C@@H]2O)c(-c2cc(O)c(O)c(O)c2)oc2cc(O)cc(O)c12
REMARK SMILES IDX 4 1 3 2 16 3 26 4 2 5 27 6 1 7 34 8 28 9 32 10 29 11 31 12
REMARK SMILES IDX 17 13 18 14 19 15 25 16 21 17 23 18 20 19 22 21 24 23 33 25
REMARK SMILES IDX 30 27 5 29 14 30 6 31 12 32 7 33 10 34 15 35 13 37 8 39 9 40
REMARK SMILES IDX 11 42
REMARK H PARENT 20 20 22 22 24 24 33 26 30 28 15 36 13 38 9 41 11 43
REMARK Flexibility Score: inf
ROOT
ATOM      1  O   UNL     1      -9.713  30.308   7.309  1.00  0.00    -0.454 OA
ENDROOT
BRANCH   1   2
ATOM      2  C   UNL     1      -9.358  31.625   6.966  1.00  0.00     0.214 A 
ATOM      3  C   UNL     1      -8.307  31.831   6.053  1.00  0.00     0.181 A 
ATOM      4  O   UNL     1      -7.974  33.063   5.688  1.00  0.00    -0.452 OA
ATOM      5  C   UNL     1     -10.020  32.752   7.493  1.00  0.00     0.239 A 
ATOM      6  C   UNL     1      -8.586  34.149   6.138  1.00  0.00     0.146 A 
ATOM      7  O   UNL     1     -10.878  32.590   8.398  1.00  0.00    -0.285 OA
ATOM      8  C   UNL     1      -9.675  34.048   7.043  1.00  0.00     0.111 A 
ATOM      9  C   UNL     1      -8.129  35.398   5.712  1.00  0.00     0.094 A 
ATOM     10  C   UNL     1     -10.324  35.249   7.462  1.00  0.00     0.134 A 
ATOM     11  C   UNL     1      -8.732  36.568   6.179  1.00  0.00     0.123 A 
ATOM     12  C   UNL     1      -9.817  36.488   7.050  1.00  0.00     0.093 A 
BRANCH   3  13
ATOM     13  C   UNL     1      -7.570  30.702   5.447  1.00  0.00     0.029 A 
ATOM     14  C   UNL     1      -6.357  30.254   5.984  1.00  0.00     0.062 A 
ATOM     15  C   UNL     1      -5.666  29.181   5.409  1.00  0.00     0.162 A 
ATOM     16  C   UNL     1      -8.072  30.091   4.292  1.00  0.00     0.062 A 
ATOM     17  C   UNL     1      -6.193  28.547   4.258  1.00  0.00     0.200 A 
ATOM     18  C   UNL     1      -7.398  29.017   3.703  1.00  0.00     0.162 A 
BRANCH  15  19
ATOM     19  O   UNL     1      -4.467  28.787   6.008  1.00  0.00    -0.504 OA
ATOM     20  H   UNL     1      -4.340  27.917   6.502  1.00  0.00     0.293 HD
ENDBRANCH  15  19
BRANCH  17  21
ATOM     21  O   UNL     1      -5.556  27.465   3.646  1.00  0.00    -0.502 OA
ATOM     22  H   UNL     1      -5.569  27.286   2.653  1.00  0.00     0.293 HD
ENDBRANCH  17  21
BRANCH  18  23
ATOM     23  O   UNL     1      -7.944  28.427   2.564  1.00  0.00    -0.504 OA
ATOM     24  H   UNL     1      -8.539  28.936   1.922  1.00  0.00     0.293 HD
ENDBRANCH  18  23
ENDBRANCH   3  13
BRANCH  10  25
ATOM     25  O   UNL     1     -11.479  35.277   8.248  1.00  0.00    -0.507 OA
ATOM     26  H   UNL     1     -11.561  34.853   9.160  1.00  0.00     0.293 HD
ENDBRANCH  10  25
BRANCH  11  27
ATOM     27  O   UNL     1      -8.264  37.817   5.776  1.00  0.00    -0.508 OA
ATOM     28  H   UNL     1      -8.422  38.648   6.333  1.00  0.00     0.293 HD
ENDBRANCH  11  27
ENDBRANCH   1   2
BRANCH   1  29
ATOM     29  C   UNL     1      -9.975  29.261   6.371  1.00  0.00     0.339 C 
ATOM     30  C   UNL     1      -9.629  27.891   6.973  1.00  0.00     0.214 C 
ATOM     31  O   UNL     1     -11.303  29.311   5.872  1.00  0.00    -0.332 OA
ATOM     32  C   UNL     1     -10.597  27.525   8.102  1.00  0.00     0.180 C 
ATOM     33  C   UNL     1     -12.309  28.984   6.823  1.00  0.00     0.179 C 
ATOM     34  C   UNL     1     -12.046  27.666   7.609  1.00  0.00     0.177 C 
BRANCH  30  35
ATOM     35  O   UNL     1      -8.306  27.906   7.446  1.00  0.00    -0.384 OA
ATOM     36  H   UNL     1      -7.883  28.729   7.086  1.00  0.00     0.211 HD
ENDBRANCH  30  35
BRANCH  32  37
ATOM     37  O   UNL     1     -10.354  28.329   9.229  1.00  0.00    -0.387 OA
ATOM     38  H   UNL     1      -9.416  28.163   9.510  1.00  0.00     0.211 HD
ENDBRANCH  32  37
BRANCH  33  39
ATOM     39  C   UNL     1     -12.759  30.207   7.653  1.00  0.00     0.191 C 
BRANCH  39  40
ATOM     40  O   UNL     1     -12.271  30.163   8.962  1.00  0.00    -0.394 OA
ATOM     41  H   UNL     1     -11.836  29.278   9.066  1.00  0.00     0.210 HD
ENDBRANCH  39  40
ENDBRANCH  33  39
BRANCH  34  42
ATOM     42  O   UNL     1     -12.938  27.531   8.688  1.00  0.00    -0.387 OA
ATOM     43  H   UNL     1     -12.389  27.350   9.494  1.00  0.00     0.211 HD
ENDBRANCH  34  42
ENDBRANCH   1  29
TORSDOF 13
ENDMDL
MODEL 5
REMARK VINA RESULT:    -5.983      2.145      6.201
REMARK INTER + INTRA:          -9.662
REMARK INTER:                  -8.398
REMARK INTRA:                  -1.264
REMARK UNBOUND:                -0.706
REMARK SMILES O=c1c(O[C@@H]2O[C@H](CO)[C@H](O)[C@H](O)[C@@H]2O)c(-c2cc(O)c(O)c(O)c2)oc2cc(O)cc(O)c12
REMARK SMILES IDX 4 1 3 2 16 3 26 4 2 5 27 6 1 7 34 8 28 9 32 10 29 11 31 12
REMARK SMILES IDX 17 13 18 14 19 15 25 16 21 17 23 18 20 19 22 21 24 23 33 25
REMARK SMILES IDX 30 27 5 29 14 30 6 31 12 32 7 33 10 34 15 35 13 37 8 39 9 40
REMARK SMILES IDX 11 42
REMARK H PARENT 20 20 22 22 24 24 33 26 30 28 15 36 13 38 9 41 11 43
REMARK Flexibility Score: inf
ROOT
ATOM      1  O   UNL     1     -10.857  34.205   7.980  1.00  0.00    -0.454 OA
ENDROOT
BRANCH   1   2
ATOM      2  C   UNL     1     -10.064  33.383   7.159  1.00  0.00     0.214 A 
ATOM      3  C   UNL     1      -9.231  33.982   6.196  1.00  0.00     0.181 A 
ATOM      4  O   UNL     1      -8.449  33.230   5.433  1.00  0.00    -0.452 OA
ATOM      5  C   UNL     1     -10.061  31.978   7.270  1.00  0.00     0.239 A 
ATOM      6  C   UNL     1      -8.396  31.908   5.519  1.00  0.00     0.146 A 
ATOM      7  O   UNL     1     -10.886  31.422   8.040  1.00  0.00    -0.285 OA
ATOM      8  C   UNL     1      -9.177  31.209   6.476  1.00  0.00     0.111 A 
ATOM      9  C   UNL     1      -7.560  31.214   4.640  1.00  0.00     0.094 A 
ATOM     10  C   UNL     1      -9.048  29.790   6.553  1.00  0.00     0.134 A 
ATOM     11  C   UNL     1      -7.491  29.820   4.684  1.00  0.00     0.123 A 
ATOM     12  C   UNL     1      -8.234  29.119   5.631  1.00  0.00     0.093 A 
BRANCH   3  13
ATOM     13  C   UNL     1      -9.168  35.449   6.026  1.00  0.00     0.029 A 
ATOM     14  C   UNL     1     -10.262  36.171   5.530  1.00  0.00     0.062 A 
ATOM     15  C   UNL     1     -10.198  37.560   5.376  1.00  0.00     0.162 A 
ATOM     16  C   UNL     1      -7.983  36.128   6.331  1.00  0.00     0.062 A 
ATOM     17  C   UNL     1      -9.006  38.246   5.712  1.00  0.00     0.200 A 
ATOM     18  C   UNL     1      -7.900  37.516   6.184  1.00  0.00     0.162 A 
BRANCH  15  19
ATOM     19  O   UNL     1     -11.332  38.210   4.882  1.00  0.00    -0.504 OA
ATOM     20  H   UNL     1     -11.618  39.137   5.159  1.00  0.00     0.293 HD
ENDBRANCH  15  19
BRANCH  17  21
ATOM     21  O   UNL     1      -8.886  39.633   5.591  1.00  0.00    -0.502 OA
ATOM     22  H   UNL     1      -9.447  40.299   6.103  1.00  0.00     0.293 HD
ENDBRANCH  17  21
BRANCH  18  23
ATOM     23  O   UNL     1      -6.705  38.154   6.516  1.00  0.00    -0.504 OA
ATOM     24  H   UNL     1      -5.802  37.710   6.397  1.00  0.00     0.293 HD
ENDBRANCH  18  23
ENDBRANCH   3  13
BRANCH  10  25
ATOM     25  O   UNL     1      -9.666  29.003   7.528  1.00  0.00    -0.507 OA
ATOM     26  H   UNL     1     -10.531  29.239   7.991  1.00  0.00     0.293 HD
ENDBRANCH  10  25
BRANCH  11  27
ATOM     27  O   UNL     1      -6.678  29.123   3.793  1.00  0.00    -0.508 OA
ATOM     28  H   UNL     1      -7.061  28.656   2.979  1.00  0.00     0.293 HD
ENDBRANCH  11  27
ENDBRANCH   1   2
BRANCH   1  29
ATOM     29  C   UNL     1     -12.227  34.533   7.731  1.00  0.00     0.339 C 
ATOM     30  C   UNL     1     -13.125  34.021   8.866  1.00  0.00     0.214 C 
ATOM     31  O   UNL     1     -12.407  35.919   7.483  1.00  0.00    -0.332 OA
ATOM     32  C   UNL     1     -12.867  34.795  10.163  1.00  0.00     0.180 C 
ATOM     33  C   UNL     1     -12.204  36.758   8.613  1.00  0.00     0.179 C 
ATOM     34  C   UNL     1     -12.964  36.305   9.895  1.00  0.00     0.177 C 
BRANCH  30  35
ATOM     35  O   UNL     1     -12.901  32.648   9.060  1.00  0.00    -0.384 OA
ATOM     36  H   UNL     1     -12.468  32.551   9.949  1.00  0.00     0.211 HD
ENDBRANCH  30  35
BRANCH  32  37
ATOM     37  O   UNL     1     -11.616  34.443  10.697  1.00  0.00    -0.387 OA
ATOM     38  H   UNL     1     -10.969  35.142  10.413  1.00  0.00     0.211 HD
ENDBRANCH  32  37
BRANCH  33  39
ATOM     39  C   UNL     1     -10.723  37.160   8.794  1.00  0.00     0.191 C 
BRANCH  39  40
ATOM     40  O   UNL     1     -10.135  36.525   9.891  1.00  0.00    -0.394 OA
ATOM     41  H   UNL     1      -9.821  37.247  10.494  1.00  0.00     0.210 HD
ENDBRANCH  39  40
ENDBRANCH  33  39
BRANCH  34  42
ATOM     42  O   UNL     1     -12.532  37.024  11.023  1.00  0.00    -0.387 OA
ATOM     43  H   UNL     1     -12.467  36.374  11.770  1.00  0.00     0.211 HD
ENDBRANCH  34  42
ENDBRANCH   1  29
TORSDOF 13
ENDMDL
MODEL 6
REMARK VINA RESULT:    -5.823     15.682     19.064
REMARK INTER + INTRA:          -9.422
REMARK INTER:                  -7.838
REMARK INTRA:                  -1.585
REMARK UNBOUND:                -0.706
REMARK SMILES O=c1c(O[C@@H]2O[C@H](CO)[C@H](O)[C@H](O)[C@@H]2O)c(-c2cc(O)c(O)c(O)c2)oc2cc(O)cc(O)c12
REMARK SMILES IDX 4 1 3 2 16 3 26 4 2 5 27 6 1 7 34 8 28 9 32 10 29 11 31 12
REMARK SMILES IDX 17 13 18 14 19 15 25 16 21 17 23 18 20 19 22 21 24 23 33 25
REMARK SMILES IDX 30 27 5 29 14 30 6 31 12 32 7 33 10 34 15 35 13 37 8 39 9 40
REMARK SMILES IDX 11 42
REMARK H PARENT 20 20 22 22 24 24 33 26 30 28 15 36 13 38 9 41 11 43
REMARK Flexibility Score: inf
ROOT
ATOM      1  O   UNL     1       3.347  44.860   1.619  1.00  0.00    -0.454 OA
ENDROOT
BRANCH   1   2
ATOM      2  C   UNL     1       2.568  45.252   2.723  1.00  0.00     0.214 A 
ATOM      3  C   UNL     1       1.167  45.159   2.635  1.00  0.00     0.181 A 
ATOM      4  O   UNL     1       0.411  45.491   3.674  1.00  0.00    -0.452 OA
ATOM      5  C   UNL     1       3.136  45.725   3.923  1.00  0.00     0.239 A 
ATOM      6  C   UNL     1       0.903  45.916   4.829  1.00  0.00     0.146 A 
ATOM      7  O   UNL     1       4.376  45.927   3.976  1.00  0.00    -0.285 OA
ATOM      8  C   UNL     1       2.304  46.021   5.029  1.00  0.00     0.111 A 
ATOM      9  C   UNL     1       0.011  46.272   5.844  1.00  0.00     0.094 A 
ATOM     10  C   UNL     1       2.778  46.444   6.307  1.00  0.00     0.134 A 
ATOM     11  C   UNL     1       0.487  46.745   7.068  1.00  0.00     0.123 A 
ATOM     12  C   UNL     1       1.860  46.832   7.290  1.00  0.00     0.093 A 
BRANCH   3  13
ATOM     13  C   UNL     1       0.495  44.661   1.415  1.00  0.00     0.029 A 
ATOM     14  C   UNL     1       0.010  43.350   1.337  1.00  0.00     0.062 A 
ATOM     15  C   UNL     1      -0.630  42.886   0.183  1.00  0.00     0.162 A 
ATOM     16  C   UNL     1       0.371  45.502   0.304  1.00  0.00     0.062 A 
ATOM     17  C   UNL     1      -0.778  43.749  -0.929  1.00  0.00     0.200 A 
ATOM     18  C   UNL     1      -0.265  45.058  -0.859  1.00  0.00     0.162 A 
BRANCH  15  19
ATOM     19  O   UNL     1      -1.094  41.568   0.184  1.00  0.00    -0.504 OA
ATOM     20  H   UNL     1      -0.614  40.799  -0.259  1.00  0.00     0.293 HD
ENDBRANCH  15  19
BRANCH  17  21
ATOM     21  O   UNL     1      -1.418  43.347  -2.104  1.00  0.00    -0.502 OA
ATOM     22  H   UNL     1      -1.039  42.676  -2.756  1.00  0.00     0.293 HD
ENDBRANCH  17  21
BRANCH  18  23
ATOM     23  O   UNL     1      -0.382  45.935  -1.937  1.00  0.00    -0.504 OA
ATOM     24  H   UNL     1      -0.825  45.668  -2.808  1.00  0.00     0.293 HD
ENDBRANCH  18  23
ENDBRANCH   3  13
BRANCH  10  25
ATOM     25  O   UNL     1       4.128  46.469   6.668  1.00  0.00    -0.507 OA
ATOM     26  H   UNL     1       4.509  47.017   7.426  1.00  0.00     0.293 HD
ENDBRANCH  10  25
BRANCH  11  27
ATOM     27  O   UNL     1      -0.398  47.124   8.075  1.00  0.00    -0.508 OA
ATOM     28  H   UNL     1      -1.334  46.738   8.131  1.00  0.00     0.293 HD
ENDBRANCH  11  27
ENDBRANCH   1   2
BRANCH   1  29
ATOM     29  C   UNL     1       4.357  43.848   1.649  1.00  0.00     0.339 C 
ATOM     30  C   UNL     1       4.306  42.990   0.377  1.00  0.00     0.214 C 
ATOM     31  O   UNL     1       5.648  44.390   1.883  1.00  0.00    -0.332 OA
ATOM     32  C   UNL     1       4.734  43.799  -0.852  1.00  0.00     0.180 C 
ATOM     33  C   UNL     1       6.173  45.164   0.811  1.00  0.00     0.179 C 
ATOM     34  C   UNL     1       6.089  44.473  -0.582  1.00  0.00     0.177 C 
BRANCH  30  35
ATOM     35  O   UNL     1       3.007  42.483   0.203  1.00  0.00    -0.384 OA
ATOM     36  H   UNL     1       3.044  41.857  -0.567  1.00  0.00     0.211 HD
ENDBRANCH  30  35
BRANCH  32  37
ATOM     37  O   UNL     1       3.745  44.740  -1.181  1.00  0.00    -0.387 OA
ATOM     38  H   UNL     1       3.658  45.358  -0.408  1.00  0.00     0.211 HD
ENDBRANCH  32  37
BRANCH  33  39
ATOM     39  C   UNL     1       5.730  46.643   0.876  1.00  0.00     0.191 C 
BRANCH  39  40
ATOM     40  O   UNL     1       4.644  46.905   0.037  1.00  0.00    -0.394 OA
ATOM     41  H   UNL     1       4.315  47.808   0.284  1.00  0.00     0.210 HD
ENDBRANCH  39  40
ENDBRANCH  33  39
BRANCH  34  42
ATOM     42  O   UNL     1       6.393  45.376  -1.616  1.00  0.00    -0.387 OA
ATOM     43  H   UNL     1       5.824  46.176  -1.475  1.00  0.00     0.211 HD
ENDBRANCH  34  42
ENDBRANCH   1  29
TORSDOF 13
ENDMDL
MODEL 7
REMARK VINA RESULT:    -5.581     15.725     18.633
REMARK INTER + INTRA:          -9.061
REMARK INTER:                  -7.215
REMARK INTRA:                  -1.846
REMARK UNBOUND:                -0.706
REMARK SMILES O=c1c(O[C@@H]2O[C@H](CO)[C@H](O)[C@H](O)[C@@H]2O)c(-c2cc(O)c(O)c(O)c2)oc2cc(O)cc(O)c12
REMARK SMILES IDX 4 1 3 2 16 3 26 4 2 5 27 6 1 7 34 8 28 9 32 10 29 11 31 12
REMARK SMILES IDX 17 13 18 14 19 15 25 16 21 17 23 18 20 19 22 21 24 23 33 25
REMARK SMILES IDX 30 27 5 29 14 30 6 31 12 32 7 33 10 34 15 35 13 37 8 39 9 40
REMARK SMILES IDX 11 42
REMARK H PARENT 20 20 22 22 24 24 33 26 30 28 15 36 13 38 9 41 11 43
REMARK Flexibility Score: inf
ROOT
ATOM      1  O   UNL     1       1.517  44.398   1.450  1.00  0.00    -0.454 OA
ENDROOT
BRANCH   1   2
ATOM      2  C   UNL     1       1.860  44.899   2.719  1.00  0.00     0.214 A 
ATOM      3  C   UNL     1       3.185  45.312   2.952  1.00  0.00     0.181 A 
ATOM      4  O   UNL     1       3.527  45.819   4.130  1.00  0.00    -0.452 OA
ATOM      5  C   UNL     1       0.926  45.014   3.767  1.00  0.00     0.239 A 
ATOM      6  C   UNL     1       2.676  45.969   5.135  1.00  0.00     0.146 A 
ATOM      7  O   UNL     1      -0.228  44.540   3.614  1.00  0.00    -0.285 OA
ATOM      8  C   UNL     1       1.311  45.607   4.994  1.00  0.00     0.111 A 
ATOM      9  C   UNL     1       3.153  46.482   6.344  1.00  0.00     0.094 A 
ATOM     10  C   UNL     1       0.431  45.830   6.095  1.00  0.00     0.134 A 
ATOM     11  C   UNL     1       2.296  46.636   7.434  1.00  0.00     0.123 A 
ATOM     12  C   UNL     1       0.948  46.307   7.306  1.00  0.00     0.093 A 
BRANCH   3  13
ATOM     13  C   UNL     1       4.221  45.235   1.900  1.00  0.00     0.029 A 
ATOM     14  C   UNL     1       5.206  44.239   1.923  1.00  0.00     0.062 A 
ATOM     15  C   UNL     1       6.181  44.167   0.922  1.00  0.00     0.162 A 
ATOM     16  C   UNL     1       4.244  46.194   0.881  1.00  0.00     0.062 A 
ATOM     17  C   UNL     1       6.183  45.123  -0.122  1.00  0.00     0.200 A 
ATOM     18  C   UNL     1       5.209  46.139  -0.128  1.00  0.00     0.162 A 
BRANCH  15  19
ATOM     19  O   UNL     1       7.125  43.140   1.009  1.00  0.00    -0.504 OA
ATOM     20  H   UNL     1       7.445  42.739   1.877  1.00  0.00     0.293 HD
ENDBRANCH  15  19
BRANCH  17  21
ATOM     21  O   UNL     1       7.123  45.096  -1.155  1.00  0.00    -0.502 OA
ATOM     22  H   UNL     1       7.040  45.623  -2.013  1.00  0.00     0.293 HD
ENDBRANCH  17  21
BRANCH  18  23
ATOM     23  O   UNL     1       5.184  47.105  -1.133  1.00  0.00    -0.504 OA
ATOM     24  H   UNL     1       4.627  47.949  -1.060  1.00  0.00     0.293 HD
ENDBRANCH  18  23
ENDBRANCH   3  13
BRANCH  10  25
ATOM     25  O   UNL     1      -0.951  45.632   6.041  1.00  0.00    -0.507 OA
ATOM     26  H   UNL     1      -1.440  45.214   5.263  1.00  0.00     0.293 HD
ENDBRANCH  10  25
BRANCH  11  27
ATOM     27  O   UNL     1       2.773  47.125   8.648  1.00  0.00    -0.508 OA
ATOM     28  H   UNL     1       2.991  46.505   9.420  1.00  0.00     0.293 HD
ENDBRANCH  11  27
ENDBRANCH   1   2
BRANCH   1  29
ATOM     29  C   UNL     1       2.024  43.187   0.883  1.00  0.00     0.339 C 
ATOM     30  C   UNL     1       1.001  42.051   1.019  1.00  0.00     0.214 C 
ATOM     31  O   UNL     1       2.457  43.366  -0.457  1.00  0.00    -0.332 OA
ATOM     32  C   UNL     1      -0.223  42.303   0.132  1.00  0.00     0.180 C 
ATOM     33  C   UNL     1       1.414  43.603  -1.394  1.00  0.00     0.179 C 
ATOM     34  C   UNL     1       0.231  42.593  -1.307  1.00  0.00     0.177 C 
BRANCH  30  35
ATOM     35  O   UNL     1       0.614  41.925   2.364  1.00  0.00    -0.384 OA
ATOM     36  H   UNL     1       0.522  40.952   2.545  1.00  0.00     0.211 HD
ENDBRANCH  30  35
BRANCH  32  37
ATOM     37  O   UNL     1      -0.992  43.356   0.654  1.00  0.00    -0.387 OA
ATOM     38  H   UNL     1      -0.962  43.278   1.644  1.00  0.00     0.211 HD
ENDBRANCH  32  37
BRANCH  33  39
ATOM     39  C   UNL     1       1.039  45.098  -1.498  1.00  0.00     0.191 C 
BRANCH  39  40
ATOM     40  O   UNL     1      -0.193  45.376  -0.900  1.00  0.00    -0.394 OA
ATOM     41  H   UNL     1      -0.117  46.289  -0.520  1.00  0.00     0.210 HD
ENDBRANCH  39  40
ENDBRANCH  33  39
BRANCH  34  42
ATOM     42  O   UNL     1      -0.862  43.023  -2.081  1.00  0.00    -0.387 OA
ATOM     43  H   UNL     1      -0.552  43.053  -3.023  1.00  0.00     0.211 HD
ENDBRANCH  34  42
ENDBRANCH   1  29
TORSDOF 13
ENDMDL
MODEL 8
REMARK VINA RESULT:    -5.519      1.415      4.964
REMARK INTER + INTRA:          -8.967
REMARK INTER:                  -8.130
REMARK INTRA:                  -0.837
REMARK UNBOUND:                -0.706
REMARK SMILES O=c1c(O[C@@H]2O[C@H](CO)[C@H](O)[C@H](O)[C@@H]2O)c(-c2cc(O)c(O)c(O)c2)oc2cc(O)cc(O)c12
REMARK SMILES IDX 4 1 3 2 16 3 26 4 2 5 27 6 1 7 34 8 28 9 32 10 29 11 31 12
REMARK SMILES IDX 17 13 18 14 19 15 25 16 21 17 23 18 20 19 22 21 24 23 33 25
REMARK SMILES IDX 30 27 5 29 14 30 6 31 12 32 7 33 10 34 15 35 13 37 8 39 9 40
REMARK SMILES IDX 11 42
REMARK H PARENT 20 20 22 22 24 24 33 26 30 28 15 36 13 38 9 41 11 43
REMARK Flexibility Score: inf
ROOT
ATOM      1  O   UNL     1      -8.864  33.256   6.644  1.00  0.00    -0.454 OA
ENDROOT
BRANCH   1   2
ATOM      2  C   UNL     1      -9.473  34.477   6.987  1.00  0.00     0.214 A 
ATOM      3  C   UNL     1     -10.505  34.478   7.943  1.00  0.00     0.181 A 
ATOM      4  O   UNL     1     -11.072  35.621   8.309  1.00  0.00    -0.452 OA
ATOM      5  C   UNL     1      -9.082  35.705   6.418  1.00  0.00     0.239 A 
ATOM      6  C   UNL     1     -10.719  36.801   7.819  1.00  0.00     0.146 A 
ATOM      7  O   UNL     1      -8.247  35.707   5.478  1.00  0.00    -0.285 OA
ATOM      8  C   UNL     1      -9.672  36.911   6.868  1.00  0.00     0.111 A 
ATOM      9  C   UNL     1     -11.409  37.937   8.251  1.00  0.00     0.094 A 
ATOM     10  C   UNL     1      -9.306  38.211   6.407  1.00  0.00     0.134 A 
ATOM     11  C   UNL     1     -11.084  39.196   7.744  1.00  0.00     0.123 A 
ATOM     12  C   UNL     1     -10.043  39.325   6.827  1.00  0.00     0.093 A 
BRANCH   3  13
ATOM     13  C   UNL     1     -10.964  33.233   8.595  1.00  0.00     0.029 A 
ATOM     14  C   UNL     1     -11.835  32.350   7.943  1.00  0.00     0.062 A 
ATOM     15  C   UNL     1     -12.263  31.171   8.562  1.00  0.00     0.162 A 
ATOM     16  C   UNL     1     -10.552  32.945   9.901  1.00  0.00     0.062 A 
ATOM     17  C   UNL     1     -11.820  30.870   9.873  1.00  0.00     0.200 A 
ATOM     18  C   UNL     1     -10.967  31.772  10.537  1.00  0.00     0.162 A 
BRANCH  15  19
ATOM     19  O   UNL     1     -13.125  30.338   7.845  1.00  0.00    -0.504 OA
ATOM     20  H   UNL     1     -13.473  29.455   8.186  1.00  0.00     0.293 HD
ENDBRANCH  15  19
BRANCH  17  21
ATOM     21  O   UNL     1     -12.203  29.703  10.539  1.00  0.00    -0.502 OA
ATOM     22  H   UNL     1     -11.701  29.303  11.318  1.00  0.00     0.293 HD
ENDBRANCH  17  21
BRANCH  18  23
ATOM     23  O   UNL     1     -10.519  31.516  11.832  1.00  0.00    -0.504 OA
ATOM     24  H   UNL     1     -10.574  32.208  12.571  1.00  0.00     0.293 HD
ENDBRANCH  18  23
ENDBRANCH   3  13
BRANCH  10  25
ATOM     25  O   UNL     1      -8.215  38.463   5.570  1.00  0.00    -0.507 OA
ATOM     26  H   UNL     1      -8.055  38.006   4.684  1.00  0.00     0.293 HD
ENDBRANCH  10  25
BRANCH  11  27
ATOM     27  O   UNL     1     -11.785  40.328   8.153  1.00  0.00    -0.508 OA
ATOM     28  H   UNL     1     -11.444  41.262   7.960  1.00  0.00     0.293 HD
ENDBRANCH  11  27
ENDBRANCH   1   2
BRANCH   1  29
ATOM     29  C   UNL     1      -8.356  32.931   5.347  1.00  0.00     0.339 C 
ATOM     30  C   UNL     1      -6.827  32.787   5.381  1.00  0.00     0.214 C 
ATOM     31  O   UNL     1      -8.993  31.789   4.796  1.00  0.00    -0.332 OA
ATOM     32  C   UNL     1      -6.408  31.550   6.182  1.00  0.00     0.180 C 
ATOM     33  C   UNL     1      -8.683  30.562   5.445  1.00  0.00     0.179 C 
ATOM     34  C   UNL     1      -7.160  30.315   5.661  1.00  0.00     0.177 C 
BRANCH  30  35
ATOM     35  O   UNL     1      -6.259  33.947   5.934  1.00  0.00    -0.384 OA
ATOM     36  H   UNL     1      -6.288  34.645   5.229  1.00  0.00     0.211 HD
ENDBRANCH  30  35
BRANCH  32  37
ATOM     37  O   UNL     1      -6.640  31.758   7.552  1.00  0.00    -0.387 OA
ATOM     38  H   UNL     1      -5.766  31.665   8.014  1.00  0.00     0.211 HD
ENDBRANCH  32  37
BRANCH  33  39
ATOM     39  C   UNL     1      -9.606  30.279   6.651  1.00  0.00     0.191 C 
BRANCH  39  40
ATOM     40  O   UNL     1      -9.856  28.914   6.815  1.00  0.00    -0.394 OA
ATOM     41  H   UNL     1     -10.820  28.833   7.032  1.00  0.00     0.210 HD
ENDBRANCH  39  40
ENDBRANCH  33  39
BRANCH  34  42
ATOM     42  O   UNL     1      -6.939  29.220   6.514  1.00  0.00    -0.387 OA
ATOM     43  H   UNL     1      -7.786  28.705   6.546  1.00  0.00     0.211 HD
ENDBRANCH  34  42
ENDBRANCH   1  29
TORSDOF 13
ENDMDL
MODEL 9
REMARK VINA RESULT:    -5.299      1.361      2.591
REMARK INTER + INTRA:          -8.638
REMARK INTER:                  -7.074
REMARK INTRA:                  -1.564
REMARK UNBOUND:                -0.706
REMARK SMILES O=c1c(O[C@@H]2O[C@H](CO)[C@H](O)[C@H](O)[C@@H]2O)c(-c2cc(O)c(O)c(O)c2)oc2cc(O)cc(O)c12
REMARK SMILES IDX 4 1 3 2 16 3 26 4 2 5 27 6 1 7 34 8 28 9 32 10 29 11 31 12
REMARK SMILES IDX 17 13 18 14 19 15 25 16 21 17 23 18 20 19 22 21 24 23 33 25
REMARK SMILES IDX 30 27 5 29 14 30 6 31 12 32 7 33 10 34 15 35 13 37 8 39 9 40
REMARK SMILES IDX 11 42
REMARK H PARENT 20 20 22 22 24 24 33 26 30 28 15 36 13 38 9 41 11 43
REMARK Flexibility Score: inf
ROOT
ATOM      1  O   UNL     1     -10.501  32.221   7.167  1.00  0.00    -0.454 OA
ENDROOT
BRANCH   1   2
ATOM      2  C   UNL     1      -9.992  33.513   6.945  1.00  0.00     0.214 A 
ATOM      3  C   UNL     1      -8.693  33.653   6.422  1.00  0.00     0.181 A 
ATOM      4  O   UNL     1      -8.202  34.860   6.172  1.00  0.00    -0.452 OA
ATOM      5  C   UNL     1     -10.736  34.679   7.216  1.00  0.00     0.239 A 
ATOM      6  C   UNL     1      -8.875  35.981   6.387  1.00  0.00     0.146 A 
ATOM      7  O   UNL     1     -11.847  34.576   7.794  1.00  0.00    -0.285 OA
ATOM      8  C   UNL     1     -10.202  35.948   6.889  1.00  0.00     0.111 A 
ATOM      9  C   UNL     1      -8.246  37.200   6.121  1.00  0.00     0.094 A 
ATOM     10  C   UNL     1     -10.894  37.185   7.062  1.00  0.00     0.134 A 
ATOM     11  C   UNL     1      -8.912  38.405   6.354  1.00  0.00     0.123 A 
ATOM     12  C   UNL     1     -10.223  38.391   6.825  1.00  0.00     0.093 A 
BRANCH   3  13
ATOM     13  C   UNL     1      -7.853  32.479   6.100  1.00  0.00     0.029 A 
ATOM     14  C   UNL     1      -8.248  31.547   5.132  1.00  0.00     0.062 A 
ATOM     15  C   UNL     1      -7.447  30.441   4.827  1.00  0.00     0.162 A 
ATOM     16  C   UNL     1      -6.658  32.273   6.798  1.00  0.00     0.062 A 
ATOM     17  C   UNL     1      -6.225  30.252   5.517  1.00  0.00     0.200 A 
ATOM     18  C   UNL     1      -5.843  31.175   6.508  1.00  0.00     0.162 A 
BRANCH  15  19
ATOM     19  O   UNL     1      -7.905  29.559   3.845  1.00  0.00    -0.504 OA
ATOM     20  H   UNL     1      -7.507  29.485   2.921  1.00  0.00     0.293 HD
ENDBRANCH  15  19
BRANCH  17  21
ATOM     21  O   UNL     1      -5.377  29.175   5.249  1.00  0.00    -0.502 OA
ATOM     22  H   UNL     1      -4.764  29.120   4.449  1.00  0.00     0.293 HD
ENDBRANCH  17  21
BRANCH  18  23
ATOM     23  O   UNL     1      -4.652  31.019   7.217  1.00  0.00    -0.504 OA
ATOM     24  H   UNL     1      -4.330  30.115   7.541  1.00  0.00     0.293 HD
ENDBRANCH  18  23
ENDBRANCH   3  13
BRANCH  10  25
ATOM     25  O   UNL     1     -12.239  37.281   7.430  1.00  0.00    -0.507 OA
ATOM     26  H   UNL     1     -12.606  37.019   8.333  1.00  0.00     0.293 HD
ENDBRANCH  10  25
BRANCH  11  27
ATOM     27  O   UNL     1      -8.280  39.622   6.112  1.00  0.00    -0.508 OA
ATOM     28  H   UNL     1      -8.177  39.990   5.174  1.00  0.00     0.293 HD
ENDBRANCH  11  27
ENDBRANCH   1   2
BRANCH   1  29
ATOM     29  C   UNL     1     -10.132  31.372   8.257  1.00  0.00     0.339 C 
ATOM     30  C   UNL     1     -11.254  31.310   9.304  1.00  0.00     0.214 C 
ATOM     31  O   UNL     1      -9.732  30.083   7.818  1.00  0.00    -0.332 OA
ATOM     32  C   UNL     1     -12.479  30.571   8.755  1.00  0.00     0.180 C 
ATOM     33  C   UNL     1     -10.781  29.282   7.287  1.00  0.00     0.179 C 
ATOM     34  C   UNL     1     -12.051  29.209   8.187  1.00  0.00     0.177 C 
BRANCH  30  35
ATOM     35  O   UNL     1     -11.601  32.613   9.698  1.00  0.00    -0.384 OA
ATOM     36  H   UNL     1     -12.372  32.529  10.319  1.00  0.00     0.211 HD
ENDBRANCH  30  35
BRANCH  32  37
ATOM     37  O   UNL     1     -13.125  31.357   7.786  1.00  0.00    -0.387 OA
ATOM     38  H   UNL     1     -14.094  31.351   8.003  1.00  0.00     0.211 HD
ENDBRANCH  32  37
BRANCH  33  39
ATOM     39  C   UNL     1     -11.015  29.533   5.781  1.00  0.00     0.191 C 
BRANCH  39  40
ATOM     40  O   UNL     1     -10.435  28.542   4.986  1.00  0.00    -0.394 OA
ATOM     41  H   UNL     1     -10.454  28.887   4.055  1.00  0.00     0.210 HD
ENDBRANCH  39  40
ENDBRANCH  33  39
BRANCH  34  42
ATOM     42  O   UNL     1     -13.125  28.613   7.502  1.00  0.00    -0.387 OA
ATOM     43  H   UNL     1     -13.367  27.793   8.005  1.00  0.00     0.211 HD
ENDBRANCH  34  42
ENDBRANCH   1  29
TORSDOF 13
ENDMDL
