MODEL 1
REMARK VINA RESULT:    -3.423      0.000      0.000
REMARK INTER + INTRA:          -4.186
REMARK INTER:                  -4.023
REMARK INTRA:                  -0.163
REMARK UNBOUND:                -0.163
REMARK SMILES O=C([O-])CCC(=O)[O-]
REMARK SMILES IDX 4 1 2 2 1 3 3 4 5 5 6 6 7 7 8 8
REMARK H PARENT
REMARK Flexibility Score: inf
ROOT
ATOM      1  C   UNL     1     107.199  49.403 231.195  1.00  0.00     0.059 C 
ENDROOT
BRANCH   1   2
ATOM      2  C   UNL     1     108.314  49.829 232.097  1.00  0.00     0.042 C 
ATOM      3  O   UNL     1     109.231  49.020 232.398  1.00  0.00    -0.550 OA
ATOM      4  O   UNL     1     108.315  51.106 232.647  1.00  0.00    -0.550 OA
ENDBRANCH   1   2
BRANCH   1   5
ATOM      5  C   UNL     1     106.342  48.334 231.873  1.00  0.00     0.059 C 
BRANCH   5   6
ATOM      6  C   UNL     1     105.467  48.949 232.919  1.00  0.00     0.042 C 
ATOM      7  O   UNL     1     104.736  49.934 232.635  1.00  0.00    -0.550 OA
ATOM      8  O   UNL     1     105.423  48.404 234.196  1.00  0.00    -0.550 OA
ENDBRANCH   5   6
ENDBRANCH   1   5
TORSDOF 3
ENDMDL
MODEL 2
REMARK VINA RESULT:    -3.305      0.587      3.512
REMARK INTER + INTRA:          -4.048
REMARK INTER:                  -3.911
REMARK INTRA:                  -0.137
REMARK UNBOUND:                -0.163
REMARK SMILES O=C([O-])CCC(=O)[O-]
REMARK SMILES IDX 4 1 2 2 1 3 3 4 5 5 6 6 7 7 8 8
REMARK H PARENT
REMARK Flexibility Score: inf
ROOT
ATOM      1  C   UNL     1     106.249  47.875 232.473  1.00  0.00     0.059 C 
ENDROOT
BRANCH   1   2
ATOM      2  C   UNL     1     105.229  48.560 233.326  1.00  0.00     0.042 C 
ATOM      3  O   UNL     1     104.423  49.382 232.815  1.00  0.00    -0.550 OA
ATOM      4  O   UNL     1     105.199  48.329 234.696  1.00  0.00    -0.550 OA
ENDBRANCH   1   2
BRANCH   1   5
ATOM      5  C   UNL     1     106.850  48.856 231.466  1.00  0.00     0.059 C 
BRANCH   5   6
ATOM      6  C   UNL     1     107.961  49.636 232.094  1.00  0.00     0.042 C 
ATOM      7  O   UNL     1     107.782  50.836 232.431  1.00  0.00    -0.550 OA
ATOM      8  O   UNL     1     109.182  49.024 232.351  1.00  0.00    -0.550 OA
ENDBRANCH   5   6
ENDBRANCH   1   5
TORSDOF 3
ENDMDL
MODEL 3
REMARK VINA RESULT:    -2.955      4.374      6.670
REMARK INTER + INTRA:          -3.636
REMARK INTER:                  -3.546
REMARK INTRA:                  -0.091
REMARK UNBOUND:                -0.163
REMARK SMILES O=C([O-])CCC(=O)[O-]
REMARK SMILES IDX 4 1 2 2 1 3 3 4 5 5 6 6 7 7 8 8
REMARK H PARENT
REMARK Flexibility Score: inf
ROOT
ATOM      1  C   UNL     1     110.555  53.407 232.489  1.00  0.00     0.059 C 
ENDROOT
BRANCH   1   2
ATOM      2  C   UNL     1     109.691  52.356 233.110  1.00  0.00     0.042 C 
ATOM      3  O   UNL     1     109.052  52.602 234.166  1.00  0.00    -0.550 OA
ATOM      4  O   UNL     1     109.629  51.086 232.548  1.00  0.00    -0.550 OA
ENDBRANCH   1   2
BRANCH   1   5
ATOM      5  C   UNL     1     111.893  52.810 232.050  1.00  0.00     0.059 C 
BRANCH   5   6
ATOM      6  C   UNL     1     112.941  53.056 233.088  1.00  0.00     0.042 C 
ATOM      7  O   UNL     1     114.122  52.658 232.903  1.00  0.00    -0.550 OA
ATOM      8  O   UNL     1     112.628  53.767 234.240  1.00  0.00    -0.550 OA
ENDBRANCH   5   6
ENDBRANCH   1   5
TORSDOF 3
ENDMDL
MODEL 4
REMARK VINA RESULT:    -2.938      2.155      2.791
REMARK INTER + INTRA:          -3.616
REMARK INTER:                  -3.567
REMARK INTRA:                  -0.048
REMARK UNBOUND:                -0.163
REMARK SMILES O=C([O-])CCC(=O)[O-]
REMARK SMILES IDX 4 1 2 2 1 3 3 4 5 5 6 6 7 7 8 8
REMARK H PARENT
REMARK Flexibility Score: inf
ROOT
ATOM      1  C   UNL     1     107.042  49.366 230.792  1.00  0.00     0.059 C 
ENDROOT
BRANCH   1   2
ATOM      2  C   UNL     1     107.676  48.785 232.016  1.00  0.00     0.042 C 
ATOM      3  O   UNL     1     107.042  47.963 232.729  1.00  0.00    -0.550 OA
ATOM      4  O   UNL     1     108.949  49.188 232.399  1.00  0.00    -0.550 OA
ENDBRANCH   1   2
BRANCH   1   5
ATOM      5  C   UNL     1     105.732  48.646 230.475  1.00  0.00     0.059 C 
BRANCH   5   6
ATOM      6  C   UNL     1     104.725  49.607 229.926  1.00  0.00     0.042 C 
ATOM      7  O   UNL     1     103.494  49.384 230.065  1.00  0.00    -0.550 OA
ATOM      8  O   UNL     1     105.147  50.776 229.304  1.00  0.00    -0.550 OA
ENDBRANCH   5   6
ENDBRANCH   1   5
TORSDOF 3
ENDMDL
MODEL 5
REMARK VINA RESULT:    -2.915      4.373      5.715
REMARK INTER + INTRA:          -3.589
REMARK INTER:                  -3.471
REMARK INTRA:                  -0.118
REMARK UNBOUND:                -0.163
REMARK SMILES O=C([O-])CCC(=O)[O-]
REMARK SMILES IDX 4 1 2 2 1 3 3 4 5 5 6 6 7 7 8 8
REMARK H PARENT
REMARK Flexibility Score: inf
ROOT
ATOM      1  C   UNL     1     111.604  54.005 232.810  1.00  0.00     0.059 C 
ENDROOT
BRANCH   1   2
ATOM      2  C   UNL     1     112.559  53.187 232.000  1.00  0.00     0.042 C 
ATOM      3  O   UNL     1     113.382  52.424 232.570  1.00  0.00    -0.550 OA
ATOM      4  O   UNL     1     112.575  53.305 230.615  1.00  0.00    -0.550 OA
ENDBRANCH   1   2
BRANCH   1   5
ATOM      5  C   UNL     1     110.161  53.694 232.410  1.00  0.00     0.059 C 
BRANCH   5   6
ATOM      6  C   UNL     1     109.644  52.524 233.186  1.00  0.00     0.042 C 
ATOM      7  O   UNL     1     109.635  51.375 232.671  1.00  0.00    -0.550 OA
ATOM      8  O   UNL     1     109.217  52.693 234.498  1.00  0.00    -0.550 OA
ENDBRANCH   5   6
ENDBRANCH   1   5
TORSDOF 3
ENDMDL
MODEL 6
REMARK VINA RESULT:    -2.899      4.559      5.912
REMARK INTER + INTRA:          -3.571
REMARK INTER:                  -3.489
REMARK INTRA:                  -0.082
REMARK UNBOUND:                -0.163
REMARK SMILES O=C([O-])CCC(=O)[O-]
REMARK SMILES IDX 4 1 2 2 1 3 3 4 5 5 6 6 7 7 8 8
REMARK H PARENT
REMARK Flexibility Score: inf
ROOT
ATOM      1  C   UNL     1     111.766  53.704 233.626  1.00  0.00     0.059 C 
ENDROOT
BRANCH   1   2
ATOM      2  C   UNL     1     113.110  53.055 233.518  1.00  0.00     0.042 C 
ATOM      3  O   UNL     1     113.432  52.434 232.471  1.00  0.00    -0.550 OA
ATOM      4  O   UNL     1     113.990  53.094 234.593  1.00  0.00    -0.550 OA
ENDBRANCH   1   2
BRANCH   1   5
ATOM      5  C   UNL     1     110.836  53.195 232.525  1.00  0.00     0.059 C 
BRANCH   5   6
ATOM      6  C   UNL     1     109.818  52.257 233.093  1.00  0.00     0.042 C 
ATOM      7  O   UNL     1     109.096  52.615 234.060  1.00  0.00    -0.550 OA
ATOM      8  O   UNL     1     109.632  51.004 232.522  1.00  0.00    -0.550 OA
ENDBRANCH   5   6
ENDBRANCH   1   5
TORSDOF 3
ENDMDL
MODEL 7
REMARK VINA RESULT:    -2.830      2.077      3.506
REMARK INTER + INTRA:          -3.489
REMARK INTER:                  -3.373
REMARK INTRA:                  -0.116
REMARK UNBOUND:                -0.163
REMARK SMILES O=C([O-])CCC(=O)[O-]
REMARK SMILES IDX 4 1 2 2 1 3 3 4 5 5 6 6 7 7 8 8
REMARK H PARENT
REMARK Flexibility Score: inf
ROOT
ATOM      1  C   UNL     1     105.686  49.212 230.343  1.00  0.00     0.059 C 
ENDROOT
BRANCH   1   2
ATOM      2  C   UNL     1     105.016  50.520 230.066  1.00  0.00     0.042 C 
ATOM      3  O   UNL     1     104.883  50.927 228.882  1.00  0.00    -0.550 OA
ATOM      4  O   UNL     1     104.580  51.315 231.119  1.00  0.00    -0.550 OA
ENDBRANCH   1   2
BRANCH   1   5
ATOM      5  C   UNL     1     107.181  49.418 230.587  1.00  0.00     0.059 C 
BRANCH   5   6
ATOM      6  C   UNL     1     107.520  49.146 232.018  1.00  0.00     0.042 C 
ATOM      7  O   UNL     1     106.607  48.902 232.851  1.00  0.00    -0.550 OA
ATOM      8  O   UNL     1     108.849  49.114 232.425  1.00  0.00    -0.550 OA
ENDBRANCH   5   6
ENDBRANCH   1   5
TORSDOF 3
ENDMDL
MODEL 8
REMARK VINA RESULT:    -2.743     21.960     23.171
REMARK INTER + INTRA:          -3.387
REMARK INTER:                  -3.228
REMARK INTRA:                  -0.160
REMARK UNBOUND:                -0.163
REMARK SMILES O=C([O-])CCC(=O)[O-]
REMARK SMILES IDX 4 1 2 2 1 3 3 4 5 5 6 6 7 7 8 8
REMARK H PARENT
REMARK Flexibility Score: inf
ROOT
ATOM      1  C   UNL     1     111.443  65.535 216.276  1.00  0.00     0.059 C 
ENDROOT
BRANCH   1   2
ATOM      2  C   UNL     1     112.676  66.327 215.973  1.00  0.00     0.042 C 
ATOM      3  O   UNL     1     112.667  67.581 216.083  1.00  0.00    -0.550 OA
ATOM      4  O   UNL     1     113.822  65.684 215.520  1.00  0.00    -0.550 OA
ENDBRANCH   1   2
BRANCH   1   5
ATOM      5  C   UNL     1     111.635  64.715 217.552  1.00  0.00     0.059 C 
BRANCH   5   6
ATOM      6  C   UNL     1     111.669  65.611 218.750  1.00  0.00     0.042 C 
ATOM      7  O   UNL     1     112.644  65.568 219.545  1.00  0.00    -0.550 OA
ATOM      8  O   UNL     1     110.646  66.528 218.962  1.00  0.00    -0.550 OA
ENDBRANCH   5   6
ENDBRANCH   1   5
TORSDOF 3
ENDMDL
MODEL 9
REMARK VINA RESULT:    -2.707     16.352     17.283
REMARK INTER + INTRA:          -3.345
REMARK INTER:                  -3.221
REMARK INTRA:                  -0.124
REMARK UNBOUND:                -0.163
REMARK SMILES O=C([O-])CCC(=O)[O-]
REMARK SMILES IDX 4 1 2 2 1 3 3 4 5 5 6 6 7 7 8 8
REMARK H PARENT
REMARK Flexibility Score: inf
ROOT
ATOM      1  C   UNL     1     100.737  63.482 225.042  1.00  0.00     0.059 C 
ENDROOT
BRANCH   1   2
ATOM      2  C   UNL     1     100.204  64.310 223.915  1.00  0.00     0.042 C 
ATOM      3  O   UNL     1     100.995  64.911 223.141  1.00  0.00    -0.550 OA
ATOM      4  O   UNL     1      98.833  64.459 223.749  1.00  0.00    -0.550 OA
ENDBRANCH   1   2
BRANCH   1   5
ATOM      5  C   UNL     1     101.547  62.303 224.502  1.00  0.00     0.059 C 
BRANCH   5   6
ATOM      6  C   UNL     1     102.976  62.410 224.932  1.00  0.00     0.042 C 
ATOM      7  O   UNL     1     103.568  63.521 224.896  1.00  0.00    -0.550 OA
ATOM      8  O   UNL     1     103.641  61.292 225.420  1.00  0.00    -0.550 OA
ENDBRANCH   5   6
ENDBRANCH   1   5
TORSDOF 3
ENDMDL
