MODEL 1
REMARK VINA RESULT:    -5.314      0.000      0.000
REMARK INTER + INTRA:          -7.558
REMARK INTER:                  -7.954
REMARK INTRA:                   0.396
REMARK UNBOUND:                 0.396
REMARK SMILES C=C(CC[C@H](C(=O)[O-])[C@@H]1[C@H](O)C[C@]2(C)C3=C(CC[C@]12C)[C@]1(C)CC[C@H](OC(C)=O)C(C)(C)[C@@H]1CC3)C(C)C
REMARK SMILES IDX 4 1 5 2 6 3 7 4 8 5 9 6 10 7 19 8 12 9 13 10 18 11 20 12
REMARK SMILES IDX 14 13 15 14 17 15 16 16 35 17 21 18 34 19 33 20 23 21 22 22
REMARK SMILES IDX 30 23 24 24 25 25 31 26 32 27 11 28 26 30 27 31 29 32 28 33
REMARK SMILES IDX 3 34 2 35 1 36 36 37 37 38 38 39
REMARK H PARENT 11 29
REMARK Flexibility Score: inf
ROOT
ATOM      1  C   UNL     1     -26.371 -24.765  -7.632  1.00  0.00     0.014 C 
ENDROOT
BRANCH   1   2
ATOM      2  C   UNL     1     -25.840 -24.089  -8.924  1.00  0.00     0.042 C 
BRANCH   2   3
ATOM      3  C   UNL     1     -24.353 -23.812  -8.743  1.00  0.00     0.045 C 
ATOM      4  O   UNL     1     -23.924 -23.098  -7.801  1.00  0.00    -0.550 OA
ATOM      5  O   UNL     1     -23.414 -24.502  -9.511  1.00  0.00    -0.550 OA
ENDBRANCH   2   3
BRANCH   2   6
ATOM      6  C   UNL     1     -26.647 -22.840  -9.415  1.00  0.00     0.033 C 
ATOM      7  C   UNL     1     -27.977 -23.125 -10.180  1.00  0.00     0.119 C 
ATOM      8  C   UNL     1     -25.889 -21.839 -10.341  1.00  0.00    -0.017 C 
ATOM      9  C   UNL     1     -28.187 -21.976 -11.191  1.00  0.00     0.043 C 
ATOM     10  C   UNL     1     -27.068 -20.972 -10.885  1.00  0.00    -0.003 C 
ATOM     11  C   UNL     1     -25.186 -22.579 -11.494  1.00  0.00     0.012 C 
ATOM     12  C   UNL     1     -24.860 -20.940  -9.573  1.00  0.00     0.013 C 
ATOM     13  C   UNL     1     -27.603 -19.948  -9.829  1.00  0.00     0.017 C 
ATOM     14  C   UNL     1     -26.654 -20.233 -12.194  1.00  0.00    -0.064 C 
ATOM     15  C   UNL     1     -24.521 -21.576 -12.439  1.00  0.00     0.032 C 
ATOM     16  C   UNL     1     -25.457 -20.416 -12.802  1.00  0.00    -0.064 C 
ATOM     17  C   UNL     1     -27.674 -19.280 -12.777  1.00  0.00     0.032 C 
ATOM     18  C   UNL     1     -24.965 -19.476 -13.954  1.00  0.00    -0.008 C 
ATOM     19  C   UNL     1     -26.951 -17.962 -12.944  1.00  0.00     0.009 C 
ATOM     20  C   UNL     1     -25.856 -18.120 -14.033  1.00  0.00     0.009 C 
ATOM     21  C   UNL     1     -23.403 -19.196 -13.769  1.00  0.00     0.015 C 
ATOM     22  C   UNL     1     -25.279 -20.306 -15.245  1.00  0.00     0.016 C 
ATOM     23  C   UNL     1     -25.060 -16.750 -14.223  1.00  0.00     0.005 C 
ATOM     24  C   UNL     1     -22.784 -17.907 -14.406  1.00  0.00     0.047 C 
ATOM     25  C   UNL     1     -23.802 -17.029 -15.120  1.00  0.00     0.182 C 
ATOM     26  C   UNL     1     -26.010 -15.750 -14.978  1.00  0.00     0.015 C 
ATOM     27  C   UNL     1     -24.679 -16.172 -12.823  1.00  0.00     0.015 C 
BRANCH   7  28
ATOM     28  O   UNL     1     -27.928 -24.353 -10.881  1.00  0.00    -0.393 OA
ATOM     29  H   UNL     1     -28.344 -24.173 -11.773  1.00  0.00     0.210 HD
ENDBRANCH   7  28
BRANCH  25  30
ATOM     30  O   UNL     1     -23.068 -15.872 -15.607  1.00  0.00    -0.462 OA
BRANCH  30  31
ATOM     31  C   UNL     1     -22.554 -14.832 -14.829  1.00  0.00     0.302 C 
ATOM     32  O   UNL     1     -22.948 -13.638 -15.036  1.00  0.00    -0.253 OA
ATOM     33  C   UNL     1     -21.311 -15.018 -13.972  1.00  0.00     0.139 C 
ENDBRANCH  30  31
ENDBRANCH  25  30
ENDBRANCH   2   6
ENDBRANCH   1   2
BRANCH   1  34
ATOM     34  C   UNL     1     -26.462 -26.302  -7.633  1.00  0.00     0.031 C 
BRANCH  34  35
ATOM     35  C   UNL     1     -27.791 -26.765  -7.052  1.00  0.00    -0.075 C 
ATOM     36  C   UNL     1     -28.935 -26.315  -7.658  1.00  0.00     0.008 C 
BRANCH  35  37
ATOM     37  C   UNL     1     -27.876 -27.640  -5.792  1.00  0.00     0.008 C 
ATOM     38  C   UNL     1     -26.496 -27.900  -5.154  1.00  0.00     0.012 C 
ATOM     39  C   UNL     1     -28.796 -27.033  -4.713  1.00  0.00     0.012 C 
ENDBRANCH  35  37
ENDBRANCH  34  35
ENDBRANCH   1  34
TORSDOF 9
ENDMDL
MODEL 2
REMARK VINA RESULT:    -4.253      2.387     10.255
REMARK INTER + INTRA:          -5.970
REMARK INTER:                  -5.560
REMARK INTRA:                  -0.410
REMARK UNBOUND:                 0.396
REMARK SMILES C=C(CC[C@H](C(=O)[O-])[C@@H]1[C@H](O)C[C@]2(C)C3=C(CC[C@]12C)[C@]1(C)CC[C@H](OC(C)=O)C(C)(C)[C@@H]1CC3)C(C)C
REMARK SMILES IDX 4 1 5 2 6 3 7 4 8 5 9 6 10 7 19 8 12 9 13 10 18 11 20 12
REMARK SMILES IDX 14 13 15 14 17 15 16 16 35 17 21 18 34 19 33 20 23 21 22 22
REMARK SMILES IDX 30 23 24 24 25 25 31 26 32 27 11 28 26 30 27 31 29 32 28 33
REMARK SMILES IDX 3 34 2 35 1 36 36 37 37 38 38 39
REMARK H PARENT 11 29
REMARK Flexibility Score: inf
ROOT
ATOM      1  C   UNL     1     -24.566 -18.127 -14.577  1.00  0.00     0.014 C 
ENDROOT
BRANCH   1   2
ATOM      2  C   UNL     1     -24.517 -19.365 -13.643  1.00  0.00     0.042 C 
BRANCH   2   3
ATOM      3  C   UNL     1     -24.093 -20.572 -14.470  1.00  0.00     0.045 C 
ATOM      4  O   UNL     1     -23.172 -21.341 -14.091  1.00  0.00    -0.550 OA
ATOM      5  O   UNL     1     -24.846 -20.962 -15.578  1.00  0.00    -0.550 OA
ENDBRANCH   2   3
BRANCH   2   6
ATOM      6  C   UNL     1     -25.805 -19.621 -12.789  1.00  0.00     0.033 C 
ATOM      7  C   UNL     1     -26.215 -18.494 -11.790  1.00  0.00     0.119 C 
ATOM      8  C   UNL     1     -25.820 -20.916 -11.921  1.00  0.00    -0.017 C 
ATOM      9  C   UNL     1     -26.917 -19.170 -10.591  1.00  0.00     0.043 C 
ATOM     10  C   UNL     1     -27.043 -20.646 -10.990  1.00  0.00    -0.003 C 
ATOM     11  C   UNL     1     -24.528 -21.041 -11.093  1.00  0.00     0.012 C 
ATOM     12  C   UNL     1     -26.050 -22.222 -12.757  1.00  0.00     0.013 C 
ATOM     13  C   UNL     1     -28.414 -20.842 -11.719  1.00  0.00     0.017 C 
ATOM     14  C   UNL     1     -26.977 -21.540  -9.714  1.00  0.00    -0.064 C 
ATOM     15  C   UNL     1     -24.597 -22.270 -10.183  1.00  0.00     0.032 C 
ATOM     16  C   UNL     1     -25.934 -22.361  -9.436  1.00  0.00    -0.064 C 
ATOM     17  C   UNL     1     -28.154 -21.448  -8.768  1.00  0.00     0.032 C 
ATOM     18  C   UNL     1     -26.010 -23.434  -8.298  1.00  0.00    -0.008 C 
ATOM     19  C   UNL     1     -28.629 -22.870  -8.570  1.00  0.00     0.009 C 
ATOM     20  C   UNL     1     -27.539 -23.666  -7.804  1.00  0.00     0.009 C 
ATOM     21  C   UNL     1     -25.295 -24.774  -8.796  1.00  0.00     0.015 C 
ATOM     22  C   UNL     1     -25.246 -22.747  -7.116  1.00  0.00     0.016 C 
ATOM     23  C   UNL     1     -28.002 -25.179  -7.594  1.00  0.00     0.005 C 
ATOM     24  C   UNL     1     -25.687 -26.134  -8.127  1.00  0.00     0.047 C 
ATOM     25  C   UNL     1     -26.773 -26.004  -7.068  1.00  0.00     0.182 C 
ATOM     26  C   UNL     1     -29.123 -25.183  -6.492  1.00  0.00     0.015 C 
ATOM     27  C   UNL     1     -28.568 -25.741  -8.936  1.00  0.00     0.015 C 
BRANCH   7  28
ATOM     28  O   UNL     1     -25.091 -17.773 -11.319  1.00  0.00    -0.393 OA
ATOM     29  H   UNL     1     -24.311 -18.116 -11.843  1.00  0.00     0.210 HD
ENDBRANCH   7  28
BRANCH  25  30
ATOM     30  O   UNL     1     -27.037 -27.352  -6.591  1.00  0.00    -0.462 OA
BRANCH  30  31
ATOM     31  C   UNL     1     -26.978 -27.784  -5.264  1.00  0.00     0.302 C 
ATOM     32  O   UNL     1     -25.848 -27.890  -4.686  1.00  0.00    -0.253 OA
ATOM     33  C   UNL     1     -28.171 -28.443  -4.588  1.00  0.00     0.139 C 
ENDBRANCH  30  31
ENDBRANCH  25  30
ENDBRANCH   2   6
ENDBRANCH   1   2
BRANCH   1  34
ATOM     34  C   UNL     1     -23.290 -17.270 -14.671  1.00  0.00     0.031 C 
BRANCH  34  35
ATOM     35  C   UNL     1     -23.622 -15.790 -14.529  1.00  0.00    -0.075 C 
ATOM     36  C   UNL     1     -23.003 -15.099 -13.520  1.00  0.00     0.008 C 
BRANCH  35  37
ATOM     37  C   UNL     1     -24.662 -15.093 -15.420  1.00  0.00     0.008 C 
ATOM     38  C   UNL     1     -25.058 -13.699 -14.893  1.00  0.00     0.012 C 
ATOM     39  C   UNL     1     -24.180 -14.935 -16.877  1.00  0.00     0.012 C 
ENDBRANCH  35  37
ENDBRANCH  34  35
ENDBRANCH   1  34
TORSDOF 9
ENDMDL
MODEL 3
REMARK VINA RESULT:    -3.933      2.587     10.109
REMARK INTER + INTRA:          -5.491
REMARK INTER:                  -6.465
REMARK INTRA:                   0.975
REMARK UNBOUND:                 0.396
REMARK SMILES C=C(CC[C@H](C(=O)[O-])[C@@H]1[C@H](O)C[C@]2(C)C3=C(CC[C@]12C)[C@]1(C)CC[C@H](OC(C)=O)C(C)(C)[C@@H]1CC3)C(C)C
REMARK SMILES IDX 4 1 5 2 6 3 7 4 8 5 9 6 10 7 19 8 12 9 13 10 18 11 20 12
REMARK SMILES IDX 14 13 15 14 17 15 16 16 35 17 21 18 34 19 33 20 23 21 22 22
REMARK SMILES IDX 30 23 24 24 25 25 31 26 32 27 11 28 26 30 27 31 29 32 28 33
REMARK SMILES IDX 3 34 2 35 1 36 36 37 37 38 38 39
REMARK H PARENT 11 29
REMARK Flexibility Score: inf
ROOT
ATOM      1  C   UNL     1     -21.287 -12.890 -13.083  1.00  0.00     0.014 C 
ENDROOT
BRANCH   1   2
ATOM      2  C   UNL     1     -22.624 -13.246 -13.786  1.00  0.00     0.042 C 
BRANCH   2   3
ATOM      3  C   UNL     1     -23.760 -13.029 -12.793  1.00  0.00     0.045 C 
ATOM      4  O   UNL     1     -24.949 -12.875 -13.174  1.00  0.00    -0.550 OA
ATOM      5  O   UNL     1     -23.534 -13.185 -11.425  1.00  0.00    -0.550 OA
ENDBRANCH   2   3
BRANCH   2   6
ATOM      6  C   UNL     1     -22.671 -14.648 -14.483  1.00  0.00     0.033 C 
ATOM      7  C   UNL     1     -23.488 -14.741 -15.810  1.00  0.00     0.119 C 
ATOM      8  C   UNL     1     -23.209 -15.835 -13.627  1.00  0.00    -0.017 C 
ATOM      9  C   UNL     1     -24.058 -16.173 -15.904  1.00  0.00     0.043 C 
ATOM     10  C   UNL     1     -23.434 -16.925 -14.722  1.00  0.00    -0.003 C 
ATOM     11  C   UNL     1     -24.543 -15.467 -12.950  1.00  0.00     0.012 C 
ATOM     12  C   UNL     1     -22.186 -16.343 -12.554  1.00  0.00     0.013 C 
ATOM     13  C   UNL     1     -22.097 -17.579 -15.206  1.00  0.00     0.017 C 
ATOM     14  C   UNL     1     -24.421 -18.021 -14.218  1.00  0.00    -0.064 C 
ATOM     15  C   UNL     1     -25.100 -16.670 -12.186  1.00  0.00     0.032 C 
ATOM     16  C   UNL     1     -25.055 -17.957 -13.022  1.00  0.00    -0.064 C 
ATOM     17  C   UNL     1     -24.654 -19.193 -15.147  1.00  0.00     0.032 C 
ATOM     18  C   UNL     1     -25.827 -19.184 -12.429  1.00  0.00    -0.008 C 
ATOM     19  C   UNL     1     -24.371 -20.429 -14.322  1.00  0.00     0.009 C 
ATOM     20  C   UNL     1     -25.450 -20.555 -13.214  1.00  0.00     0.009 C 
ATOM     21  C   UNL     1     -25.559 -19.260 -10.856  1.00  0.00     0.015 C 
ATOM     22  C   UNL     1     -27.321 -18.857 -12.770  1.00  0.00     0.016 C 
ATOM     23  C   UNL     1     -25.171 -21.842 -12.312  1.00  0.00     0.005 C 
ATOM     24  C   UNL     1     -25.729 -20.634 -10.125  1.00  0.00     0.047 C 
ATOM     25  C   UNL     1     -26.110 -21.777 -11.054  1.00  0.00     0.182 C 
ATOM     26  C   UNL     1     -25.550 -23.108 -13.163  1.00  0.00     0.015 C 
ATOM     27  C   UNL     1     -23.659 -21.889 -11.926  1.00  0.00     0.015 C 
BRANCH   7  28
ATOM     28  O   UNL     1     -24.559 -13.815 -15.834  1.00  0.00    -0.393 OA
ATOM     29  H   UNL     1     -25.023 -13.962 -16.707  1.00  0.00     0.210 HD
ENDBRANCH   7  28
BRANCH  25  30
ATOM     30  O   UNL     1     -26.182 -22.967 -10.222  1.00  0.00    -0.462 OA
BRANCH  30  31
ATOM     31  C   UNL     1     -25.558 -23.151  -8.986  1.00  0.00     0.302 C 
ATOM     32  O   UNL     1     -26.070 -22.636  -7.940  1.00  0.00    -0.253 OA
ATOM     33  C   UNL     1     -24.128 -23.659  -8.884  1.00  0.00     0.139 C 
ENDBRANCH  30  31
ENDBRANCH  25  30
ENDBRANCH   2   6
ENDBRANCH   1   2
BRANCH   1  34
ATOM     34  C   UNL     1     -20.059 -13.747 -13.438  1.00  0.00     0.031 C 
BRANCH  34  35
ATOM     35  C   UNL     1     -19.426 -14.331 -12.182  1.00  0.00    -0.075 C 
ATOM     36  C   UNL     1     -20.131 -14.223 -11.012  1.00  0.00     0.008 C 
BRANCH  35  37
ATOM     37  C   UNL     1     -18.022 -14.955 -12.184  1.00  0.00     0.008 C 
ATOM     38  C   UNL     1     -17.850 -16.030 -13.276  1.00  0.00     0.012 C 
ATOM     39  C   UNL     1     -16.910 -13.902 -12.369  1.00  0.00     0.012 C 
ENDBRANCH  35  37
ENDBRANCH  34  35
ENDBRANCH   1  34
TORSDOF 9
ENDMDL
MODEL 4
REMARK VINA RESULT:    -3.902      2.272      9.071
REMARK INTER + INTRA:          -5.444
REMARK INTER:                  -5.835
REMARK INTRA:                   0.391
REMARK UNBOUND:                 0.396
REMARK SMILES C=C(CC[C@H](C(=O)[O-])[C@@H]1[C@H](O)C[C@]2(C)C3=C(CC[C@]12C)[C@]1(C)CC[C@H](OC(C)=O)C(C)(C)[C@@H]1CC3)C(C)C
REMARK SMILES IDX 4 1 5 2 6 3 7 4 8 5 9 6 10 7 19 8 12 9 13 10 18 11 20 12
REMARK SMILES IDX 14 13 15 14 17 15 16 16 35 17 21 18 34 19 33 20 23 21 22 22
REMARK SMILES IDX 30 23 24 24 25 25 31 26 32 27 11 28 26 30 27 31 29 32 28 33
REMARK SMILES IDX 3 34 2 35 1 36 36 37 37 38 38 39
REMARK H PARENT 11 29
REMARK Flexibility Score: inf
ROOT
ATOM      1  C   UNL     1     -23.877 -20.326 -13.955  1.00  0.00     0.014 C 
ENDROOT
BRANCH   1   2
ATOM      2  C   UNL     1     -25.051 -19.329 -14.149  1.00  0.00     0.042 C 
BRANCH   2   3
ATOM      3  C   UNL     1     -24.473 -17.924 -14.261  1.00  0.00     0.045 C 
ATOM      4  O   UNL     1     -23.236 -17.728 -14.387  1.00  0.00    -0.550 OA
ATOM      5  O   UNL     1     -25.321 -16.828 -14.415  1.00  0.00    -0.550 OA
ENDBRANCH   2   3
BRANCH   2   6
ATOM      6  C   UNL     1     -26.213 -19.440 -13.106  1.00  0.00     0.033 C 
ATOM      7  C   UNL     1     -26.339 -18.276 -12.075  1.00  0.00     0.119 C 
ATOM      8  C   UNL     1     -26.239 -20.727 -12.225  1.00  0.00    -0.017 C 
ATOM      9  C   UNL     1     -26.919 -18.870 -10.772  1.00  0.00     0.043 C 
ATOM     10  C   UNL     1     -27.268 -20.323 -11.123  1.00  0.00    -0.003 C 
ATOM     11  C   UNL     1     -24.857 -20.996 -11.601  1.00  0.00     0.012 C 
ATOM     12  C   UNL     1     -26.736 -21.998 -12.995  1.00  0.00     0.013 C 
ATOM     13  C   UNL     1     -28.747 -20.364 -11.632  1.00  0.00     0.017 C 
ATOM     14  C   UNL     1     -27.106 -21.219  -9.858  1.00  0.00    -0.064 C 
ATOM     15  C   UNL     1     -24.922 -22.210 -10.671  1.00  0.00     0.032 C 
ATOM     16  C   UNL     1     -26.131 -22.152  -9.728  1.00  0.00    -0.064 C 
ATOM     17  C   UNL     1     -28.107 -20.998  -8.745  1.00  0.00     0.032 C 
ATOM     18  C   UNL     1     -26.149 -23.211  -8.575  1.00  0.00    -0.008 C 
ATOM     19  C   UNL     1     -28.701 -22.358  -8.455  1.00  0.00     0.009 C 
ATOM     20  C   UNL     1     -27.601 -23.272  -7.850  1.00  0.00     0.009 C 
ATOM     21  C   UNL     1     -25.671 -24.622  -9.153  1.00  0.00     0.015 C 
ATOM     22  C   UNL     1     -25.142 -22.615  -7.534  1.00  0.00     0.016 C 
ATOM     23  C   UNL     1     -28.190 -24.724  -7.548  1.00  0.00     0.005 C 
ATOM     24  C   UNL     1     -26.104 -25.931  -8.411  1.00  0.00     0.047 C 
ATOM     25  C   UNL     1     -26.994 -25.681  -7.202  1.00  0.00     0.182 C 
ATOM     26  C   UNL     1     -29.124 -24.603  -6.288  1.00  0.00     0.015 C 
ATOM     27  C   UNL     1     -29.014 -25.218  -8.779  1.00  0.00     0.015 C 
BRANCH   7  28
ATOM     28  O   UNL     1     -25.084 -17.685 -11.792  1.00  0.00    -0.393 OA
ATOM     29  H   UNL     1     -25.074 -16.819 -12.291  1.00  0.00     0.210 HD
ENDBRANCH   7  28
BRANCH  25  30
ATOM     30  O   UNL     1     -27.329 -26.991  -6.668  1.00  0.00    -0.462 OA
BRANCH  30  31
ATOM     31  C   UNL     1     -27.117 -27.429  -5.359  1.00  0.00     0.302 C 
ATOM     32  O   UNL     1     -26.062 -28.086  -5.079  1.00  0.00    -0.253 OA
ATOM     33  C   UNL     1     -28.237 -27.439  -4.331  1.00  0.00     0.139 C 
ENDBRANCH  30  31
ENDBRANCH  25  30
ENDBRANCH   2   6
ENDBRANCH   1   2
BRANCH   1  34
ATOM     34  C   UNL     1     -23.970 -21.672 -14.696  1.00  0.00     0.031 C 
BRANCH  34  35
ATOM     35  C   UNL     1     -23.195 -22.752 -13.954  1.00  0.00    -0.075 C 
ATOM     36  C   UNL     1     -22.132 -22.352 -13.187  1.00  0.00     0.008 C 
BRANCH  35  37
ATOM     37  C   UNL     1     -23.523 -24.246 -14.102  1.00  0.00     0.008 C 
ATOM     38  C   UNL     1     -23.807 -24.930 -12.749  1.00  0.00     0.012 C 
ATOM     39  C   UNL     1     -24.730 -24.495 -15.029  1.00  0.00     0.012 C 
ENDBRANCH  35  37
ENDBRANCH  34  35
ENDBRANCH   1  34
TORSDOF 9
ENDMDL
MODEL 5
REMARK VINA RESULT:    -3.238      2.183      3.267
REMARK INTER + INTRA:          -4.451
REMARK INTER:                  -4.792
REMARK INTRA:                   0.341
REMARK UNBOUND:                 0.396
REMARK SMILES C=C(CC[C@H](C(=O)[O-])[C@@H]1[C@H](O)C[C@]2(C)C3=C(CC[C@]12C)[C@]1(C)CC[C@H](OC(C)=O)C(C)(C)[C@@H]1CC3)C(C)C
REMARK SMILES IDX 4 1 5 2 6 3 7 4 8 5 9 6 10 7 19 8 12 9 13 10 18 11 20 12
REMARK SMILES IDX 14 13 15 14 17 15 16 16 35 17 21 18 34 19 33 20 23 21 22 22
REMARK SMILES IDX 30 23 24 24 25 25 31 26 32 27 11 28 26 30 27 31 29 32 28 33
REMARK SMILES IDX 3 34 2 35 1 36 36 37 37 38 38 39
REMARK H PARENT 11 29
REMARK Flexibility Score: inf
ROOT
ATOM      1  C   UNL     1     -26.680 -23.885  -9.498  1.00  0.00     0.014 C 
ENDROOT
BRANCH   1   2
ATOM      2  C   UNL     1     -27.323 -22.751  -8.656  1.00  0.00     0.042 C 
BRANCH   2   3
ATOM      3  C   UNL     1     -28.279 -23.383  -7.652  1.00  0.00     0.045 C 
ATOM      4  O   UNL     1     -28.938 -22.684  -6.840  1.00  0.00    -0.550 OA
ATOM      5  O   UNL     1     -28.588 -24.741  -7.738  1.00  0.00    -0.550 OA
ENDBRANCH   2   3
BRANCH   2   6
ATOM      6  C   UNL     1     -27.967 -21.582  -9.474  1.00  0.00     0.033 C 
ATOM      7  C   UNL     1     -29.121 -21.968 -10.452  1.00  0.00     0.119 C 
ATOM      8  C   UNL     1     -27.000 -20.730 -10.353  1.00  0.00    -0.017 C 
ATOM      9  C   UNL     1     -29.077 -20.977 -11.636  1.00  0.00     0.043 C 
ATOM     10  C   UNL     1     -28.011 -19.945 -11.247  1.00  0.00    -0.003 C 
ATOM     11  C   UNL     1     -26.101 -21.632 -11.219  1.00  0.00     0.012 C 
ATOM     12  C   UNL     1     -26.120 -19.734  -9.522  1.00  0.00     0.013 C 
ATOM     13  C   UNL     1     -28.715 -18.776 -10.480  1.00  0.00     0.017 C 
ATOM     14  C   UNL     1     -27.312 -19.405 -12.531  1.00  0.00    -0.064 C 
ATOM     15  C   UNL     1     -25.222 -20.780 -12.136  1.00  0.00     0.032 C 
ATOM     16  C   UNL     1     -26.021 -19.679 -12.845  1.00  0.00    -0.064 C 
ATOM     17  C   UNL     1     -28.155 -18.541 -13.443  1.00  0.00     0.032 C 
ATOM     18  C   UNL     1     -25.271 -18.918 -13.990  1.00  0.00    -0.008 C 
ATOM     19  C   UNL     1     -27.368 -17.265 -13.638  1.00  0.00     0.009 C 
ATOM     20  C   UNL     1     -26.079 -17.584 -14.442  1.00  0.00     0.009 C 
ATOM     21  C   UNL     1     -23.771 -18.623 -13.524  1.00  0.00     0.015 C 
ATOM     22  C   UNL     1     -25.342 -19.925 -15.188  1.00  0.00     0.016 C 
ATOM     23  C   UNL     1     -25.213 -16.260 -14.652  1.00  0.00     0.005 C 
ATOM     24  C   UNL     1     -22.990 -17.442 -14.193  1.00  0.00     0.047 C 
ATOM     25  C   UNL     1     -23.807 -16.672 -15.219  1.00  0.00     0.182 C 
ATOM     26  C   UNL     1     -25.952 -15.375 -15.721  1.00  0.00     0.015 C 
ATOM     27  C   UNL     1     -25.108 -15.487 -13.299  1.00  0.00     0.015 C 
BRANCH   7  28
ATOM     28  O   UNL     1     -28.972 -23.285 -10.949  1.00  0.00    -0.393 OA
ATOM     29  H   UNL     1     -28.111 -23.622 -10.569  1.00  0.00     0.210 HD
ENDBRANCH   7  28
BRANCH  25  30
ATOM     30  O   UNL     1     -22.949 -15.601 -15.700  1.00  0.00    -0.462 OA
BRANCH  30  31
ATOM     31  C   UNL     1     -22.507 -14.502 -14.961  1.00  0.00     0.302 C 
ATOM     32  O   UNL     1     -23.089 -13.377 -15.098  1.00  0.00    -0.253 OA
ATOM     33  C   UNL     1     -21.163 -14.509 -14.248  1.00  0.00     0.139 C 
ENDBRANCH  30  31
ENDBRANCH  25  30
ENDBRANCH   2   6
ENDBRANCH   1   2
BRANCH   1  34
ATOM     34  C   UNL     1     -25.359 -24.481  -8.980  1.00  0.00     0.031 C 
BRANCH  34  35
ATOM     35  C   UNL     1     -24.174 -23.628  -9.414  1.00  0.00    -0.075 C 
ATOM     36  C   UNL     1     -23.832 -22.569  -8.614  1.00  0.00     0.008 C 
BRANCH  35  37
ATOM     37  C   UNL     1     -23.423 -23.877 -10.731  1.00  0.00     0.008 C 
ATOM     38  C   UNL     1     -24.236 -24.728 -11.728  1.00  0.00     0.012 C 
ATOM     39  C   UNL     1     -23.020 -22.566 -11.437  1.00  0.00     0.012 C 
ENDBRANCH  35  37
ENDBRANCH  34  35
ENDBRANCH   1  34
TORSDOF 9
ENDMDL
MODEL 6
REMARK VINA RESULT:    -3.184      1.216      1.724
REMARK INTER + INTRA:          -4.371
REMARK INTER:                  -5.357
REMARK INTRA:                   0.986
REMARK UNBOUND:                 0.396
REMARK SMILES C=C(CC[C@H](C(=O)[O-])[C@@H]1[C@H](O)C[C@]2(C)C3=C(CC[C@]12C)[C@]1(C)CC[C@H](OC(C)=O)C(C)(C)[C@@H]1CC3)C(C)C
REMARK SMILES IDX 4 1 5 2 6 3 7 4 8 5 9 6 10 7 19 8 12 9 13 10 18 11 20 12
REMARK SMILES IDX 14 13 15 14 17 15 16 16 35 17 21 18 34 19 33 20 23 21 22 22
REMARK SMILES IDX 30 23 24 24 25 25 31 26 32 27 11 28 26 30 27 31 29 32 28 33
REMARK SMILES IDX 3 34 2 35 1 36 36 37 37 38 38 39
REMARK H PARENT 11 29
REMARK Flexibility Score: inf
ROOT
ATOM      1  C   UNL     1     -25.275 -24.073  -8.373  1.00  0.00     0.014 C 
ENDROOT
BRANCH   1   2
ATOM      2  C   UNL     1     -25.552 -23.881  -9.888  1.00  0.00     0.042 C 
BRANCH   2   3
ATOM      3  C   UNL     1     -24.227 -23.979 -10.634  1.00  0.00     0.045 C 
ATOM      4  O   UNL     1     -23.132 -23.727 -10.068  1.00  0.00    -0.550 OA
ATOM      5  O   UNL     1     -24.182 -24.535 -11.912  1.00  0.00    -0.550 OA
ENDBRANCH   2   3
BRANCH   2   6
ATOM      6  C   UNL     1     -26.385 -22.611 -10.269  1.00  0.00     0.033 C 
ATOM      7  C   UNL     1     -27.683 -22.850 -11.102  1.00  0.00     0.119 C 
ATOM      8  C   UNL     1     -25.633 -21.495 -11.058  1.00  0.00    -0.017 C 
ATOM      9  C   UNL     1     -27.899 -21.606 -11.991  1.00  0.00     0.043 C 
ATOM     10  C   UNL     1     -26.823 -20.609 -11.544  1.00  0.00    -0.003 C 
ATOM     11  C   UNL     1     -24.873 -22.086 -12.260  1.00  0.00     0.012 C 
ATOM     12  C   UNL     1     -24.656 -20.654 -10.167  1.00  0.00     0.013 C 
ATOM     13  C   UNL     1     -27.420 -19.720 -10.403  1.00  0.00     0.017 C 
ATOM     14  C   UNL     1     -26.396 -19.722 -12.753  1.00  0.00    -0.064 C 
ATOM     15  C   UNL     1     -24.214 -20.969 -13.072  1.00  0.00     0.032 C 
ATOM     16  C   UNL     1     -25.176 -19.804 -13.339  1.00  0.00    -0.064 C 
ATOM     17  C   UNL     1     -27.428 -18.742 -13.264  1.00  0.00     0.032 C 
ATOM     18  C   UNL     1     -24.682 -18.732 -14.368  1.00  0.00    -0.008 C 
ATOM     19  C   UNL     1     -26.744 -17.393 -13.266  1.00  0.00     0.009 C 
ATOM     20  C   UNL     1     -25.614 -17.402 -14.331  1.00  0.00     0.009 C 
ATOM     21  C   UNL     1     -23.135 -18.428 -14.105  1.00  0.00     0.015 C 
ATOM     22  C   UNL     1     -24.932 -19.427 -15.749  1.00  0.00     0.016 C 
ATOM     23  C   UNL     1     -24.857 -15.997 -14.348  1.00  0.00     0.005 C 
ATOM     24  C   UNL     1     -22.540 -17.061 -14.581  1.00  0.00     0.047 C 
ATOM     25  C   UNL     1     -23.564 -16.141 -15.229  1.00  0.00     0.182 C 
ATOM     26  C   UNL     1     -25.816 -14.950 -15.022  1.00  0.00     0.015 C 
ATOM     27  C   UNL     1     -24.535 -15.562 -12.883  1.00  0.00     0.015 C 
BRANCH   7  28
ATOM     28  O   UNL     1     -27.574 -23.995 -11.928  1.00  0.00    -0.393 OA
ATOM     29  H   UNL     1     -28.403 -24.529 -11.761  1.00  0.00     0.210 HD
ENDBRANCH   7  28
BRANCH  25  30
ATOM     30  O   UNL     1     -22.855 -14.918 -15.567  1.00  0.00    -0.462 OA
BRANCH  30  31
ATOM     31  C   UNL     1     -22.426 -13.938 -14.669  1.00  0.00     0.302 C 
ATOM     32  O   UNL     1     -23.123 -12.885 -14.507  1.00  0.00    -0.253 OA
ATOM     33  C   UNL     1     -21.005 -13.924 -14.124  1.00  0.00     0.139 C 
ENDBRANCH  30  31
ENDBRANCH  25  30
ENDBRANCH   2   6
ENDBRANCH   1   2
BRANCH   1  34
ATOM     34  C   UNL     1     -26.206 -23.338  -7.392  1.00  0.00     0.031 C 
BRANCH  34  35
ATOM     35  C   UNL     1     -27.652 -23.775  -7.588  1.00  0.00    -0.075 C 
ATOM     36  C   UNL     1     -28.627 -22.832  -7.393  1.00  0.00     0.008 C 
BRANCH  35  37
ATOM     37  C   UNL     1     -28.033 -25.226  -7.918  1.00  0.00     0.008 C 
ATOM     38  C   UNL     1     -28.521 -26.009  -6.682  1.00  0.00     0.012 C 
ATOM     39  C   UNL     1     -29.125 -25.316  -9.004  1.00  0.00     0.012 C 
ENDBRANCH  35  37
ENDBRANCH  34  35
ENDBRANCH   1  34
TORSDOF 9
ENDMDL
MODEL 7
REMARK VINA RESULT:    -2.998      1.606      3.532
REMARK INTER + INTRA:          -4.091
REMARK INTER:                  -4.537
REMARK INTRA:                   0.446
REMARK UNBOUND:                 0.396
REMARK SMILES C=C(CC[C@H](C(=O)[O-])[C@@H]1[C@H](O)C[C@]2(C)C3=C(CC[C@]12C)[C@]1(C)CC[C@H](OC(C)=O)C(C)(C)[C@@H]1CC3)C(C)C
REMARK SMILES IDX 4 1 5 2 6 3 7 4 8 5 9 6 10 7 19 8 12 9 13 10 18 11 20 12
REMARK SMILES IDX 14 13 15 14 17 15 16 16 35 17 21 18 34 19 33 20 23 21 22 22
REMARK SMILES IDX 30 23 24 24 25 25 31 26 32 27 11 28 26 30 27 31 29 32 28 33
REMARK SMILES IDX 3 34 2 35 1 36 36 37 37 38 38 39
REMARK H PARENT 11 29
REMARK Flexibility Score: inf
ROOT
ATOM      1  C   UNL     1     -27.655 -25.565  -7.219  1.00  0.00     0.014 C 
ENDROOT
BRANCH   1   2
ATOM      2  C   UNL     1     -27.863 -24.936  -8.622  1.00  0.00     0.042 C 
BRANCH   2   3
ATOM      3  C   UNL     1     -28.786 -25.846  -9.423  1.00  0.00     0.045 C 
ATOM      4  O   UNL     1     -29.125 -25.567 -10.602  1.00  0.00    -0.550 OA
ATOM      5  O   UNL     1     -29.125 -27.107  -8.932  1.00  0.00    -0.550 OA
ENDBRANCH   2   3
BRANCH   2   6
ATOM      6  C   UNL     1     -26.554 -24.548  -9.391  1.00  0.00     0.033 C 
ATOM      7  C   UNL     1     -25.296 -24.247  -8.519  1.00  0.00     0.119 C 
ATOM      8  C   UNL     1     -26.647 -23.323 -10.352  1.00  0.00    -0.017 C 
ATOM      9  C   UNL     1     -24.445 -23.204  -9.276  1.00  0.00     0.043 C 
ATOM     10  C   UNL     1     -25.138 -23.042 -10.635  1.00  0.00    -0.003 C 
ATOM     11  C   UNL     1     -27.298 -22.118  -9.648  1.00  0.00     0.012 C 
ATOM     12  C   UNL     1     -27.404 -23.637 -11.688  1.00  0.00     0.013 C 
ATOM     13  C   UNL     1     -24.509 -24.069 -11.633  1.00  0.00     0.017 C 
ATOM     14  C   UNL     1     -24.934 -21.587 -11.156  1.00  0.00    -0.064 C 
ATOM     15  C   UNL     1     -27.302 -20.901 -10.575  1.00  0.00     0.032 C 
ATOM     16  C   UNL     1     -25.940 -20.683 -11.249  1.00  0.00    -0.064 C 
ATOM     17  C   UNL     1     -23.526 -21.211 -11.563  1.00  0.00     0.032 C 
ATOM     18  C   UNL     1     -25.766 -19.329 -12.016  1.00  0.00    -0.008 C 
ATOM     19  C   UNL     1     -23.638 -20.675 -12.973  1.00  0.00     0.009 C 
ATOM     20  C   UNL     1     -24.435 -19.343 -12.946  1.00  0.00     0.009 C 
ATOM     21  C   UNL     1     -27.104 -19.013 -12.830  1.00  0.00     0.015 C 
ATOM     22  C   UNL     1     -25.507 -18.302 -10.862  1.00  0.00     0.016 C 
ATOM     23  C   UNL     1     -24.588 -18.758 -14.423  1.00  0.00     0.005 C 
ATOM     24  C   UNL     1     -27.027 -18.066 -14.074  1.00  0.00     0.047 C 
ATOM     25  C   UNL     1     -25.620 -17.575 -14.383  1.00  0.00     0.182 C 
ATOM     26  C   UNL     1     -23.186 -18.193 -14.857  1.00  0.00     0.015 C 
ATOM     27  C   UNL     1     -25.027 -19.901 -15.392  1.00  0.00     0.015 C 
BRANCH   7  28
ATOM     28  O   UNL     1     -25.646 -23.723  -7.251  1.00  0.00    -0.393 OA
ATOM     29  H   UNL     1     -24.965 -23.019  -7.052  1.00  0.00     0.210 HD
ENDBRANCH   7  28
BRANCH  25  30
ATOM     30  O   UNL     1     -25.731 -16.753 -15.577  1.00  0.00    -0.462 OA
BRANCH  30  31
ATOM     31  C   UNL     1     -25.243 -15.454 -15.733  1.00  0.00     0.302 C 
ATOM     32  O   UNL     1     -25.875 -14.478 -15.213  1.00  0.00    -0.253 OA
ATOM     33  C   UNL     1     -24.177 -15.122 -16.767  1.00  0.00     0.139 C 
ENDBRANCH  30  31
ENDBRANCH  25  30
ENDBRANCH   2   6
ENDBRANCH   1   2
BRANCH   1  34
ATOM     34  C   UNL     1     -28.880 -25.625  -6.289  1.00  0.00     0.031 C 
BRANCH  34  35
ATOM     35  C   UNL     1     -28.709 -26.713  -5.238  1.00  0.00    -0.075 C 
ATOM     36  C   UNL     1     -29.030 -26.396  -3.944  1.00  0.00     0.008 C 
BRANCH  35  37
ATOM     37  C   UNL     1     -28.128 -28.095  -5.575  1.00  0.00     0.008 C 
ATOM     38  C   UNL     1     -26.744 -28.331  -4.937  1.00  0.00     0.012 C 
ATOM     39  C   UNL     1     -29.058 -29.247  -5.141  1.00  0.00     0.012 C 
ENDBRANCH  35  37
ENDBRANCH  34  35
ENDBRANCH   1  34
TORSDOF 9
ENDMDL
