MODEL 1
REMARK VINA RESULT:    -5.072      0.000      0.000
REMARK INTER + INTRA:          -5.465
REMARK INTER:                  -5.369
REMARK INTRA:                  -0.096
REMARK UNBOUND:                -0.096
REMARK SMILES C=C(C)[C@H]1CC=C(C)C(=O)C1
REMARK SMILES IDX 8 1 7 2 6 3 5 4 4 5 11 6 9 7 10 8 2 9 1 10 3 11
REMARK H PARENT
REMARK Flexibility Score: inf
ROOT
ATOM      1  C   UNL     1       6.210  18.158  59.382  1.00  0.00     0.048 C 
ATOM      2  C   UNL     1       7.673  18.458  59.209  1.00  0.00    -0.012 C 
ATOM      3  C   UNL     1       8.456  18.610  60.290  1.00  0.00    -0.019 C 
ATOM      4  C   UNL     1       9.924  18.930  60.175  1.00  0.00     0.036 C 
ATOM      5  C   UNL     1      10.532  18.293  58.911  1.00  0.00     0.025 C 
ATOM      6  C   UNL     1       9.740  18.725  57.662  1.00  0.00     0.089 C 
ATOM      7  C   UNL     1       8.271  18.464  57.851  1.00  0.00     0.158 C 
ATOM      8  O   UNL     1       7.544  18.287  56.837  1.00  0.00    -0.295 OA
ENDROOT
BRANCH   5   9
ATOM      9  C   UNL     1      12.015  18.616  58.776  1.00  0.00    -0.077 C 
ATOM     10  C   UNL     1      12.482  19.340  57.744  1.00  0.00     0.008 C 
ATOM     11  C   UNL     1      12.993  18.123  59.811  1.00  0.00     0.039 C 
ENDBRANCH   5   9
TORSDOF 1
ENDMDL
MODEL 2
REMARK VINA RESULT:    -4.929     12.241     12.785
REMARK INTER + INTRA:          -5.314
REMARK INTER:                  -5.218
REMARK INTRA:                  -0.096
REMARK UNBOUND:                -0.096
REMARK SMILES C=C(C)[C@H]1CC=C(C)C(=O)C1
REMARK SMILES IDX 8 1 7 2 6 3 5 4 4 5 11 6 9 7 10 8 2 9 1 10 3 11
REMARK H PARENT
REMARK Flexibility Score: inf
ROOT
ATOM      1  C   UNL     1      15.402   8.812  54.150  1.00  0.00     0.048 C 
ATOM      2  C   UNL     1      16.379   9.757  53.506  1.00  0.00    -0.012 C 
ATOM      3  C   UNL     1      15.937  10.696  52.653  1.00  0.00    -0.019 C 
ATOM      4  C   UNL     1      16.873  11.655  51.966  1.00  0.00     0.036 C 
ATOM      5  C   UNL     1      18.081  11.988  52.861  1.00  0.00     0.025 C 
ATOM      6  C   UNL     1      18.791  10.693  53.301  1.00  0.00     0.089 C 
ATOM      7  C   UNL     1      17.808   9.730  53.906  1.00  0.00     0.158 C 
ATOM      8  O   UNL     1      18.219   8.872  54.733  1.00  0.00    -0.295 OA
ENDROOT
BRANCH   5   9
ATOM      9  C   UNL     1      19.042  12.950  52.175  1.00  0.00    -0.077 C 
ATOM     10  C   UNL     1      20.155  13.384  52.790  1.00  0.00     0.008 C 
ATOM     11  C   UNL     1      18.755  13.436  50.778  1.00  0.00     0.039 C 
ENDBRANCH   5   9
TORSDOF 1
ENDMDL
MODEL 3
REMARK VINA RESULT:    -4.908      1.431      2.334
REMARK INTER + INTRA:          -5.291
REMARK INTER:                  -5.194
REMARK INTRA:                  -0.097
REMARK UNBOUND:                -0.096
REMARK SMILES C=C(C)[C@H]1CC=C(C)C(=O)C1
REMARK SMILES IDX 8 1 7 2 6 3 5 4 4 5 11 6 9 7 10 8 2 9 1 10 3 11
REMARK H PARENT
REMARK Flexibility Score: inf
ROOT
ATOM      1  C   UNL     1       6.807  18.724  57.889  1.00  0.00     0.048 C 
ATOM      2  C   UNL     1       8.285  18.543  58.098  1.00  0.00    -0.012 C 
ATOM      3  C   UNL     1       9.114  18.538  57.040  1.00  0.00    -0.019 C 
ATOM      4  C   UNL     1      10.600  18.342  57.190  1.00  0.00     0.036 C 
ATOM      5  C   UNL     1      11.106  18.939  58.517  1.00  0.00     0.025 C 
ATOM      6  C   UNL     1      10.317  18.351  59.702  1.00  0.00     0.089 C 
ATOM      7  C   UNL     1       8.837  18.493  59.474  1.00  0.00     0.158 C 
ATOM      8  O   UNL     1       8.064  18.532  60.469  1.00  0.00    -0.295 OA
ENDROOT
BRANCH   5   9
ATOM      9  C   UNL     1      12.606  18.739  58.687  1.00  0.00    -0.077 C 
ATOM     10  C   UNL     1      13.112  18.121  59.768  1.00  0.00     0.008 C 
ATOM     11  C   UNL     1      13.559  19.240  57.632  1.00  0.00     0.039 C 
ENDBRANCH   5   9
TORSDOF 1
ENDMDL
MODEL 4
REMARK VINA RESULT:    -4.903     12.246     13.586
REMARK INTER + INTRA:          -5.286
REMARK INTER:                  -5.191
REMARK INTRA:                  -0.095
REMARK UNBOUND:                -0.096
REMARK SMILES C=C(C)[C@H]1CC=C(C)C(=O)C1
REMARK SMILES IDX 8 1 7 2 6 3 5 4 4 5 11 6 9 7 10 8 2 9 1 10 3 11
REMARK H PARENT
REMARK Flexibility Score: inf
ROOT
ATOM      1  C   UNL     1      19.821  13.423  52.368  1.00  0.00     0.048 C 
ATOM      2  C   UNL     1      19.096  12.264  52.993  1.00  0.00    -0.012 C 
ATOM      3  C   UNL     1      17.752  12.244  53.004  1.00  0.00    -0.019 C 
ATOM      4  C   UNL     1      16.976  11.117  53.634  1.00  0.00     0.036 C 
ATOM      5  C   UNL     1      17.730   9.780  53.497  1.00  0.00     0.025 C 
ATOM      6  C   UNL     1      19.150   9.907  54.079  1.00  0.00     0.089 C 
ATOM      7  C   UNL     1      19.861  11.092  53.486  1.00  0.00     0.158 C 
ATOM      8  O   UNL     1      21.121  11.094  53.444  1.00  0.00    -0.295 OA
ENDROOT
BRANCH   5   9
ATOM      9  C   UNL     1      16.960   8.633  54.139  1.00  0.00    -0.077 C 
ATOM     10  C   UNL     1      15.618   8.646  54.213  1.00  0.00     0.008 C 
ATOM     11  C   UNL     1      17.702   7.450  54.707  1.00  0.00     0.039 C 
ENDBRANCH   5   9
TORSDOF 1
ENDMDL
MODEL 5
REMARK VINA RESULT:    -4.885      3.133      5.984
REMARK INTER + INTRA:          -5.267
REMARK INTER:                  -5.171
REMARK INTRA:                  -0.096
REMARK UNBOUND:                -0.096
REMARK SMILES C=C(C)[C@H]1CC=C(C)C(=O)C1
REMARK SMILES IDX 8 1 7 2 6 3 5 4 4 5 11 6 9 7 10 8 2 9 1 10 3 11
REMARK H PARENT
REMARK Flexibility Score: inf
ROOT
ATOM      1  C   UNL     1      16.518  19.603  55.634  1.00  0.00     0.048 C 
ATOM      2  C   UNL     1      15.206  19.178  56.233  1.00  0.00    -0.012 C 
ATOM      3  C   UNL     1      14.988  19.341  57.549  1.00  0.00    -0.019 C 
ATOM      4  C   UNL     1      13.699  18.917  58.204  1.00  0.00     0.036 C 
ATOM      5  C   UNL     1      12.509  19.071  57.238  1.00  0.00     0.025 C 
ATOM      6  C   UNL     1      12.781  18.303  55.930  1.00  0.00     0.089 C 
ATOM      7  C   UNL     1      14.113  18.695  55.353  1.00  0.00     0.158 C 
ATOM      8  O   UNL     1      14.304  18.574  54.113  1.00  0.00    -0.295 OA
ENDROOT
BRANCH   5   9
ATOM      9  C   UNL     1      11.200  18.635  57.884  1.00  0.00    -0.077 C 
ATOM     10  C   UNL     1      11.108  18.431  59.209  1.00  0.00     0.008 C 
ATOM     11  C   UNL     1       9.973  18.425  57.035  1.00  0.00     0.039 C 
ENDBRANCH   5   9
TORSDOF 1
ENDMDL
MODEL 6
REMARK VINA RESULT:    -4.836      2.143      4.864
REMARK INTER + INTRA:          -5.215
REMARK INTER:                  -5.119
REMARK INTRA:                  -0.096
REMARK UNBOUND:                -0.096
REMARK SMILES C=C(C)[C@H]1CC=C(C)C(=O)C1
REMARK SMILES IDX 8 1 7 2 6 3 5 4 4 5 11 6 9 7 10 8 2 9 1 10 3 11
REMARK H PARENT
REMARK Flexibility Score: inf
ROOT
ATOM      1  C   UNL     1      14.015  19.150  57.489  1.00  0.00     0.048 C 
ATOM      2  C   UNL     1      12.588  19.122  57.961  1.00  0.00    -0.012 C 
ATOM      3  C   UNL     1      11.613  19.605  57.172  1.00  0.00    -0.019 C 
ATOM      4  C   UNL     1      10.170  19.618  57.603  1.00  0.00     0.036 C 
ATOM      5  C   UNL     1       9.851  18.415  58.510  1.00  0.00     0.025 C 
ATOM      6  C   UNL     1      10.818  18.379  59.708  1.00  0.00     0.089 C 
ATOM      7  C   UNL     1      12.245  18.451  59.240  1.00  0.00     0.158 C 
ATOM      8  O   UNL     1      13.154  17.966  59.965  1.00  0.00    -0.295 OA
ENDROOT
BRANCH   5   9
ATOM      9  C   UNL     1       8.396  18.420  58.961  1.00  0.00    -0.077 C 
ATOM     10  C   UNL     1       8.067  18.552  60.258  1.00  0.00     0.008 C 
ATOM     11  C   UNL     1       7.290  18.276  57.948  1.00  0.00     0.039 C 
ENDBRANCH   5   9
TORSDOF 1
ENDMDL
MODEL 7
REMARK VINA RESULT:    -4.756      2.582      4.313
REMARK INTER + INTRA:          -5.130
REMARK INTER:                  -5.033
REMARK INTRA:                  -0.097
REMARK UNBOUND:                -0.096
REMARK SMILES C=C(C)[C@H]1CC=C(C)C(=O)C1
REMARK SMILES IDX 8 1 7 2 6 3 5 4 4 5 11 6 9 7 10 8 2 9 1 10 3 11
REMARK H PARENT
REMARK Flexibility Score: inf
ROOT
ATOM      1  C   UNL     1      10.813  18.197  59.365  1.00  0.00     0.048 C 
ATOM      2  C   UNL     1      11.879  18.587  58.380  1.00  0.00    -0.012 C 
ATOM      3  C   UNL     1      13.135  18.801  58.804  1.00  0.00    -0.019 C 
ATOM      4  C   UNL     1      14.238  19.213  57.863  1.00  0.00     0.036 C 
ATOM      5  C   UNL     1      14.029  18.601  56.465  1.00  0.00     0.025 C 
ATOM      6  C   UNL     1      12.634  18.966  55.925  1.00  0.00     0.089 C 
ATOM      7  C   UNL     1      11.569  18.616  56.928  1.00  0.00     0.158 C 
ATOM      8  O   UNL     1      10.399  18.381  56.524  1.00  0.00    -0.295 OA
ENDROOT
BRANCH   5   9
ATOM      9  C   UNL     1      15.132  19.016  55.499  1.00  0.00    -0.077 C 
ATOM     10  C   UNL     1      14.861  19.322  54.219  1.00  0.00     0.008 C 
ATOM     11  C   UNL     1      16.561  19.091  55.972  1.00  0.00     0.039 C 
ENDBRANCH   5   9
TORSDOF 1
ENDMDL
MODEL 8
REMARK VINA RESULT:    -4.694      2.138      4.881
REMARK INTER + INTRA:          -5.065
REMARK INTER:                  -4.970
REMARK INTRA:                  -0.095
REMARK UNBOUND:                -0.096
REMARK SMILES C=C(C)[C@H]1CC=C(C)C(=O)C1
REMARK SMILES IDX 8 1 7 2 6 3 5 4 4 5 11 6 9 7 10 8 2 9 1 10 3 11
REMARK H PARENT
REMARK Flexibility Score: inf
ROOT
ATOM      1  C   UNL     1      15.062  19.217  56.813  1.00  0.00     0.048 C 
ATOM      2  C   UNL     1      13.683  18.872  57.302  1.00  0.00    -0.012 C 
ATOM      3  C   UNL     1      13.443  18.788  58.621  1.00  0.00    -0.019 C 
ATOM      4  C   UNL     1      12.085  18.428  59.165  1.00  0.00     0.036 C 
ATOM      5  C   UNL     1      10.964  18.950  58.246  1.00  0.00     0.025 C 
ATOM      6  C   UNL     1      11.171  18.440  56.808  1.00  0.00     0.089 C 
ATOM      7  C   UNL     1      12.565  18.746  56.333  1.00  0.00     0.158 C 
ATOM      8  O   UNL     1      12.781  18.859  55.097  1.00  0.00    -0.295 OA
ENDROOT
BRANCH   5   9
ATOM      9  C   UNL     1       9.584  18.585  58.779  1.00  0.00    -0.077 C 
ATOM     10  C   UNL     1       9.370  18.395  60.092  1.00  0.00     0.008 C 
ATOM     11  C   UNL     1       8.425  18.428  57.829  1.00  0.00     0.039 C 
ENDBRANCH   5   9
TORSDOF 1
ENDMDL
MODEL 9
REMARK VINA RESULT:    -4.601      7.543      8.235
REMARK INTER + INTRA:          -4.966
REMARK INTER:                  -4.872
REMARK INTRA:                  -0.095
REMARK UNBOUND:                -0.096
REMARK SMILES C=C(C)[C@H]1CC=C(C)C(=O)C1
REMARK SMILES IDX 8 1 7 2 6 3 5 4 4 5 11 6 9 7 10 8 2 9 1 10 3 11
REMARK H PARENT
REMARK Flexibility Score: inf
ROOT
ATOM      1  C   UNL     1       4.367  27.125  54.588  1.00  0.00     0.048 C 
ATOM      2  C   UNL     1       5.578  26.238  54.500  1.00  0.00    -0.012 C 
ATOM      3  C   UNL     1       6.601  26.418  55.352  1.00  0.00    -0.019 C 
ATOM      4  C   UNL     1       7.846  25.571  55.296  1.00  0.00     0.036 C 
ATOM      5  C   UNL     1       7.521  24.139  54.831  1.00  0.00     0.025 C 
ATOM      6  C   UNL     1       6.776  24.172  53.484  1.00  0.00     0.089 C 
ATOM      7  C   UNL     1       5.588  25.092  53.558  1.00  0.00     0.158 C 
ATOM      8  O   UNL     1       4.614  24.900  52.781  1.00  0.00    -0.295 OA
ENDROOT
BRANCH   5   9
ATOM      9  C   UNL     1       8.772  23.273  54.761  1.00  0.00    -0.077 C 
ATOM     10  C   UNL     1       9.439  23.100  53.607  1.00  0.00     0.008 C 
ATOM     11  C   UNL     1       9.288  22.588  56.000  1.00  0.00     0.039 C 
ENDBRANCH   5   9
TORSDOF 1
ENDMDL
