MODEL 1
REMARK VINA RESULT:     5.543      0.000      0.000
REMARK INTER + INTRA:           7.055
REMARK INTER:                   7.002
REMARK INTRA:                   0.053
REMARK UNBOUND:                 0.053
REMARK SMILES CC(C)[C@H](C)C=C[C@H](C)[C@H]1CC[C@H]2C3=CC=C4C[C@H](O)CC[C@]4(C)[C@@H]3CC[C@@]12C
REMARK SMILES IDX 8 1 9 2 7 3 6 4 4 5 5 6 2 7 1 8 3 9 10 10 11 11 28 12 12 13
REMARK SMILES IDX 13 14 27 15 29 16 14 17 26 18 25 19 15 20 23 21 16 22 17 23
REMARK SMILES IDX 22 24 24 25 18 26 21 27 19 28 20 29
REMARK H PARENT 20 30
REMARK Flexibility Score: inf
ROOT
ATOM      1  C   UNL     1     134.649 123.715 137.610  1.00  0.00     0.012 C 
ATOM      2  C   UNL     1     133.626 122.644 138.032  1.00  0.00     0.012 C 
ENDROOT
BRANCH   1   3
ATOM      3  C   UNL     1     134.149 125.075 138.054  1.00  0.00    -0.028 C 
ATOM      4  C   UNL     1     132.963 125.579 137.665  1.00  0.00    -0.028 C 
BRANCH   4   5
ATOM      5  C   UNL     1     132.496 126.985 137.995  1.00  0.00     0.011 C 
ATOM      6  C   UNL     1     132.727 127.975 136.837  1.00  0.00     0.012 C 
BRANCH   5   7
ATOM      7  C   UNL     1     131.047 126.989 138.570  1.00  0.00    -0.011 C 
ATOM      8  C   UNL     1     130.659 128.369 139.126  1.00  0.00     0.008 C 
ATOM      9  C   UNL     1     129.974 126.503 137.580  1.00  0.00     0.008 C 
ENDBRANCH   5   7
ENDBRANCH   4   5
ENDBRANCH   1   3
BRANCH   1  10
ATOM     10  C   UNL     1     136.088 123.397 138.139  1.00  0.00     0.002 C 
ATOM     11  C   UNL     1     137.015 124.611 138.066  1.00  0.00     0.005 C 
ATOM     12  C   UNL     1     136.238 122.840 139.602  1.00  0.00    -0.023 C 
ATOM     13  C   UNL     1     138.168 124.315 139.003  1.00  0.00     0.009 C 
ATOM     14  C   UNL     1     137.645 123.345 140.070  1.00  0.00     0.021 C 
ATOM     15  C   UNL     1     135.111 123.283 140.592  1.00  0.00     0.008 C 
ATOM     16  C   UNL     1     136.238 121.291 139.572  1.00  0.00     0.012 C 
ATOM     17  C   UNL     1     137.659 124.001 141.443  1.00  0.00    -0.063 C 
ATOM     18  C   UNL     1     135.252 124.732 141.065  1.00  0.00     0.009 C 
ATOM     19  C   UNL     1     136.567 124.972 141.856  1.00  0.00     0.025 C 
ATOM     20  C   UNL     1     138.763 123.915 142.195  1.00  0.00    -0.000 C 
ATOM     21  C   UNL     1     136.391 125.075 143.425  1.00  0.00    -0.005 C 
ATOM     22  C   UNL     1     138.829 124.510 143.533  1.00  0.00    -0.000 C 
ATOM     23  C   UNL     1     137.748 125.035 144.131  1.00  0.00    -0.061 C 
ATOM     24  C   UNL     1     135.565 123.890 144.011  1.00  0.00     0.014 C 
ATOM     25  C   UNL     1     135.693 126.431 143.733  1.00  0.00     0.017 C 
ATOM     26  C   UNL     1     137.747 125.121 145.640  1.00  0.00     0.063 C 
ATOM     27  C   UNL     1     135.522 123.881 145.558  1.00  0.00     0.033 C 
ATOM     28  C   UNL     1     136.925 123.949 146.203  1.00  0.00     0.118 C 
BRANCH  28  29
ATOM     29  O   UNL     1     137.617 122.747 145.980  1.00  0.00    -0.393 OA
ATOM     30  H   UNL     1     138.334 122.695 146.666  1.00  0.00     0.210 HD
ENDBRANCH  28  29
ENDBRANCH   1  10
TORSDOF 5
ENDMDL
MODEL 2
REMARK VINA RESULT:     6.651      2.362      5.209
REMARK INTER + INTRA:           8.455
REMARK INTER:                   8.818
REMARK INTRA:                  -0.364
REMARK UNBOUND:                 0.053
REMARK SMILES CC(C)[C@H](C)C=C[C@H](C)[C@H]1CC[C@H]2C3=CC=C4C[C@H](O)CC[C@]4(C)[C@@H]3CC[C@@]12C
REMARK SMILES IDX 8 1 9 2 7 3 6 4 4 5 5 6 2 7 1 8 3 9 10 10 11 11 28 12 12 13
REMARK SMILES IDX 13 14 27 15 29 16 14 17 26 18 25 19 15 20 23 21 16 22 17 23
REMARK SMILES IDX 22 24 24 25 18 26 21 27 19 28 20 29
REMARK H PARENT 20 30
REMARK Flexibility Score: inf
ROOT
ATOM      1  C   UNL     1     131.756 126.113 142.310  1.00  0.00     0.012 C 
ATOM      2  C   UNL     1     132.517 127.337 142.852  1.00  0.00     0.012 C 
ENDROOT
BRANCH   1   3
ATOM      3  C   UNL     1     131.496 126.311 140.830  1.00  0.00    -0.028 C 
ATOM      4  C   UNL     1     131.093 127.486 140.311  1.00  0.00    -0.028 C 
BRANCH   4   5
ATOM      5  C   UNL     1     130.708 127.676 138.855  1.00  0.00     0.011 C 
ATOM      6  C   UNL     1     130.349 129.137 138.521  1.00  0.00     0.012 C 
BRANCH   5   7
ATOM      7  C   UNL     1     131.755 127.033 137.895  1.00  0.00    -0.011 C 
ATOM      8  C   UNL     1     131.107 126.003 136.955  1.00  0.00     0.008 C 
ATOM      9  C   UNL     1     132.570 128.049 137.078  1.00  0.00     0.008 C 
ENDBRANCH   5   7
ENDBRANCH   4   5
ENDBRANCH   1   3
BRANCH   1  10
ATOM     10  C   UNL     1     132.501 124.771 142.620  1.00  0.00     0.002 C 
ATOM     11  C   UNL     1     131.903 123.586 141.860  1.00  0.00     0.005 C 
ATOM     12  C   UNL     1     134.049 124.701 142.358  1.00  0.00    -0.023 C 
ATOM     13  C   UNL     1     132.960 122.501 141.876  1.00  0.00     0.009 C 
ATOM     14  C   UNL     1     134.320 123.198 142.010  1.00  0.00     0.021 C 
ATOM     15  C   UNL     1     134.568 125.652 141.230  1.00  0.00     0.008 C 
ATOM     16  C   UNL     1     134.815 125.069 143.653  1.00  0.00     0.012 C 
ATOM     17  C   UNL     1     135.161 122.975 140.761  1.00  0.00    -0.063 C 
ATOM     18  C   UNL     1     134.247 125.154 139.818  1.00  0.00     0.009 C 
ATOM     19  C   UNL     1     134.919 123.790 139.503  1.00  0.00     0.025 C 
ATOM     20  C   UNL     1     135.948 121.895 140.690  1.00  0.00    -0.000 C 
ATOM     21  C   UNL     1     136.193 123.877 138.568  1.00  0.00    -0.005 C 
ATOM     22  C   UNL     1     136.795 121.639 139.521  1.00  0.00    -0.000 C 
ATOM     23  C   UNL     1     136.941 122.541 138.538  1.00  0.00    -0.061 C 
ATOM     24  C   UNL     1     137.224 124.936 139.062  1.00  0.00     0.014 C 
ATOM     25  C   UNL     1     135.702 124.221 137.133  1.00  0.00     0.017 C 
ATOM     26  C   UNL     1     138.187 122.464 137.687  1.00  0.00     0.063 C 
ATOM     27  C   UNL     1     138.548 124.920 138.260  1.00  0.00     0.033 C 
ATOM     28  C   UNL     1     139.192 123.517 138.182  1.00  0.00     0.118 C 
BRANCH  28  29
ATOM     29  O   UNL     1     139.677 123.138 139.445  1.00  0.00    -0.393 OA
ATOM     30  H   UNL     1     140.332 123.831 139.723  1.00  0.00     0.210 HD
ENDBRANCH  28  29
ENDBRANCH   1  10
TORSDOF 5
ENDMDL
MODEL 3
REMARK VINA RESULT:     7.765      3.077      5.800
REMARK INTER + INTRA:           9.861
REMARK INTER:                   9.065
REMARK INTRA:                   0.796
REMARK UNBOUND:                 0.053
REMARK SMILES CC(C)[C@H](C)C=C[C@H](C)[C@H]1CC[C@H]2C3=CC=C4C[C@H](O)CC[C@]4(C)[C@@H]3CC[C@@]12C
REMARK SMILES IDX 8 1 9 2 7 3 6 4 4 5 5 6 2 7 1 8 3 9 10 10 11 11 28 12 12 13
REMARK SMILES IDX 13 14 27 15 29 16 14 17 26 18 25 19 15 20 23 21 16 22 17 23
REMARK SMILES IDX 22 24 24 25 18 26 21 27 19 28 20 29
REMARK H PARENT 20 30
REMARK Flexibility Score: inf
ROOT
ATOM      1  C   UNL     1     130.576 129.380 138.002  1.00  0.00     0.012 C 
ATOM      2  C   UNL     1     129.968 129.046 139.376  1.00  0.00     0.012 C 
ENDROOT
BRANCH   1   3
ATOM      3  C   UNL     1     131.522 130.555 138.155  1.00  0.00    -0.028 C 
ATOM      4  C   UNL     1     131.478 131.636 137.354  1.00  0.00    -0.028 C 
BRANCH   4   5
ATOM      5  C   UNL     1     132.490 132.767 137.408  1.00  0.00     0.011 C 
ATOM      6  C   UNL     1     131.873 134.134 137.053  1.00  0.00     0.012 C 
BRANCH   5   7
ATOM      7  C   UNL     1     133.300 132.749 138.740  1.00  0.00    -0.011 C 
ATOM      8  C   UNL     1     134.718 132.190 138.537  1.00  0.00     0.008 C 
ATOM      9  C   UNL     1     133.370 134.110 139.454  1.00  0.00     0.008 C 
ENDBRANCH   5   7
ENDBRANCH   4   5
ENDBRANCH   1   3
BRANCH   1  10
ATOM     10  C   UNL     1     131.258 128.137 137.340  1.00  0.00     0.002 C 
ATOM     11  C   UNL     1     132.748 128.362 137.078  1.00  0.00     0.005 C 
ATOM     12  C   UNL     1     131.165 126.754 138.082  1.00  0.00    -0.023 C 
ATOM     13  C   UNL     1     133.353 126.986 136.892  1.00  0.00     0.009 C 
ATOM     14  C   UNL     1     132.470 125.995 137.661  1.00  0.00     0.021 C 
ATOM     15  C   UNL     1     131.034 126.850 139.637  1.00  0.00     0.008 C 
ATOM     16  C   UNL     1     129.933 125.968 137.568  1.00  0.00     0.012 C 
ATOM     17  C   UNL     1     133.243 125.373 138.815  1.00  0.00    -0.063 C 
ATOM     18  C   UNL     1     132.349 127.205 140.337  1.00  0.00     0.009 C 
ATOM     19  C   UNL     1     133.448 126.129 140.115  1.00  0.00     0.025 C 
ATOM     20  C   UNL     1     133.953 124.259 138.597  1.00  0.00    -0.000 C 
ATOM     21  C   UNL     1     133.706 125.176 141.351  1.00  0.00    -0.005 C 
ATOM     22  C   UNL     1     134.700 123.603 139.674  1.00  0.00    -0.000 C 
ATOM     23  C   UNL     1     134.592 123.993 140.954  1.00  0.00    -0.061 C 
ATOM     24  C   UNL     1     132.389 124.559 141.913  1.00  0.00     0.014 C 
ATOM     25  C   UNL     1     134.428 126.011 142.448  1.00  0.00     0.017 C 
ATOM     26  C   UNL     1     134.928 122.987 142.030  1.00  0.00     0.063 C 
ATOM     27  C   UNL     1     132.633 123.497 143.013  1.00  0.00     0.033 C 
ATOM     28  C   UNL     1     133.621 122.390 142.577  1.00  0.00     0.118 C 
BRANCH  28  29
ATOM     29  O   UNL     1     133.033 121.579 141.593  1.00  0.00    -0.393 OA
ATOM     30  H   UNL     1     132.730 120.748 142.046  1.00  0.00     0.210 HD
ENDBRANCH  28  29
ENDBRANCH   1  10
TORSDOF 5
ENDMDL
MODEL 4
REMARK VINA RESULT:     8.494      2.646      7.134
REMARK INTER + INTRA:          10.782
REMARK INTER:                  10.721
REMARK INTRA:                   0.060
REMARK UNBOUND:                 0.053
REMARK SMILES CC(C)[C@H](C)C=C[C@H](C)[C@H]1CC[C@H]2C3=CC=C4C[C@H](O)CC[C@]4(C)[C@@H]3CC[C@@]12C
REMARK SMILES IDX 8 1 9 2 7 3 6 4 4 5 5 6 2 7 1 8 3 9 10 10 11 11 28 12 12 13
REMARK SMILES IDX 13 14 27 15 29 16 14 17 26 18 25 19 15 20 23 21 16 22 17 23
REMARK SMILES IDX 22 24 24 25 18 26 21 27 19 28 20 29
REMARK H PARENT 20 30
REMARK Flexibility Score: inf
ROOT
ATOM      1  C   UNL     1     138.109 123.469 141.118  1.00  0.00     0.012 C 
ATOM      2  C   UNL     1     139.374 124.253 140.725  1.00  0.00     0.012 C 
ENDROOT
BRANCH   1   3
ATOM      3  C   UNL     1     137.210 124.367 141.944  1.00  0.00    -0.028 C 
ATOM      4  C   UNL     1     136.788 124.040 143.180  1.00  0.00    -0.028 C 
BRANCH   4   5
ATOM      5  C   UNL     1     135.791 124.864 143.975  1.00  0.00     0.011 C 
ATOM      6  C   UNL     1     134.335 124.410 143.754  1.00  0.00     0.012 C 
BRANCH   5   7
ATOM      7  C   UNL     1     136.210 124.986 145.472  1.00  0.00    -0.011 C 
ATOM      8  C   UNL     1     137.497 124.199 145.769  1.00  0.00     0.008 C 
ATOM      9  C   UNL     1     136.353 126.433 145.971  1.00  0.00     0.008 C 
ENDBRANCH   5   7
ENDBRANCH   4   5
ENDBRANCH   1   3
BRANCH   1  10
ATOM     10  C   UNL     1     137.380 122.862 139.874  1.00  0.00     0.002 C 
ATOM     11  C   UNL     1     136.231 121.933 140.268  1.00  0.00     0.005 C 
ATOM     12  C   UNL     1     136.776 123.850 138.810  1.00  0.00    -0.023 C 
ATOM     13  C   UNL     1     135.355 121.804 139.040  1.00  0.00     0.009 C 
ATOM     14  C   UNL     1     135.555 123.076 138.206  1.00  0.00     0.021 C 
ATOM     15  C   UNL     1     136.348 125.244 139.376  1.00  0.00     0.008 C 
ATOM     16  C   UNL     1     137.815 124.111 137.691  1.00  0.00     0.012 C 
ATOM     17  C   UNL     1     134.264 123.880 138.139  1.00  0.00    -0.063 C 
ATOM     18  C   UNL     1     135.039 125.202 140.169  1.00  0.00     0.009 C 
ATOM     19  C   UNL     1     133.832 124.760 139.298  1.00  0.00     0.025 C 
ATOM     20  C   UNL     1     133.385 123.620 137.163  1.00  0.00    -0.000 C 
ATOM     21  C   UNL     1     132.865 125.933 138.856  1.00  0.00    -0.005 C 
ATOM     22  C   UNL     1     132.135 124.374 137.035  1.00  0.00    -0.000 C 
ATOM     23  C   UNL     1     131.877 125.455 137.790  1.00  0.00    -0.061 C 
ATOM     24  C   UNL     1     133.634 127.133 138.224  1.00  0.00     0.014 C 
ATOM     25  C   UNL     1     132.076 126.393 140.116  1.00  0.00     0.017 C 
ATOM     26  C   UNL     1     130.884 126.465 137.262  1.00  0.00     0.063 C 
ATOM     27  C   UNL     1     132.697 128.216 137.636  1.00  0.00     0.033 C 
ATOM     28  C   UNL     1     131.657 127.644 136.646  1.00  0.00     0.118 C 
BRANCH  28  29
ATOM     29  O   UNL     1     132.294 127.218 135.469  1.00  0.00    -0.393 OA
ATOM     30  H   UNL     1     133.251 127.076 135.694  1.00  0.00     0.210 HD
ENDBRANCH  28  29
ENDBRANCH   1  10
TORSDOF 5
ENDMDL
