MODEL 1
REMARK VINA RESULT:    -4.676      0.000      0.000
REMARK INTER + INTRA:          -5.446
REMARK INTER:                  -5.359
REMARK INTRA:                  -0.087
REMARK UNBOUND:                -0.087
REMARK SMILES C=Cc1ccc(O)c(OC)c1
REMARK SMILES IDX 8 1 6 2 5 3 4 4 3 5 11 6 9 7 10 8 7 9 2 11 1 12
REMARK H PARENT 7 10
REMARK Flexibility Score: inf
ROOT
ATOM      1  C   UNL     1      15.566 -10.136  12.502  1.00  0.00     0.161 A 
ATOM      2  C   UNL     1      16.320 -11.312  12.334  1.00  0.00     0.157 A 
ATOM      3  C   UNL     1      15.677 -12.550  12.271  1.00  0.00     0.051 A 
ATOM      4  C   UNL     1      14.287 -12.636  12.377  1.00  0.00     0.012 A 
ATOM      5  C   UNL     1      13.515 -11.473  12.558  1.00  0.00    -0.022 A 
ATOM      6  C   UNL     1      14.163 -10.228  12.609  1.00  0.00     0.058 A 
ENDROOT
BRANCH   1   7
ATOM      7  O   UNL     1      16.238  -8.905  12.559  1.00  0.00    -0.493 OA
ATOM      8  C   UNL     1      15.640  -7.675  12.958  1.00  0.00     0.278 C 
ENDBRANCH   1   7
BRANCH   2   9
ATOM      9  O   UNL     1      17.709 -11.269  12.225  1.00  0.00    -0.504 OA
ATOM     10  H   UNL     1      18.249 -12.058  11.890  1.00  0.00     0.293 HD
ENDBRANCH   2   9
BRANCH   5  11
ATOM     11  C   UNL     1      12.035 -11.507  12.667  1.00  0.00     0.000 C 
ATOM     12  C   UNL     1      11.256 -12.393  12.044  1.00  0.00     0.009 C 
ENDBRANCH   5  11
TORSDOF 3
ENDMDL
MODEL 2
REMARK VINA RESULT:    -4.444      2.339      4.783
REMARK INTER + INTRA:          -5.180
REMARK INTER:                  -5.104
REMARK INTRA:                  -0.076
REMARK UNBOUND:                -0.087
REMARK SMILES C=Cc1ccc(O)c(OC)c1
REMARK SMILES IDX 8 1 6 2 5 3 4 4 3 5 11 6 9 7 10 8 7 9 2 11 1 12
REMARK H PARENT 7 10
REMARK Flexibility Score: inf
ROOT
ATOM      1  C   UNL     1      14.113 -11.107  12.616  1.00  0.00     0.161 A 
ATOM      2  C   UNL     1      13.249 -10.000  12.689  1.00  0.00     0.157 A 
ATOM      3  C   UNL     1      13.774  -8.705  12.713  1.00  0.00     0.051 A 
ATOM      4  C   UNL     1      15.154  -8.498  12.671  1.00  0.00     0.012 A 
ATOM      5  C   UNL     1      16.037  -9.593  12.611  1.00  0.00    -0.022 A 
ATOM      6  C   UNL     1      15.505 -10.892  12.574  1.00  0.00     0.058 A 
ENDROOT
BRANCH   1   7
ATOM      7  O   UNL     1      13.557 -12.397  12.589  1.00  0.00    -0.493 OA
ATOM      8  C   UNL     1      14.308 -13.602  12.697  1.00  0.00     0.278 C 
ENDBRANCH   1   7
BRANCH   2   9
ATOM      9  O   UNL     1      11.865 -10.165  12.734  1.00  0.00    -0.504 OA
ATOM     10  H   UNL     1      11.431 -11.080  12.715  1.00  0.00     0.293 HD
ENDBRANCH   2   9
BRANCH   5  11
ATOM     11  C   UNL     1      17.511  -9.427  12.554  1.00  0.00     0.000 C 
ATOM     12  C   UNL     1      18.275  -9.135  13.608  1.00  0.00     0.009 C 
ENDBRANCH   5  11
TORSDOF 3
ENDMDL
MODEL 3
REMARK VINA RESULT:    -4.345      1.767      3.827
REMARK INTER + INTRA:          -5.067
REMARK INTER:                  -4.964
REMARK INTRA:                  -0.103
REMARK UNBOUND:                -0.087
REMARK SMILES C=Cc1ccc(O)c(OC)c1
REMARK SMILES IDX 8 1 6 2 5 3 4 4 3 5 11 6 9 7 10 8 7 9 2 11 1 12
REMARK H PARENT 7 10
REMARK Flexibility Score: inf
ROOT
ATOM      1  C   UNL     1      14.737 -11.345  12.336  1.00  0.00     0.161 A 
ATOM      2  C   UNL     1      16.116 -11.565  12.498  1.00  0.00     0.157 A 
ATOM      3  C   UNL     1      16.981 -10.480  12.669  1.00  0.00     0.051 A 
ATOM      4  C   UNL     1      16.488  -9.174  12.676  1.00  0.00     0.012 A 
ATOM      5  C   UNL     1      15.112  -8.931  12.502  1.00  0.00    -0.022 A 
ATOM      6  C   UNL     1      14.245 -10.024  12.344  1.00  0.00     0.058 A 
ENDROOT
BRANCH   1   7
ATOM      7  O   UNL     1      13.891 -12.454  12.171  1.00  0.00    -0.493 OA
ATOM      8  C   UNL     1      12.903 -12.864  13.111  1.00  0.00     0.278 C 
ENDBRANCH   1   7
BRANCH   2   9
ATOM      9  O   UNL     1      16.647 -12.854  12.496  1.00  0.00    -0.504 OA
ATOM     10  H   UNL     1      17.251 -13.190  13.237  1.00  0.00     0.293 HD
ENDBRANCH   2   9
BRANCH   5  11
ATOM     11  C   UNL     1      14.536  -7.563  12.512  1.00  0.00     0.000 C 
ATOM     12  C   UNL     1      14.884  -6.608  13.375  1.00  0.00     0.009 C 
ENDBRANCH   5  11
TORSDOF 3
ENDMDL
MODEL 4
REMARK VINA RESULT:    -4.304      1.499      2.755
REMARK INTER + INTRA:          -5.020
REMARK INTER:                  -4.917
REMARK INTRA:                  -0.103
REMARK UNBOUND:                -0.087
REMARK SMILES C=Cc1ccc(O)c(OC)c1
REMARK SMILES IDX 8 1 6 2 5 3 4 4 3 5 11 6 9 7 10 8 7 9 2 11 1 12
REMARK H PARENT 7 10
REMARK Flexibility Score: inf
ROOT
ATOM      1  C   UNL     1      16.415  -9.696  12.607  1.00  0.00     0.161 A 
ATOM      2  C   UNL     1      15.312  -8.825  12.661  1.00  0.00     0.157 A 
ATOM      3  C   UNL     1      14.014  -9.337  12.587  1.00  0.00     0.051 A 
ATOM      4  C   UNL     1      13.798 -10.710  12.455  1.00  0.00     0.012 A 
ATOM      5  C   UNL     1      14.889 -11.598  12.386  1.00  0.00    -0.022 A 
ATOM      6  C   UNL     1      16.192 -11.081  12.474  1.00  0.00     0.058 A 
ENDROOT
BRANCH   1   7
ATOM      7  O   UNL     1      17.708  -9.155  12.689  1.00  0.00    -0.493 OA
ATOM      8  C   UNL     1      18.450  -9.013  13.896  1.00  0.00     0.278 C 
ENDBRANCH   1   7
BRANCH   2   9
ATOM      9  O   UNL     1      15.485  -7.448  12.792  1.00  0.00    -0.504 OA
ATOM     10  H   UNL     1      14.712  -6.798  12.721  1.00  0.00     0.293 HD
ENDBRANCH   2   9
BRANCH   5  11
ATOM     11  C   UNL     1      14.715 -13.066  12.255  1.00  0.00     0.000 C 
ATOM     12  C   UNL     1      13.759 -13.767  12.867  1.00  0.00     0.009 C 
ENDBRANCH   5  11
TORSDOF 3
ENDMDL
MODEL 5
REMARK VINA RESULT:    -4.200      4.872      6.309
REMARK INTER + INTRA:          -4.901
REMARK INTER:                  -4.859
REMARK INTRA:                  -0.042
REMARK UNBOUND:                -0.087
REMARK SMILES C=Cc1ccc(O)c(OC)c1
REMARK SMILES IDX 8 1 6 2 5 3 4 4 3 5 11 6 9 7 10 8 7 9 2 11 1 12
REMARK H PARENT 7 10
REMARK Flexibility Score: inf
ROOT
ATOM      1  C   UNL     1      16.552  -6.072  15.860  1.00  0.00     0.161 A 
ATOM      2  C   UNL     1      15.323  -5.702  15.283  1.00  0.00     0.157 A 
ATOM      3  C   UNL     1      14.977  -6.176  14.015  1.00  0.00     0.051 A 
ATOM      4  C   UNL     1      15.843  -7.012  13.308  1.00  0.00     0.012 A 
ATOM      5  C   UNL     1      17.083  -7.384  13.862  1.00  0.00    -0.022 A 
ATOM      6  C   UNL     1      17.423  -6.916  15.142  1.00  0.00     0.058 A 
ENDROOT
BRANCH   1   7
ATOM      7  O   UNL     1      16.873  -5.584  17.137  1.00  0.00    -0.493 OA
ATOM      8  C   UNL     1      16.397  -6.143  18.358  1.00  0.00     0.278 C 
ENDBRANCH   1   7
BRANCH   2   9
ATOM      9  O   UNL     1      14.432  -4.868  15.956  1.00  0.00    -0.504 OA
ATOM     10  H   UNL     1      13.443  -4.845  15.736  1.00  0.00     0.293 HD
ENDBRANCH   2   9
BRANCH   5  11
ATOM     11  C   UNL     1      18.036  -8.278  13.157  1.00  0.00     0.000 C 
ATOM     12  C   UNL     1      17.895  -9.601  13.064  1.00  0.00     0.009 C 
ENDBRANCH   5  11
TORSDOF 3
ENDMDL
MODEL 6
REMARK VINA RESULT:    -4.174      4.807      6.903
REMARK INTER + INTRA:          -4.871
REMARK INTER:                  -4.762
REMARK INTRA:                  -0.110
REMARK UNBOUND:                -0.087
REMARK SMILES C=Cc1ccc(O)c(OC)c1
REMARK SMILES IDX 8 1 6 2 5 3 4 4 3 5 11 6 9 7 10 8 7 9 2 11 1 12
REMARK H PARENT 7 10
REMARK Flexibility Score: inf
ROOT
ATOM      1  C   UNL     1      17.098  -6.791  14.671  1.00  0.00     0.161 A 
ATOM      2  C   UNL     1      15.889  -6.356  14.098  1.00  0.00     0.157 A 
ATOM      3  C   UNL     1      14.950  -5.679  14.879  1.00  0.00     0.051 A 
ATOM      4  C   UNL     1      15.197  -5.430  16.230  1.00  0.00     0.012 A 
ATOM      5  C   UNL     1      16.395  -5.867  16.827  1.00  0.00    -0.022 A 
ATOM      6  C   UNL     1      17.343  -6.537  16.035  1.00  0.00     0.058 A 
ENDROOT
BRANCH   1   7
ATOM      7  O   UNL     1      18.026  -7.466  13.861  1.00  0.00    -0.493 OA
ATOM      8  C   UNL     1      18.142  -8.882  13.775  1.00  0.00     0.278 C 
ENDBRANCH   1   7
BRANCH   2   9
ATOM      9  O   UNL     1      15.605  -6.587  12.752  1.00  0.00    -0.504 OA
ATOM     10  H   UNL     1      16.198  -6.239  12.008  1.00  0.00     0.293 HD
ENDBRANCH   2   9
BRANCH   5  11
ATOM     11  C   UNL     1      16.711  -5.620  18.256  1.00  0.00     0.000 C 
ATOM     12  C   UNL     1      16.195  -4.624  18.978  1.00  0.00     0.009 C 
ENDBRANCH   5  11
TORSDOF 3
ENDMDL
MODEL 7
REMARK VINA RESULT:    -4.095      1.540      2.128
REMARK INTER + INTRA:          -4.780
REMARK INTER:                  -4.668
REMARK INTRA:                  -0.112
REMARK UNBOUND:                -0.087
REMARK SMILES C=Cc1ccc(O)c(OC)c1
REMARK SMILES IDX 8 1 6 2 5 3 4 4 3 5 11 6 9 7 10 8 7 9 2 11 1 12
REMARK H PARENT 7 10
REMARK Flexibility Score: inf
ROOT
ATOM      1  C   UNL     1      16.037  -8.458  12.634  1.00  0.00     0.161 A 
ATOM      2  C   UNL     1      17.288  -9.101  12.661  1.00  0.00     0.157 A 
ATOM      3  C   UNL     1      17.358 -10.495  12.606  1.00  0.00     0.051 A 
ATOM      4  C   UNL     1      16.195 -11.262  12.529  1.00  0.00     0.012 A 
ATOM      5  C   UNL     1      14.932 -10.640  12.514  1.00  0.00    -0.022 A 
ATOM      6  C   UNL     1      14.865  -9.237  12.556  1.00  0.00     0.058 A 
ENDROOT
BRANCH   1   7
ATOM      7  O   UNL     1      15.997  -7.055  12.687  1.00  0.00    -0.493 OA
ATOM      8  C   UNL     1      15.784  -6.297  13.873  1.00  0.00     0.278 C 
ENDBRANCH   1   7
BRANCH   2   9
ATOM      9  O   UNL     1      18.473  -8.370  12.739  1.00  0.00    -0.504 OA
ATOM     10  H   UNL     1      18.965  -8.049  11.913  1.00  0.00     0.293 HD
ENDBRANCH   2   9
BRANCH   5  11
ATOM     11  C   UNL     1      13.665 -11.408  12.423  1.00  0.00     0.000 C 
ATOM     12  C   UNL     1      13.594 -12.740  12.400  1.00  0.00     0.009 C 
ENDBRANCH   5  11
TORSDOF 3
ENDMDL
MODEL 8
REMARK VINA RESULT:    -4.077      2.477      3.447
REMARK INTER + INTRA:          -4.760
REMARK INTER:                  -4.659
REMARK INTRA:                  -0.101
REMARK UNBOUND:                -0.087
REMARK SMILES C=Cc1ccc(O)c(OC)c1
REMARK SMILES IDX 8 1 6 2 5 3 4 4 3 5 11 6 9 7 10 8 7 9 2 11 1 12
REMARK H PARENT 7 10
REMARK Flexibility Score: inf
ROOT
ATOM      1  C   UNL     1      15.978  -7.807  12.964  1.00  0.00     0.161 A 
ATOM      2  C   UNL     1      17.328  -7.852  13.355  1.00  0.00     0.157 A 
ATOM      3  C   UNL     1      18.012  -9.070  13.364  1.00  0.00     0.051 A 
ATOM      4  C   UNL     1      17.367 -10.250  12.992  1.00  0.00     0.012 A 
ATOM      5  C   UNL     1      16.011 -10.230  12.610  1.00  0.00    -0.022 A 
ATOM      6  C   UNL     1      15.330  -9.002  12.589  1.00  0.00     0.058 A 
ENDROOT
BRANCH   1   7
ATOM      7  O   UNL     1      15.316  -6.569  12.960  1.00  0.00    -0.493 OA
ATOM      8  C   UNL     1      14.099  -6.301  13.650  1.00  0.00     0.278 C 
ENDBRANCH   1   7
BRANCH   2   9
ATOM      9  O   UNL     1      18.008  -6.695  13.734  1.00  0.00    -0.504 OA
ATOM     10  H   UNL     1      17.920  -5.825  13.222  1.00  0.00     0.293 HD
ENDBRANCH   2   9
BRANCH   5  11
ATOM     11  C   UNL     1      15.281 -11.454  12.196  1.00  0.00     0.000 C 
ATOM     12  C   UNL     1      15.782 -12.688  12.268  1.00  0.00     0.009 C 
ENDBRANCH   5  11
TORSDOF 3
ENDMDL
MODEL 9
REMARK VINA RESULT:    -2.280      1.760      4.522
REMARK INTER + INTRA:          -2.701
REMARK INTER:                  -2.615
REMARK INTRA:                  -0.086
REMARK UNBOUND:                -0.087
REMARK SMILES C=Cc1ccc(O)c(OC)c1
REMARK SMILES IDX 8 1 6 2 5 3 4 4 3 5 11 6 9 7 10 8 7 9 2 11 1 12
REMARK H PARENT 7 10
REMARK Flexibility Score: inf
ROOT
ATOM      1  C   UNL     1      15.951  -9.468  12.490  1.00  0.00     0.161 A 
ATOM      2  C   UNL     1      17.270  -9.894  12.732  1.00  0.00     0.157 A 
ATOM      3  C   UNL     1      18.180  -9.029  13.345  1.00  0.00     0.051 A 
ATOM      4  C   UNL     1      17.795  -7.740  13.719  1.00  0.00     0.012 A 
ATOM      5  C   UNL     1      16.484  -7.291  13.474  1.00  0.00    -0.022 A 
ATOM      6  C   UNL     1      15.567  -8.166  12.868  1.00  0.00     0.058 A 
ENDROOT
BRANCH   1   7
ATOM      7  O   UNL     1      15.056 -10.359  11.875  1.00  0.00    -0.493 OA
ATOM      8  C   UNL     1      13.866 -10.855  12.481  1.00  0.00     0.278 C 
ENDBRANCH   1   7
BRANCH   2   9
ATOM      9  O   UNL     1      17.693 -11.172  12.373  1.00  0.00    -0.504 OA
ATOM     10  H   UNL     1      18.612 -11.525  12.616  1.00  0.00     0.293 HD
ENDBRANCH   2   9
BRANCH   5  11
ATOM     11  C   UNL     1      16.021  -5.934  13.860  1.00  0.00     0.000 C 
ATOM     12  C   UNL     1      14.870  -5.683  14.487  1.00  0.00     0.009 C 
ENDBRANCH   5  11
TORSDOF 3
ENDMDL
