MODEL 1
REMARK VINA RESULT:    -5.692      0.000      0.000
REMARK INTER + INTRA:         -16.171
REMARK INTER:                 -14.344
REMARK INTRA:                  -1.827
REMARK UNBOUND:                -1.827
REMARK SMILES CCCCCCCCCCCCCCCCCCCCCCCCCCCC(=O)[O-]
REMARK SMILES IDX 15 1 16 2 17 3 18 4 19 5 20 6 21 7 22 8 23 9 24 10 25 11
REMARK SMILES IDX 26 12 27 13 28 14 29 15 30 16 14 17 13 18 12 19 11 20 10 21
REMARK SMILES IDX 9 22 8 23 7 24 6 25 5 26 4 27 3 28 2 29 1 30
REMARK H PARENT
REMARK Flexibility Score: inf
ROOT
ATOM      1  C   UNL     1      28.172  39.085  33.531  1.00  0.00     0.000 C 
ENDROOT
BRANCH   1   2
ATOM      2  C   UNL     1      27.651  38.732  32.123  1.00  0.00     0.000 C 
BRANCH   2   3
ATOM      3  C   UNL     1      27.534  37.223  31.828  1.00  0.00     0.000 C 
BRANCH   3   4
ATOM      4  C   UNL     1      27.302  36.332  33.065  1.00  0.00     0.000 C 
BRANCH   4   5
ATOM      5  C   UNL     1      28.208  35.090  33.145  1.00  0.00     0.000 C 
BRANCH   5   6
ATOM      6  C   UNL     1      28.685  34.614  31.762  1.00  0.00     0.000 C 
BRANCH   6   7
ATOM      7  C   UNL     1      27.941  33.356  31.280  1.00  0.00     0.000 C 
BRANCH   7   8
ATOM      8  C   UNL     1      27.117  33.547  29.991  1.00  0.00     0.000 C 
BRANCH   8   9
ATOM      9  C   UNL     1      25.663  34.013  30.204  1.00  0.00     0.000 C 
BRANCH   9  10
ATOM     10  C   UNL     1      24.593  33.136  29.528  1.00  0.00     0.000 C 
BRANCH  10  11
ATOM     11  C   UNL     1      25.185  32.155  28.506  1.00  0.00     0.000 C 
BRANCH  11  12
ATOM     12  C   UNL     1      24.157  31.083  28.114  1.00  0.00     0.006 C 
BRANCH  12  13
ATOM     13  C   UNL     1      23.523  30.409  29.337  1.00  0.00     0.053 C 
BRANCH  13  14
ATOM     14  C   UNL     1      22.028  30.497  29.306  1.00  0.00     0.041 C 
ATOM     15  O   UNL     1      21.345  29.525  28.890  1.00  0.00    -0.550 OA
ATOM     16  O   UNL     1      21.392  31.665  29.706  1.00  0.00    -0.550 OA
ENDBRANCH  13  14
ENDBRANCH  12  13
ENDBRANCH  11  12
ENDBRANCH  10  11
ENDBRANCH   9  10
ENDBRANCH   8   9
ENDBRANCH   7   8
ENDBRANCH   6   7
ENDBRANCH   5   6
ENDBRANCH   4   5
ENDBRANCH   3   4
ENDBRANCH   2   3
ENDBRANCH   1   2
BRANCH   1  17
ATOM     17  C   UNL     1      27.292  40.068  34.323  1.00  0.00     0.000 C 
BRANCH  17  18
ATOM     18  C   UNL     1      27.142  41.430  33.629  1.00  0.00     0.000 C 
BRANCH  18  19
ATOM     19  C   UNL     1      27.890  42.524  34.406  1.00  0.00     0.000 C 
BRANCH  19  20
ATOM     20  C   UNL     1      26.979  43.288  35.384  1.00  0.00     0.000 C 
BRANCH  20  21
ATOM     21  C   UNL     1      25.529  42.771  35.455  1.00  0.00     0.000 C 
BRANCH  21  22
ATOM     22  C   UNL     1      24.520  43.731  36.116  1.00  0.00    -0.000 C 
BRANCH  22  23
ATOM     23  C   UNL     1      23.191  43.910  35.360  1.00  0.00    -0.000 C 
BRANCH  23  24
ATOM     24  C   UNL     1      22.481  45.230  35.706  1.00  0.00    -0.000 C 
BRANCH  24  25
ATOM     25  C   UNL     1      21.057  45.017  36.248  1.00  0.00    -0.000 C 
BRANCH  25  26
ATOM     26  C   UNL     1      20.229  46.316  36.345  1.00  0.00    -0.000 C 
BRANCH  26  27
ATOM     27  C   UNL     1      19.207  46.435  35.205  1.00  0.00    -0.000 C 
BRANCH  27  28
ATOM     28  C   UNL     1      19.027  45.097  34.481  1.00  0.00    -0.000 C 
BRANCH  28  29
ATOM     29  C   UNL     1      19.012  45.292  32.960  1.00  0.00    -0.003 C 
ATOM     30  C   UNL     1      20.280  45.992  32.482  1.00  0.00     0.004 C 
ENDBRANCH  28  29
ENDBRANCH  27  28
ENDBRANCH  26  27
ENDBRANCH  25  26
ENDBRANCH  24  25
ENDBRANCH  23  24
ENDBRANCH  22  23
ENDBRANCH  21  22
ENDBRANCH  20  21
ENDBRANCH  19  20
ENDBRANCH  18  19
ENDBRANCH  17  18
ENDBRANCH   1  17
TORSDOF 26
ENDMDL
MODEL 2
REMARK VINA RESULT:    -5.683      4.520     12.555
REMARK INTER + INTRA:         -16.148
REMARK INTER:                 -14.699
REMARK INTRA:                  -1.449
REMARK UNBOUND:                -1.827
REMARK SMILES CCCCCCCCCCCCCCCCCCCCCCCCCCCC(=O)[O-]
REMARK SMILES IDX 15 1 16 2 17 3 18 4 19 5 20 6 21 7 22 8 23 9 24 10 25 11
REMARK SMILES IDX 26 12 27 13 28 14 29 15 30 16 14 17 13 18 12 19 11 20 10 21
REMARK SMILES IDX 9 22 8 23 7 24 6 25 5 26 4 27 3 28 2 29 1 30
REMARK H PARENT
REMARK Flexibility Score: inf
ROOT
ATOM      1  C   UNL     1      27.690  38.896  33.562  1.00  0.00     0.000 C 
ENDROOT
BRANCH   1   2
ATOM      2  C   UNL     1      27.951  39.679  32.259  1.00  0.00     0.000 C 
BRANCH   2   3
ATOM      3  C   UNL     1      27.884  41.213  32.394  1.00  0.00     0.000 C 
BRANCH   3   4
ATOM      4  C   UNL     1      27.144  41.728  33.644  1.00  0.00     0.000 C 
BRANCH   4   5
ATOM      5  C   UNL     1      27.883  42.831  34.423  1.00  0.00     0.000 C 
BRANCH   5   6
ATOM      6  C   UNL     1      26.997  43.503  35.485  1.00  0.00     0.000 C 
BRANCH   6   7
ATOM      7  C   UNL     1      25.600  42.866  35.581  1.00  0.00     0.000 C 
BRANCH   7   8
ATOM      8  C   UNL     1      24.492  43.811  36.087  1.00  0.00     0.000 C 
BRANCH   8   9
ATOM      9  C   UNL     1      23.200  43.818  35.245  1.00  0.00     0.000 C 
BRANCH   9  10
ATOM     10  C   UNL     1      22.041  44.641  35.837  1.00  0.00     0.000 C 
BRANCH  10  11
ATOM     11  C   UNL     1      22.246  46.154  35.685  1.00  0.00     0.000 C 
BRANCH  11  12
ATOM     12  C   UNL     1      21.022  46.811  35.031  1.00  0.00     0.006 C 
BRANCH  12  13
ATOM     13  C   UNL     1      20.411  45.937  33.929  1.00  0.00     0.053 C 
BRANCH  13  14
ATOM     14  C   UNL     1      19.232  46.599  33.284  1.00  0.00     0.041 C 
ATOM     15  O   UNL     1      19.351  47.142  32.154  1.00  0.00    -0.550 OA
ATOM     16  O   UNL     1      18.013  46.646  33.946  1.00  0.00    -0.550 OA
ENDBRANCH  13  14
ENDBRANCH  12  13
ENDBRANCH  11  12
ENDBRANCH  10  11
ENDBRANCH   9  10
ENDBRANCH   8   9
ENDBRANCH   7   8
ENDBRANCH   6   7
ENDBRANCH   5   6
ENDBRANCH   4   5
ENDBRANCH   3   4
ENDBRANCH   2   3
ENDBRANCH   1   2
BRANCH   1  17
ATOM     17  C   UNL     1      27.490  37.381  33.383  1.00  0.00     0.000 C 
BRANCH  17  18
ATOM     18  C   UNL     1      27.254  36.978  31.920  1.00  0.00     0.000 C 
BRANCH  18  19
ATOM     19  C   UNL     1      28.227  35.867  31.497  1.00  0.00     0.000 C 
BRANCH  19  20
ATOM     20  C   UNL     1      28.137  35.537  29.996  1.00  0.00     0.000 C 
BRANCH  20  21
ATOM     21  C   UNL     1      27.843  34.057  29.677  1.00  0.00     0.000 C 
BRANCH  21  22
ATOM     22  C   UNL     1      26.689  33.428  30.484  1.00  0.00    -0.000 C 
BRANCH  22  23
ATOM     23  C   UNL     1      25.279  33.684  29.923  1.00  0.00    -0.000 C 
BRANCH  23  24
ATOM     24  C   UNL     1      24.594  32.401  29.421  1.00  0.00    -0.000 C 
BRANCH  24  25
ATOM     25  C   UNL     1      23.671  32.650  28.216  1.00  0.00    -0.000 C 
BRANCH  25  26
ATOM     26  C   UNL     1      22.593  31.563  28.025  1.00  0.00    -0.000 C 
BRANCH  26  27
ATOM     27  C   UNL     1      21.213  32.166  27.720  1.00  0.00    -0.000 C 
BRANCH  27  28
ATOM     28  C   UNL     1      20.189  31.772  28.790  1.00  0.00    -0.000 C 
BRANCH  28  29
ATOM     29  C   UNL     1      20.821  30.859  29.847  1.00  0.00    -0.003 C 
ATOM     30  C   UNL     1      19.847  29.772  30.290  1.00  0.00     0.004 C 
ENDBRANCH  28  29
ENDBRANCH  27  28
ENDBRANCH  26  27
ENDBRANCH  25  26
ENDBRANCH  24  25
ENDBRANCH  23  24
ENDBRANCH  22  23
ENDBRANCH  21  22
ENDBRANCH  20  21
ENDBRANCH  19  20
ENDBRANCH  18  19
ENDBRANCH  17  18
ENDBRANCH   1  17
TORSDOF 26
ENDMDL
MODEL 3
REMARK VINA RESULT:    -5.654      3.290      7.044
REMARK INTER + INTRA:         -16.074
REMARK INTER:                 -13.545
REMARK INTRA:                  -2.529
REMARK UNBOUND:                -1.827
REMARK SMILES CCCCCCCCCCCCCCCCCCCCCCCCCCCC(=O)[O-]
REMARK SMILES IDX 15 1 16 2 17 3 18 4 19 5 20 6 21 7 22 8 23 9 24 10 25 11
REMARK SMILES IDX 26 12 27 13 28 14 29 15 30 16 14 17 13 18 12 19 11 20 10 21
REMARK SMILES IDX 9 22 8 23 7 24 6 25 5 26 4 27 3 28 2 29 1 30
REMARK H PARENT
REMARK Flexibility Score: inf
ROOT
ATOM      1  C   UNL     1      23.022  43.869  35.139  1.00  0.00     0.000 C 
ENDROOT
BRANCH   1   2
ATOM      2  C   UNL     1      23.764  44.406  36.379  1.00  0.00     0.000 C 
BRANCH   2   3
ATOM      3  C   UNL     1      25.144  43.770  36.642  1.00  0.00     0.000 C 
BRANCH   3   4
ATOM      4  C   UNL     1      25.665  42.852  35.519  1.00  0.00     0.000 C 
BRANCH   4   5
ATOM      5  C   UNL     1      27.087  43.178  35.027  1.00  0.00     0.000 C 
BRANCH   5   6
ATOM      6  C   UNL     1      27.838  41.936  34.519  1.00  0.00     0.000 C 
BRANCH   6   7
ATOM      7  C   UNL     1      27.574  41.652  33.030  1.00  0.00     0.000 C 
BRANCH   7   8
ATOM      8  C   UNL     1      27.934  40.225  32.571  1.00  0.00     0.000 C 
BRANCH   8   9
ATOM      9  C   UNL     1      28.198  39.216  33.707  1.00  0.00     0.000 C 
BRANCH   9  10
ATOM     10  C   UNL     1      27.430  37.887  33.589  1.00  0.00     0.000 C 
BRANCH  10  11
ATOM     11  C   UNL     1      27.154  37.486  32.133  1.00  0.00     0.000 C 
BRANCH  11  12
ATOM     12  C   UNL     1      27.930  36.214  31.757  1.00  0.00     0.006 C 
BRANCH  12  13
ATOM     13  C   UNL     1      27.819  35.126  32.832  1.00  0.00     0.053 C 
BRANCH  13  14
ATOM     14  C   UNL     1      28.108  33.766  32.276  1.00  0.00     0.041 C 
ATOM     15  O   UNL     1      27.570  33.393  31.200  1.00  0.00    -0.550 OA
ATOM     16  O   UNL     1      28.945  32.897  32.963  1.00  0.00    -0.550 OA
ENDBRANCH  13  14
ENDBRANCH  12  13
ENDBRANCH  11  12
ENDBRANCH  10  11
ENDBRANCH   9  10
ENDBRANCH   8   9
ENDBRANCH   7   8
ENDBRANCH   6   7
ENDBRANCH   5   6
ENDBRANCH   4   5
ENDBRANCH   3   4
ENDBRANCH   2   3
ENDBRANCH   1   2
BRANCH   1  17
ATOM     17  C   UNL     1      21.771  44.668  34.732  1.00  0.00     0.000 C 
BRANCH  17  18
ATOM     18  C   UNL     1      21.496  45.861  35.657  1.00  0.00     0.000 C 
BRANCH  18  19
ATOM     19  C   UNL     1      21.521  47.180  34.870  1.00  0.00     0.000 C 
BRANCH  19  20
ATOM     20  C   UNL     1      20.114  47.665  34.475  1.00  0.00     0.000 C 
BRANCH  20  21
ATOM     21  C   UNL     1      19.739  47.426  32.999  1.00  0.00     0.000 C 
BRANCH  21  22
ATOM     22  C   UNL     1      18.443  46.620  32.773  1.00  0.00    -0.000 C 
BRANCH  22  23
ATOM     23  C   UNL     1      18.558  45.107  33.030  1.00  0.00    -0.000 C 
BRANCH  23  24
ATOM     24  C   UNL     1      17.920  44.678  34.363  1.00  0.00    -0.000 C 
BRANCH  24  25
ATOM     25  C   UNL     1      16.644  45.470  34.696  1.00  0.00    -0.000 C 
BRANCH  25  26
ATOM     26  C   UNL     1      15.363  44.610  34.704  1.00  0.00    -0.000 C 
BRANCH  26  27
ATOM     27  C   UNL     1      14.455  44.915  33.503  1.00  0.00    -0.000 C 
BRANCH  27  28
ATOM     28  C   UNL     1      14.816  44.037  32.300  1.00  0.00    -0.000 C 
BRANCH  28  29
ATOM     29  C   UNL     1      14.712  44.829  30.991  1.00  0.00    -0.003 C 
ATOM     30  C   UNL     1      14.851  46.327  31.241  1.00  0.00     0.004 C 
ENDBRANCH  28  29
ENDBRANCH  27  28
ENDBRANCH  26  27
ENDBRANCH  25  26
ENDBRANCH  24  25
ENDBRANCH  23  24
ENDBRANCH  22  23
ENDBRANCH  21  22
ENDBRANCH  20  21
ENDBRANCH  19  20
ENDBRANCH  18  19
ENDBRANCH  17  18
ENDBRANCH   1  17
TORSDOF 26
ENDMDL
MODEL 4
REMARK VINA RESULT:    -5.562      4.795     12.753
REMARK INTER + INTRA:         -15.842
REMARK INTER:                 -14.416
REMARK INTRA:                  -1.426
REMARK UNBOUND:                -1.827
REMARK SMILES CCCCCCCCCCCCCCCCCCCCCCCCCCCC(=O)[O-]
REMARK SMILES IDX 15 1 16 2 17 3 18 4 19 5 20 6 21 7 22 8 23 9 24 10 25 11
REMARK SMILES IDX 26 12 27 13 28 14 29 15 30 16 14 17 13 18 12 19 11 20 10 21
REMARK SMILES IDX 9 22 8 23 7 24 6 25 5 26 4 27 3 28 2 29 1 30
REMARK H PARENT
REMARK Flexibility Score: inf
ROOT
ATOM      1  C   UNL     1      23.609  43.154  35.135  1.00  0.00     0.000 C 
ENDROOT
BRANCH   1   2
ATOM      2  C   UNL     1      23.316  44.459  35.903  1.00  0.00     0.000 C 
BRANCH   2   3
ATOM      3  C   UNL     1      21.914  45.057  35.665  1.00  0.00     0.000 C 
BRANCH   3   4
ATOM      4  C   UNL     1      21.887  46.577  35.412  1.00  0.00     0.000 C 
BRANCH   4   5
ATOM      5  C   UNL     1      20.518  47.135  34.981  1.00  0.00     0.000 C 
BRANCH   5   6
ATOM      6  C   UNL     1      19.833  46.266  33.913  1.00  0.00     0.000 C 
BRANCH   6   7
ATOM      7  C   UNL     1      19.311  47.091  32.724  1.00  0.00     0.000 C 
BRANCH   7   8
ATOM      8  C   UNL     1      17.807  46.922  32.430  1.00  0.00     0.000 C 
BRANCH   8   9
ATOM      9  C   UNL     1      17.152  45.675  33.059  1.00  0.00     0.000 C 
BRANCH   9  10
ATOM     10  C   UNL     1      15.923  45.136  32.303  1.00  0.00     0.000 C 
BRANCH  10  11
ATOM     11  C   UNL     1      15.246  46.201  31.429  1.00  0.00     0.000 C 
BRANCH  11  12
ATOM     12  C   UNL     1      14.339  45.550  30.374  1.00  0.00     0.006 C 
BRANCH  12  13
ATOM     13  C   UNL     1      13.445  44.456  30.970  1.00  0.00     0.053 C 
BRANCH  13  14
ATOM     14  C   UNL     1      12.145  44.341  30.236  1.00  0.00     0.041 C 
ATOM     15  O   UNL     1      11.622  45.358  29.710  1.00  0.00    -0.550 OA
ATOM     16  O   UNL     1      11.494  43.116  30.163  1.00  0.00    -0.550 OA
ENDBRANCH  13  14
ENDBRANCH  12  13
ENDBRANCH  11  12
ENDBRANCH  10  11
ENDBRANCH   9  10
ENDBRANCH   8   9
ENDBRANCH   7   8
ENDBRANCH   6   7
ENDBRANCH   5   6
ENDBRANCH   4   5
ENDBRANCH   3   4
ENDBRANCH   2   3
ENDBRANCH   1   2
BRANCH   1  17
ATOM     17  C   UNL     1      24.948  42.481  35.485  1.00  0.00     0.000 C 
BRANCH  17  18
ATOM     18  C   UNL     1      26.016  43.479  35.952  1.00  0.00     0.000 C 
BRANCH  18  19
ATOM     19  C   UNL     1      27.134  43.612  34.907  1.00  0.00     0.000 C 
BRANCH  19  20
ATOM     20  C   UNL     1      27.863  42.282  34.642  1.00  0.00     0.000 C 
BRANCH  20  21
ATOM     21  C   UNL     1      27.609  41.672  33.250  1.00  0.00     0.000 C 
BRANCH  21  22
ATOM     22  C   UNL     1      27.816  40.147  33.152  1.00  0.00    -0.000 C 
BRANCH  22  23
ATOM     23  C   UNL     1      26.888  39.299  34.041  1.00  0.00    -0.000 C 
BRANCH  23  24
ATOM     24  C   UNL     1      27.464  37.907  34.348  1.00  0.00    -0.000 C 
BRANCH  24  25
ATOM     25  C   UNL     1      27.483  36.985  33.116  1.00  0.00    -0.000 C 
BRANCH  25  26
ATOM     26  C   UNL     1      27.535  35.482  33.467  1.00  0.00    -0.000 C 
BRANCH  26  27
ATOM     27  C   UNL     1      28.581  34.731  32.631  1.00  0.00    -0.000 C 
BRANCH  27  28
ATOM     28  C   UNL     1      28.025  33.398  32.117  1.00  0.00    -0.000 C 
BRANCH  28  29
ATOM     29  C   UNL     1      27.123  33.613  30.896  1.00  0.00    -0.003 C 
ATOM     30  C   UNL     1      27.772  34.560  29.891  1.00  0.00     0.004 C 
ENDBRANCH  28  29
ENDBRANCH  27  28
ENDBRANCH  26  27
ENDBRANCH  25  26
ENDBRANCH  24  25
ENDBRANCH  23  24
ENDBRANCH  22  23
ENDBRANCH  21  22
ENDBRANCH  20  21
ENDBRANCH  19  20
ENDBRANCH  18  19
ENDBRANCH  17  18
ENDBRANCH   1  17
TORSDOF 26
ENDMDL
MODEL 5
REMARK VINA RESULT:    -5.521      5.096     12.383
REMARK INTER + INTRA:         -15.739
REMARK INTER:                 -12.418
REMARK INTRA:                  -3.320
REMARK UNBOUND:                -1.827
REMARK SMILES CCCCCCCCCCCCCCCCCCCCCCCCCCCC(=O)[O-]
REMARK SMILES IDX 15 1 16 2 17 3 18 4 19 5 20 6 21 7 22 8 23 9 24 10 25 11
REMARK SMILES IDX 26 12 27 13 28 14 29 15 30 16 14 17 13 18 12 19 11 20 10 21
REMARK SMILES IDX 9 22 8 23 7 24 6 25 5 26 4 27 3 28 2 29 1 30
REMARK H PARENT
REMARK Flexibility Score: inf
ROOT
ATOM      1  C   UNL     1      24.136  32.257  27.993  1.00  0.00     0.000 C 
ENDROOT
BRANCH   1   2
ATOM      2  C   UNL     1      23.976  32.779  29.436  1.00  0.00     0.000 C 
BRANCH   2   3
ATOM      3  C   UNL     1      25.020  33.827  29.871  1.00  0.00     0.000 C 
BRANCH   3   4
ATOM      4  C   UNL     1      26.394  33.252  30.271  1.00  0.00     0.000 C 
BRANCH   4   5
ATOM      5  C   UNL     1      27.603  34.051  29.750  1.00  0.00     0.000 C 
BRANCH   5   6
ATOM      6  C   UNL     1      28.418  34.700  30.881  1.00  0.00     0.000 C 
BRANCH   6   7
ATOM      7  C   UNL     1      28.238  36.227  30.940  1.00  0.00     0.000 C 
BRANCH   7   8
ATOM      8  C   UNL     1      27.072  36.706  31.828  1.00  0.00     0.000 C 
BRANCH   8   9
ATOM      9  C   UNL     1      27.236  38.122  32.418  1.00  0.00     0.000 C 
BRANCH   9  10
ATOM     10  C   UNL     1      27.753  38.167  33.867  1.00  0.00     0.000 C 
BRANCH  10  11
ATOM     11  C   UNL     1      28.293  39.548  34.264  1.00  0.00     0.000 C 
BRANCH  11  12
ATOM     12  C   UNL     1      27.516  40.666  33.554  1.00  0.00     0.006 C 
BRANCH  12  13
ATOM     13  C   UNL     1      27.737  42.035  34.208  1.00  0.00     0.053 C 
BRANCH  13  14
ATOM     14  C   UNL     1      26.577  42.434  35.067  1.00  0.00     0.041 C 
ATOM     15  O   UNL     1      25.504  41.777  35.028  1.00  0.00    -0.550 OA
ATOM     16  O   UNL     1      26.670  43.552  35.886  1.00  0.00    -0.550 OA
ENDBRANCH  13  14
ENDBRANCH  12  13
ENDBRANCH  11  12
ENDBRANCH  10  11
ENDBRANCH   9  10
ENDBRANCH   8   9
ENDBRANCH   7   8
ENDBRANCH   6   7
ENDBRANCH   5   6
ENDBRANCH   4   5
ENDBRANCH   3   4
ENDBRANCH   2   3
ENDBRANCH   1   2
BRANCH   1  17
ATOM     17  C   UNL     1      24.533  30.774  27.878  1.00  0.00     0.000 C 
BRANCH  17  18
ATOM     18  C   UNL     1      23.733  29.865  28.821  1.00  0.00     0.000 C 
BRANCH  18  19
ATOM     19  C   UNL     1      22.516  29.267  28.098  1.00  0.00     0.000 C 
BRANCH  19  20
ATOM     20  C   UNL     1      21.196  29.512  28.852  1.00  0.00     0.000 C 
BRANCH  20  21
ATOM     21  C   UNL     1      21.336  30.334  30.149  1.00  0.00     0.000 C 
BRANCH  21  22
ATOM     22  C   UNL     1      20.403  31.558  30.256  1.00  0.00    -0.000 C 
BRANCH  22  23
ATOM     23  C   UNL     1      20.145  32.304  28.935  1.00  0.00    -0.000 C 
BRANCH  23  24
ATOM     24  C   UNL     1      18.654  32.598  28.697  1.00  0.00    -0.000 C 
BRANCH  24  25
ATOM     25  C   UNL     1      17.850  31.339  28.327  1.00  0.00    -0.000 C 
BRANCH  25  26
ATOM     26  C   UNL     1      18.329  30.656  27.028  1.00  0.00    -0.000 C 
BRANCH  26  27
ATOM     27  C   UNL     1      17.824  31.384  25.773  1.00  0.00    -0.000 C 
BRANCH  27  28
ATOM     28  C   UNL     1      18.984  32.022  25.000  1.00  0.00    -0.000 C 
BRANCH  28  29
ATOM     29  C   UNL     1      20.327  31.412  25.422  1.00  0.00    -0.003 C 
ATOM     30  C   UNL     1      21.416  32.478  25.498  1.00  0.00     0.004 C 
ENDBRANCH  28  29
ENDBRANCH  27  28
ENDBRANCH  26  27
ENDBRANCH  25  26
ENDBRANCH  24  25
ENDBRANCH  23  24
ENDBRANCH  22  23
ENDBRANCH  21  22
ENDBRANCH  20  21
ENDBRANCH  19  20
ENDBRANCH  18  19
ENDBRANCH  17  18
ENDBRANCH   1  17
TORSDOF 26
ENDMDL
MODEL 6
REMARK VINA RESULT:    -5.513      4.741     12.188
REMARK INTER + INTRA:         -15.718
REMARK INTER:                 -13.749
REMARK INTRA:                  -1.969
REMARK UNBOUND:                -1.827
REMARK SMILES CCCCCCCCCCCCCCCCCCCCCCCCCCCC(=O)[O-]
REMARK SMILES IDX 15 1 16 2 17 3 18 4 19 5 20 6 21 7 22 8 23 9 24 10 25 11
REMARK SMILES IDX 26 12 27 13 28 14 29 15 30 16 14 17 13 18 12 19 11 20 10 21
REMARK SMILES IDX 9 22 8 23 7 24 6 25 5 26 4 27 3 28 2 29 1 30
REMARK H PARENT
REMARK Flexibility Score: inf
ROOT
ATOM      1  C   UNL     1      26.277  34.511  30.214  1.00  0.00     0.000 C 
ENDROOT
BRANCH   1   2
ATOM      2  C   UNL     1      27.379  33.450  30.412  1.00  0.00     0.000 C 
BRANCH   2   3
ATOM      3  C   UNL     1      27.833  33.244  31.871  1.00  0.00     0.000 C 
BRANCH   3   4
ATOM      4  C   UNL     1      28.838  34.287  32.396  1.00  0.00     0.000 C 
BRANCH   4   5
ATOM      5  C   UNL     1      28.200  35.530  33.042  1.00  0.00     0.000 C 
BRANCH   5   6
ATOM      6  C   UNL     1      27.977  36.673  32.038  1.00  0.00     0.000 C 
BRANCH   6   7
ATOM      7  C   UNL     1      27.068  37.783  32.594  1.00  0.00     0.000 C 
BRANCH   7   8
ATOM      8  C   UNL     1      27.449  38.287  34.000  1.00  0.00     0.000 C 
BRANCH   8   9
ATOM      9  C   UNL     1      27.332  39.811  34.206  1.00  0.00     0.000 C 
BRANCH   9  10
ATOM     10  C   UNL     1      27.518  40.655  32.931  1.00  0.00     0.000 C 
BRANCH  10  11
ATOM     11  C   UNL     1      27.750  42.143  33.231  1.00  0.00     0.000 C 
BRANCH  11  12
ATOM     12  C   UNL     1      27.825  42.392  34.745  1.00  0.00     0.006 C 
BRANCH  12  13
ATOM     13  C   UNL     1      26.984  43.599  35.178  1.00  0.00     0.053 C 
BRANCH  13  14
ATOM     14  C   UNL     1      25.673  43.180  35.766  1.00  0.00     0.041 C 
ATOM     15  O   UNL     1      25.230  43.749  36.799  1.00  0.00    -0.550 OA
ATOM     16  O   UNL     1      24.955  42.138  35.193  1.00  0.00    -0.550 OA
ENDBRANCH  13  14
ENDBRANCH  12  13
ENDBRANCH  11  12
ENDBRANCH  10  11
ENDBRANCH   9  10
ENDBRANCH   8   9
ENDBRANCH   7   8
ENDBRANCH   6   7
ENDBRANCH   5   6
ENDBRANCH   4   5
ENDBRANCH   3   4
ENDBRANCH   2   3
ENDBRANCH   1   2
BRANCH   1  17
ATOM     17  C   UNL     1      24.868  33.947  29.960  1.00  0.00     0.000 C 
BRANCH  17  18
ATOM     18  C   UNL     1      24.888  32.559  29.305  1.00  0.00     0.000 C 
BRANCH  18  19
ATOM     19  C   UNL     1      23.652  32.357  28.416  1.00  0.00     0.000 C 
BRANCH  19  20
ATOM     20  C   UNL     1      23.935  31.460  27.197  1.00  0.00     0.000 C 
BRANCH  20  21
ATOM     21  C   UNL     1      22.845  30.411  26.899  1.00  0.00     0.000 C 
BRANCH  21  22
ATOM     22  C   UNL     1      22.549  29.427  28.048  1.00  0.00    -0.000 C 
BRANCH  22  23
ATOM     23  C   UNL     1      21.189  29.618  28.743  1.00  0.00    -0.000 C 
BRANCH  23  24
ATOM     24  C   UNL     1      21.295  30.418  30.052  1.00  0.00    -0.000 C 
BRANCH  24  25
ATOM     25  C   UNL     1      20.245  31.538  30.153  1.00  0.00    -0.000 C 
BRANCH  25  26
ATOM     26  C   UNL     1      19.929  32.217  28.804  1.00  0.00    -0.000 C 
BRANCH  26  27
ATOM     27  C   UNL     1      18.420  32.402  28.589  1.00  0.00    -0.000 C 
BRANCH  27  28
ATOM     28  C   UNL     1      17.696  31.051  28.561  1.00  0.00    -0.000 C 
BRANCH  28  29
ATOM     29  C   UNL     1      16.292  31.192  27.960  1.00  0.00    -0.003 C 
ATOM     30  C   UNL     1      15.221  31.143  29.045  1.00  0.00     0.004 C 
ENDBRANCH  28  29
ENDBRANCH  27  28
ENDBRANCH  26  27
ENDBRANCH  25  26
ENDBRANCH  24  25
ENDBRANCH  23  24
ENDBRANCH  22  23
ENDBRANCH  21  22
ENDBRANCH  20  21
ENDBRANCH  19  20
ENDBRANCH  18  19
ENDBRANCH  17  18
ENDBRANCH   1  17
TORSDOF 26
ENDMDL
MODEL 7
REMARK VINA RESULT:    -5.478      5.964     11.626
REMARK INTER + INTRA:         -15.631
REMARK INTER:                 -13.243
REMARK INTRA:                  -2.389
REMARK UNBOUND:                -1.827
REMARK SMILES CCCCCCCCCCCCCCCCCCCCCCCCCCCC(=O)[O-]
REMARK SMILES IDX 15 1 16 2 17 3 18 4 19 5 20 6 21 7 22 8 23 9 24 10 25 11
REMARK SMILES IDX 26 12 27 13 28 14 29 15 30 16 14 17 13 18 12 19 11 20 10 21
REMARK SMILES IDX 9 22 8 23 7 24 6 25 5 26 4 27 3 28 2 29 1 30
REMARK H PARENT
REMARK Flexibility Score: inf
ROOT
ATOM      1  C   UNL     1      19.293  46.509  32.928  1.00  0.00     0.000 C 
ENDROOT
BRANCH   1   2
ATOM      2  C   UNL     1      20.693  47.040  33.299  1.00  0.00     0.000 C 
BRANCH   2   3
ATOM      3  C   UNL     1      20.753  47.877  34.592  1.00  0.00     0.000 C 
BRANCH   3   4
ATOM      4  C   UNL     1      20.848  47.059  35.896  1.00  0.00     0.000 C 
BRANCH   4   5
ATOM      5  C   UNL     1      22.244  47.043  36.546  1.00  0.00     0.000 C 
BRANCH   5   6
ATOM      6  C   UNL     1      22.766  45.618  36.795  1.00  0.00     0.000 C 
BRANCH   6   7
ATOM      7  C   UNL     1      22.159  44.587  35.827  1.00  0.00     0.000 C 
BRANCH   7   8
ATOM      8  C   UNL     1      23.161  43.560  35.264  1.00  0.00     0.000 C 
BRANCH   8   9
ATOM      9  C   UNL     1      24.563  43.592  35.905  1.00  0.00     0.000 C 
BRANCH   9  10
ATOM     10  C   UNL     1      25.581  42.613  35.292  1.00  0.00     0.000 C 
BRANCH  10  11
ATOM     11  C   UNL     1      26.976  43.232  35.124  1.00  0.00     0.000 C 
BRANCH  11  12
ATOM     12  C   UNL     1      27.816  42.428  34.120  1.00  0.00     0.006 C 
BRANCH  12  13
ATOM     13  C   UNL     1      27.332  40.980  33.984  1.00  0.00     0.053 C 
BRANCH  13  14
ATOM     14  C   UNL     1      27.805  40.354  32.708  1.00  0.00     0.041 C 
ATOM     15  O   UNL     1      28.123  41.078  31.727  1.00  0.00    -0.550 OA
ATOM     16  O   UNL     1      27.862  38.972  32.591  1.00  0.00    -0.550 OA
ENDBRANCH  13  14
ENDBRANCH  12  13
ENDBRANCH  11  12
ENDBRANCH  10  11
ENDBRANCH   9  10
ENDBRANCH   8   9
ENDBRANCH   7   8
ENDBRANCH   6   7
ENDBRANCH   5   6
ENDBRANCH   4   5
ENDBRANCH   3   4
ENDBRANCH   2   3
ENDBRANCH   1   2
BRANCH   1  17
ATOM     17  C   UNL     1      18.911  45.169  33.582  1.00  0.00     0.000 C 
BRANCH  17  18
ATOM     18  C   UNL     1      17.452  44.770  33.319  1.00  0.00     0.000 C 
BRANCH  18  19
ATOM     19  C   UNL     1      16.488  45.838  33.857  1.00  0.00     0.000 C 
BRANCH  19  20
ATOM     20  C   UNL     1      15.106  45.787  33.181  1.00  0.00     0.000 C 
BRANCH  20  21
ATOM     21  C   UNL     1      15.107  45.214  31.750  1.00  0.00     0.000 C 
BRANCH  21  22
ATOM     22  C   UNL     1      14.541  46.153  30.666  1.00  0.00    -0.000 C 
BRANCH  22  23
ATOM     23  C   UNL     1      13.017  46.362  30.708  1.00  0.00    -0.000 C 
BRANCH  23  24
ATOM     24  C   UNL     1      12.301  45.783  29.476  1.00  0.00    -0.000 C 
BRANCH  24  25
ATOM     25  C   UNL     1      10.863  45.330  29.781  1.00  0.00    -0.000 C 
BRANCH  25  26
ATOM     26  C   UNL     1      10.725  43.809  30.001  1.00  0.00    -0.000 C 
BRANCH  26  27
ATOM     27  C   UNL     1      10.489  43.458  31.478  1.00  0.00    -0.000 C 
BRANCH  27  28
ATOM     28  C   UNL     1      11.809  43.130  32.186  1.00  0.00    -0.000 C 
BRANCH  28  29
ATOM     29  C   UNL     1      11.825  43.698  33.610  1.00  0.00    -0.003 C 
ATOM     30  C   UNL     1      12.945  43.076  34.439  1.00  0.00     0.004 C 
ENDBRANCH  28  29
ENDBRANCH  27  28
ENDBRANCH  26  27
ENDBRANCH  25  26
ENDBRANCH  24  25
ENDBRANCH  23  24
ENDBRANCH  22  23
ENDBRANCH  21  22
ENDBRANCH  20  21
ENDBRANCH  19  20
ENDBRANCH  18  19
ENDBRANCH  17  18
ENDBRANCH   1  17
TORSDOF 26
ENDMDL
MODEL 8
REMARK VINA RESULT:    -5.443      4.723     12.618
REMARK INTER + INTRA:         -15.543
REMARK INTER:                 -13.861
REMARK INTRA:                  -1.682
REMARK UNBOUND:                -1.827
REMARK SMILES CCCCCCCCCCCCCCCCCCCCCCCCCCCC(=O)[O-]
REMARK SMILES IDX 15 1 16 2 17 3 18 4 19 5 20 6 21 7 22 8 23 9 24 10 25 11
REMARK SMILES IDX 26 12 27 13 28 14 29 15 30 16 14 17 13 18 12 19 11 20 10 21
REMARK SMILES IDX 9 22 8 23 7 24 6 25 5 26 4 27 3 28 2 29 1 30
REMARK H PARENT
REMARK Flexibility Score: inf
ROOT
ATOM      1  C   UNL     1      25.246  43.251  35.899  1.00  0.00     0.000 C 
ENDROOT
BRANCH   1   2
ATOM      2  C   UNL     1      24.102  44.249  36.173  1.00  0.00     0.000 C 
BRANCH   2   3
ATOM      3  C   UNL     1      22.885  44.122  35.235  1.00  0.00     0.000 C 
BRANCH   3   4
ATOM      4  C   UNL     1      21.559  44.656  35.811  1.00  0.00     0.000 C 
BRANCH   4   5
ATOM      5  C   UNL     1      21.523  46.178  36.044  1.00  0.00     0.000 C 
BRANCH   5   6
ATOM      6  C   UNL     1      20.485  46.890  35.162  1.00  0.00     0.000 C 
BRANCH   6   7
ATOM      7  C   UNL     1      20.826  46.811  33.664  1.00  0.00     0.000 C 
BRANCH   7   8
ATOM      8  C   UNL     1      19.798  46.047  32.805  1.00  0.00     0.000 C 
BRANCH   8   9
ATOM      9  C   UNL     1      18.487  45.677  33.527  1.00  0.00     0.000 C 
BRANCH   9  10
ATOM     10  C   UNL     1      17.211  45.830  32.678  1.00  0.00     0.000 C 
BRANCH  10  11
ATOM     11  C   UNL     1      16.153  44.765  32.995  1.00  0.00     0.000 C 
BRANCH  11  12
ATOM     12  C   UNL     1      15.334  44.415  31.744  1.00  0.00     0.006 C 
BRANCH  12  13
ATOM     13  C   UNL     1      14.534  45.613  31.218  1.00  0.00     0.053 C 
BRANCH  13  14
ATOM     14  C   UNL     1      13.148  45.648  31.786  1.00  0.00     0.041 C 
ATOM     15  O   UNL     1      12.733  44.698  32.502  1.00  0.00    -0.550 OA
ATOM     16  O   UNL     1      12.305  46.712  31.498  1.00  0.00    -0.550 OA
ENDBRANCH  13  14
ENDBRANCH  12  13
ENDBRANCH  11  12
ENDBRANCH  10  11
ENDBRANCH   9  10
ENDBRANCH   8   9
ENDBRANCH   7   8
ENDBRANCH   6   7
ENDBRANCH   5   6
ENDBRANCH   4   5
ENDBRANCH   3   4
ENDBRANCH   2   3
ENDBRANCH   1   2
BRANCH   1  17
ATOM     17  C   UNL     1      26.659  43.861  35.916  1.00  0.00     0.000 C 
BRANCH  17  18
ATOM     18  C   UNL     1      27.432  43.615  34.612  1.00  0.00     0.000 C 
BRANCH  18  19
ATOM     19  C   UNL     1      27.934  42.164  34.541  1.00  0.00     0.000 C 
BRANCH  19  20
ATOM     20  C   UNL     1      27.040  41.267  33.667  1.00  0.00     0.000 C 
BRANCH  20  21
ATOM     21  C   UNL     1      26.778  39.860  34.242  1.00  0.00     0.000 C 
BRANCH  21  22
ATOM     22  C   UNL     1      27.756  38.765  33.771  1.00  0.00    -0.000 C 
BRANCH  22  23
ATOM     23  C   UNL     1      27.763  38.498  32.255  1.00  0.00    -0.000 C 
BRANCH  23  24
ATOM     24  C   UNL     1      27.072  37.176  31.879  1.00  0.00    -0.000 C 
BRANCH  24  25
ATOM     25  C   UNL     1      27.735  35.951  32.531  1.00  0.00    -0.000 C 
BRANCH  25  26
ATOM     26  C   UNL     1      28.539  35.080  31.542  1.00  0.00    -0.000 C 
BRANCH  26  27
ATOM     27  C   UNL     1      28.022  35.214  30.102  1.00  0.00    -0.000 C 
BRANCH  27  28
ATOM     28  C   UNL     1      27.553  33.861  29.555  1.00  0.00    -0.000 C 
BRANCH  28  29
ATOM     29  C   UNL     1      26.302  33.373  30.294  1.00  0.00    -0.003 C 
ATOM     30  C   UNL     1      25.176  34.400  30.210  1.00  0.00     0.004 C 
ENDBRANCH  28  29
ENDBRANCH  27  28
ENDBRANCH  26  27
ENDBRANCH  25  26
ENDBRANCH  24  25
ENDBRANCH  23  24
ENDBRANCH  22  23
ENDBRANCH  21  22
ENDBRANCH  20  21
ENDBRANCH  19  20
ENDBRANCH  18  19
ENDBRANCH  17  18
ENDBRANCH   1  17
TORSDOF 26
ENDMDL
MODEL 9
REMARK VINA RESULT:    -5.415      7.536     12.635
REMARK INTER + INTRA:         -15.473
REMARK INTER:                 -11.757
REMARK INTRA:                  -3.715
REMARK UNBOUND:                -1.827
REMARK SMILES CCCCCCCCCCCCCCCCCCCCCCCCCCCC(=O)[O-]
REMARK SMILES IDX 15 1 16 2 17 3 18 4 19 5 20 6 21 7 22 8 23 9 24 10 25 11
REMARK SMILES IDX 26 12 27 13 28 14 29 15 30 16 14 17 13 18 12 19 11 20 10 21
REMARK SMILES IDX 9 22 8 23 7 24 6 25 5 26 4 27 3 28 2 29 1 30
REMARK H PARENT
REMARK Flexibility Score: inf
ROOT
ATOM      1  C   UNL     1      19.844  32.980  27.621  1.00  0.00     0.000 C 
ENDROOT
BRANCH   1   2
ATOM      2  C   UNL     1      19.305  31.995  28.678  1.00  0.00     0.000 C 
BRANCH   2   3
ATOM      3  C   UNL     1      20.160  31.875  29.955  1.00  0.00     0.000 C 
BRANCH   3   4
ATOM      4  C   UNL     1      20.772  30.482  30.203  1.00  0.00     0.000 C 
BRANCH   4   5
ATOM      5  C   UNL     1      20.771  29.550  28.978  1.00  0.00     0.000 C 
BRANCH   5   6
ATOM      6  C   UNL     1      22.093  29.598  28.194  1.00  0.00     0.000 C 
BRANCH   6   7
ATOM      7  C   UNL     1      23.288  30.006  29.073  1.00  0.00     0.000 C 
BRANCH   7   8
ATOM      8  C   UNL     1      24.099  31.206  28.545  1.00  0.00     0.000 C 
BRANCH   8   9
ATOM      9  C   UNL     1      23.576  32.592  28.975  1.00  0.00     0.000 C 
BRANCH   9  10
ATOM     10  C   UNL     1      24.582  33.453  29.759  1.00  0.00     0.000 C 
BRANCH  10  11
ATOM     11  C   UNL     1      26.034  32.987  29.577  1.00  0.00     0.000 C 
BRANCH  11  12
ATOM     12  C   UNL     1      27.018  34.019  30.148  1.00  0.00     0.006 C 
BRANCH  12  13
ATOM     13  C   UNL     1      26.303  35.245  30.729  1.00  0.00     0.053 C 
BRANCH  13  14
ATOM     14  C   UNL     1      27.260  36.175  31.410  1.00  0.00     0.041 C 
ATOM     15  O   UNL     1      28.466  35.845  31.559  1.00  0.00    -0.550 OA
ATOM     16  O   UNL     1      26.811  37.389  31.911  1.00  0.00    -0.550 OA
ENDBRANCH  13  14
ENDBRANCH  12  13
ENDBRANCH  11  12
ENDBRANCH  10  11
ENDBRANCH   9  10
ENDBRANCH   8   9
ENDBRANCH   7   8
ENDBRANCH   6   7
ENDBRANCH   5   6
ENDBRANCH   4   5
ENDBRANCH   3   4
ENDBRANCH   2   3
ENDBRANCH   1   2
BRANCH   1  17
ATOM     17  C   UNL     1      19.822  32.458  26.173  1.00  0.00     0.000 C 
BRANCH  17  18
ATOM     18  C   UNL     1      19.176  31.071  26.047  1.00  0.00     0.000 C 
BRANCH  18  19
ATOM     19  C   UNL     1      17.843  31.157  25.289  1.00  0.00     0.000 C 
BRANCH  19  20
ATOM     20  C   UNL     1      17.490  32.594  24.864  1.00  0.00     0.000 C 
BRANCH  20  21
ATOM     21  C   UNL     1      16.448  33.294  25.758  1.00  0.00     0.000 C 
BRANCH  21  22
ATOM     22  C   UNL     1      15.359  34.084  25.003  1.00  0.00    -0.000 C 
BRANCH  22  23
ATOM     23  C   UNL     1      14.184  33.242  24.474  1.00  0.00    -0.000 C 
BRANCH  23  24
ATOM     24  C   UNL     1      12.988  33.215  25.441  1.00  0.00    -0.000 C 
BRANCH  24  25
ATOM     25  C   UNL     1      13.095  34.273  26.552  1.00  0.00    -0.000 C 
BRANCH  25  26
ATOM     26  C   UNL     1      12.631  33.769  27.935  1.00  0.00    -0.000 C 
BRANCH  26  27
ATOM     27  C   UNL     1      13.252  32.411  28.294  1.00  0.00    -0.000 C 
BRANCH  27  28
ATOM     28  C   UNL     1      14.577  32.590  29.044  1.00  0.00    -0.000 C 
BRANCH  28  29
ATOM     29  C   UNL     1      15.538  31.433  28.746  1.00  0.00    -0.003 C 
ATOM     30  C   UNL     1      14.897  30.411  27.812  1.00  0.00     0.004 C 
ENDBRANCH  28  29
ENDBRANCH  27  28
ENDBRANCH  26  27
ENDBRANCH  25  26
ENDBRANCH  24  25
ENDBRANCH  23  24
ENDBRANCH  22  23
ENDBRANCH  21  22
ENDBRANCH  20  21
ENDBRANCH  19  20
ENDBRANCH  18  19
ENDBRANCH  17  18
ENDBRANCH   1  17
TORSDOF 26
ENDMDL
