MODEL 1
REMARK VINA RESULT:    -4.317      0.000      0.000
REMARK INTER + INTRA:          -5.105
REMARK INTER:                  -5.074
REMARK INTRA:                  -0.030
REMARK UNBOUND:                -0.030
REMARK SMILES CCCCC(=O)[O-]
REMARK SMILES IDX 4 1 5 2 6 3 7 4 3 5 2 6 1 7
REMARK H PARENT
REMARK Flexibility Score: inf
ROOT
ATOM      1  C   UNL     1      16.600  19.939  70.832  1.00  0.00     0.053 C 
ENDROOT
BRANCH   1   2
ATOM      2  C   UNL     1      16.471  18.467  70.597  1.00  0.00     0.041 C 
ATOM      3  O   UNL     1      16.147  18.034  69.459  1.00  0.00    -0.550 OA
ATOM      4  O   UNL     1      16.754  17.572  71.619  1.00  0.00    -0.550 OA
ENDBRANCH   1   2
BRANCH   1   5
ATOM      5  C   UNL     1      17.896  20.469  70.203  1.00  0.00     0.006 C 
BRANCH   5   6
ATOM      6  C   UNL     1      18.373  21.778  70.851  1.00  0.00    -0.003 C 
ATOM      7  C   UNL     1      17.305  22.427  71.728  1.00  0.00     0.004 C 
ENDBRANCH   5   6
ENDBRANCH   1   5
TORSDOF 3
ENDMDL
MODEL 2
REMARK VINA RESULT:    -4.085     18.653     19.170
REMARK INTER + INTRA:          -4.832
REMARK INTER:                  -4.814
REMARK INTRA:                  -0.018
REMARK UNBOUND:                -0.030
REMARK SMILES CCCCC(=O)[O-]
REMARK SMILES IDX 4 1 5 2 6 3 7 4 3 5 2 6 1 7
REMARK H PARENT
REMARK Flexibility Score: inf
ROOT
ATOM      1  C   UNL     1      10.908  28.351  55.054  1.00  0.00     0.053 C 
ENDROOT
BRANCH   1   2
ATOM      2  C   UNL     1      11.303  28.510  53.619  1.00  0.00     0.041 C 
ATOM      3  O   UNL     1      11.003  29.561  52.993  1.00  0.00    -0.550 OA
ATOM      4  O   UNL     1      12.043  27.520  52.988  1.00  0.00    -0.550 OA
ENDBRANCH   1   2
BRANCH   1   5
ATOM      5  C   UNL     1      11.113  29.668  55.814  1.00  0.00     0.006 C 
BRANCH   5   6
ATOM      6  C   UNL     1      10.974  29.499  57.334  1.00  0.00    -0.003 C 
ATOM      7  C   UNL     1      12.145  30.106  58.105  1.00  0.00     0.004 C 
ENDBRANCH   5   6
ENDBRANCH   1   5
TORSDOF 3
ENDMDL
MODEL 3
REMARK VINA RESULT:    -3.923      1.778      2.666
REMARK INTER + INTRA:          -4.642
REMARK INTER:                  -4.586
REMARK INTRA:                  -0.055
REMARK UNBOUND:                -0.030
REMARK SMILES CCCCC(=O)[O-]
REMARK SMILES IDX 4 1 5 2 6 3 7 4 3 5 2 6 1 7
REMARK H PARENT
REMARK Flexibility Score: inf
ROOT
ATOM      1  C   UNL     1      18.188  21.696  70.891  1.00  0.00     0.053 C 
ENDROOT
BRANCH   1   2
ATOM      2  C   UNL     1      17.409  20.495  70.457  1.00  0.00     0.041 C 
ATOM      3  O   UNL     1      16.419  20.106  71.131  1.00  0.00    -0.550 OA
ATOM      4  O   UNL     1      17.747  19.834  69.284  1.00  0.00    -0.550 OA
ENDBRANCH   1   2
BRANCH   1   5
ATOM      5  C   UNL     1      17.376  22.527  71.893  1.00  0.00     0.006 C 
BRANCH   5   6
ATOM      6  C   UNL     1      17.435  24.033  71.595  1.00  0.00    -0.003 C 
ATOM      7  C   UNL     1      18.245  24.356  70.341  1.00  0.00     0.004 C 
ENDBRANCH   5   6
ENDBRANCH   1   5
TORSDOF 3
ENDMDL
MODEL 4
REMARK VINA RESULT:    -3.895     18.667     19.219
REMARK INTER + INTRA:          -4.609
REMARK INTER:                  -4.580
REMARK INTRA:                  -0.029
REMARK UNBOUND:                -0.030
REMARK SMILES CCCCC(=O)[O-]
REMARK SMILES IDX 4 1 5 2 6 3 7 4 3 5 2 6 1 7
REMARK H PARENT
REMARK Flexibility Score: inf
ROOT
ATOM      1  C   UNL     1      10.920  28.243  55.014  1.00  0.00     0.053 C 
ENDROOT
BRANCH   1   2
ATOM      2  C   UNL     1      11.372  28.389  53.595  1.00  0.00     0.041 C 
ATOM      3  O   UNL     1      12.062  27.485  53.054  1.00  0.00    -0.550 OA
ATOM      4  O   UNL     1      10.991  29.500  52.855  1.00  0.00    -0.550 OA
ENDBRANCH   1   2
BRANCH   1   5
ATOM      5  C   UNL     1      11.100  29.564  55.772  1.00  0.00     0.006 C 
BRANCH   5   6
ATOM      6  C   UNL     1      10.532  29.508  57.198  1.00  0.00    -0.003 C 
ATOM      7  C   UNL     1      10.508  28.092  57.769  1.00  0.00     0.004 C 
ENDBRANCH   5   6
ENDBRANCH   1   5
TORSDOF 3
ENDMDL
MODEL 5
REMARK VINA RESULT:    -3.874     10.751     11.598
REMARK INTER + INTRA:          -4.583
REMARK INTER:                  -4.539
REMARK INTRA:                  -0.045
REMARK UNBOUND:                -0.030
REMARK SMILES CCCCC(=O)[O-]
REMARK SMILES IDX 4 1 5 2 6 3 7 4 3 5 2 6 1 7
REMARK H PARENT
REMARK Flexibility Score: inf
ROOT
ATOM      1  C   UNL     1      18.230  15.516  59.774  1.00  0.00     0.053 C 
ENDROOT
BRANCH   1   2
ATOM      2  C   UNL     1      17.906  16.480  58.677  1.00  0.00     0.041 C 
ATOM      3  O   UNL     1      18.228  16.218  57.488  1.00  0.00    -0.550 OA
ATOM      4  O   UNL     1      17.205  17.645  58.960  1.00  0.00    -0.550 OA
ENDBRANCH   1   2
BRANCH   1   5
ATOM      5  C   UNL     1      18.440  16.263  61.098  1.00  0.00     0.006 C 
BRANCH   5   6
ATOM      6  C   UNL     1      19.796  16.981  61.162  1.00  0.00    -0.003 C 
ATOM      7  C   UNL     1      20.211  17.332  62.590  1.00  0.00     0.004 C 
ENDBRANCH   5   6
ENDBRANCH   1   5
TORSDOF 3
ENDMDL
MODEL 6
REMARK VINA RESULT:    -3.738      9.271      9.993
REMARK INTER + INTRA:          -4.423
REMARK INTER:                  -4.386
REMARK INTRA:                  -0.038
REMARK UNBOUND:                -0.030
REMARK SMILES CCCCC(=O)[O-]
REMARK SMILES IDX 4 1 5 2 6 3 7 4 3 5 2 6 1 7
REMARK H PARENT
REMARK Flexibility Score: inf
ROOT
ATOM      1  C   UNL     1      13.610  13.062  63.577  1.00  0.00     0.053 C 
ENDROOT
BRANCH   1   2
ATOM      2  C   UNL     1      14.332  11.769  63.792  1.00  0.00     0.041 C 
ATOM      3  O   UNL     1      15.509  11.624  63.369  1.00  0.00    -0.550 OA
ATOM      4  O   UNL     1      13.724  10.743  64.502  1.00  0.00    -0.550 OA
ENDBRANCH   1   2
BRANCH   1   5
ATOM      5  C   UNL     1      13.797  13.987  64.786  1.00  0.00     0.006 C 
BRANCH   5   6
ATOM      6  C   UNL     1      13.709  15.474  64.411  1.00  0.00    -0.003 C 
ATOM      7  C   UNL     1      14.784  15.895  63.410  1.00  0.00     0.004 C 
ENDBRANCH   5   6
ENDBRANCH   1   5
TORSDOF 3
ENDMDL
MODEL 7
REMARK VINA RESULT:    -3.480      9.491     10.373
REMARK INTER + INTRA:          -4.121
REMARK INTER:                  -4.059
REMARK INTRA:                  -0.061
REMARK UNBOUND:                -0.030
REMARK SMILES CCCCC(=O)[O-]
REMARK SMILES IDX 4 1 5 2 6 3 7 4 3 5 2 6 1 7
REMARK H PARENT
REMARK Flexibility Score: inf
ROOT
ATOM      1  C   UNL     1      17.934  15.823  60.522  1.00  0.00     0.053 C 
ENDROOT
BRANCH   1   2
ATOM      2  C   UNL     1      16.615  16.215  61.111  1.00  0.00     0.041 C 
ATOM      3  O   UNL     1      16.177  15.623  62.132  1.00  0.00    -0.550 OA
ATOM      4  O   UNL     1      15.894  17.265  60.560  1.00  0.00    -0.550 OA
ENDBRANCH   1   2
BRANCH   1   5
ATOM      5  C   UNL     1      18.760  17.070  60.182  1.00  0.00     0.006 C 
BRANCH   5   6
ATOM      6  C   UNL     1      20.060  17.156  60.996  1.00  0.00    -0.003 C 
ATOM      7  C   UNL     1      19.814  17.490  62.466  1.00  0.00     0.004 C 
ENDBRANCH   5   6
ENDBRANCH   1   5
TORSDOF 3
ENDMDL
MODEL 8
REMARK VINA RESULT:    -3.424     10.023     10.930
REMARK INTER + INTRA:          -4.055
REMARK INTER:                  -3.993
REMARK INTRA:                  -0.062
REMARK UNBOUND:                -0.030
REMARK SMILES CCCCC(=O)[O-]
REMARK SMILES IDX 4 1 5 2 6 3 7 4 3 5 2 6 1 7
REMARK H PARENT
REMARK Flexibility Score: inf
ROOT
ATOM      1  C   UNL     1      18.531  16.370  61.366  1.00  0.00     0.053 C 
ENDROOT
BRANCH   1   2
ATOM      2  C   UNL     1      19.492  17.348  61.965  1.00  0.00     0.041 C 
ATOM      3  O   UNL     1      19.085  18.214  62.784  1.00  0.00    -0.550 OA
ATOM      4  O   UNL     1      20.843  17.274  61.655  1.00  0.00    -0.550 OA
ENDBRANCH   1   2
BRANCH   1   5
ATOM      5  C   UNL     1      18.927  16.049  59.919  1.00  0.00     0.006 C 
BRANCH   5   6
ATOM      6  C   UNL     1      17.866  16.499  58.903  1.00  0.00    -0.003 C 
ATOM      7  C   UNL     1      16.555  16.918  59.565  1.00  0.00     0.004 C 
ENDBRANCH   5   6
ENDBRANCH   1   5
TORSDOF 3
ENDMDL
MODEL 9
REMARK VINA RESULT:    -3.418     11.082     12.078
REMARK INTER + INTRA:          -4.048
REMARK INTER:                  -3.940
REMARK INTRA:                  -0.108
REMARK UNBOUND:                -0.030
REMARK SMILES CCCCC(=O)[O-]
REMARK SMILES IDX 4 1 5 2 6 3 7 4 3 5 2 6 1 7
REMARK H PARENT
REMARK Flexibility Score: inf
ROOT
ATOM      1  C   UNL     1      16.937  16.900  59.306  1.00  0.00     0.053 C 
ENDROOT
BRANCH   1   2
ATOM      2  C   UNL     1      18.031  16.087  58.688  1.00  0.00     0.041 C 
ATOM      3  O   UNL     1      18.223  16.125  57.444  1.00  0.00    -0.550 OA
ATOM      4  O   UNL     1      18.869  15.326  59.491  1.00  0.00    -0.550 OA
ENDBRANCH   1   2
BRANCH   1   5
ATOM      5  C   UNL     1      15.672  16.050  59.480  1.00  0.00     0.006 C 
BRANCH   5   6
ATOM      6  C   UNL     1      15.557  15.445  60.888  1.00  0.00    -0.003 C 
ATOM      7  C   UNL     1      16.115  16.365  61.972  1.00  0.00     0.004 C 
ENDBRANCH   5   6
ENDBRANCH   1   5
TORSDOF 3
ENDMDL
