MODEL 1
REMARK VINA RESULT:    -6.042      0.000      0.000
REMARK INTER + INTRA:          -6.800
REMARK INTER:                  -6.748
REMARK INTRA:                  -0.052
REMARK UNBOUND:                -0.052
REMARK SMILES COc1cc2ccc(=O)oc2c(O)c1O
REMARK SMILES IDX 3 1 14 2 12 3 11 4 5 5 4 6 6 7 7 8 8 9 9 10 10 11 2 12 1 13
REMARK SMILES IDX 15 14 13 16
REMARK H PARENT 15 15 13 17
REMARK Flexibility Score: inf
ROOT
ATOM      1  C   UNL     1     -31.130  -2.115 -19.999  1.00  0.00     0.165 A 
ATOM      2  C   UNL     1     -32.508  -2.141 -20.294  1.00  0.00     0.204 A 
ATOM      3  C   UNL     1     -33.411  -2.760 -19.409  1.00  0.00     0.205 A 
ATOM      4  C   UNL     1     -32.941  -3.352 -18.232  1.00  0.00     0.184 A 
ATOM      5  C   UNL     1     -31.563  -3.329 -17.932  1.00  0.00     0.025 A 
ATOM      6  C   UNL     1     -30.665  -2.713 -18.813  1.00  0.00     0.062 A 
ATOM      7  C   UNL     1     -31.126  -3.930 -16.748  1.00  0.00     0.020 A 
ATOM      8  C   UNL     1     -32.057  -4.532 -15.901  1.00  0.00     0.094 A 
ATOM      9  C   UNL     1     -33.408  -4.517 -16.261  1.00  0.00     0.336 A 
ATOM     10  O   UNL     1     -34.264  -5.054 -15.511  1.00  0.00    -0.246 OA
ATOM     11  O   UNL     1     -33.796  -3.938 -17.394  1.00  0.00    -0.419 OA
ENDROOT
BRANCH   1  12
ATOM     12  O   UNL     1     -30.258  -1.489 -20.904  1.00  0.00    -0.493 OA
ATOM     13  C   UNL     1     -28.913  -1.892 -21.143  1.00  0.00     0.278 C 
ENDBRANCH   1  12
BRANCH   2  14
ATOM     14  O   UNL     1     -32.994  -1.555 -21.464  1.00  0.00    -0.502 OA
ATOM     15  H   UNL     1     -33.957  -1.255 -21.562  1.00  0.00     0.293 HD
ENDBRANCH   2  14
BRANCH   3  16
ATOM     16  O   UNL     1     -34.777  -2.793 -19.688  1.00  0.00    -0.502 OA
ATOM     17  H   UNL     1     -35.409  -2.062 -19.382  1.00  0.00     0.293 HD
ENDBRANCH   3  16
TORSDOF 3
ENDMDL
MODEL 2
REMARK VINA RESULT:    -5.981      2.007      3.162
REMARK INTER + INTRA:          -6.732
REMARK INTER:                  -6.704
REMARK INTRA:                  -0.028
REMARK UNBOUND:                -0.052
REMARK SMILES COc1cc2ccc(=O)oc2c(O)c1O
REMARK SMILES IDX 3 1 14 2 12 3 11 4 5 5 4 6 6 7 7 8 8 9 9 10 10 11 2 12 1 13
REMARK SMILES IDX 15 14 13 16
REMARK H PARENT 15 15 13 17
REMARK Flexibility Score: inf
ROOT
ATOM      1  C   UNL     1     -32.065  -2.595 -19.054  1.00  0.00     0.165 A 
ATOM      2  C   UNL     1     -31.432  -3.155 -17.925  1.00  0.00     0.204 A 
ATOM      3  C   UNL     1     -32.104  -4.106 -17.134  1.00  0.00     0.205 A 
ATOM      4  C   UNL     1     -33.405  -4.500 -17.468  1.00  0.00     0.184 A 
ATOM      5  C   UNL     1     -34.042  -3.942 -18.597  1.00  0.00     0.025 A 
ATOM      6  C   UNL     1     -33.373  -2.996 -19.383  1.00  0.00     0.062 A 
ATOM      7  C   UNL     1     -35.342  -4.357 -18.902  1.00  0.00     0.020 A 
ATOM      8  C   UNL     1     -35.969  -5.302 -18.090  1.00  0.00     0.094 A 
ATOM      9  C   UNL     1     -35.277  -5.812 -16.987  1.00  0.00     0.336 A 
ATOM     10  O   UNL     1     -35.824  -6.665 -16.242  1.00  0.00    -0.246 OA
ATOM     11  O   UNL     1     -34.041  -5.400 -16.720  1.00  0.00    -0.419 OA
ENDROOT
BRANCH   1  12
ATOM     12  O   UNL     1     -31.365  -1.649 -19.820  1.00  0.00    -0.493 OA
ATOM     13  C   UNL     1     -30.448  -1.968 -20.861  1.00  0.00     0.278 C 
ENDBRANCH   1  12
BRANCH   2  14
ATOM     14  O   UNL     1     -30.134  -2.774 -17.578  1.00  0.00    -0.502 OA
ATOM     15  H   UNL     1     -29.371  -3.438 -17.518  1.00  0.00     0.293 HD
ENDBRANCH   2  14
BRANCH   3  16
ATOM     16  O   UNL     1     -31.490  -4.669 -16.015  1.00  0.00    -0.502 OA
ATOM     17  H   UNL     1     -30.518  -4.498 -15.789  1.00  0.00     0.293 HD
ENDBRANCH   3  16
TORSDOF 3
ENDMDL
MODEL 3
REMARK VINA RESULT:    -5.948      2.291      5.235
REMARK INTER + INTRA:          -6.694
REMARK INTER:                  -6.644
REMARK INTRA:                  -0.051
REMARK UNBOUND:                -0.052
REMARK SMILES COc1cc2ccc(=O)oc2c(O)c1O
REMARK SMILES IDX 3 1 14 2 12 3 11 4 5 5 4 6 6 7 7 8 8 9 9 10 10 11 2 12 1 13
REMARK SMILES IDX 15 14 13 16
REMARK H PARENT 15 15 13 17
REMARK Flexibility Score: inf
ROOT
ATOM      1  C   UNL     1     -35.672  -5.764 -16.923  1.00  0.00     0.165 A 
ATOM      2  C   UNL     1     -36.139  -4.937 -17.965  1.00  0.00     0.204 A 
ATOM      3  C   UNL     1     -35.279  -3.999 -18.566  1.00  0.00     0.205 A 
ATOM      4  C   UNL     1     -33.954  -3.886 -18.130  1.00  0.00     0.184 A 
ATOM      5  C   UNL     1     -33.482  -4.711 -17.088  1.00  0.00     0.025 A 
ATOM      6  C   UNL     1     -34.338  -5.644 -16.490  1.00  0.00     0.062 A 
ATOM      7  C   UNL     1     -32.153  -4.571 -16.676  1.00  0.00     0.020 A 
ATOM      8  C   UNL     1     -31.337  -3.629 -17.302  1.00  0.00     0.094 A 
ATOM      9  C   UNL     1     -31.872  -2.844 -18.328  1.00  0.00     0.336 A 
ATOM     10  O   UNL     1     -31.152  -1.989 -18.905  1.00  0.00    -0.246 OA
ATOM     11  O   UNL     1     -33.140  -2.998 -18.700  1.00  0.00    -0.419 OA
ENDROOT
BRANCH   1  12
ATOM     12  O   UNL     1     -36.557  -6.688 -16.346  1.00  0.00    -0.493 OA
ATOM     13  C   UNL     1     -36.476  -7.158 -15.004  1.00  0.00     0.278 C 
ENDBRANCH   1  12
BRANCH   2  14
ATOM     14  O   UNL     1     -37.458  -5.038 -18.412  1.00  0.00    -0.502 OA
ATOM     15  H   UNL     1     -38.241  -4.683 -17.876  1.00  0.00     0.293 HD
ENDBRANCH   2  14
BRANCH   3  16
ATOM     16  O   UNL     1     -35.728  -3.175 -19.598  1.00  0.00    -0.502 OA
ATOM     17  H   UNL     1     -35.421  -2.215 -19.696  1.00  0.00     0.293 HD
ENDBRANCH   3  16
TORSDOF 3
ENDMDL
MODEL 4
REMARK VINA RESULT:    -5.894      1.351      4.843
REMARK INTER + INTRA:          -6.634
REMARK INTER:                  -6.693
REMARK INTRA:                   0.058
REMARK UNBOUND:                -0.052
REMARK SMILES COc1cc2ccc(=O)oc2c(O)c1O
REMARK SMILES IDX 3 1 14 2 12 3 11 4 5 5 4 6 6 7 7 8 8 9 9 10 10 11 2 12 1 13
REMARK SMILES IDX 15 14 13 16
REMARK H PARENT 15 15 13 17
REMARK Flexibility Score: inf
ROOT
ATOM      1  C   UNL     1     -33.899  -4.384 -16.191  1.00  0.00     0.165 A 
ATOM      2  C   UNL     1     -34.703  -3.877 -17.233  1.00  0.00     0.204 A 
ATOM      3  C   UNL     1     -34.110  -3.247 -18.343  1.00  0.00     0.205 A 
ATOM      4  C   UNL     1     -32.719  -3.123 -18.416  1.00  0.00     0.184 A 
ATOM      5  C   UNL     1     -31.910  -3.628 -17.377  1.00  0.00     0.025 A 
ATOM      6  C   UNL     1     -32.500  -4.255 -16.272  1.00  0.00     0.062 A 
ATOM      7  C   UNL     1     -30.523  -3.488 -17.481  1.00  0.00     0.020 A 
ATOM      8  C   UNL     1     -29.980  -2.857 -18.600  1.00  0.00     0.094 A 
ATOM      9  C   UNL     1     -30.842  -2.379 -19.592  1.00  0.00     0.336 A 
ATOM     10  O   UNL     1     -30.372  -1.808 -20.610  1.00  0.00    -0.246 OA
ATOM     11  O   UNL     1     -32.158  -2.527 -19.468  1.00  0.00    -0.419 OA
ENDROOT
BRANCH   1  12
ATOM     12  O   UNL     1     -34.524  -5.005 -15.098  1.00  0.00    -0.493 OA
ATOM     13  C   UNL     1     -35.240  -4.318 -14.076  1.00  0.00     0.278 C 
ENDBRANCH   1  12
BRANCH   2  14
ATOM     14  O   UNL     1     -36.093  -3.992 -17.175  1.00  0.00    -0.502 OA
ATOM     15  H   UNL     1     -36.684  -3.839 -17.984  1.00  0.00     0.293 HD
ENDBRANCH   2  14
BRANCH   3  16
ATOM     16  O   UNL     1     -34.893  -2.741 -19.381  1.00  0.00    -0.502 OA
ATOM     17  H   UNL     1     -34.928  -1.753 -19.600  1.00  0.00     0.293 HD
ENDBRANCH   3  16
TORSDOF 3
ENDMDL
MODEL 5
REMARK VINA RESULT:    -5.874      5.533      8.200
REMARK INTER + INTRA:          -6.612
REMARK INTER:                  -6.547
REMARK INTRA:                  -0.065
REMARK UNBOUND:                -0.052
REMARK SMILES COc1cc2ccc(=O)oc2c(O)c1O
REMARK SMILES IDX 3 1 14 2 12 3 11 4 5 5 4 6 6 7 7 8 8 9 9 10 10 11 2 12 1 13
REMARK SMILES IDX 15 14 13 16
REMARK H PARENT 15 15 13 17
REMARK Flexibility Score: inf
ROOT
ATOM      1  C   UNL     1     -36.066  -4.986 -13.910  1.00  0.00     0.165 A 
ATOM      2  C   UNL     1     -37.269  -4.276 -13.724  1.00  0.00     0.204 A 
ATOM      3  C   UNL     1     -38.484  -4.968 -13.563  1.00  0.00     0.205 A 
ATOM      4  C   UNL     1     -38.500  -6.367 -13.587  1.00  0.00     0.184 A 
ATOM      5  C   UNL     1     -37.299  -7.083 -13.773  1.00  0.00     0.025 A 
ATOM      6  C   UNL     1     -36.090  -6.394 -13.934  1.00  0.00     0.062 A 
ATOM      7  C   UNL     1     -37.350  -8.480 -13.793  1.00  0.00     0.020 A 
ATOM      8  C   UNL     1     -38.576  -9.124 -13.629  1.00  0.00     0.094 A 
ATOM      9  C   UNL     1     -39.727  -8.350 -13.449  1.00  0.00     0.336 A 
ATOM     10  O   UNL     1     -40.843  -8.912 -13.300  1.00  0.00    -0.246 OA
ATOM     11  O   UNL     1     -39.650  -7.023 -13.435  1.00  0.00    -0.419 OA
ENDROOT
BRANCH   1  12
ATOM     12  O   UNL     1     -34.873  -4.263 -14.068  1.00  0.00    -0.493 OA
ATOM     13  C   UNL     1     -34.090  -4.243 -15.257  1.00  0.00     0.278 C 
ENDBRANCH   1  12
BRANCH   2  14
ATOM     14  O   UNL     1     -37.271  -2.880 -13.697  1.00  0.00    -0.502 OA
ATOM     15  H   UNL     1     -37.894  -2.327 -14.274  1.00  0.00     0.293 HD
ENDBRANCH   2  14
BRANCH   3  16
ATOM     16  O   UNL     1     -39.682  -4.278 -13.377  1.00  0.00    -0.502 OA
ATOM     17  H   UNL     1     -39.712  -3.277 -13.226  1.00  0.00     0.293 HD
ENDBRANCH   3  16
TORSDOF 3
ENDMDL
MODEL 6
REMARK VINA RESULT:    -5.851      2.363      3.355
REMARK INTER + INTRA:          -6.587
REMARK INTER:                  -6.538
REMARK INTRA:                  -0.049
REMARK UNBOUND:                -0.052
REMARK SMILES COc1cc2ccc(=O)oc2c(O)c1O
REMARK SMILES IDX 3 1 14 2 12 3 11 4 5 5 4 6 6 7 7 8 8 9 9 10 10 11 2 12 1 13
REMARK SMILES IDX 15 14 13 16
REMARK H PARENT 15 15 13 17
REMARK Flexibility Score: inf
ROOT
ATOM      1  C   UNL     1     -32.945  -3.429 -18.001  1.00  0.00     0.165 A 
ATOM      2  C   UNL     1     -33.941  -3.150 -18.959  1.00  0.00     0.204 A 
ATOM      3  C   UNL     1     -35.232  -3.693 -18.818  1.00  0.00     0.205 A 
ATOM      4  C   UNL     1     -35.531  -4.512 -17.723  1.00  0.00     0.184 A 
ATOM      5  C   UNL     1     -34.537  -4.794 -16.762  1.00  0.00     0.025 A 
ATOM      6  C   UNL     1     -33.253  -4.254 -16.903  1.00  0.00     0.062 A 
ATOM      7  C   UNL     1     -34.868  -5.617 -15.681  1.00  0.00     0.020 A 
ATOM      8  C   UNL     1     -36.161  -6.131 -15.582  1.00  0.00     0.094 A 
ATOM      9  C   UNL     1     -37.095  -5.810 -16.572  1.00  0.00     0.336 A 
ATOM     10  O   UNL     1     -38.266  -6.265 -16.500  1.00  0.00    -0.246 OA
ATOM     11  O   UNL     1     -36.753  -5.025 -17.589  1.00  0.00    -0.419 OA
ENDROOT
BRANCH   1  12
ATOM     12  O   UNL     1     -31.668  -2.871 -18.173  1.00  0.00    -0.493 OA
ATOM     13  C   UNL     1     -30.556  -3.114 -17.317  1.00  0.00     0.278 C 
ENDBRANCH   1  12
BRANCH   2  14
ATOM     14  O   UNL     1     -33.660  -2.334 -20.056  1.00  0.00    -0.502 OA
ATOM     15  H   UNL     1     -33.311  -1.389 -19.954  1.00  0.00     0.293 HD
ENDBRANCH   2  14
BRANCH   3  16
ATOM     16  O   UNL     1     -36.228  -3.425 -19.757  1.00  0.00    -0.502 OA
ATOM     17  H   UNL     1     -36.875  -4.135 -20.077  1.00  0.00     0.293 HD
ENDBRANCH   3  16
TORSDOF 3
ENDMDL
MODEL 7
REMARK VINA RESULT:    -5.803      4.875      6.893
REMARK INTER + INTRA:          -6.533
REMARK INTER:                  -6.470
REMARK INTRA:                  -0.063
REMARK UNBOUND:                -0.052
REMARK SMILES COc1cc2ccc(=O)oc2c(O)c1O
REMARK SMILES IDX 3 1 14 2 12 3 11 4 5 5 4 6 6 7 7 8 8 9 9 10 10 11 2 12 1 13
REMARK SMILES IDX 15 14 13 16
REMARK H PARENT 15 15 13 17
REMARK Flexibility Score: inf
ROOT
ATOM      1  C   UNL     1     -35.671  -5.880 -16.635  1.00  0.00     0.165 A 
ATOM      2  C   UNL     1     -36.918  -5.361 -17.038  1.00  0.00     0.204 A 
ATOM      3  C   UNL     1     -38.106  -5.832 -16.447  1.00  0.00     0.205 A 
ATOM      4  C   UNL     1     -38.052  -6.818 -15.456  1.00  0.00     0.184 A 
ATOM      5  C   UNL     1     -36.806  -7.341 -15.050  1.00  0.00     0.025 A 
ATOM      6  C   UNL     1     -35.624  -6.873 -15.637  1.00  0.00     0.062 A 
ATOM      7  C   UNL     1     -36.787  -8.326 -14.058  1.00  0.00     0.020 A 
ATOM      8  C   UNL     1     -37.989  -8.761 -13.501  1.00  0.00     0.094 A 
ATOM      9  C   UNL     1     -39.187  -8.199 -13.952  1.00  0.00     0.336 A 
ATOM     10  O   UNL     1     -40.282  -8.578 -13.462  1.00  0.00    -0.246 OA
ATOM     11  O   UNL     1     -39.176  -7.263 -14.897  1.00  0.00    -0.419 OA
ENDROOT
BRANCH   1  12
ATOM     12  O   UNL     1     -34.506  -5.388 -17.245  1.00  0.00    -0.493 OA
ATOM     13  C   UNL     1     -33.442  -4.741 -16.555  1.00  0.00     0.278 C 
ENDBRANCH   1  12
BRANCH   2  14
ATOM     14  O   UNL     1     -36.991  -4.376 -18.025  1.00  0.00    -0.502 OA
ATOM     15  H   UNL     1     -36.645  -3.435 -17.878  1.00  0.00     0.293 HD
ENDBRANCH   2  14
BRANCH   3  16
ATOM     16  O   UNL     1     -39.347  -5.326 -16.836  1.00  0.00    -0.502 OA
ATOM     17  H   UNL     1     -39.609  -5.223 -17.809  1.00  0.00     0.293 HD
ENDBRANCH   3  16
TORSDOF 3
ENDMDL
MODEL 8
REMARK VINA RESULT:    -5.770      7.373      9.006
REMARK INTER + INTRA:          -6.496
REMARK INTER:                  -6.432
REMARK INTRA:                  -0.064
REMARK UNBOUND:                -0.052
REMARK SMILES COc1cc2ccc(=O)oc2c(O)c1O
REMARK SMILES IDX 3 1 14 2 12 3 11 4 5 5 4 6 6 7 7 8 8 9 9 10 10 11 2 12 1 13
REMARK SMILES IDX 15 14 13 16
REMARK H PARENT 15 15 13 17
REMARK Flexibility Score: inf
ROOT
ATOM      1  C   UNL     1     -37.169  -3.616 -12.375  1.00  0.00     0.165 A 
ATOM      2  C   UNL     1     -36.260  -4.504 -12.986  1.00  0.00     0.204 A 
ATOM      3  C   UNL     1     -36.695  -5.763 -13.441  1.00  0.00     0.205 A 
ATOM      4  C   UNL     1     -38.035  -6.137 -13.289  1.00  0.00     0.184 A 
ATOM      5  C   UNL     1     -38.948  -5.252 -12.678  1.00  0.00     0.025 A 
ATOM      6  C   UNL     1     -38.515  -4.000 -12.225  1.00  0.00     0.062 A 
ATOM      7  C   UNL     1     -40.280  -5.658 -12.540  1.00  0.00     0.020 A 
ATOM      8  C   UNL     1     -40.666  -6.914 -13.007  1.00  0.00     0.094 A 
ATOM      9  C   UNL     1     -39.706  -7.739 -13.602  1.00  0.00     0.336 A 
ATOM     10  O   UNL     1     -40.034  -8.876 -14.030  1.00  0.00    -0.246 OA
ATOM     11  O   UNL     1     -38.446  -7.328 -13.720  1.00  0.00    -0.419 OA
ENDROOT
BRANCH   1  12
ATOM     12  O   UNL     1     -36.701  -2.369 -11.932  1.00  0.00    -0.493 OA
ATOM     13  C   UNL     1     -37.139  -1.113 -12.440  1.00  0.00     0.278 C 
ENDBRANCH   1  12
BRANCH   2  14
ATOM     14  O   UNL     1     -34.920  -4.146 -13.147  1.00  0.00    -0.502 OA
ATOM     15  H   UNL     1     -34.480  -3.426 -12.586  1.00  0.00     0.293 HD
ENDBRANCH   2  14
BRANCH   3  16
ATOM     16  O   UNL     1     -35.807  -6.650 -14.049  1.00  0.00    -0.502 OA
ATOM     17  H   UNL     1     -35.653  -6.661 -15.050  1.00  0.00     0.293 HD
ENDBRANCH   3  16
TORSDOF 3
ENDMDL
MODEL 9
REMARK VINA RESULT:    -5.706      3.059      6.318
REMARK INTER + INTRA:          -6.424
REMARK INTER:                  -6.376
REMARK INTRA:                  -0.049
REMARK UNBOUND:                -0.052
REMARK SMILES COc1cc2ccc(=O)oc2c(O)c1O
REMARK SMILES IDX 3 1 14 2 12 3 11 4 5 5 4 6 6 7 7 8 8 9 9 10 10 11 2 12 1 13
REMARK SMILES IDX 15 14 13 16
REMARK H PARENT 15 15 13 17
REMARK Flexibility Score: inf
ROOT
ATOM      1  C   UNL     1     -36.606  -6.175 -15.539  1.00  0.00     0.165 A 
ATOM      2  C   UNL     1     -37.383  -5.813 -16.658  1.00  0.00     0.204 A 
ATOM      3  C   UNL     1     -36.809  -5.079 -17.713  1.00  0.00     0.205 A 
ATOM      4  C   UNL     1     -35.461  -4.708 -17.655  1.00  0.00     0.184 A 
ATOM      5  C   UNL     1     -34.679  -5.068 -16.538  1.00  0.00     0.025 A 
ATOM      6  C   UNL     1     -35.250  -5.797 -15.487  1.00  0.00     0.062 A 
ATOM      7  C   UNL     1     -33.336  -4.680 -16.510  1.00  0.00     0.020 A 
ATOM      8  C   UNL     1     -32.810  -3.955 -17.579  1.00  0.00     0.094 A 
ATOM      9  C   UNL     1     -33.644  -3.633 -18.654  1.00  0.00     0.336 A 
ATOM     10  O   UNL     1     -33.188  -2.979 -19.628  1.00  0.00    -0.246 OA
ATOM     11  O   UNL     1     -34.918  -4.014 -18.654  1.00  0.00    -0.419 OA
ENDROOT
BRANCH   1  12
ATOM     12  O   UNL     1     -37.211  -6.905 -14.505  1.00  0.00    -0.493 OA
ATOM     13  C   UNL     1     -36.511  -7.502 -13.417  1.00  0.00     0.278 C 
ENDBRANCH   1  12
BRANCH   2  14
ATOM     14  O   UNL     1     -38.729  -6.176 -16.733  1.00  0.00    -0.502 OA
ATOM     15  H   UNL     1     -39.059  -6.917 -17.340  1.00  0.00     0.293 HD
ENDBRANCH   2  14
BRANCH   3  16
ATOM     16  O   UNL     1     -37.567  -4.715 -18.827  1.00  0.00    -0.502 OA
ATOM     17  H   UNL     1     -38.400  -4.144 -18.751  1.00  0.00     0.293 HD
ENDBRANCH   3  16
TORSDOF 3
ENDMDL
