MODEL 1
REMARK VINA RESULT:    -4.711      0.000      0.000
REMARK INTER + INTRA:          -7.529
REMARK INTER:                  -7.190
REMARK INTRA:                  -0.340
REMARK UNBOUND:                -0.340
REMARK SMILES CCCCCCCCCCC(=O)[O-]
REMARK SMILES IDX 7 1 8 2 9 3 10 4 11 5 12 6 13 7 6 8 5 9 4 10 3 11 2 12 1 13
REMARK H PARENT
REMARK Flexibility Score: inf
ROOT
ATOM      1  C   UNL     1      -9.730  -2.174  -8.958  1.00  0.00     0.000 C 
ENDROOT
BRANCH   1   2
ATOM      2  C   UNL     1     -10.171  -1.244 -10.110  1.00  0.00     0.000 C 
BRANCH   2   3
ATOM      3  C   UNL     1     -11.273  -0.247  -9.706  1.00  0.00     0.006 C 
BRANCH   3   4
ATOM      4  C   UNL     1     -10.816   1.218  -9.695  1.00  0.00     0.053 C 
BRANCH   4   5
ATOM      5  C   UNL     1     -11.976   2.165  -9.614  1.00  0.00     0.041 C 
ATOM      6  O   UNL     1     -13.153   1.719  -9.572  1.00  0.00    -0.550 OA
ATOM      7  O   UNL     1     -11.761   3.536  -9.602  1.00  0.00    -0.550 OA
ENDBRANCH   4   5
ENDBRANCH   3   4
ENDBRANCH   2   3
ENDBRANCH   1   2
BRANCH   1   8
ATOM      8  C   UNL     1      -9.373  -3.585  -9.456  1.00  0.00     0.000 C 
BRANCH   8   9
ATOM      9  C   UNL     1     -10.612  -4.430  -9.807  1.00  0.00    -0.000 C 
BRANCH   9  10
ATOM     10  C   UNL     1     -10.850  -5.642  -8.890  1.00  0.00    -0.000 C 
BRANCH  10  11
ATOM     11  C   UNL     1     -10.058  -5.560  -7.573  1.00  0.00    -0.000 C 
BRANCH  11  12
ATOM     12  C   UNL     1     -10.651  -6.452  -6.473  1.00  0.00    -0.003 C 
ATOM     13  C   UNL     1     -10.239  -6.009  -5.069  1.00  0.00     0.004 C 
ENDBRANCH  11  12
ENDBRANCH  10  11
ENDBRANCH   9  10
ENDBRANCH   8   9
ENDBRANCH   1   8
TORSDOF 9
ENDMDL
MODEL 2
REMARK VINA RESULT:    -4.701     15.982     17.295
REMARK INTER + INTRA:          -7.515
REMARK INTER:                  -6.357
REMARK INTRA:                  -1.157
REMARK UNBOUND:                -0.340
REMARK SMILES CCCCCCCCCCC(=O)[O-]
REMARK SMILES IDX 7 1 8 2 9 3 10 4 11 5 12 6 13 7 6 8 5 9 4 10 3 11 2 12 1 13
REMARK H PARENT
REMARK Flexibility Score: inf
ROOT
ATOM      1  C   UNL     1     -13.480   4.657   4.966  1.00  0.00     0.000 C 
ENDROOT
BRANCH   1   2
ATOM      2  C   UNL     1     -13.592   6.138   5.394  1.00  0.00     0.000 C 
BRANCH   2   3
ATOM      3  C   UNL     1     -12.442   6.601   6.307  1.00  0.00     0.006 C 
BRANCH   3   4
ATOM      4  C   UNL     1     -11.178   7.033   5.550  1.00  0.00     0.053 C 
BRANCH   4   5
ATOM      5  C   UNL     1     -10.102   5.992   5.619  1.00  0.00     0.041 C 
ATOM      6  O   UNL     1      -9.348   5.929   6.626  1.00  0.00    -0.550 OA
ATOM      7  O   UNL     1      -9.919   5.104   4.568  1.00  0.00    -0.550 OA
ENDBRANCH   4   5
ENDBRANCH   3   4
ENDBRANCH   2   3
ENDBRANCH   1   2
BRANCH   1   8
ATOM      8  C   UNL     1     -13.424   3.707   6.174  1.00  0.00     0.000 C 
BRANCH   8   9
ATOM      9  C   UNL     1     -12.146   2.848   6.203  1.00  0.00    -0.000 C 
BRANCH   9  10
ATOM     10  C   UNL     1     -11.295   2.997   7.477  1.00  0.00    -0.000 C 
BRANCH  10  11
ATOM     11  C   UNL     1     -12.049   2.581   8.752  1.00  0.00    -0.000 C 
BRANCH  11  12
ATOM     12  C   UNL     1     -12.009   3.666   9.839  1.00  0.00    -0.003 C 
ATOM     13  C   UNL     1     -11.226   4.905   9.406  1.00  0.00     0.004 C 
ENDBRANCH  11  12
ENDBRANCH  10  11
ENDBRANCH   9  10
ENDBRANCH   8   9
ENDBRANCH   1   8
TORSDOF 9
ENDMDL
MODEL 3
REMARK VINA RESULT:    -4.683     15.876     17.173
REMARK INTER + INTRA:          -7.487
REMARK INTER:                  -6.669
REMARK INTRA:                  -0.818
REMARK UNBOUND:                -0.340
REMARK SMILES CCCCCCCCCCC(=O)[O-]
REMARK SMILES IDX 7 1 8 2 9 3 10 4 11 5 12 6 13 7 6 8 5 9 4 10 3 11 2 12 1 13
REMARK H PARENT
REMARK Flexibility Score: inf
ROOT
ATOM      1  C   UNL     1      -9.942   5.217   6.343  1.00  0.00     0.000 C 
ENDROOT
BRANCH   1   2
ATOM      2  C   UNL     1     -10.442   6.540   5.722  1.00  0.00     0.000 C 
BRANCH   2   3
ATOM      3  C   UNL     1      -9.368   7.275   4.898  1.00  0.00     0.006 C 
BRANCH   3   4
ATOM      4  C   UNL     1      -9.537   8.800   4.871  1.00  0.00     0.053 C 
BRANCH   4   5
ATOM      5  C   UNL     1      -8.371   9.503   5.499  1.00  0.00     0.041 C 
ATOM      6  O   UNL     1      -7.567  10.156   4.784  1.00  0.00    -0.550 OA
ATOM      7  O   UNL     1      -8.162   9.424   6.869  1.00  0.00    -0.550 OA
ENDBRANCH   4   5
ENDBRANCH   3   4
ENDBRANCH   2   3
ENDBRANCH   1   2
BRANCH   1   8
ATOM      8  C   UNL     1     -10.864   4.718   7.467  1.00  0.00     0.000 C 
BRANCH   8   9
ATOM      9  C   UNL     1     -11.200   3.219   7.348  1.00  0.00    -0.000 C 
BRANCH   9  10
ATOM     10  C   UNL     1     -12.458   2.902   6.520  1.00  0.00    -0.000 C 
BRANCH  10  11
ATOM     11  C   UNL     1     -13.399   4.111   6.375  1.00  0.00    -0.000 C 
BRANCH  11  12
ATOM     12  C   UNL     1     -13.548   4.569   4.917  1.00  0.00    -0.003 C 
ATOM     13  C   UNL     1     -12.635   3.801   3.962  1.00  0.00     0.004 C 
ENDBRANCH  11  12
ENDBRANCH  10  11
ENDBRANCH   9  10
ENDBRANCH   8   9
ENDBRANCH   1   8
TORSDOF 9
ENDMDL
MODEL 4
REMARK VINA RESULT:    -4.593     15.818     17.728
REMARK INTER + INTRA:          -7.350
REMARK INTER:                  -6.857
REMARK INTRA:                  -0.493
REMARK UNBOUND:                -0.340
REMARK SMILES CCCCCCCCCCC(=O)[O-]
REMARK SMILES IDX 7 1 8 2 9 3 10 4 11 5 12 6 13 7 6 8 5 9 4 10 3 11 2 12 1 13
REMARK H PARENT
REMARK Flexibility Score: inf
ROOT
ATOM      1  C   UNL     1      -9.836   5.279   6.401  1.00  0.00     0.000 C 
ENDROOT
BRANCH   1   2
ATOM      2  C   UNL     1     -10.892   4.623   7.318  1.00  0.00     0.000 C 
BRANCH   2   3
ATOM      3  C   UNL     1     -11.414   3.275   6.786  1.00  0.00     0.006 C 
BRANCH   3   4
ATOM      4  C   UNL     1     -12.740   3.377   6.020  1.00  0.00     0.053 C 
BRANCH   4   5
ATOM      5  C   UNL     1     -12.523   3.610   4.555  1.00  0.00     0.041 C 
ATOM      6  O   UNL     1     -11.469   3.202   4.000  1.00  0.00    -0.550 OA
ATOM      7  O   UNL     1     -13.473   4.291   3.806  1.00  0.00    -0.550 OA
ENDBRANCH   4   5
ENDBRANCH   3   4
ENDBRANCH   2   3
ENDBRANCH   1   2
BRANCH   1   8
ATOM      8  C   UNL     1     -10.408   6.469   5.614  1.00  0.00     0.000 C 
BRANCH   8   9
ATOM      9  C   UNL     1      -9.342   7.524   5.260  1.00  0.00    -0.000 C 
BRANCH   9  10
ATOM     10  C   UNL     1      -9.866   8.969   5.173  1.00  0.00    -0.000 C 
BRANCH  10  11
ATOM     11  C   UNL     1      -8.738  10.016   5.196  1.00  0.00    -0.000 C 
BRANCH  11  12
ATOM     12  C   UNL     1      -7.390   9.419   5.628  1.00  0.00    -0.003 C 
ATOM     13  C   UNL     1      -6.380  10.487   6.046  1.00  0.00     0.004 C 
ENDBRANCH  11  12
ENDBRANCH  10  11
ENDBRANCH   9  10
ENDBRANCH   8   9
ENDBRANCH   1   8
TORSDOF 9
ENDMDL
MODEL 5
REMARK VINA RESULT:    -4.518     16.678     17.842
REMARK INTER + INTRA:          -7.234
REMARK INTER:                  -6.714
REMARK INTRA:                  -0.520
REMARK UNBOUND:                -0.340
REMARK SMILES CCCCCCCCCCC(=O)[O-]
REMARK SMILES IDX 7 1 8 2 9 3 10 4 11 5 12 6 13 7 6 8 5 9 4 10 3 11 2 12 1 13
REMARK H PARENT
REMARK Flexibility Score: inf
ROOT
ATOM      1  C   UNL     1      -9.702   6.242   6.004  1.00  0.00     0.000 C 
ENDROOT
BRANCH   1   2
ATOM      2  C   UNL     1      -9.345   7.510   5.197  1.00  0.00     0.000 C 
BRANCH   2   3
ATOM      3  C   UNL     1      -8.584   8.567   6.020  1.00  0.00     0.006 C 
BRANCH   3   4
ATOM      4  C   UNL     1      -7.841   9.605   5.168  1.00  0.00     0.053 C 
BRANCH   4   5
ATOM      5  C   UNL     1      -6.985  10.506   6.006  1.00  0.00     0.041 C 
ATOM      6  O   UNL     1      -5.736  10.516   5.849  1.00  0.00    -0.550 OA
ATOM      7  O   UNL     1      -7.562  11.321   6.970  1.00  0.00    -0.550 OA
ENDBRANCH   4   5
ENDBRANCH   3   4
ENDBRANCH   2   3
ENDBRANCH   1   2
BRANCH   1   8
ATOM      8  C   UNL     1     -10.251   5.120   5.108  1.00  0.00     0.000 C 
BRANCH   8   9
ATOM      9  C   UNL     1     -11.753   4.855   5.329  1.00  0.00    -0.000 C 
BRANCH   9  10
ATOM     10  C   UNL     1     -12.091   3.454   5.867  1.00  0.00    -0.000 C 
BRANCH  10  11
ATOM     11  C   UNL     1     -11.270   3.078   7.113  1.00  0.00    -0.000 C 
BRANCH  11  12
ATOM     12  C   UNL     1     -11.929   3.550   8.417  1.00  0.00    -0.003 C 
ATOM     13  C   UNL     1     -11.204   4.738   9.048  1.00  0.00     0.004 C 
ENDBRANCH  11  12
ENDBRANCH  10  11
ENDBRANCH   9  10
ENDBRANCH   8   9
ENDBRANCH   1   8
TORSDOF 9
ENDMDL
MODEL 6
REMARK VINA RESULT:    -4.514     16.462     17.729
REMARK INTER + INTRA:          -7.228
REMARK INTER:                  -6.645
REMARK INTRA:                  -0.583
REMARK UNBOUND:                -0.340
REMARK SMILES CCCCCCCCCCC(=O)[O-]
REMARK SMILES IDX 7 1 8 2 9 3 10 4 11 5 12 6 13 7 6 8 5 9 4 10 3 11 2 12 1 13
REMARK H PARENT
REMARK Flexibility Score: inf
ROOT
ATOM      1  C   UNL     1     -10.453   6.382   5.555  1.00  0.00     0.000 C 
ENDROOT
BRANCH   1   2
ATOM      2  C   UNL     1      -9.393   7.310   4.922  1.00  0.00     0.000 C 
BRANCH   2   3
ATOM      3  C   UNL     1      -8.852   8.376   5.893  1.00  0.00     0.006 C 
BRANCH   3   4
ATOM      4  C   UNL     1      -7.880   9.372   5.247  1.00  0.00     0.053 C 
BRANCH   4   5
ATOM      5  C   UNL     1      -7.174  10.209   6.272  1.00  0.00     0.041 C 
ATOM      6  O   UNL     1      -6.038  10.689   6.021  1.00  0.00    -0.550 OA
ATOM      7  O   UNL     1      -7.760  10.442   7.509  1.00  0.00    -0.550 OA
ENDBRANCH   4   5
ENDBRANCH   3   4
ENDBRANCH   2   3
ENDBRANCH   1   2
BRANCH   1   8
ATOM      8  C   UNL     1      -9.837   5.406   6.571  1.00  0.00     0.000 C 
BRANCH   8   9
ATOM      9  C   UNL     1     -10.874   4.825   7.551  1.00  0.00    -0.000 C 
BRANCH   9  10
ATOM     10  C   UNL     1     -11.301   3.376   7.258  1.00  0.00    -0.000 C 
BRANCH  10  11
ATOM     11  C   UNL     1     -12.716   3.279   6.661  1.00  0.00    -0.000 C 
BRANCH  11  12
ATOM     12  C   UNL     1     -12.720   3.420   5.132  1.00  0.00    -0.003 C 
ATOM     13  C   UNL     1     -13.578   4.589   4.651  1.00  0.00     0.004 C 
ENDBRANCH  11  12
ENDBRANCH  10  11
ENDBRANCH   9  10
ENDBRANCH   8   9
ENDBRANCH   1   8
TORSDOF 9
ENDMDL
MODEL 7
REMARK VINA RESULT:    -4.509     15.661     17.346
REMARK INTER + INTRA:          -7.220
REMARK INTER:                  -6.313
REMARK INTRA:                  -0.908
REMARK UNBOUND:                -0.340
REMARK SMILES CCCCCCCCCCC(=O)[O-]
REMARK SMILES IDX 7 1 8 2 9 3 10 4 11 5 12 6 13 7 6 8 5 9 4 10 3 11 2 12 1 13
REMARK H PARENT
REMARK Flexibility Score: inf
ROOT
ATOM      1  C   UNL     1     -11.440   4.729   8.189  1.00  0.00     0.000 C 
ENDROOT
BRANCH   1   2
ATOM      2  C   UNL     1     -11.616   3.334   7.548  1.00  0.00     0.000 C 
BRANCH   2   3
ATOM      3  C   UNL     1     -12.928   3.185   6.755  1.00  0.00     0.006 C 
BRANCH   3   4
ATOM      4  C   UNL     1     -12.754   3.303   5.234  1.00  0.00     0.053 C 
BRANCH   4   5
ATOM      5  C   UNL     1     -13.420   4.531   4.690  1.00  0.00     0.041 C 
ATOM      6  O   UNL     1     -13.879   4.533   3.518  1.00  0.00    -0.550 OA
ATOM      7  O   UNL     1     -13.517   5.677   5.467  1.00  0.00    -0.550 OA
ENDBRANCH   4   5
ENDBRANCH   3   4
ENDBRANCH   2   3
ENDBRANCH   1   2
BRANCH   1   8
ATOM      8  C   UNL     1     -10.283   5.519   7.554  1.00  0.00     0.000 C 
BRANCH   8   9
ATOM      9  C   UNL     1      -9.844   4.950   6.191  1.00  0.00    -0.000 C 
BRANCH   9  10
ATOM     10  C   UNL     1      -9.910   5.948   5.021  1.00  0.00    -0.000 C 
BRANCH  10  11
ATOM     11  C   UNL     1     -10.188   7.390   5.481  1.00  0.00    -0.000 C 
BRANCH  11  12
ATOM     12  C   UNL     1      -9.175   8.394   4.913  1.00  0.00    -0.003 C 
ATOM     13  C   UNL     1      -8.295   9.020   5.996  1.00  0.00     0.004 C 
ENDBRANCH  11  12
ENDBRANCH  10  11
ENDBRANCH   9  10
ENDBRANCH   8   9
ENDBRANCH   1   8
TORSDOF 9
ENDMDL
MODEL 8
REMARK VINA RESULT:    -4.390     16.251     17.445
REMARK INTER + INTRA:          -7.039
REMARK INTER:                  -6.443
REMARK INTRA:                  -0.596
REMARK UNBOUND:                -0.340
REMARK SMILES CCCCCCCCCCC(=O)[O-]
REMARK SMILES IDX 7 1 8 2 9 3 10 4 11 5 12 6 13 7 6 8 5 9 4 10 3 11 2 12 1 13
REMARK H PARENT
REMARK Flexibility Score: inf
ROOT
ATOM      1  C   UNL     1     -11.242   6.105   5.561  1.00  0.00     0.000 C 
ENDROOT
BRANCH   1   2
ATOM      2  C   UNL     1      -9.720   6.374   5.557  1.00  0.00     0.000 C 
BRANCH   2   3
ATOM      3  C   UNL     1      -9.347   7.770   5.024  1.00  0.00     0.006 C 
BRANCH   3   4
ATOM      4  C   UNL     1      -8.517   8.611   6.004  1.00  0.00     0.053 C 
BRANCH   4   5
ATOM      5  C   UNL     1      -8.240   9.983   5.467  1.00  0.00     0.041 C 
ATOM      6  O   UNL     1      -9.189  10.714   5.081  1.00  0.00    -0.550 OA
ATOM      7  O   UNL     1      -6.935  10.448   5.376  1.00  0.00    -0.550 OA
ENDBRANCH   4   5
ENDBRANCH   3   4
ENDBRANCH   2   3
ENDBRANCH   1   2
BRANCH   1   8
ATOM      8  C   UNL     1     -11.582   4.688   5.072  1.00  0.00     0.000 C 
BRANCH   8   9
ATOM      9  C   UNL     1     -13.036   4.279   5.376  1.00  0.00    -0.000 C 
BRANCH   9  10
ATOM     10  C   UNL     1     -13.215   3.411   6.634  1.00  0.00    -0.000 C 
BRANCH  10  11
ATOM     11  C   UNL     1     -11.877   3.021   7.286  1.00  0.00    -0.000 C 
BRANCH  11  12
ATOM     12  C   UNL     1     -11.821   3.385   8.777  1.00  0.00    -0.003 C 
ATOM     13  C   UNL     1     -11.324   4.811   9.017  1.00  0.00     0.004 C 
ENDBRANCH  11  12
ENDBRANCH  10  11
ENDBRANCH   9  10
ENDBRANCH   8   9
ENDBRANCH   1   8
TORSDOF 9
ENDMDL
MODEL 9
REMARK VINA RESULT:    -4.338     16.080     17.220
REMARK INTER + INTRA:          -6.960
REMARK INTER:                  -6.181
REMARK INTRA:                  -0.779
REMARK UNBOUND:                -0.340
REMARK SMILES CCCCCCCCCCC(=O)[O-]
REMARK SMILES IDX 7 1 8 2 9 3 10 4 11 5 12 6 13 7 6 8 5 9 4 10 3 11 2 12 1 13
REMARK H PARENT
REMARK Flexibility Score: inf
ROOT
ATOM      1  C   UNL     1      -9.735   5.543   6.220  1.00  0.00     0.000 C 
ENDROOT
BRANCH   1   2
ATOM      2  C   UNL     1      -9.267   7.014   6.305  1.00  0.00     0.000 C 
BRANCH   2   3
ATOM      3  C   UNL     1      -9.381   7.771   4.968  1.00  0.00     0.006 C 
BRANCH   3   4
ATOM      4  C   UNL     1      -9.832   9.230   5.114  1.00  0.00     0.053 C 
BRANCH   4   5
ATOM      5  C   UNL     1      -8.729  10.107   5.628  1.00  0.00     0.041 C 
ATOM      6  O   UNL     1      -8.910  10.812   6.655  1.00  0.00    -0.550 OA
ATOM      7  O   UNL     1      -7.511  10.160   4.964  1.00  0.00    -0.550 OA
ENDBRANCH   4   5
ENDBRANCH   3   4
ENDBRANCH   2   3
ENDBRANCH   1   2
BRANCH   1   8
ATOM      8  C   UNL     1     -10.145   5.145   4.793  1.00  0.00     0.000 C 
BRANCH   8   9
ATOM      9  C   UNL     1     -11.307   4.134   4.762  1.00  0.00    -0.000 C 
BRANCH   9  10
ATOM     10  C   UNL     1     -12.687   4.722   5.104  1.00  0.00    -0.000 C 
BRANCH  10  11
ATOM     11  C   UNL     1     -13.301   4.107   6.374  1.00  0.00    -0.000 C 
BRANCH  11  12
ATOM     12  C   UNL     1     -12.425   2.997   6.973  1.00  0.00    -0.003 C 
ATOM     13  C   UNL     1     -11.871   3.362   8.350  1.00  0.00     0.004 C 
ENDBRANCH  11  12
ENDBRANCH  10  11
ENDBRANCH   9  10
ENDBRANCH   8   9
ENDBRANCH   1   8
TORSDOF 9
ENDMDL
