MODEL 1
REMARK VINA RESULT:    -4.698      0.000      0.000
REMARK INTER + INTRA:          -5.184
REMARK INTER:                  -5.110
REMARK INTRA:                  -0.074
REMARK UNBOUND:                -0.074
REMARK SMILES CCc1cccc(O)c1
REMARK SMILES IDX 3 1 9 2 7 3 6 4 5 5 4 6 2 7 1 8 8 9
REMARK H PARENT 8 10
REMARK Flexibility Score: inf
ROOT
ATOM      1  C   UNL     1     477.512  35.096 461.962  1.00  0.00    -0.045 A 
ATOM      2  C   UNL     1     478.434  34.900 460.920  1.00  0.00     0.049 A 
ATOM      3  C   UNL     1     478.909  35.990 460.182  1.00  0.00     0.115 A 
ATOM      4  C   UNL     1     478.456  37.283 460.478  1.00  0.00     0.046 A 
ATOM      5  C   UNL     1     477.529  37.482 461.505  1.00  0.00     0.004 A 
ATOM      6  C   UNL     1     477.054  36.393 462.242  1.00  0.00     0.004 A 
ENDROOT
BRANCH   1   7
ATOM      7  C   UNL     1     476.976  33.919 462.733  1.00  0.00     0.032 C 
ATOM      8  C   UNL     1     475.621  34.249 463.350  1.00  0.00     0.009 C 
ENDBRANCH   1   7
BRANCH   3   9
ATOM      9  O   UNL     1     479.828  35.778 459.157  1.00  0.00    -0.508 OA
ATOM     10  H   UNL     1     480.270  34.876 459.020  1.00  0.00     0.293 HD
ENDBRANCH   3   9
TORSDOF 2
ENDMDL
MODEL 2
REMARK VINA RESULT:    -4.289      1.772      2.395
REMARK INTER + INTRA:          -4.739
REMARK INTER:                  -4.689
REMARK INTRA:                  -0.050
REMARK UNBOUND:                -0.074
REMARK SMILES CCc1cccc(O)c1
REMARK SMILES IDX 3 1 9 2 7 3 6 4 5 5 4 6 2 7 1 8 8 9
REMARK H PARENT 8 10
REMARK Flexibility Score: inf
ROOT
ATOM      1  C   UNL     1     477.225  34.955 462.125  1.00  0.00    -0.045 A 
ATOM      2  C   UNL     1     476.665  36.212 462.410  1.00  0.00     0.049 A 
ATOM      3  C   UNL     1     477.126  37.356 461.750  1.00  0.00     0.115 A 
ATOM      4  C   UNL     1     478.157  37.251 460.807  1.00  0.00     0.046 A 
ATOM      5  C   UNL     1     478.728  36.005 460.530  1.00  0.00     0.004 A 
ATOM      6  C   UNL     1     478.268  34.861 461.189  1.00  0.00     0.004 A 
ENDROOT
BRANCH   1   7
ATOM      7  C   UNL     1     476.752  33.729 462.860  1.00  0.00     0.032 C 
ATOM      8  C   UNL     1     475.392  33.976 463.504  1.00  0.00     0.009 C 
ENDBRANCH   1   7
BRANCH   3   9
ATOM      9  O   UNL     1     476.553  38.593 462.040  1.00  0.00    -0.508 OA
ATOM     10  H   UNL     1     475.794  38.969 461.483  1.00  0.00     0.293 HD
ENDBRANCH   3   9
TORSDOF 2
ENDMDL
MODEL 3
REMARK VINA RESULT:    -4.157      2.012      3.656
REMARK INTER + INTRA:          -4.596
REMARK INTER:                  -4.520
REMARK INTRA:                  -0.076
REMARK UNBOUND:                -0.074
REMARK SMILES CCc1cccc(O)c1
REMARK SMILES IDX 3 1 9 2 7 3 6 4 5 5 4 6 2 7 1 8 8 9
REMARK H PARENT 8 10
REMARK Flexibility Score: inf
ROOT
ATOM      1  C   UNL     1     478.413  35.941 460.772  1.00  0.00    -0.045 A 
ATOM      2  C   UNL     1     477.999  34.706 461.300  1.00  0.00     0.049 A 
ATOM      3  C   UNL     1     476.972  34.652 462.248  1.00  0.00     0.115 A 
ATOM      4  C   UNL     1     476.358  35.835 462.681  1.00  0.00     0.046 A 
ATOM      5  C   UNL     1     476.776  37.067 462.170  1.00  0.00     0.004 A 
ATOM      6  C   UNL     1     477.802  37.123 461.223  1.00  0.00     0.004 A 
ENDROOT
BRANCH   1   7
ATOM      7  C   UNL     1     479.542  36.002 459.778  1.00  0.00     0.032 C 
ATOM      8  C   UNL     1     479.781  37.437 459.319  1.00  0.00     0.009 C 
ENDBRANCH   1   7
BRANCH   3   9
ATOM      9  O   UNL     1     476.570  33.417 462.754  1.00  0.00    -0.508 OA
ATOM     10  H   UNL     1     476.441  33.270 463.749  1.00  0.00     0.293 HD
ENDBRANCH   3   9
TORSDOF 2
ENDMDL
MODEL 4
REMARK VINA RESULT:    -4.119      2.112      3.507
REMARK INTER + INTRA:          -4.555
REMARK INTER:                  -4.488
REMARK INTRA:                  -0.067
REMARK UNBOUND:                -0.074
REMARK SMILES CCc1cccc(O)c1
REMARK SMILES IDX 3 1 9 2 7 3 6 4 5 5 4 6 2 7 1 8 8 9
REMARK H PARENT 8 10
REMARK Flexibility Score: inf
ROOT
ATOM      1  C   UNL     1     476.766  37.071 462.063  1.00  0.00    -0.045 A 
ATOM      2  C   UNL     1     476.432  35.811 462.587  1.00  0.00     0.049 A 
ATOM      3  C   UNL     1     477.155  34.674 462.209  1.00  0.00     0.115 A 
ATOM      4  C   UNL     1     478.212  34.791 461.297  1.00  0.00     0.046 A 
ATOM      5  C   UNL     1     478.540  36.040 460.762  1.00  0.00     0.004 A 
ATOM      6  C   UNL     1     477.818  37.176 461.139  1.00  0.00     0.004 A 
ENDROOT
BRANCH   1   7
ATOM      7  C   UNL     1     475.966  38.288 462.444  1.00  0.00     0.032 C 
ATOM      8  C   UNL     1     476.886  39.457 462.780  1.00  0.00     0.009 C 
ENDBRANCH   1   7
BRANCH   3   9
ATOM      9  O   UNL     1     476.814  33.434 462.744  1.00  0.00    -0.508 OA
ATOM     10  H   UNL     1     476.926  33.234 463.732  1.00  0.00     0.293 HD
ENDBRANCH   3   9
TORSDOF 2
ENDMDL
MODEL 5
REMARK VINA RESULT:    -3.969      2.266      4.162
REMARK INTER + INTRA:          -4.392
REMARK INTER:                  -4.318
REMARK INTRA:                  -0.074
REMARK UNBOUND:                -0.074
REMARK SMILES CCc1cccc(O)c1
REMARK SMILES IDX 3 1 9 2 7 3 6 4 5 5 4 6 2 7 1 8 8 9
REMARK H PARENT 8 10
REMARK Flexibility Score: inf
ROOT
ATOM      1  C   UNL     1     477.716  37.082 461.371  1.00  0.00    -0.045 A 
ATOM      2  C   UNL     1     476.660  36.766 462.242  1.00  0.00     0.049 A 
ATOM      3  C   UNL     1     476.421  35.437 462.611  1.00  0.00     0.115 A 
ATOM      4  C   UNL     1     477.233  34.415 462.101  1.00  0.00     0.046 A 
ATOM      5  C   UNL     1     478.277  34.722 461.223  1.00  0.00     0.004 A 
ATOM      6  C   UNL     1     478.516  36.049 460.855  1.00  0.00     0.004 A 
ENDROOT
BRANCH   1   7
ATOM      7  C   UNL     1     477.951  38.508 460.948  1.00  0.00     0.032 C 
ATOM      8  C   UNL     1     478.626  38.562 459.581  1.00  0.00     0.009 C 
ENDBRANCH   1   7
BRANCH   3   9
ATOM      9  O   UNL     1     475.374  35.144 463.481  1.00  0.00    -0.508 OA
ATOM     10  H   UNL     1     474.465  35.581 463.382  1.00  0.00     0.293 HD
ENDBRANCH   3   9
TORSDOF 2
ENDMDL
MODEL 6
REMARK VINA RESULT:    -3.941      1.059      2.765
REMARK INTER + INTRA:          -4.361
REMARK INTER:                  -4.286
REMARK INTRA:                  -0.075
REMARK UNBOUND:                -0.074
REMARK SMILES CCc1cccc(O)c1
REMARK SMILES IDX 3 1 9 2 7 3 6 4 5 5 4 6 2 7 1 8 8 9
REMARK H PARENT 8 10
REMARK Flexibility Score: inf
ROOT
ATOM      1  C   UNL     1     477.310  37.261 461.623  1.00  0.00    -0.045 A 
ATOM      2  C   UNL     1     478.328  36.977 460.696  1.00  0.00     0.049 A 
ATOM      3  C   UNL     1     478.759  35.660 460.502  1.00  0.00     0.115 A 
ATOM      4  C   UNL     1     478.182  34.620 461.243  1.00  0.00     0.046 A 
ATOM      5  C   UNL     1     477.179  34.899 462.176  1.00  0.00     0.004 A 
ATOM      6  C   UNL     1     476.747  36.214 462.370  1.00  0.00     0.004 A 
ENDROOT
BRANCH   1   7
ATOM      7  C   UNL     1     476.870  38.682 461.855  1.00  0.00     0.032 C 
ATOM      8  C   UNL     1     475.623  38.725 462.733  1.00  0.00     0.009 C 
ENDBRANCH   1   7
BRANCH   3   9
ATOM      9  O   UNL     1     479.764  35.396 459.574  1.00  0.00    -0.508 OA
ATOM     10  H   UNL     1     479.554  35.008 458.661  1.00  0.00     0.293 HD
ENDBRANCH   3   9
TORSDOF 2
ENDMDL
MODEL 7
REMARK VINA RESULT:    -3.712      1.227      3.340
REMARK INTER + INTRA:          -4.112
REMARK INTER:                  -4.062
REMARK INTRA:                  -0.050
REMARK UNBOUND:                -0.074
REMARK SMILES CCc1cccc(O)c1
REMARK SMILES IDX 3 1 9 2 7 3 6 4 5 5 4 6 2 7 1 8 8 9
REMARK H PARENT 8 10
REMARK Flexibility Score: inf
ROOT
ATOM      1  C   UNL     1     478.159  37.422 461.236  1.00  0.00    -0.045 A 
ATOM      2  C   UNL     1     478.982  36.675 460.376  1.00  0.00     0.049 A 
ATOM      3  C   UNL     1     478.937  35.277 460.394  1.00  0.00     0.115 A 
ATOM      4  C   UNL     1     478.076  34.617 461.281  1.00  0.00     0.046 A 
ATOM      5  C   UNL     1     477.265  35.356 462.148  1.00  0.00     0.004 A 
ATOM      6  C   UNL     1     477.309  36.753 462.131  1.00  0.00     0.004 A 
ENDROOT
BRANCH   1   7
ATOM      7  C   UNL     1     478.232  38.926 461.240  1.00  0.00     0.032 C 
ATOM      8  C   UNL     1     479.655  39.398 461.522  1.00  0.00     0.009 C 
ENDBRANCH   1   7
BRANCH   3   9
ATOM      9  O   UNL     1     479.755  34.552 459.529  1.00  0.00    -0.508 OA
ATOM     10  H   UNL     1     479.665  34.634 458.523  1.00  0.00     0.293 HD
ENDBRANCH   3   9
TORSDOF 2
ENDMDL
MODEL 8
REMARK VINA RESULT:    -3.567      8.138      9.004
REMARK INTER + INTRA:          -3.954
REMARK INTER:                  -3.886
REMARK INTRA:                  -0.068
REMARK UNBOUND:                -0.074
REMARK SMILES CCc1cccc(O)c1
REMARK SMILES IDX 3 1 9 2 7 3 6 4 5 5 4 6 2 7 1 8 8 9
REMARK H PARENT 8 10
REMARK Flexibility Score: inf
ROOT
ATOM      1  C   UNL     1     485.323  40.007 460.577  1.00  0.00    -0.045 A 
ATOM      2  C   UNL     1     485.086  38.697 460.126  1.00  0.00     0.049 A 
ATOM      3  C   UNL     1     484.848  38.450 458.769  1.00  0.00     0.115 A 
ATOM      4  C   UNL     1     484.836  39.514 457.858  1.00  0.00     0.046 A 
ATOM      5  C   UNL     1     485.058  40.821 458.303  1.00  0.00     0.004 A 
ATOM      6  C   UNL     1     485.297  41.068 459.658  1.00  0.00     0.004 A 
ENDROOT
BRANCH   1   7
ATOM      7  C   UNL     1     485.546  40.277 462.042  1.00  0.00     0.032 C 
ATOM      8  C   UNL     1     486.695  41.260 462.242  1.00  0.00     0.009 C 
ENDBRANCH   1   7
BRANCH   3   9
ATOM      9  O   UNL     1     484.621  37.145 458.339  1.00  0.00    -0.508 OA
ATOM     10  H   UNL     1     484.168  36.950 457.453  1.00  0.00     0.293 HD
ENDBRANCH   3   9
TORSDOF 2
ENDMDL
MODEL 9
REMARK VINA RESULT:    -3.355      5.085      6.569
REMARK INTER + INTRA:          -3.724
REMARK INTER:                  -3.677
REMARK INTRA:                  -0.047
REMARK UNBOUND:                -0.074
REMARK SMILES CCc1cccc(O)c1
REMARK SMILES IDX 3 1 9 2 7 3 6 4 5 5 4 6 2 7 1 8 8 9
REMARK H PARENT 8 10
REMARK Flexibility Score: inf
ROOT
ATOM      1  C   UNL     1     482.382  39.184 460.257  1.00  0.00    -0.045 A 
ATOM      2  C   UNL     1     482.809  38.479 459.119  1.00  0.00     0.049 A 
ATOM      3  C   UNL     1     484.151  38.109 458.980  1.00  0.00     0.115 A 
ATOM      4  C   UNL     1     485.077  38.452 459.975  1.00  0.00     0.046 A 
ATOM      5  C   UNL     1     484.660  39.166 461.102  1.00  0.00     0.004 A 
ATOM      6  C   UNL     1     483.319  39.535 461.242  1.00  0.00     0.004 A 
ENDROOT
BRANCH   1   7
ATOM      7  C   UNL     1     480.945  39.612 460.391  1.00  0.00     0.032 C 
ATOM      8  C   UNL     1     480.008  38.424 460.194  1.00  0.00     0.009 C 
ENDBRANCH   1   7
BRANCH   3   9
ATOM      9  O   UNL     1     484.555  37.403 457.848  1.00  0.00    -0.508 OA
ATOM     10  H   UNL     1     485.046  37.859 457.087  1.00  0.00     0.293 HD
ENDBRANCH   3   9
TORSDOF 2
ENDMDL
