MODEL 1
REMARK VINA RESULT:    -6.542      0.000      0.000
REMARK INTER + INTRA:         -10.575
REMARK INTER:                  -8.836
REMARK INTRA:                  -1.738
REMARK UNBOUND:                -1.738
REMARK SMILES CC[C@H](CC[C@@H](C)[C@@H]1CC[C@H]2[C@H]3CC(=O)C4=CC(=O)CC[C@@]4(C)[C@@H]3CC[C@]21C)C(C)C
REMARK SMILES IDX 4 1 3 2 2 3 1 4 29 5 30 6 31 7 5 8 6 9 7 10 8 11 9 12 27 13
REMARK SMILES IDX 10 14 11 15 26 16 28 17 12 18 25 19 24 20 13 21 22 22 14 23
REMARK SMILES IDX 16 24 21 25 23 26 15 27 17 28 20 29 18 30 19 31
REMARK H PARENT
REMARK Flexibility Score: inf
ROOT
ATOM      1  C   UNL     1      -5.620  67.627  26.318  1.00  0.00     0.004 C 
ENDROOT
BRANCH   1   2
ATOM      2  C   UNL     1      -5.751  68.837  25.340  1.00  0.00    -0.009 C 
BRANCH   2   3
ATOM      3  C   UNL     1      -7.099  68.799  24.567  1.00  0.00     0.000 C 
ATOM      4  C   UNL     1      -7.261  67.615  23.613  1.00  0.00     0.004 C 
ENDBRANCH   2   3
BRANCH   2   5
ATOM      5  C   UNL     1      -5.458  70.257  25.952  1.00  0.00    -0.014 C 
ATOM      6  C   UNL     1      -4.055  70.823  25.662  1.00  0.00     0.007 C 
ATOM      7  C   UNL     1      -6.521  71.293  25.555  1.00  0.00     0.007 C 
ENDBRANCH   2   5
ENDBRANCH   1   2
BRANCH   1   8
ATOM      8  C   UNL     1      -4.323  66.815  26.123  1.00  0.00     0.004 C 
BRANCH   8   9
ATOM      9  C   UNL     1      -3.364  66.957  27.344  1.00  0.00    -0.011 C 
ATOM     10  C   UNL     1      -2.056  67.622  26.847  1.00  0.00     0.008 C 
BRANCH   9  11
ATOM     11  C   UNL     1      -4.023  67.776  28.512  1.00  0.00    -0.002 C 
ATOM     12  C   UNL     1      -3.313  69.125  28.759  1.00  0.00     0.005 C 
ATOM     13  C   UNL     1      -4.133  67.100  29.949  1.00  0.00    -0.026 C 
ATOM     14  C   UNL     1      -3.423  69.407  30.241  1.00  0.00     0.005 C 
ATOM     15  C   UNL     1      -3.297  68.028  30.872  1.00  0.00    -0.001 C 
ATOM     16  C   UNL     1      -5.634  67.121  30.375  1.00  0.00     0.007 C 
ATOM     17  C   UNL     1      -3.573  65.652  30.063  1.00  0.00     0.012 C 
ATOM     18  C   UNL     1      -3.617  67.941  32.400  1.00  0.00     0.004 C 
ATOM     19  C   UNL     1      -5.853  66.877  31.867  1.00  0.00     0.005 C 
ATOM     20  C   UNL     1      -5.138  67.951  32.726  1.00  0.00     0.003 C 
ATOM     21  C   UNL     1      -2.872  69.042  33.178  1.00  0.00     0.085 C 
ATOM     22  C   UNL     1      -5.446  67.796  34.277  1.00  0.00    -0.000 C 
ATOM     23  C   UNL     1      -3.145  68.947  34.639  1.00  0.00     0.159 C 
ATOM     24  C   UNL     1      -4.524  68.701  35.107  1.00  0.00     0.005 C 
ATOM     25  C   UNL     1      -6.929  68.210  34.545  1.00  0.00     0.020 C 
ATOM     26  C   UNL     1      -5.222  66.337  34.760  1.00  0.00     0.017 C 
ATOM     27  O   UNL     1      -2.213  69.164  35.463  1.00  0.00    -0.295 OA
ATOM     28  C   UNL     1      -4.905  69.187  36.304  1.00  0.00     0.055 C 
ATOM     29  C   UNL     1      -7.289  68.234  36.037  1.00  0.00     0.081 C 
ATOM     30  C   UNL     1      -6.262  68.981  36.830  1.00  0.00     0.156 C 
ATOM     31  O   UNL     1      -6.556  69.412  37.979  1.00  0.00    -0.295 OA
ENDBRANCH   9  11
ENDBRANCH   8   9
ENDBRANCH   1   8
TORSDOF 6
ENDMDL
MODEL 2
REMARK VINA RESULT:    -6.413      3.244      8.731
REMARK INTER + INTRA:         -10.401
REMARK INTER:                  -8.639
REMARK INTRA:                  -1.762
REMARK UNBOUND:                -1.738
REMARK SMILES CC[C@H](CC[C@@H](C)[C@@H]1CC[C@H]2[C@H]3CC(=O)C4=CC(=O)CC[C@@]4(C)[C@@H]3CC[C@]21C)C(C)C
REMARK SMILES IDX 4 1 3 2 2 3 1 4 29 5 30 6 31 7 5 8 6 9 7 10 8 11 9 12 27 13
REMARK SMILES IDX 10 14 11 15 26 16 28 17 12 18 25 19 24 20 13 21 22 22 14 23
REMARK SMILES IDX 16 24 21 25 23 26 15 27 17 28 20 29 18 30 19 31
REMARK H PARENT
REMARK Flexibility Score: inf
ROOT
ATOM      1  C   UNL     1      -4.393  68.836  35.073  1.00  0.00     0.004 C 
ENDROOT
BRANCH   1   2
ATOM      2  C   UNL     1      -5.604  68.925  36.054  1.00  0.00    -0.009 C 
BRANCH   2   3
ATOM      3  C   UNL     1      -5.681  70.319  36.737  1.00  0.00     0.000 C 
ATOM      4  C   UNL     1      -5.238  70.344  38.200  1.00  0.00     0.004 C 
ENDBRANCH   2   3
BRANCH   2   5
ATOM      5  C   UNL     1      -6.997  68.469  35.478  1.00  0.00    -0.014 C 
ATOM      6  C   UNL     1      -7.370  66.999  35.743  1.00  0.00     0.007 C 
ATOM      7  C   UNL     1      -8.144  69.381  35.940  1.00  0.00     0.007 C 
ENDBRANCH   2   5
ENDBRANCH   1   2
BRANCH   1   8
ATOM      8  C   UNL     1      -3.570  67.541  35.227  1.00  0.00     0.004 C 
BRANCH   8   9
ATOM      9  C   UNL     1      -3.626  66.664  33.940  1.00  0.00    -0.011 C 
ATOM     10  C   UNL     1      -4.270  65.306  34.316  1.00  0.00     0.008 C 
BRANCH   9  11
ATOM     11  C   UNL     1      -4.412  67.378  32.781  1.00  0.00    -0.002 C 
ATOM     12  C   UNL     1      -5.737  66.661  32.440  1.00  0.00     0.005 C 
ATOM     13  C   UNL     1      -3.685  67.584  31.380  1.00  0.00    -0.026 C 
ATOM     14  C   UNL     1      -5.965  66.855  30.957  1.00  0.00     0.005 C 
ATOM     15  C   UNL     1      -4.561  66.790  30.374  1.00  0.00    -0.001 C 
ATOM     16  C   UNL     1      -3.717  69.107  31.043  1.00  0.00     0.007 C 
ATOM     17  C   UNL     1      -2.223  67.056  31.290  1.00  0.00     0.012 C 
ATOM     18  C   UNL     1      -4.422  67.201  28.873  1.00  0.00     0.004 C 
ATOM     19  C   UNL     1      -3.421  69.419  29.577  1.00  0.00     0.005 C 
ATOM     20  C   UNL     1      -4.449  68.739  28.636  1.00  0.00     0.003 C 
ATOM     21  C   UNL     1      -5.479  66.485  28.010  1.00  0.00     0.085 C 
ATOM     22  C   UNL     1      -4.241  69.140  27.113  1.00  0.00    -0.000 C 
ATOM     23  C   UNL     1      -5.334  66.847  26.572  1.00  0.00     0.159 C 
ATOM     24  C   UNL     1      -5.096  68.254  26.196  1.00  0.00     0.005 C 
ATOM     25  C   UNL     1      -4.672  70.630  26.917  1.00  0.00     0.020 C 
ATOM     26  C   UNL     1      -2.760  68.970  26.675  1.00  0.00     0.017 C 
ATOM     27  O   UNL     1      -5.502  65.961  25.687  1.00  0.00    -0.295 OA
ATOM     28  C   UNL     1      -5.543  68.698  25.005  1.00  0.00     0.055 C 
ATOM     29  C   UNL     1      -4.646  71.077  25.448  1.00  0.00     0.081 C 
ATOM     30  C   UNL     1      -5.343  70.087  24.568  1.00  0.00     0.156 C 
ATOM     31  O   UNL     1      -5.736  70.442  23.422  1.00  0.00    -0.295 OA
ENDBRANCH   9  11
ENDBRANCH   8   9
ENDBRANCH   1   8
TORSDOF 6
ENDMDL
MODEL 3
REMARK VINA RESULT:    -6.355      0.645      1.809
REMARK INTER + INTRA:         -10.323
REMARK INTER:                  -8.996
REMARK INTRA:                  -1.327
REMARK UNBOUND:                -1.738
REMARK SMILES CC[C@H](CC[C@@H](C)[C@@H]1CC[C@H]2[C@H]3CC(=O)C4=CC(=O)CC[C@@]4(C)[C@@H]3CC[C@]21C)C(C)C
REMARK SMILES IDX 4 1 3 2 2 3 1 4 29 5 30 6 31 7 5 8 6 9 7 10 8 11 9 12 27 13
REMARK SMILES IDX 10 14 11 15 26 16 28 17 12 18 25 19 24 20 13 21 22 22 14 23
REMARK SMILES IDX 16 24 21 25 23 26 15 27 17 28 20 29 18 30 19 31
REMARK H PARENT
REMARK Flexibility Score: inf
ROOT
ATOM      1  C   UNL     1      -5.172  67.417  25.177  1.00  0.00     0.004 C 
ENDROOT
BRANCH   1   2
ATOM      2  C   UNL     1      -6.643  67.873  24.922  1.00  0.00    -0.009 C 
BRANCH   2   3
ATOM      3  C   UNL     1      -6.787  69.417  25.037  1.00  0.00     0.000 C 
ATOM      4  C   UNL     1      -5.711  70.103  25.879  1.00  0.00     0.004 C 
ENDBRANCH   2   3
BRANCH   2   5
ATOM      5  C   UNL     1      -7.328  67.308  23.623  1.00  0.00    -0.014 C 
ATOM      6  C   UNL     1      -6.854  67.938  22.300  1.00  0.00     0.007 C 
ATOM      7  C   UNL     1      -7.225  65.778  23.528  1.00  0.00     0.007 C 
ENDBRANCH   2   5
ENDBRANCH   1   2
BRANCH   1   8
ATOM      8  C   UNL     1      -5.025  66.447  26.367  1.00  0.00     0.004 C 
BRANCH   8   9
ATOM      9  C   UNL     1      -3.904  66.902  27.348  1.00  0.00    -0.011 C 
ATOM     10  C   UNL     1      -2.865  67.718  26.539  1.00  0.00     0.008 C 
BRANCH   9  11
ATOM     11  C   UNL     1      -4.482  67.730  28.552  1.00  0.00    -0.002 C 
ATOM     12  C   UNL     1      -3.792  69.103  28.708  1.00  0.00     0.005 C 
ATOM     13  C   UNL     1      -4.450  67.086  30.007  1.00  0.00    -0.026 C 
ATOM     14  C   UNL     1      -3.782  69.417  30.188  1.00  0.00     0.005 C 
ATOM     15  C   UNL     1      -3.565  68.057  30.834  1.00  0.00    -0.001 C 
ATOM     16  C   UNL     1      -5.909  67.078  30.560  1.00  0.00     0.007 C 
ATOM     17  C   UNL     1      -3.843  65.656  30.103  1.00  0.00     0.012 C 
ATOM     18  C   UNL     1      -3.749  67.997  32.386  1.00  0.00     0.004 C 
ATOM     19  C   UNL     1      -5.993  66.864  32.070  1.00  0.00     0.005 C 
ATOM     20  C   UNL     1      -5.236  67.976  32.842  1.00  0.00     0.003 C 
ATOM     21  C   UNL     1      -2.971  69.135  33.072  1.00  0.00     0.085 C 
ATOM     22  C   UNL     1      -5.405  67.850  34.416  1.00  0.00    -0.000 C 
ATOM     23  C   UNL     1      -3.115  69.068  34.554  1.00  0.00     0.159 C 
ATOM     24  C   UNL     1      -4.441  68.797  35.144  1.00  0.00     0.005 C 
ATOM     25  C   UNL     1      -6.871  68.231  34.803  1.00  0.00     0.020 C 
ATOM     26  C   UNL     1      -5.100  66.408  34.909  1.00  0.00     0.017 C 
ATOM     27  O   UNL     1      -2.122  69.328  35.289  1.00  0.00    -0.295 OA
ATOM     28  C   UNL     1      -4.731  69.301  36.360  1.00  0.00     0.055 C 
ATOM     29  C   UNL     1      -7.102  68.281  36.320  1.00  0.00     0.081 C 
ATOM     30  C   UNL     1      -6.032  69.072  37.005  1.00  0.00     0.156 C 
ATOM     31  O   UNL     1      -6.238  69.523  38.166  1.00  0.00    -0.295 OA
ENDBRANCH   9  11
ENDBRANCH   8   9
ENDBRANCH   1   8
TORSDOF 6
ENDMDL
MODEL 4
REMARK VINA RESULT:    -6.176      0.652      1.592
REMARK INTER + INTRA:         -10.081
REMARK INTER:                  -8.639
REMARK INTRA:                  -1.442
REMARK UNBOUND:                -1.738
REMARK SMILES CC[C@H](CC[C@@H](C)[C@@H]1CC[C@H]2[C@H]3CC(=O)C4=CC(=O)CC[C@@]4(C)[C@@H]3CC[C@]21C)C(C)C
REMARK SMILES IDX 4 1 3 2 2 3 1 4 29 5 30 6 31 7 5 8 6 9 7 10 8 11 9 12 27 13
REMARK SMILES IDX 10 14 11 15 26 16 28 17 12 18 25 19 24 20 13 21 22 22 14 23
REMARK SMILES IDX 16 24 21 25 23 26 15 27 17 28 20 29 18 30 19 31
REMARK H PARENT
REMARK Flexibility Score: inf
ROOT
ATOM      1  C   UNL     1      -4.355  68.422  25.636  1.00  0.00     0.004 C 
ENDROOT
BRANCH   1   2
ATOM      2  C   UNL     1      -5.371  69.594  25.807  1.00  0.00    -0.009 C 
BRANCH   2   3
ATOM      3  C   UNL     1      -4.644  70.939  26.089  1.00  0.00     0.000 C 
ATOM      4  C   UNL     1      -3.117  70.861  26.072  1.00  0.00     0.004 C 
ENDBRANCH   2   3
BRANCH   2   5
ATOM      5  C   UNL     1      -6.463  69.734  24.683  1.00  0.00    -0.014 C 
ATOM      6  C   UNL     1      -7.490  68.588  24.614  1.00  0.00     0.007 C 
ATOM      7  C   UNL     1      -7.202  71.080  24.753  1.00  0.00     0.007 C 
ENDBRANCH   2   5
ENDBRANCH   1   2
BRANCH   1   8
ATOM      8  C   UNL     1      -4.751  67.146  26.407  1.00  0.00     0.004 C 
BRANCH   8   9
ATOM      9  C   UNL     1      -3.888  66.955  27.691  1.00  0.00    -0.011 C 
ATOM     10  C   UNL     1      -2.434  67.371  27.354  1.00  0.00     0.008 C 
BRANCH   9  11
ATOM     11  C   UNL     1      -4.459  67.774  28.905  1.00  0.00    -0.002 C 
ATOM     12  C   UNL     1      -3.725  69.118  29.106  1.00  0.00     0.005 C 
ATOM     13  C   UNL     1      -4.474  67.094  30.343  1.00  0.00    -0.026 C 
ATOM     14  C   UNL     1      -3.730  69.396  30.593  1.00  0.00     0.005 C 
ATOM     15  C   UNL     1      -3.570  68.013  31.209  1.00  0.00    -0.001 C 
ATOM     16  C   UNL     1      -5.941  67.123  30.872  1.00  0.00     0.007 C 
ATOM     17  C   UNL     1      -3.917  65.642  30.414  1.00  0.00     0.012 C 
ATOM     18  C   UNL     1      -3.783  67.923  32.755  1.00  0.00     0.004 C 
ATOM     19  C   UNL     1      -6.058  66.875  32.375  1.00  0.00     0.005 C 
ATOM     20  C   UNL     1      -5.278  67.942  33.186  1.00  0.00     0.003 C 
ATOM     21  C   UNL     1      -2.979  69.016  33.483  1.00  0.00     0.085 C 
ATOM     22  C   UNL     1      -5.478  67.783  34.754  1.00  0.00    -0.000 C 
ATOM     23  C   UNL     1      -3.150  68.919  34.960  1.00  0.00     0.159 C 
ATOM     24  C   UNL     1      -4.495  68.679  35.521  1.00  0.00     0.005 C 
ATOM     25  C   UNL     1      -6.936  68.206  35.126  1.00  0.00     0.020 C 
ATOM     26  C   UNL     1      -5.231  66.321  35.216  1.00  0.00     0.017 C 
ATOM     27  O   UNL     1      -2.162  69.126  35.717  1.00  0.00    -0.295 OA
ATOM     28  C   UNL     1      -4.789  69.164  36.744  1.00  0.00     0.055 C 
ATOM     29  C   UNL     1      -7.192  68.227  36.640  1.00  0.00     0.081 C 
ATOM     30  C   UNL     1      -6.108  68.964  37.361  1.00  0.00     0.156 C 
ATOM     31  O   UNL     1      -6.318  69.394  38.530  1.00  0.00    -0.295 OA
ENDBRANCH   9  11
ENDBRANCH   8   9
ENDBRANCH   1   8
TORSDOF 6
ENDMDL
MODEL 5
REMARK VINA RESULT:    -6.175      3.535      8.826
REMARK INTER + INTRA:         -10.080
REMARK INTER:                  -8.754
REMARK INTRA:                  -1.326
REMARK UNBOUND:                -1.738
REMARK SMILES CC[C@H](CC[C@@H](C)[C@@H]1CC[C@H]2[C@H]3CC(=O)C4=CC(=O)CC[C@@]4(C)[C@@H]3CC[C@]21C)C(C)C
REMARK SMILES IDX 4 1 3 2 2 3 1 4 29 5 30 6 31 7 5 8 6 9 7 10 8 11 9 12 27 13
REMARK SMILES IDX 10 14 11 15 26 16 28 17 12 18 25 19 24 20 13 21 22 22 14 23
REMARK SMILES IDX 16 24 21 25 23 26 15 27 17 28 20 29 18 30 19 31
REMARK H PARENT
REMARK Flexibility Score: inf
ROOT
ATOM      1  C   UNL     1      -5.742  68.167  34.229  1.00  0.00     0.004 C 
ENDROOT
BRANCH   1   2
ATOM      2  C   UNL     1      -5.241  68.717  35.602  1.00  0.00    -0.009 C 
BRANCH   2   3
ATOM      3  C   UNL     1      -4.171  69.828  35.412  1.00  0.00     0.000 C 
ATOM      4  C   UNL     1      -3.006  69.451  34.496  1.00  0.00     0.004 C 
ENDBRANCH   2   3
BRANCH   2   5
ATOM      5  C   UNL     1      -6.357  69.137  36.628  1.00  0.00    -0.014 C 
ATOM      6  C   UNL     1      -6.196  70.541  37.240  1.00  0.00     0.007 C 
ATOM      7  C   UNL     1      -7.771  68.992  36.043  1.00  0.00     0.007 C 
ENDBRANCH   2   5
ENDBRANCH   1   2
BRANCH   1   8
ATOM      8  C   UNL     1      -5.331  66.704  33.964  1.00  0.00     0.004 C 
BRANCH   8   9
ATOM      9  C   UNL     1      -4.384  66.583  32.733  1.00  0.00    -0.011 C 
ATOM     10  C   UNL     1      -3.921  65.108  32.631  1.00  0.00     0.008 C 
BRANCH   9  11
ATOM     11  C   UNL     1      -5.083  67.064  31.410  1.00  0.00    -0.002 C 
ATOM     12  C   UNL     1      -5.609  65.887  30.560  1.00  0.00     0.005 C 
ATOM     13  C   UNL     1      -4.253  67.966  30.394  1.00  0.00    -0.026 C 
ATOM     14  C   UNL     1      -5.490  66.310  29.112  1.00  0.00     0.005 C 
ATOM     15  C   UNL     1      -4.205  67.125  29.089  1.00  0.00    -0.001 C 
ATOM     16  C   UNL     1      -5.054  69.284  30.160  1.00  0.00     0.007 C 
ATOM     17  C   UNL     1      -2.795  68.304  30.821  1.00  0.00     0.012 C 
ATOM     18  C   UNL     1      -3.920  67.920  27.774  1.00  0.00     0.004 C 
ATOM     19  C   UNL     1      -4.601  70.069  28.930  1.00  0.00     0.005 C 
ATOM     20  C   UNL     1      -4.752  69.228  27.636  1.00  0.00     0.003 C 
ATOM     21  C   UNL     1      -4.095  67.015  26.540  1.00  0.00     0.085 C 
ATOM     22  C   UNL     1      -4.402  70.055  26.326  1.00  0.00    -0.000 C 
ATOM     23  C   UNL     1      -3.795  67.755  25.282  1.00  0.00     0.159 C 
ATOM     24  C   UNL     1      -4.310  69.128  25.106  1.00  0.00     0.005 C 
ATOM     25  C   UNL     1      -5.531  71.106  26.072  1.00  0.00     0.020 C 
ATOM     26  C   UNL     1      -3.038  70.786  26.459  1.00  0.00     0.017 C 
ATOM     27  O   UNL     1      -3.179  67.171  24.347  1.00  0.00    -0.295 OA
ATOM     28  C   UNL     1      -4.583  69.569  23.862  1.00  0.00     0.055 C 
ATOM     29  C   UNL     1      -5.364  71.864  24.748  1.00  0.00     0.081 C 
ATOM     30  C   UNL     1      -5.099  70.923  23.615  1.00  0.00     0.156 C 
ATOM     31  O   UNL     1      -5.292  71.308  22.428  1.00  0.00    -0.295 OA
ENDBRANCH   9  11
ENDBRANCH   8   9
ENDBRANCH   1   8
TORSDOF 6
ENDMDL
MODEL 6
REMARK VINA RESULT:    -6.101      3.569      8.802
REMARK INTER + INTRA:          -9.979
REMARK INTER:                  -8.674
REMARK INTRA:                  -1.304
REMARK UNBOUND:                -1.738
REMARK SMILES CC[C@H](CC[C@@H](C)[C@@H]1CC[C@H]2[C@H]3CC(=O)C4=CC(=O)CC[C@@]4(C)[C@@H]3CC[C@]21C)C(C)C
REMARK SMILES IDX 4 1 3 2 2 3 1 4 29 5 30 6 31 7 5 8 6 9 7 10 8 11 9 12 27 13
REMARK SMILES IDX 10 14 11 15 26 16 28 17 12 18 25 19 24 20 13 21 22 22 14 23
REMARK SMILES IDX 16 24 21 25 23 26 15 27 17 28 20 29 18 30 19 31
REMARK H PARENT
REMARK Flexibility Score: inf
ROOT
ATOM      1  C   UNL     1      -6.373  67.695  33.874  1.00  0.00     0.004 C 
ENDROOT
BRANCH   1   2
ATOM      2  C   UNL     1      -6.296  68.646  35.110  1.00  0.00    -0.009 C 
BRANCH   2   3
ATOM      3  C   UNL     1      -7.528  68.468  36.041  1.00  0.00     0.000 C 
ATOM      4  C   UNL     1      -8.600  69.550  35.904  1.00  0.00     0.004 C 
ENDBRANCH   2   3
BRANCH   2   5
ATOM      5  C   UNL     1      -4.941  68.635  35.910  1.00  0.00    -0.014 C 
ATOM      6  C   UNL     1      -3.963  69.774  35.567  1.00  0.00     0.007 C 
ATOM      7  C   UNL     1      -5.163  68.589  37.430  1.00  0.00     0.007 C 
ENDBRANCH   2   5
ENDBRANCH   1   2
BRANCH   1   8
ATOM      8  C   UNL     1      -5.357  66.535  33.926  1.00  0.00     0.004 C 
BRANCH   8   9
ATOM      9  C   UNL     1      -4.376  66.571  32.716  1.00  0.00    -0.011 C 
ATOM     10  C   UNL     1      -3.777  65.152  32.546  1.00  0.00     0.008 C 
BRANCH   9  11
ATOM     11  C   UNL     1      -5.087  67.060  31.402  1.00  0.00    -0.002 C 
ATOM     12  C   UNL     1      -5.638  65.889  30.559  1.00  0.00     0.005 C 
ATOM     13  C   UNL     1      -4.262  67.953  30.376  1.00  0.00    -0.026 C 
ATOM     14  C   UNL     1      -5.534  66.312  29.110  1.00  0.00     0.005 C 
ATOM     15  C   UNL     1      -4.241  67.113  29.070  1.00  0.00    -0.001 C 
ATOM     16  C   UNL     1      -5.051  69.281  30.153  1.00  0.00     0.007 C 
ATOM     17  C   UNL     1      -2.795  68.275  30.783  1.00  0.00     0.012 C 
ATOM     18  C   UNL     1      -3.965  67.905  27.751  1.00  0.00     0.004 C 
ATOM     19  C   UNL     1      -4.606  70.061  28.917  1.00  0.00     0.005 C 
ATOM     20  C   UNL     1      -4.784  69.222  27.625  1.00  0.00     0.003 C 
ATOM     21  C   UNL     1      -4.167  67.003  26.519  1.00  0.00     0.085 C 
ATOM     22  C   UNL     1      -4.443  70.047  26.311  1.00  0.00    -0.000 C 
ATOM     23  C   UNL     1      -3.876  67.740  25.258  1.00  0.00     0.159 C 
ATOM     24  C   UNL     1      -4.378  69.119  25.090  1.00  0.00     0.005 C 
ATOM     25  C   UNL     1      -5.564  71.110  26.073  1.00  0.00     0.020 C 
ATOM     26  C   UNL     1      -3.069  70.762  26.426  1.00  0.00     0.017 C 
ATOM     27  O   UNL     1      -3.279  67.150  24.315  1.00  0.00    -0.295 OA
ATOM     28  C   UNL     1      -4.663  69.564  23.850  1.00  0.00     0.055 C 
ATOM     29  C   UNL     1      -5.406  71.867  24.747  1.00  0.00     0.081 C 
ATOM     30  C   UNL     1      -5.168  70.924  23.610  1.00  0.00     0.156 C 
ATOM     31  O   UNL     1      -5.372  71.311  22.426  1.00  0.00    -0.295 OA
ENDBRANCH   9  11
ENDBRANCH   8   9
ENDBRANCH   1   8
TORSDOF 6
ENDMDL
MODEL 7
REMARK VINA RESULT:    -5.844      3.309      8.600
REMARK INTER + INTRA:          -9.632
REMARK INTER:                  -8.003
REMARK INTRA:                  -1.629
REMARK UNBOUND:                -1.738
REMARK SMILES CC[C@H](CC[C@@H](C)[C@@H]1CC[C@H]2[C@H]3CC(=O)C4=CC(=O)CC[C@@]4(C)[C@@H]3CC[C@]21C)C(C)C
REMARK SMILES IDX 4 1 3 2 2 3 1 4 29 5 30 6 31 7 5 8 6 9 7 10 8 11 9 12 27 13
REMARK SMILES IDX 10 14 11 15 26 16 28 17 12 18 25 19 24 20 13 21 22 22 14 23
REMARK SMILES IDX 16 24 21 25 23 26 15 27 17 28 20 29 18 30 19 31
REMARK H PARENT
REMARK Flexibility Score: inf
ROOT
ATOM      1  C   UNL     1      -4.989  67.069  35.602  1.00  0.00     0.004 C 
ENDROOT
BRANCH   1   2
ATOM      2  C   UNL     1      -6.399  67.266  34.961  1.00  0.00    -0.009 C 
BRANCH   2   3
ATOM      3  C   UNL     1      -7.225  65.949  34.991  1.00  0.00     0.000 C 
ATOM      4  C   UNL     1      -6.883  64.950  33.885  1.00  0.00     0.004 C 
ENDBRANCH   2   3
BRANCH   2   5
ATOM      5  C   UNL     1      -7.229  68.499  35.478  1.00  0.00    -0.014 C 
ATOM      6  C   UNL     1      -8.509  68.151  36.260  1.00  0.00     0.007 C 
ATOM      7  C   UNL     1      -6.373  69.472  36.304  1.00  0.00     0.007 C 
ENDBRANCH   2   5
ENDBRANCH   1   2
BRANCH   1   8
ATOM      8  C   UNL     1      -3.840  67.056  34.573  1.00  0.00     0.004 C 
BRANCH   8   9
ATOM      9  C   UNL     1      -3.864  68.322  33.664  1.00  0.00    -0.011 C 
ATOM     10  C   UNL     1      -3.062  69.438  34.381  1.00  0.00     0.008 C 
BRANCH   9  11
ATOM     11  C   UNL     1      -3.289  68.024  32.232  1.00  0.00    -0.002 C 
ATOM     12  C   UNL     1      -2.334  69.133  31.739  1.00  0.00     0.005 C 
ATOM     13  C   UNL     1      -4.310  67.798  31.033  1.00  0.00    -0.026 C 
ATOM     14  C   UNL     1      -2.496  69.207  30.236  1.00  0.00     0.005 C 
ATOM     15  C   UNL     1      -3.979  68.936  30.030  1.00  0.00    -0.001 C 
ATOM     16  C   UNL     1      -4.002  66.408  30.396  1.00  0.00     0.007 C 
ATOM     17  C   UNL     1      -5.820  67.886  31.401  1.00  0.00     0.012 C 
ATOM     18  C   UNL     1      -4.434  68.700  28.553  1.00  0.00     0.004 C 
ATOM     19  C   UNL     1      -4.616  66.215  29.011  1.00  0.00     0.005 C 
ATOM     20  C   UNL     1      -4.099  67.281  28.010  1.00  0.00     0.003 C 
ATOM     21  C   UNL     1      -3.875  69.798  27.627  1.00  0.00     0.085 C 
ATOM     22  C   UNL     1      -4.625  67.037  26.532  1.00  0.00    -0.000 C 
ATOM     23  C   UNL     1      -4.329  69.599  26.222  1.00  0.00     0.159 C 
ATOM     24  C   UNL     1      -4.311  68.244  25.637  1.00  0.00     0.005 C 
ATOM     25  C   UNL     1      -3.916  65.776  25.941  1.00  0.00     0.020 C 
ATOM     26  C   UNL     1      -6.164  66.825  26.502  1.00  0.00     0.017 C 
ATOM     27  O   UNL     1      -4.642  70.602  25.521  1.00  0.00    -0.295 OA
ATOM     28  C   UNL     1      -4.126  68.108  24.309  1.00  0.00     0.055 C 
ATOM     29  C   UNL     1      -4.247  65.534  24.461  1.00  0.00     0.081 C 
ATOM     30  C   UNL     1      -4.094  66.789  23.660  1.00  0.00     0.156 C 
ATOM     31  O   UNL     1      -3.969  66.715  22.406  1.00  0.00    -0.295 OA
ENDBRANCH   9  11
ENDBRANCH   8   9
ENDBRANCH   1   8
TORSDOF 6
ENDMDL
MODEL 8
REMARK VINA RESULT:    -5.794      2.872      5.863
REMARK INTER + INTRA:          -9.565
REMARK INTER:                  -8.272
REMARK INTRA:                  -1.293
REMARK UNBOUND:                -1.738
REMARK SMILES CC[C@H](CC[C@@H](C)[C@@H]1CC[C@H]2[C@H]3CC(=O)C4=CC(=O)CC[C@@]4(C)[C@@H]3CC[C@]21C)C(C)C
REMARK SMILES IDX 4 1 3 2 2 3 1 4 29 5 30 6 31 7 5 8 6 9 7 10 8 11 9 12 27 13
REMARK SMILES IDX 10 14 11 15 26 16 28 17 12 18 25 19 24 20 13 21 22 22 14 23
REMARK SMILES IDX 16 24 21 25 23 26 15 27 17 28 20 29 18 30 19 31
REMARK H PARENT
REMARK Flexibility Score: inf
ROOT
ATOM      1  C   UNL     1      -6.588  72.869  24.169  1.00  0.00     0.004 C 
ENDROOT
BRANCH   1   2
ATOM      2  C   UNL     1      -8.069  73.143  23.759  1.00  0.00    -0.009 C 
BRANCH   2   3
ATOM      3  C   UNL     1      -9.046  72.852  24.932  1.00  0.00     0.000 C 
ATOM      4  C   UNL     1      -8.483  73.135  26.325  1.00  0.00     0.004 C 
ENDBRANCH   2   3
BRANCH   2   5
ATOM      5  C   UNL     1      -8.353  74.534  23.081  1.00  0.00    -0.014 C 
ATOM      6  C   UNL     1      -8.001  74.623  21.584  1.00  0.00     0.007 C 
ATOM      7  C   UNL     1      -9.801  75.001  23.296  1.00  0.00     0.007 C 
ENDBRANCH   2   5
ENDBRANCH   1   2
BRANCH   1   8
ATOM      8  C   UNL     1      -5.692  72.431  22.992  1.00  0.00     0.004 C 
BRANCH   8   9
ATOM      9  C   UNL     1      -5.271  70.936  23.111  1.00  0.00    -0.011 C 
ATOM     10  C   UNL     1      -4.593  70.525  21.780  1.00  0.00     0.008 C 
BRANCH   9  11
ATOM     11  C   UNL     1      -4.326  70.692  24.343  1.00  0.00    -0.002 C 
ATOM     12  C   UNL     1      -3.032  69.944  23.953  1.00  0.00     0.005 C 
ATOM     13  C   UNL     1      -4.898  69.897  25.597  1.00  0.00    -0.026 C 
ATOM     14  C   UNL     1      -2.649  69.092  25.143  1.00  0.00     0.005 C 
ATOM     15  C   UNL     1      -3.992  68.640  25.698  1.00  0.00    -0.001 C 
ATOM     16  C   UNL     1      -4.718  70.797  26.858  1.00  0.00     0.007 C 
ATOM     17  C   UNL     1      -6.380  69.432  25.489  1.00  0.00     0.012 C 
ATOM     18  C   UNL     1      -3.955  67.933  27.092  1.00  0.00     0.004 C 
ATOM     19  C   UNL     1      -4.848  70.040  28.179  1.00  0.00     0.005 C 
ATOM     20  C   UNL     1      -3.789  68.913  28.290  1.00  0.00     0.003 C 
ATOM     21  C   UNL     1      -2.877  66.833  27.118  1.00  0.00     0.085 C 
ATOM     22  C   UNL     1      -3.819  68.184  29.701  1.00  0.00    -0.000 C 
ATOM     23  C   UNL     1      -2.856  66.132  28.433  1.00  0.00     0.159 C 
ATOM     24  C   UNL     1      -2.950  66.919  29.678  1.00  0.00     0.005 C 
ATOM     25  C   UNL     1      -3.260  69.158  30.788  1.00  0.00     0.020 C 
ATOM     26  C   UNL     1      -5.260  67.751  30.089  1.00  0.00     0.017 C 
ATOM     27  O   UNL     1      -2.671  64.883  28.470  1.00  0.00    -0.295 OA
ATOM     28  C   UNL     1      -2.358  66.451  30.795  1.00  0.00     0.055 C 
ATOM     29  C   UNL     1      -3.111  68.502  32.168  1.00  0.00     0.081 C 
ATOM     30  C   UNL     1      -2.410  67.184  32.068  1.00  0.00     0.156 C 
ATOM     31  O   UNL     1      -1.883  66.679  33.098  1.00  0.00    -0.295 OA
ENDBRANCH   9  11
ENDBRANCH   8   9
ENDBRANCH   1   8
TORSDOF 6
ENDMDL
MODEL 9
REMARK VINA RESULT:    -5.767      1.678      3.198
REMARK INTER + INTRA:          -9.528
REMARK INTER:                  -8.344
REMARK INTRA:                  -1.184
REMARK UNBOUND:                -1.738
REMARK SMILES CC[C@H](CC[C@@H](C)[C@@H]1CC[C@H]2[C@H]3CC(=O)C4=CC(=O)CC[C@@]4(C)[C@@H]3CC[C@]21C)C(C)C
REMARK SMILES IDX 4 1 3 2 2 3 1 4 29 5 30 6 31 7 5 8 6 9 7 10 8 11 9 12 27 13
REMARK SMILES IDX 10 14 11 15 26 16 28 17 12 18 25 19 24 20 13 21 22 22 14 23
REMARK SMILES IDX 16 24 21 25 23 26 15 27 17 28 20 29 18 30 19 31
REMARK H PARENT
REMARK Flexibility Score: inf
ROOT
ATOM      1  C   UNL     1      -3.402  69.913  26.731  1.00  0.00     0.004 C 
ENDROOT
BRANCH   1   2
ATOM      2  C   UNL     1      -4.160  70.685  25.607  1.00  0.00    -0.009 C 
BRANCH   2   3
ATOM      3  C   UNL     1      -5.604  71.056  26.047  1.00  0.00     0.000 C 
ATOM      4  C   UNL     1      -6.707  70.599  25.091  1.00  0.00     0.004 C 
ENDBRANCH   2   3
BRANCH   2   5
ATOM      5  C   UNL     1      -3.400  71.909  24.973  1.00  0.00    -0.014 C 
ATOM      6  C   UNL     1      -2.145  72.372  25.735  1.00  0.00     0.007 C 
ATOM      7  C   UNL     1      -3.046  71.673  23.497  1.00  0.00     0.007 C 
ENDBRANCH   2   5
ENDBRANCH   1   2
BRANCH   1   8
ATOM      8  C   UNL     1      -3.586  68.383  26.660  1.00  0.00     0.004 C 
BRANCH   8   9
ATOM      9  C   UNL     1      -4.859  67.917  27.428  1.00  0.00    -0.011 C 
ATOM     10  C   UNL     1      -5.638  66.941  26.511  1.00  0.00     0.008 C 
BRANCH   9  11
ATOM     11  C   UNL     1      -4.499  67.255  28.807  1.00  0.00    -0.002 C 
ATOM     12  C   UNL     1      -5.474  66.119  29.187  1.00  0.00     0.005 C 
ATOM     13  C   UNL     1      -4.422  68.180  30.100  1.00  0.00    -0.026 C 
ATOM     14  C   UNL     1      -5.583  66.128  30.696  1.00  0.00     0.005 C 
ATOM     15  C   UNL     1      -5.514  67.608  31.044  1.00  0.00    -0.001 C 
ATOM     16  C   UNL     1      -3.008  67.999  30.735  1.00  0.00     0.007 C 
ATOM     17  C   UNL     1      -4.707  69.693  29.871  1.00  0.00     0.012 C 
ATOM     18  C   UNL     1      -5.354  67.949  32.561  1.00  0.00     0.004 C 
ATOM     19  C   UNL     1      -2.912  68.501  32.175  1.00  0.00     0.005 C 
ATOM     20  C   UNL     1      -3.907  67.755  33.100  1.00  0.00     0.003 C 
ATOM     21  C   UNL     1      -6.374  67.166  33.408  1.00  0.00     0.085 C 
ATOM     22  C   UNL     1      -3.748  68.168  34.626  1.00  0.00    -0.000 C 
ATOM     23  C   UNL     1      -6.251  67.508  34.853  1.00  0.00     0.159 C 
ATOM     24  C   UNL     1      -4.910  67.614  35.463  1.00  0.00     0.005 C 
ATOM     25  C   UNL     1      -2.409  67.580  35.176  1.00  0.00     0.020 C 
ATOM     26  C   UNL     1      -3.744  69.712  34.801  1.00  0.00     0.017 C 
ATOM     27  O   UNL     1      -7.292  67.619  35.559  1.00  0.00    -0.295 OA
ATOM     28  C   UNL     1      -4.762  67.325  36.771  1.00  0.00     0.055 C 
ATOM     29  C   UNL     1      -2.226  67.799  36.684  1.00  0.00     0.081 C 
ATOM     30  C   UNL     1      -3.456  67.408  37.441  1.00  0.00     0.156 C 
ATOM     31  O   UNL     1      -3.377  67.175  38.679  1.00  0.00    -0.295 OA
ENDBRANCH   9  11
ENDBRANCH   8   9
ENDBRANCH   1   8
TORSDOF 6
ENDMDL
