MODEL 1
REMARK VINA RESULT:    94.210      0.000      0.000
REMARK INTER + INTRA:         148.199
REMARK INTER:                 149.286
REMARK INTRA:                  -1.087
REMARK UNBOUND:                -1.087
REMARK SMILES C[C@@H]1O[C@H](O[C@@H]2[C@H](Oc3cc(O)c4c(c3)O[C@@H](c3ccc(O)cc3)CC4=O)O[C@@H](CO)[C@H](O)[C@@H]2O)[C@H](O)[C@@H](O)[C@H]1O
REMARK SMILES IDX 6 1 34 2 32 3 29 4 28 5 7 6 5 7 4 8 1 9 2 10 40 11 3 12
REMARK SMILES IDX 38 13 36 14 41 15 39 17 37 19 35 21 8 23 9 24 10 25 15 26
REMARK SMILES IDX 11 27 14 28 13 29 16 30 26 31 17 32 27 33 25 34 12 35 18 37
REMARK SMILES IDX 19 38 24 39 20 40 23 41 21 42 22 43 33 45 30 47 31 48
REMARK H PARENT 41 16 39 18 37 20 35 22 12 36 22 44 33 46 31 49
REMARK Flexibility Score: inf
ROOT
ATOM      1  C   UNL     1     -40.660  28.665 -22.083  1.00  0.00     0.221 C 
ATOM      2  C   UNL     1     -41.248  27.349 -22.655  1.00  0.00     0.181 C 
ATOM      3  C   UNL     1     -40.417  26.124 -22.194  1.00  0.00     0.177 C 
ATOM      4  C   UNL     1     -38.898  26.292 -22.572  1.00  0.00     0.179 C 
ATOM      5  O   UNL     1     -38.470  27.658 -22.630  1.00  0.00    -0.332 OA
ATOM      6  C   UNL     1     -39.160  28.484 -21.712  1.00  0.00     0.339 C 
ENDROOT
BRANCH   1   7
ATOM      7  O   UNL     1     -40.838  29.732 -23.011  1.00  0.00    -0.337 OA
BRANCH   7   8
ATOM      8  C   UNL     1     -41.800  30.689 -22.597  1.00  0.00     0.282 C 
ATOM      9  C   UNL     1     -42.445  34.021 -23.974  1.00  0.00     0.041 C 
ATOM     10  C   UNL     1     -42.565  32.854 -22.981  1.00  0.00     0.150 C 
ATOM     11  C   UNL     1     -44.062  32.442 -22.785  1.00  0.00     0.174 C 
ATOM     12  O   UNL     1     -41.769  31.782 -23.482  1.00  0.00    -0.344 OA
ATOM     13  C   UNL     1     -44.213  31.069 -22.065  1.00  0.00     0.179 C 
ATOM     14  C   UNL     1     -43.207  30.070 -22.643  1.00  0.00     0.202 C 
BRANCH  11  15
ATOM     15  O   UNL     1     -44.791  33.441 -22.111  1.00  0.00    -0.388 OA
ATOM     16  H   UNL     1     -44.451  34.322 -22.415  1.00  0.00     0.211 HD
ENDBRANCH  11  15
BRANCH  13  17
ATOM     17  O   UNL     1     -43.996  31.189 -20.680  1.00  0.00    -0.387 OA
ATOM     18  H   UNL     1     -43.684  30.313 -20.355  1.00  0.00     0.211 HD
ENDBRANCH  13  17
BRANCH  14  19
ATOM     19  O   UNL     1     -43.544  29.751 -23.973  1.00  0.00    -0.385 OA
ATOM     20  H   UNL     1     -44.350  30.291 -24.206  1.00  0.00     0.211 HD
ENDBRANCH  14  19
ENDBRANCH   7   8
ENDBRANCH   1   7
BRANCH   2  21
ATOM     21  O   UNL     1     -41.367  27.395 -24.057  1.00  0.00    -0.387 OA
ATOM     22  H   UNL     1     -40.458  27.519 -24.431  1.00  0.00     0.211 HD
ENDBRANCH   2  21
BRANCH   6  23
ATOM     23  O   UNL     1     -38.522  29.748 -21.538  1.00  0.00    -0.462 OA
BRANCH  23  24
ATOM     24  C   UNL     1     -37.647  30.158 -20.513  1.00  0.00     0.130 A 
ATOM     25  C   UNL     1     -37.484  31.532 -20.330  1.00  0.00     0.093 A 
ATOM     26  C   UNL     1     -37.008  29.271 -19.621  1.00  0.00     0.094 A 
ATOM     27  C   UNL     1     -36.744  32.035 -19.252  1.00  0.00     0.133 A 
ATOM     28  C   UNL     1     -36.300  29.754 -18.515  1.00  0.00     0.138 A 
ATOM     29  C   UNL     1     -36.176  31.144 -18.319  1.00  0.00     0.102 A 
ATOM     30  O   UNL     1     -35.731  28.840 -17.606  1.00  0.00    -0.484 OA
ATOM     31  C   UNL     1     -35.511  31.608 -17.086  1.00  0.00     0.174 C 
ATOM     32  C   UNL     1     -34.972  29.247 -16.460  1.00  0.00     0.211 C 
ATOM     33  O   UNL     1     -35.108  32.795 -16.957  1.00  0.00    -0.294 OA
ATOM     34  C   UNL     1     -35.394  30.640 -15.945  1.00  0.00     0.131 C 
BRANCH  27  35
ATOM     35  O   UNL     1     -36.619  33.415 -19.088  1.00  0.00    -0.507 OA
ATOM     36  H   UNL     1     -36.210  34.017 -19.802  1.00  0.00     0.293 HD
ENDBRANCH  27  35
BRANCH  32  37
ATOM     37  C   UNL     1     -33.490  29.211 -16.731  1.00  0.00    -0.007 A 
ATOM     38  C   UNL     1     -32.642  28.563 -15.814  1.00  0.00     0.011 A 
ATOM     39  C   UNL     1     -32.913  29.908 -17.810  1.00  0.00     0.011 A 
ATOM     40  C   UNL     1     -31.252  28.587 -15.986  1.00  0.00     0.046 A 
ATOM     41  C   UNL     1     -31.528  29.934 -17.978  1.00  0.00     0.046 A 
ATOM     42  C   UNL     1     -30.694  29.269 -17.071  1.00  0.00     0.115 A 
BRANCH  42  43
ATOM     43  O   UNL     1     -29.316  29.317 -17.235  1.00  0.00    -0.508 OA
ATOM     44  H   UNL     1     -28.802  28.604 -17.745  1.00  0.00     0.293 HD
ENDBRANCH  42  43
ENDBRANCH  32  37
ENDBRANCH  23  24
ENDBRANCH   6  23
BRANCH   3  45
ATOM     45  O   UNL     1     -40.962  24.929 -22.687  1.00  0.00    -0.387 OA
ATOM     46  H   UNL     1     -41.409  25.129 -23.547  1.00  0.00     0.211 HD
ENDBRANCH   3  45
BRANCH   4  47
ATOM     47  C   UNL     1     -37.966  25.483 -21.653  1.00  0.00     0.191 C 
BRANCH  47  48
ATOM     48  O   UNL     1     -36.869  26.273 -21.263  1.00  0.00    -0.394 OA
ATOM     49  H   UNL     1     -37.076  26.636 -20.368  1.00  0.00     0.210 HD
ENDBRANCH  47  48
ENDBRANCH   4  47
TORSDOF 14
ENDMDL
MODEL 2
REMARK VINA RESULT:    96.495      3.209     10.786
REMARK INTER + INTRA:         151.820
REMARK INTER:                 149.074
REMARK INTRA:                   2.746
REMARK UNBOUND:                -1.087
REMARK SMILES C[C@@H]1O[C@H](O[C@@H]2[C@H](Oc3cc(O)c4c(c3)O[C@@H](c3ccc(O)cc3)CC4=O)O[C@@H](CO)[C@H](O)[C@@H]2O)[C@H](O)[C@@H](O)[C@H]1O
REMARK SMILES IDX 6 1 34 2 32 3 29 4 28 5 7 6 5 7 4 8 1 9 2 10 40 11 3 12
REMARK SMILES IDX 38 13 36 14 41 15 39 17 37 19 35 21 8 23 9 24 10 25 15 26
REMARK SMILES IDX 11 27 14 28 13 29 16 30 26 31 17 32 27 33 25 34 12 35 18 37
REMARK SMILES IDX 19 38 24 39 20 40 23 41 21 42 22 43 33 45 30 47 31 48
REMARK H PARENT 41 16 39 18 37 20 35 22 12 36 22 44 33 46 31 49
REMARK Flexibility Score: inf
ROOT
ATOM      1  C   UNL     1     -31.072  29.842 -17.227  1.00  0.00     0.221 C 
ATOM      2  C   UNL     1     -29.934  29.127 -18.000  1.00  0.00     0.181 C 
ATOM      3  C   UNL     1     -29.778  29.716 -19.426  1.00  0.00     0.177 C 
ATOM      4  C   UNL     1     -31.138  29.660 -20.216  1.00  0.00     0.179 C 
ATOM      5  O   UNL     1     -32.294  29.728 -19.371  1.00  0.00    -0.332 OA
ATOM      6  C   UNL     1     -32.076  30.507 -18.211  1.00  0.00     0.339 C 
ENDROOT
BRANCH   1   7
ATOM      7  O   UNL     1     -31.732  28.926 -16.356  1.00  0.00    -0.337 OA
BRANCH   7   8
ATOM      8  C   UNL     1     -30.844  28.066 -15.659  1.00  0.00     0.282 C 
ATOM      9  C   UNL     1     -31.249  26.572 -12.341  1.00  0.00     0.041 C 
ATOM     10  C   UNL     1     -30.521  26.957 -13.638  1.00  0.00     0.150 C 
ATOM     11  C   UNL     1     -29.924  25.692 -14.339  1.00  0.00     0.174 C 
ATOM     12  O   UNL     1     -31.456  27.646 -14.465  1.00  0.00    -0.344 OA
ATOM     13  C   UNL     1     -29.479  25.977 -15.804  1.00  0.00     0.179 C 
ATOM     14  C   UNL     1     -30.541  26.824 -16.512  1.00  0.00     0.202 C 
BRANCH  11  15
ATOM     15  O   UNL     1     -28.866  25.137 -13.595  1.00  0.00    -0.388 OA
ATOM     16  H   UNL     1     -28.019  25.353 -14.064  1.00  0.00     0.211 HD
ENDBRANCH  11  15
BRANCH  13  17
ATOM     17  O   UNL     1     -28.249  26.659 -15.843  1.00  0.00    -0.387 OA
ATOM     18  H   UNL     1     -27.752  26.326 -16.626  1.00  0.00     0.211 HD
ENDBRANCH  13  17
BRANCH  14  19
ATOM     19  O   UNL     1     -31.720  26.074 -16.696  1.00  0.00    -0.385 OA
ATOM     20  H   UNL     1     -31.647  25.270 -16.110  1.00  0.00     0.211 HD
ENDBRANCH  14  19
ENDBRANCH   7   8
ENDBRANCH   1   7
BRANCH   2  21
ATOM     21  O   UNL     1     -30.120  27.733 -18.034  1.00  0.00    -0.387 OA
ATOM     22  H   UNL     1     -29.845  27.415 -18.932  1.00  0.00     0.211 HD
ENDBRANCH   2  21
BRANCH   6  23
ATOM     23  O   UNL     1     -33.294  30.842 -17.549  1.00  0.00    -0.462 OA
BRANCH  23  24
ATOM     24  C   UNL     1     -34.599  30.392 -17.827  1.00  0.00     0.130 A 
ATOM     25  C   UNL     1     -35.274  29.730 -16.800  1.00  0.00     0.093 A 
ATOM     26  C   UNL     1     -35.279  30.646 -19.037  1.00  0.00     0.094 A 
ATOM     27  C   UNL     1     -36.621  29.368 -16.936  1.00  0.00     0.133 A 
ATOM     28  C   UNL     1     -36.635  30.328 -19.176  1.00  0.00     0.138 A 
ATOM     29  C   UNL     1     -37.316  29.698 -18.117  1.00  0.00     0.102 A 
ATOM     30  O   UNL     1     -37.302  30.657 -20.373  1.00  0.00    -0.484 OA
ATOM     31  C   UNL     1     -38.768  29.475 -18.268  1.00  0.00     0.174 C 
ATOM     32  C   UNL     1     -38.682  30.350 -20.609  1.00  0.00     0.211 C 
ATOM     33  O   UNL     1     -39.399  28.684 -17.516  1.00  0.00    -0.294 OA
ATOM     34  C   UNL     1     -39.497  30.284 -19.300  1.00  0.00     0.131 C 
BRANCH  27  35
ATOM     35  O   UNL     1     -37.270  28.727 -15.880  1.00  0.00    -0.507 OA
ATOM     36  H   UNL     1     -38.245  28.910 -15.644  1.00  0.00     0.293 HD
ENDBRANCH  27  35
BRANCH  32  37
ATOM     37  C   UNL     1     -38.843  29.075 -21.396  1.00  0.00    -0.007 A 
ATOM     38  C   UNL     1     -40.137  28.626 -21.717  1.00  0.00     0.011 A 
ATOM     39  C   UNL     1     -37.743  28.254 -21.717  1.00  0.00     0.011 A 
ATOM     40  C   UNL     1     -40.329  27.401 -22.368  1.00  0.00     0.046 A 
ATOM     41  C   UNL     1     -37.936  27.032 -22.363  1.00  0.00     0.046 A 
ATOM     42  C   UNL     1     -39.227  26.604 -22.696  1.00  0.00     0.115 A 
BRANCH  42  43
ATOM     43  O   UNL     1     -39.410  25.377 -23.319  1.00  0.00    -0.508 OA
ATOM     44  H   UNL     1     -39.606  24.525 -22.801  1.00  0.00     0.293 HD
ENDBRANCH  42  43
ENDBRANCH  32  37
ENDBRANCH  23  24
ENDBRANCH   6  23
BRANCH   3  45
ATOM     45  O   UNL     1     -28.731  29.090 -20.119  1.00  0.00    -0.387 OA
ATOM     46  H   UNL     1     -28.874  29.238 -21.088  1.00  0.00     0.211 HD
ENDBRANCH   3  45
BRANCH   4  47
ATOM     47  C   UNL     1     -31.225  30.729 -21.320  1.00  0.00     0.191 C 
BRANCH  47  48
ATOM     48  O   UNL     1     -30.187  30.544 -22.252  1.00  0.00    -0.394 OA
ATOM     49  H   UNL     1     -29.595  29.839 -21.892  1.00  0.00     0.210 HD
ENDBRANCH  47  48
ENDBRANCH   4  47
TORSDOF 14
ENDMDL
MODEL 3
REMARK VINA RESULT:    96.751      3.756      7.853
REMARK INTER + INTRA:         152.224
REMARK INTER:                 152.820
REMARK INTRA:                  -0.595
REMARK UNBOUND:                -1.087
REMARK SMILES C[C@@H]1O[C@H](O[C@@H]2[C@H](Oc3cc(O)c4c(c3)O[C@@H](c3ccc(O)cc3)CC4=O)O[C@@H](CO)[C@H](O)[C@@H]2O)[C@H](O)[C@@H](O)[C@H]1O
REMARK SMILES IDX 6 1 34 2 32 3 29 4 28 5 7 6 5 7 4 8 1 9 2 10 40 11 3 12
REMARK SMILES IDX 38 13 36 14 41 15 39 17 37 19 35 21 8 23 9 24 10 25 15 26
REMARK SMILES IDX 11 27 14 28 13 29 16 30 26 31 17 32 27 33 25 34 12 35 18 37
REMARK SMILES IDX 19 38 24 39 20 40 23 41 21 42 22 43 33 45 30 47 31 48
REMARK H PARENT 41 16 39 18 37 20 35 22 12 36 22 44 33 46 31 49
REMARK Flexibility Score: inf
ROOT
ATOM      1  C   UNL     1     -41.923  29.697 -21.437  1.00  0.00     0.221 C 
ATOM      2  C   UNL     1     -41.604  30.933 -22.317  1.00  0.00     0.181 C 
ATOM      3  C   UNL     1     -42.597  32.088 -22.031  1.00  0.00     0.177 C 
ATOM      4  C   UNL     1     -44.087  31.616 -22.216  1.00  0.00     0.179 C 
ATOM      5  O   UNL     1     -44.282  30.221 -21.956  1.00  0.00    -0.332 OA
ATOM      6  C   UNL     1     -43.405  29.725 -20.963  1.00  0.00     0.339 C 
ENDROOT
BRANCH   1   7
ATOM      7  O   UNL     1     -41.630  28.494 -22.145  1.00  0.00    -0.337 OA
BRANCH   7   8
ATOM      8  C   UNL     1     -40.240  28.252 -22.297  1.00  0.00     0.282 C 
ATOM      9  C   UNL     1     -37.499  29.218 -20.069  1.00  0.00     0.041 C 
ATOM     10  C   UNL     1     -38.157  28.673 -21.346  1.00  0.00     0.150 C 
ATOM     11  C   UNL     1     -37.632  27.236 -21.674  1.00  0.00     0.174 C 
ATOM     12  O   UNL     1     -39.568  28.702 -21.146  1.00  0.00    -0.344 OA
ATOM     13  C   UNL     1     -38.501  26.513 -22.745  1.00  0.00     0.179 C 
ATOM     14  C   UNL     1     -39.985  26.743 -22.447  1.00  0.00     0.202 C 
BRANCH  11  15
ATOM     15  O   UNL     1     -36.278  27.254 -22.059  1.00  0.00    -0.388 OA
ATOM     16  H   UNL     1     -35.789  27.836 -21.423  1.00  0.00     0.211 HD
ENDBRANCH  11  15
BRANCH  13  17
ATOM     17  O   UNL     1     -38.216  26.983 -24.040  1.00  0.00    -0.387 OA
ATOM     18  H   UNL     1     -37.824  26.234 -24.545  1.00  0.00     0.211 HD
ENDBRANCH  13  17
BRANCH  14  19
ATOM     19  O   UNL     1     -40.354  26.078 -21.261  1.00  0.00    -0.385 OA
ATOM     20  H   UNL     1     -39.545  26.054 -20.677  1.00  0.00     0.211 HD
ENDBRANCH  14  19
ENDBRANCH   7   8
ENDBRANCH   1   7
BRANCH   2  21
ATOM     21  O   UNL     1     -41.569  30.607 -23.685  1.00  0.00    -0.387 OA
ATOM     22  H   UNL     1     -41.048  29.768 -23.780  1.00  0.00     0.211 HD
ENDBRANCH   2  21
BRANCH   6  23
ATOM     23  O   UNL     1     -43.809  28.446 -20.477  1.00  0.00    -0.462 OA
BRANCH  23  24
ATOM     24  C   UNL     1     -43.132  27.588 -19.590  1.00  0.00     0.130 A 
ATOM     25  C   UNL     1     -42.518  28.175 -18.482  1.00  0.00     0.093 A 
ATOM     26  C   UNL     1     -43.115  26.182 -19.712  1.00  0.00     0.094 A 
ATOM     27  C   UNL     1     -41.939  27.391 -17.476  1.00  0.00     0.133 A 
ATOM     28  C   UNL     1     -42.578  25.381 -18.698  1.00  0.00     0.138 A 
ATOM     29  C   UNL     1     -41.998  25.986 -17.566  1.00  0.00     0.102 A 
ATOM     30  O   UNL     1     -42.638  23.979 -18.821  1.00  0.00    -0.484 OA
ATOM     31  C   UNL     1     -41.538  25.104 -16.475  1.00  0.00     0.174 C 
ATOM     32  C   UNL     1     -42.094  23.085 -17.841  1.00  0.00     0.211 C 
ATOM     33  O   UNL     1     -40.767  25.518 -15.567  1.00  0.00    -0.294 OA
ATOM     34  C   UNL     1     -42.080  23.706 -16.428  1.00  0.00     0.131 C 
BRANCH  27  35
ATOM     35  O   UNL     1     -41.353  28.012 -16.372  1.00  0.00    -0.507 OA
ATOM     36  H   UNL     1     -40.465  28.510 -16.431  1.00  0.00     0.293 HD
ENDBRANCH  27  35
BRANCH  32  37
ATOM     37  C   UNL     1     -40.717  22.610 -18.223  1.00  0.00    -0.007 A 
ATOM     38  C   UNL     1     -39.679  23.551 -18.356  1.00  0.00     0.011 A 
ATOM     39  C   UNL     1     -40.460  21.268 -18.569  1.00  0.00     0.011 A 
ATOM     40  C   UNL     1     -38.410  23.159 -18.797  1.00  0.00     0.046 A 
ATOM     41  C   UNL     1     -39.195  20.879 -19.012  1.00  0.00     0.046 A 
ATOM     42  C   UNL     1     -38.165  21.820 -19.121  1.00  0.00     0.115 A 
BRANCH  42  43
ATOM     43  O   UNL     1     -36.915  21.428 -19.582  1.00  0.00    -0.508 OA
ATOM     44  H   UNL     1     -36.353  22.010 -20.197  1.00  0.00     0.293 HD
ENDBRANCH  42  43
ENDBRANCH  32  37
ENDBRANCH  23  24
ENDBRANCH   6  23
BRANCH   3  45
ATOM     45  O   UNL     1     -42.294  33.219 -22.805  1.00  0.00    -0.387 OA
ATOM     46  H   UNL     1     -43.140  33.566 -23.184  1.00  0.00     0.211 HD
ENDBRANCH   3  45
BRANCH   4  47
ATOM     47  C   UNL     1     -45.080  32.454 -21.391  1.00  0.00     0.191 C 
BRANCH  47  48
ATOM     48  O   UNL     1     -45.077  32.023 -20.051  1.00  0.00    -0.394 OA
ATOM     49  H   UNL     1     -44.179  32.215 -19.686  1.00  0.00     0.210 HD
ENDBRANCH  47  48
ENDBRANCH   4  47
TORSDOF 14
ENDMDL
