MODEL 1
REMARK VINA RESULT:    15.828      0.000      0.000
REMARK INTER + INTRA:          40.788
REMARK INTER:                  39.885
REMARK INTRA:                   0.903
REMARK UNBOUND:                 0.903
REMARK SMILES CCCCCCCCCCCCCCCCCCCCCCCCCCCC(=O)[O-]
REMARK SMILES IDX 15 1 16 2 17 3 18 4 19 5 20 6 21 7 22 8 23 9 24 10 25 11
REMARK SMILES IDX 26 12 27 13 28 14 29 15 30 16 14 17 13 18 12 19 11 20 10 21
REMARK SMILES IDX 9 22 8 23 7 24 6 25 5 26 4 27 3 28 2 29 1 30
REMARK H PARENT
REMARK Flexibility Score: inf
ROOT
ATOM      1  C   UNL     1       8.887 -30.123 -13.495  1.00  0.00     0.000 C 
ENDROOT
BRANCH   1   2
ATOM      2  C   UNL     1       7.889 -29.236 -14.257  1.00  0.00     0.000 C 
BRANCH   2   3
ATOM      3  C   UNL     1       8.139 -29.220 -15.773  1.00  0.00     0.000 C 
BRANCH   3   4
ATOM      4  C   UNL     1       7.193 -28.261 -16.518  1.00  0.00     0.000 C 
BRANCH   4   5
ATOM      5  C   UNL     1       6.422 -28.958 -17.650  1.00  0.00     0.000 C 
BRANCH   5   6
ATOM      6  C   UNL     1       6.530 -28.207 -18.988  1.00  0.00     0.000 C 
BRANCH   6   7
ATOM      7  C   UNL     1       6.690 -29.157 -20.186  1.00  0.00     0.000 C 
BRANCH   7   8
ATOM      8  C   UNL     1       8.158 -29.317 -20.621  1.00  0.00     0.000 C 
BRANCH   8   9
ATOM      9  C   UNL     1       8.916 -30.342 -19.765  1.00  0.00     0.000 C 
BRANCH   9  10
ATOM     10  C   UNL     1       9.891 -29.679 -18.776  1.00  0.00     0.000 C 
BRANCH  10  11
ATOM     11  C   UNL     1       9.664 -30.126 -17.320  1.00  0.00     0.000 C 
BRANCH  11  12
ATOM     12  C   UNL     1       9.589 -31.650 -17.115  1.00  0.00     0.006 C 
BRANCH  12  13
ATOM     13  C   UNL     1       9.719 -32.062 -15.643  1.00  0.00     0.053 C 
BRANCH  13  14
ATOM     14  C   UNL     1       8.923 -33.300 -15.376  1.00  0.00     0.041 C 
ATOM     15  O   UNL     1       8.300 -33.867 -16.311  1.00  0.00    -0.550 OA
ATOM     16  O   UNL     1       8.832 -33.803 -14.084  1.00  0.00    -0.550 OA
ENDBRANCH  13  14
ENDBRANCH  12  13
ENDBRANCH  11  12
ENDBRANCH  10  11
ENDBRANCH   9  10
ENDBRANCH   8   9
ENDBRANCH   7   8
ENDBRANCH   6   7
ENDBRANCH   5   6
ENDBRANCH   4   5
ENDBRANCH   3   4
ENDBRANCH   2   3
ENDBRANCH   1   2
BRANCH   1  17
ATOM     17  C   UNL     1       8.749 -29.920 -11.977  1.00  0.00     0.000 C 
BRANCH  17  18
ATOM     18  C   UNL     1      10.065 -30.159 -11.222  1.00  0.00     0.000 C 
BRANCH  18  19
ATOM     19  C   UNL     1       9.990 -29.720  -9.749  1.00  0.00     0.000 C 
BRANCH  19  20
ATOM     20  C   UNL     1       8.984 -28.581  -9.516  1.00  0.00     0.000 C 
BRANCH  20  21
ATOM     21  C   UNL     1       9.604 -27.215  -9.167  1.00  0.00     0.000 C 
BRANCH  21  22
ATOM     22  C   UNL     1       8.568 -26.117  -8.842  1.00  0.00    -0.000 C 
BRANCH  22  23
ATOM     23  C   UNL     1       9.016 -25.203  -7.686  1.00  0.00    -0.000 C 
BRANCH  23  24
ATOM     24  C   UNL     1       7.839 -24.803  -6.773  1.00  0.00    -0.000 C 
BRANCH  24  25
ATOM     25  C   UNL     1       8.205 -24.719  -5.278  1.00  0.00    -0.000 C 
BRANCH  25  26
ATOM     26  C   UNL     1       8.935 -25.963  -4.734  1.00  0.00    -0.000 C 
BRANCH  26  27
ATOM     27  C   UNL     1      10.465 -25.817  -4.779  1.00  0.00    -0.000 C 
BRANCH  27  28
ATOM     28  C   UNL     1      11.154 -27.127  -4.365  1.00  0.00    -0.000 C 
BRANCH  28  29
ATOM     29  C   UNL     1      12.677 -27.080  -4.562  1.00  0.00    -0.003 C 
ATOM     30  C   UNL     1      13.096 -26.194  -5.735  1.00  0.00     0.004 C 
ENDBRANCH  28  29
ENDBRANCH  27  28
ENDBRANCH  26  27
ENDBRANCH  25  26
ENDBRANCH  24  25
ENDBRANCH  23  24
ENDBRANCH  22  23
ENDBRANCH  21  22
ENDBRANCH  20  21
ENDBRANCH  19  20
ENDBRANCH  18  19
ENDBRANCH  17  18
ENDBRANCH   1  17
TORSDOF 26
ENDMDL
MODEL 2
REMARK VINA RESULT:    16.110      2.616      4.223
REMARK INTER + INTRA:          41.500
REMARK INTER:                  40.385
REMARK INTRA:                   1.115
REMARK UNBOUND:                 0.903
REMARK SMILES CCCCCCCCCCCCCCCCCCCCCCCCCCCC(=O)[O-]
REMARK SMILES IDX 15 1 16 2 17 3 18 4 19 5 20 6 21 7 22 8 23 9 24 10 25 11
REMARK SMILES IDX 26 12 27 13 28 14 29 15 30 16 14 17 13 18 12 19 11 20 10 21
REMARK SMILES IDX 9 22 8 23 7 24 6 25 5 26 4 27 3 28 2 29 1 30
REMARK H PARENT
REMARK Flexibility Score: inf
ROOT
ATOM      1  C   UNL     1      10.730 -29.975 -10.873  1.00  0.00     0.000 C 
ENDROOT
BRANCH   1   2
ATOM      2  C   UNL     1       9.634 -30.139 -11.939  1.00  0.00     0.000 C 
BRANCH   2   3
ATOM      3  C   UNL     1      10.176 -30.037 -13.373  1.00  0.00     0.000 C 
BRANCH   3   4
ATOM      4  C   UNL     1       9.146 -30.482 -14.427  1.00  0.00     0.000 C 
BRANCH   4   5
ATOM      5  C   UNL     1       9.603 -31.725 -15.207  1.00  0.00     0.000 C 
BRANCH   5   6
ATOM      6  C   UNL     1       9.400 -31.579 -16.725  1.00  0.00     0.000 C 
BRANCH   6   7
ATOM      7  C   UNL     1       9.576 -30.129 -17.206  1.00  0.00     0.000 C 
BRANCH   7   8
ATOM      8  C   UNL     1       8.387 -29.639 -18.051  1.00  0.00     0.000 C 
BRANCH   8   9
ATOM      9  C   UNL     1       7.250 -29.068 -17.191  1.00  0.00     0.000 C 
BRANCH   9  10
ATOM     10  C   UNL     1       6.546 -27.874 -17.859  1.00  0.00     0.000 C 
BRANCH  10  11
ATOM     11  C   UNL     1       6.292 -28.093 -19.362  1.00  0.00     0.000 C 
BRANCH  11  12
ATOM     12  C   UNL     1       6.389 -29.557 -19.828  1.00  0.00     0.006 C 
BRANCH  12  13
ATOM     13  C   UNL     1       6.894 -29.693 -21.270  1.00  0.00     0.053 C 
BRANCH  13  14
ATOM     14  C   UNL     1       6.922 -28.356 -21.941  1.00  0.00     0.041 C 
ATOM     15  O   UNL     1       5.877 -27.888 -22.466  1.00  0.00    -0.550 OA
ATOM     16  O   UNL     1       8.113 -27.646 -22.027  1.00  0.00    -0.550 OA
ENDBRANCH  13  14
ENDBRANCH  12  13
ENDBRANCH  11  12
ENDBRANCH  10  11
ENDBRANCH   9  10
ENDBRANCH   8   9
ENDBRANCH   7   8
ENDBRANCH   6   7
ENDBRANCH   5   6
ENDBRANCH   4   5
ENDBRANCH   3   4
ENDBRANCH   2   3
ENDBRANCH   1   2
BRANCH   1  17
ATOM     17  C   UNL     1      10.143 -30.136  -9.461  1.00  0.00     0.000 C 
BRANCH  17  18
ATOM     18  C   UNL     1       8.913 -29.246  -9.221  1.00  0.00     0.000 C 
BRANCH  18  19
ATOM     19  C   UNL     1       9.263 -27.934  -8.498  1.00  0.00     0.000 C 
BRANCH  19  20
ATOM     20  C   UNL     1       9.014 -26.689  -9.366  1.00  0.00     0.000 C 
BRANCH  20  21
ATOM     21  C   UNL     1       8.768 -25.382  -8.588  1.00  0.00     0.000 C 
BRANCH  21  22
ATOM     22  C   UNL     1       8.414 -25.591  -7.100  1.00  0.00    -0.000 C 
BRANCH  22  23
ATOM     23  C   UNL     1       7.194 -24.760  -6.658  1.00  0.00    -0.000 C 
BRANCH  23  24
ATOM     24  C   UNL     1       7.349 -24.219  -5.223  1.00  0.00    -0.000 C 
BRANCH  24  25
ATOM     25  C   UNL     1       8.536 -24.827  -4.448  1.00  0.00    -0.000 C 
BRANCH  25  26
ATOM     26  C   UNL     1       9.839 -24.930  -5.265  1.00  0.00    -0.000 C 
BRANCH  26  27
ATOM     27  C   UNL     1      10.866 -25.877  -4.622  1.00  0.00    -0.000 C 
BRANCH  27  28
ATOM     28  C   UNL     1      12.218 -25.794  -5.348  1.00  0.00    -0.000 C 
BRANCH  28  29
ATOM     29  C   UNL     1      13.086 -27.042  -5.121  1.00  0.00    -0.003 C 
ATOM     30  C   UNL     1      12.659 -27.844  -3.893  1.00  0.00     0.004 C 
ENDBRANCH  28  29
ENDBRANCH  27  28
ENDBRANCH  26  27
ENDBRANCH  25  26
ENDBRANCH  24  25
ENDBRANCH  23  24
ENDBRANCH  22  23
ENDBRANCH  21  22
ENDBRANCH  20  21
ENDBRANCH  19  20
ENDBRANCH  18  19
ENDBRANCH  17  18
ENDBRANCH   1  17
TORSDOF 26
ENDMDL
MODEL 3
REMARK VINA RESULT:    16.257      1.156      1.704
REMARK INTER + INTRA:          41.871
REMARK INTER:                  39.436
REMARK INTRA:                   2.435
REMARK UNBOUND:                 0.903
REMARK SMILES CCCCCCCCCCCCCCCCCCCCCCCCCCCC(=O)[O-]
REMARK SMILES IDX 15 1 16 2 17 3 18 4 19 5 20 6 21 7 22 8 23 9 24 10 25 11
REMARK SMILES IDX 26 12 27 13 28 14 29 15 30 16 14 17 13 18 12 19 11 20 10 21
REMARK SMILES IDX 9 22 8 23 7 24 6 25 5 26 4 27 3 28 2 29 1 30
REMARK H PARENT
REMARK Flexibility Score: inf
ROOT
ATOM      1  C   UNL     1       8.398 -29.428 -14.477  1.00  0.00     0.000 C 
ENDROOT
BRANCH   1   2
ATOM      2  C   UNL     1       7.587 -28.486 -15.382  1.00  0.00     0.000 C 
BRANCH   2   3
ATOM      3  C   UNL     1       7.596 -28.918 -16.857  1.00  0.00     0.000 C 
BRANCH   3   4
ATOM      4  C   UNL     1       6.485 -28.239 -17.678  1.00  0.00     0.000 C 
BRANCH   4   5
ATOM      5  C   UNL     1       6.226 -28.951 -19.016  1.00  0.00     0.000 C 
BRANCH   5   6
ATOM      6  C   UNL     1       6.219 -27.980 -20.210  1.00  0.00     0.000 C 
BRANCH   6   7
ATOM      7  C   UNL     1       7.006 -28.522 -21.415  1.00  0.00     0.000 C 
BRANCH   7   8
ATOM      8  C   UNL     1       7.767 -29.819 -21.088  1.00  0.00     0.000 C 
BRANCH   8   9
ATOM      9  C   UNL     1       9.072 -29.557 -20.321  1.00  0.00     0.000 C 
BRANCH   9  10
ATOM     10  C   UNL     1       9.220 -30.456 -19.081  1.00  0.00     0.000 C 
BRANCH  10  11
ATOM     11  C   UNL     1       9.944 -29.757 -17.917  1.00  0.00     0.000 C 
BRANCH  11  12
ATOM     12  C   UNL     1      10.413 -30.695 -16.789  1.00  0.00     0.006 C 
BRANCH  12  13
ATOM     13  C   UNL     1       9.252 -31.277 -15.974  1.00  0.00     0.053 C 
BRANCH  13  14
ATOM     14  C   UNL     1       9.185 -32.761 -16.148  1.00  0.00     0.041 C 
ATOM     15  O   UNL     1       9.235 -33.268 -17.299  1.00  0.00    -0.550 OA
ATOM     16  O   UNL     1       9.020 -33.584 -15.040  1.00  0.00    -0.550 OA
ENDBRANCH  13  14
ENDBRANCH  12  13
ENDBRANCH  11  12
ENDBRANCH  10  11
ENDBRANCH   9  10
ENDBRANCH   8   9
ENDBRANCH   7   8
ENDBRANCH   6   7
ENDBRANCH   5   6
ENDBRANCH   4   5
ENDBRANCH   3   4
ENDBRANCH   2   3
ENDBRANCH   1   2
BRANCH   1  17
ATOM     17  C   UNL     1       7.692 -29.628 -13.127  1.00  0.00     0.000 C 
BRANCH  17  18
ATOM     18  C   UNL     1       8.672 -29.681 -11.944  1.00  0.00     0.000 C 
BRANCH  18  19
ATOM     19  C   UNL     1       8.091 -29.052 -10.666  1.00  0.00     0.000 C 
BRANCH  19  20
ATOM     20  C   UNL     1       8.901 -29.403  -9.407  1.00  0.00     0.000 C 
BRANCH  20  21
ATOM     21  C   UNL     1       9.694 -28.237  -8.787  1.00  0.00     0.000 C 
BRANCH  21  22
ATOM     22  C   UNL     1       9.744 -26.969  -9.667  1.00  0.00    -0.000 C 
BRANCH  22  23
ATOM     23  C   UNL     1       8.715 -25.908  -9.236  1.00  0.00    -0.000 C 
BRANCH  23  24
ATOM     24  C   UNL     1       8.595 -25.805  -7.702  1.00  0.00    -0.000 C 
BRANCH  24  25
ATOM     25  C   UNL     1       8.401 -24.366  -7.183  1.00  0.00    -0.000 C 
BRANCH  25  26
ATOM     26  C   UNL     1       7.413 -24.245  -6.006  1.00  0.00    -0.000 C 
BRANCH  26  27
ATOM     27  C   UNL     1       7.916 -24.951  -4.737  1.00  0.00    -0.000 C 
BRANCH  27  28
ATOM     28  C   UNL     1       9.452 -24.978  -4.696  1.00  0.00    -0.000 C 
BRANCH  28  29
ATOM     29  C   UNL     1      10.027 -26.359  -5.048  1.00  0.00    -0.003 C 
ATOM     30  C   UNL     1      10.569 -27.103  -3.829  1.00  0.00     0.004 C 
ENDBRANCH  28  29
ENDBRANCH  27  28
ENDBRANCH  26  27
ENDBRANCH  25  26
ENDBRANCH  24  25
ENDBRANCH  23  24
ENDBRANCH  22  23
ENDBRANCH  21  22
ENDBRANCH  20  21
ENDBRANCH  19  20
ENDBRANCH  18  19
ENDBRANCH  17  18
ENDBRANCH   1  17
TORSDOF 26
ENDMDL
MODEL 4
REMARK VINA RESULT:    16.296      3.483     11.428
REMARK INTER + INTRA:          41.969
REMARK INTER:                  43.203
REMARK INTRA:                  -1.233
REMARK UNBOUND:                 0.903
REMARK SMILES CCCCCCCCCCCCCCCCCCCCCCCCCCCC(=O)[O-]
REMARK SMILES IDX 15 1 16 2 17 3 18 4 19 5 20 6 21 7 22 8 23 9 24 10 25 11
REMARK SMILES IDX 26 12 27 13 28 14 29 15 30 16 14 17 13 18 12 19 11 20 10 21
REMARK SMILES IDX 9 22 8 23 7 24 6 25 5 26 4 27 3 28 2 29 1 30
REMARK H PARENT
REMARK Flexibility Score: inf
ROOT
ATOM      1  C   UNL     1       9.038 -30.006 -13.632  1.00  0.00     0.000 C 
ENDROOT
BRANCH   1   2
ATOM      2  C   UNL     1       9.086 -29.785 -12.111  1.00  0.00     0.000 C 
BRANCH   2   3
ATOM      3  C   UNL     1      10.463 -30.099 -11.504  1.00  0.00     0.000 C 
BRANCH   3   4
ATOM      4  C   UNL     1      10.431 -30.159  -9.967  1.00  0.00     0.000 C 
BRANCH   4   5
ATOM      5  C   UNL     1       9.253 -29.371  -9.372  1.00  0.00     0.000 C 
BRANCH   5   6
ATOM      6  C   UNL     1       9.674 -27.988  -8.844  1.00  0.00     0.000 C 
BRANCH   6   7
ATOM      7  C   UNL     1       9.069 -26.836  -9.663  1.00  0.00     0.000 C 
BRANCH   7   8
ATOM      8  C   UNL     1       8.847 -25.567  -8.822  1.00  0.00     0.000 C 
BRANCH   8   9
ATOM      9  C   UNL     1       8.482 -25.884  -7.364  1.00  0.00     0.000 C 
BRANCH   9  10
ATOM     10  C   UNL     1       8.413 -24.623  -6.484  1.00  0.00     0.000 C 
BRANCH  10  11
ATOM     11  C   UNL     1       8.557 -24.931  -4.983  1.00  0.00     0.000 C 
BRANCH  11  12
ATOM     12  C   UNL     1       9.685 -25.918  -4.630  1.00  0.00     0.006 C 
BRANCH  12  13
ATOM     13  C   UNL     1      11.080 -25.376  -4.967  1.00  0.00     0.053 C 
BRANCH  13  14
ATOM     14  C   UNL     1      12.105 -26.458  -4.837  1.00  0.00     0.041 C 
ATOM     15  O   UNL     1      11.848 -27.499  -4.178  1.00  0.00    -0.550 OA
ATOM     16  O   UNL     1      13.363 -26.297  -5.406  1.00  0.00    -0.550 OA
ENDBRANCH  13  14
ENDBRANCH  12  13
ENDBRANCH  11  12
ENDBRANCH  10  11
ENDBRANCH   9  10
ENDBRANCH   8   9
ENDBRANCH   7   8
ENDBRANCH   6   7
ENDBRANCH   5   6
ENDBRANCH   4   5
ENDBRANCH   3   4
ENDBRANCH   2   3
ENDBRANCH   1   2
BRANCH   1  17
ATOM     17  C   UNL     1       7.842 -29.266 -14.252  1.00  0.00     0.000 C 
BRANCH  17  18
ATOM     18  C   UNL     1       8.005 -29.029 -15.762  1.00  0.00     0.000 C 
BRANCH  18  19
ATOM     19  C   UNL     1       6.660 -28.811 -16.476  1.00  0.00     0.000 C 
BRANCH  19  20
ATOM     20  C   UNL     1       6.808 -28.062 -17.811  1.00  0.00     0.000 C 
BRANCH  20  21
ATOM     21  C   UNL     1       6.361 -28.847 -19.060  1.00  0.00     0.000 C 
BRANCH  21  22
ATOM     22  C   UNL     1       6.989 -28.345 -20.378  1.00  0.00    -0.000 C 
BRANCH  22  23
ATOM     23  C   UNL     1       7.575 -29.488 -21.228  1.00  0.00    -0.000 C 
BRANCH  23  24
ATOM     24  C   UNL     1       8.534 -30.383 -20.416  1.00  0.00    -0.000 C 
BRANCH  24  25
ATOM     25  C   UNL     1       9.596 -29.601 -19.618  1.00  0.00    -0.000 C 
BRANCH  25  26
ATOM     26  C   UNL     1       9.626 -29.930 -18.112  1.00  0.00    -0.000 C 
BRANCH  26  27
ATOM     27  C   UNL     1       9.212 -31.381 -17.816  1.00  0.00    -0.000 C 
BRANCH  27  28
ATOM     28  C   UNL     1       9.570 -31.770 -16.372  1.00  0.00    -0.000 C 
BRANCH  28  29
ATOM     29  C   UNL     1       9.112 -33.193 -16.015  1.00  0.00    -0.003 C 
ATOM     30  C   UNL     1       8.792 -33.357 -14.530  1.00  0.00     0.004 C 
ENDBRANCH  28  29
ENDBRANCH  27  28
ENDBRANCH  26  27
ENDBRANCH  25  26
ENDBRANCH  24  25
ENDBRANCH  23  24
ENDBRANCH  22  23
ENDBRANCH  21  22
ENDBRANCH  20  21
ENDBRANCH  19  20
ENDBRANCH  18  19
ENDBRANCH  17  18
ENDBRANCH   1  17
TORSDOF 26
ENDMDL
MODEL 5
REMARK VINA RESULT:    16.302      3.508     11.882
REMARK INTER + INTRA:          41.983
REMARK INTER:                  40.306
REMARK INTRA:                   1.678
REMARK UNBOUND:                 0.903
REMARK SMILES CCCCCCCCCCCCCCCCCCCCCCCCCCCC(=O)[O-]
REMARK SMILES IDX 15 1 16 2 17 3 18 4 19 5 20 6 21 7 22 8 23 9 24 10 25 11
REMARK SMILES IDX 26 12 27 13 28 14 29 15 30 16 14 17 13 18 12 19 11 20 10 21
REMARK SMILES IDX 9 22 8 23 7 24 6 25 5 26 4 27 3 28 2 29 1 30
REMARK H PARENT
REMARK Flexibility Score: inf
ROOT
ATOM      1  C   UNL     1       8.852 -30.345 -12.231  1.00  0.00     0.000 C 
ENDROOT
BRANCH   1   2
ATOM      2  C   UNL     1      10.134 -29.749 -11.627  1.00  0.00     0.000 C 
BRANCH   2   3
ATOM      3  C   UNL     1      10.308 -30.089 -10.138  1.00  0.00     0.000 C 
BRANCH   3   4
ATOM      4  C   UNL     1       9.302 -29.346  -9.241  1.00  0.00     0.000 C 
BRANCH   4   5
ATOM      5  C   UNL     1       9.741 -27.905  -8.933  1.00  0.00     0.000 C 
BRANCH   5   6
ATOM      6  C   UNL     1       8.901 -26.858  -9.685  1.00  0.00     0.000 C 
BRANCH   6   7
ATOM      7  C   UNL     1       8.862 -25.502  -8.960  1.00  0.00     0.000 C 
BRANCH   7   8
ATOM      8  C   UNL     1       8.580 -25.646  -7.454  1.00  0.00     0.000 C 
BRANCH   8   9
ATOM      9  C   UNL     1       8.105 -24.331  -6.817  1.00  0.00     0.000 C 
BRANCH   9  10
ATOM     10  C   UNL     1       8.117 -24.382  -5.279  1.00  0.00     0.000 C 
BRANCH  10  11
ATOM     11  C   UNL     1       8.825 -25.633  -4.726  1.00  0.00     0.000 C 
BRANCH  11  12
ATOM     12  C   UNL     1      10.363 -25.582  -4.776  1.00  0.00     0.006 C 
BRANCH  12  13
ATOM     13  C   UNL     1      11.019 -26.906  -4.367  1.00  0.00     0.053 C 
BRANCH  13  14
ATOM     14  C   UNL     1      12.462 -26.917  -4.760  1.00  0.00     0.041 C 
ATOM     15  O   UNL     1      13.215 -27.853  -4.383  1.00  0.00    -0.550 OA
ATOM     16  O   UNL     1      12.988 -25.869  -5.505  1.00  0.00    -0.550 OA
ENDBRANCH  13  14
ENDBRANCH  12  13
ENDBRANCH  11  12
ENDBRANCH  10  11
ENDBRANCH   9  10
ENDBRANCH   8   9
ENDBRANCH   7   8
ENDBRANCH   6   7
ENDBRANCH   5   6
ENDBRANCH   4   5
ENDBRANCH   3   4
ENDBRANCH   2   3
ENDBRANCH   1   2
BRANCH   1  17
ATOM     17  C   UNL     1       8.810 -30.119 -13.751  1.00  0.00     0.000 C 
BRANCH  17  18
ATOM     18  C   UNL     1       9.962 -30.818 -14.489  1.00  0.00     0.000 C 
BRANCH  18  19
ATOM     19  C   UNL     1       9.469 -31.758 -15.602  1.00  0.00     0.000 C 
BRANCH  19  20
ATOM     20  C   UNL     1       9.629 -31.154 -17.008  1.00  0.00     0.000 C 
BRANCH  20  21
ATOM     21  C   UNL     1       8.827 -29.865 -17.267  1.00  0.00     0.000 C 
BRANCH  21  22
ATOM     22  C   UNL     1       8.216 -29.235 -15.996  1.00  0.00    -0.000 C 
BRANCH  22  23
ATOM     23  C   UNL     1       7.190 -28.132 -16.316  1.00  0.00    -0.000 C 
BRANCH  23  24
ATOM     24  C   UNL     1       6.228 -28.545 -17.448  1.00  0.00    -0.000 C 
BRANCH  24  25
ATOM     25  C   UNL     1       6.597 -27.964 -18.828  1.00  0.00    -0.000 C 
BRANCH  25  26
ATOM     26  C   UNL     1       6.120 -28.816 -20.021  1.00  0.00    -0.000 C 
BRANCH  26  27
ATOM     27  C   UNL     1       6.103 -28.027 -21.341  1.00  0.00    -0.000 C 
BRANCH  27  28
ATOM     28  C   UNL     1       7.073 -28.643 -22.361  1.00  0.00    -0.000 C 
BRANCH  28  29
ATOM     29  C   UNL     1       7.636 -29.996 -21.896  1.00  0.00    -0.003 C 
ATOM     30  C   UNL     1       8.633 -29.859 -20.747  1.00  0.00     0.004 C 
ENDBRANCH  28  29
ENDBRANCH  27  28
ENDBRANCH  26  27
ENDBRANCH  25  26
ENDBRANCH  24  25
ENDBRANCH  23  24
ENDBRANCH  22  23
ENDBRANCH  21  22
ENDBRANCH  20  21
ENDBRANCH  19  20
ENDBRANCH  18  19
ENDBRANCH  17  18
ENDBRANCH   1  17
TORSDOF 26
ENDMDL
MODEL 6
REMARK VINA RESULT:    16.466      0.949      1.916
REMARK INTER + INTRA:          42.397
REMARK INTER:                  42.536
REMARK INTRA:                  -0.139
REMARK UNBOUND:                 0.903
REMARK SMILES CCCCCCCCCCCCCCCCCCCCCCCCCCCC(=O)[O-]
REMARK SMILES IDX 15 1 16 2 17 3 18 4 19 5 20 6 21 7 22 8 23 9 24 10 25 11
REMARK SMILES IDX 26 12 27 13 28 14 29 15 30 16 14 17 13 18 12 19 11 20 10 21
REMARK SMILES IDX 9 22 8 23 7 24 6 25 5 26 4 27 3 28 2 29 1 30
REMARK H PARENT
REMARK Flexibility Score: inf
ROOT
ATOM      1  C   UNL     1      10.145 -29.568 -11.657  1.00  0.00     0.000 C 
ENDROOT
BRANCH   1   2
ATOM      2  C   UNL     1       9.142 -30.432 -12.440  1.00  0.00     0.000 C 
BRANCH   2   3
ATOM      3  C   UNL     1       8.147 -29.597 -13.261  1.00  0.00     0.000 C 
BRANCH   3   4
ATOM      4  C   UNL     1       8.444 -29.640 -14.771  1.00  0.00     0.000 C 
BRANCH   4   5
ATOM      5  C   UNL     1       7.672 -28.564 -15.552  1.00  0.00     0.000 C 
BRANCH   5   6
ATOM      6  C   UNL     1       6.886 -29.147 -16.740  1.00  0.00     0.000 C 
BRANCH   6   7
ATOM      7  C   UNL     1       6.787 -28.165 -17.919  1.00  0.00     0.000 C 
BRANCH   7   8
ATOM      8  C   UNL     1       6.307 -28.845 -19.214  1.00  0.00     0.000 C 
BRANCH   8   9
ATOM      9  C   UNL     1       7.389 -28.862 -20.304  1.00  0.00     0.000 C 
BRANCH   9  10
ATOM     10  C   UNL     1       8.408 -29.998 -20.106  1.00  0.00     0.000 C 
BRANCH  10  11
ATOM     11  C   UNL     1       9.645 -29.558 -19.302  1.00  0.00     0.000 C 
BRANCH  11  12
ATOM     12  C   UNL     1       9.699 -30.086 -17.857  1.00  0.00     0.006 C 
BRANCH  12  13
ATOM     13  C   UNL     1       9.252 -31.548 -17.737  1.00  0.00     0.053 C 
BRANCH  13  14
ATOM     14  C   UNL     1       9.515 -32.062 -16.356  1.00  0.00     0.041 C 
ATOM     15  O   UNL     1       9.038 -33.168 -15.991  1.00  0.00    -0.550 OA
ATOM     16  O   UNL     1      10.247 -31.297 -15.457  1.00  0.00    -0.550 OA
ENDBRANCH  13  14
ENDBRANCH  12  13
ENDBRANCH  11  12
ENDBRANCH  10  11
ENDBRANCH   9  10
ENDBRANCH   8   9
ENDBRANCH   7   8
ENDBRANCH   6   7
ENDBRANCH   5   6
ENDBRANCH   4   5
ENDBRANCH   3   4
ENDBRANCH   2   3
ENDBRANCH   1   2
BRANCH   1  17
ATOM     17  C   UNL     1      10.543 -30.254 -10.341  1.00  0.00     0.000 C 
BRANCH  17  18
ATOM     18  C   UNL     1       9.607 -29.898  -9.175  1.00  0.00     0.000 C 
BRANCH  18  19
ATOM     19  C   UNL     1       8.806 -28.610  -9.433  1.00  0.00     0.000 C 
BRANCH  19  20
ATOM     20  C   UNL     1       9.609 -27.336  -9.123  1.00  0.00     0.000 C 
BRANCH  20  21
ATOM     21  C   UNL     1       8.977 -26.021  -9.620  1.00  0.00     0.000 C 
BRANCH  21  22
ATOM     22  C   UNL     1       8.759 -24.968  -8.513  1.00  0.00    -0.000 C 
BRANCH  22  23
ATOM     23  C   UNL     1       8.055 -25.549  -7.273  1.00  0.00    -0.000 C 
BRANCH  23  24
ATOM     24  C   UNL     1       7.456 -24.447  -6.376  1.00  0.00    -0.000 C 
BRANCH  24  25
ATOM     25  C   UNL     1       8.138 -24.319  -4.999  1.00  0.00    -0.000 C 
BRANCH  25  26
ATOM     26  C   UNL     1       8.933 -25.567  -4.568  1.00  0.00    -0.000 C 
BRANCH  26  27
ATOM     27  C   UNL     1      10.454 -25.355  -4.646  1.00  0.00    -0.000 C 
BRANCH  27  28
ATOM     28  C   UNL     1      11.173 -26.664  -5.009  1.00  0.00    -0.000 C 
BRANCH  28  29
ATOM     29  C   UNL     1      12.702 -26.546  -4.898  1.00  0.00    -0.003 C 
ATOM     30  C   UNL     1      13.369 -27.862  -4.501  1.00  0.00     0.004 C 
ENDBRANCH  28  29
ENDBRANCH  27  28
ENDBRANCH  26  27
ENDBRANCH  25  26
ENDBRANCH  24  25
ENDBRANCH  23  24
ENDBRANCH  22  23
ENDBRANCH  21  22
ENDBRANCH  20  21
ENDBRANCH  19  20
ENDBRANCH  18  19
ENDBRANCH  17  18
ENDBRANCH   1  17
TORSDOF 26
ENDMDL
MODEL 7
REMARK VINA RESULT:    16.486      3.532     12.189
REMARK INTER + INTRA:          42.446
REMARK INTER:                  43.406
REMARK INTRA:                  -0.960
REMARK UNBOUND:                 0.903
REMARK SMILES CCCCCCCCCCCCCCCCCCCCCCCCCCCC(=O)[O-]
REMARK SMILES IDX 15 1 16 2 17 3 18 4 19 5 20 6 21 7 22 8 23 9 24 10 25 11
REMARK SMILES IDX 26 12 27 13 28 14 29 15 30 16 14 17 13 18 12 19 11 20 10 21
REMARK SMILES IDX 9 22 8 23 7 24 6 25 5 26 4 27 3 28 2 29 1 30
REMARK H PARENT
REMARK Flexibility Score: inf
ROOT
ATOM      1  C   UNL     1      10.954 -29.873 -10.893  1.00  0.00     0.000 C 
ENDROOT
BRANCH   1   2
ATOM      2  C   UNL     1       9.801 -30.138  -9.910  1.00  0.00     0.000 C 
BRANCH   2   3
ATOM      3  C   UNL     1       8.977 -28.878  -9.602  1.00  0.00     0.000 C 
BRANCH   3   4
ATOM      4  C   UNL     1       9.858 -27.646  -9.330  1.00  0.00     0.000 C 
BRANCH   4   5
ATOM      5  C   UNL     1       9.061 -26.332  -9.373  1.00  0.00     0.000 C 
BRANCH   5   6
ATOM      6  C   UNL     1       8.918 -25.683  -7.985  1.00  0.00     0.000 C 
BRANCH   6   7
ATOM      7  C   UNL     1       8.228 -24.310  -8.046  1.00  0.00     0.000 C 
BRANCH   7   8
ATOM      8  C   UNL     1       8.000 -23.702  -6.651  1.00  0.00     0.000 C 
BRANCH   8   9
ATOM      9  C   UNL     1       7.034 -24.536  -5.796  1.00  0.00     0.000 C 
BRANCH   9  10
ATOM     10  C   UNL     1       7.715 -25.143  -4.557  1.00  0.00     0.000 C 
BRANCH  10  11
ATOM     11  C   UNL     1       8.883 -24.287  -4.036  1.00  0.00     0.000 C 
BRANCH  11  12
ATOM     12  C   UNL     1      10.205 -25.050  -3.833  1.00  0.00     0.006 C 
BRANCH  12  13
ATOM     13  C   UNL     1      10.606 -25.888  -5.053  1.00  0.00     0.053 C 
BRANCH  13  14
ATOM     14  C   UNL     1      11.864 -26.648  -4.774  1.00  0.00     0.041 C 
ATOM     15  O   UNL     1      12.979 -26.178  -5.124  1.00  0.00    -0.550 OA
ATOM     16  O   UNL     1      11.802 -27.897  -4.170  1.00  0.00    -0.550 OA
ENDBRANCH  13  14
ENDBRANCH  12  13
ENDBRANCH  11  12
ENDBRANCH  10  11
ENDBRANCH   9  10
ENDBRANCH   8   9
ENDBRANCH   7   8
ENDBRANCH   6   7
ENDBRANCH   5   6
ENDBRANCH   4   5
ENDBRANCH   3   4
ENDBRANCH   2   3
ENDBRANCH   1   2
BRANCH   1  17
ATOM     17  C   UNL     1      10.628 -30.446 -12.281  1.00  0.00     0.000 C 
BRANCH  17  18
ATOM     18  C   UNL     1       9.299 -29.921 -12.847  1.00  0.00     0.000 C 
BRANCH  18  19
ATOM     19  C   UNL     1       8.868 -30.656 -14.127  1.00  0.00     0.000 C 
BRANCH  19  20
ATOM     20  C   UNL     1      10.007 -30.786 -15.152  1.00  0.00     0.000 C 
BRANCH  20  21
ATOM     21  C   UNL     1       9.561 -30.909 -16.622  1.00  0.00     0.000 C 
BRANCH  21  22
ATOM     22  C   UNL     1       8.851 -29.653 -17.172  1.00  0.00    -0.000 C 
BRANCH  22  23
ATOM     23  C   UNL     1       7.701 -29.177 -16.265  1.00  0.00    -0.000 C 
BRANCH  23  24
ATOM     24  C   UNL     1       6.643 -28.371 -17.044  1.00  0.00    -0.000 C 
BRANCH  24  25
ATOM     25  C   UNL     1       7.032 -28.073 -18.506  1.00  0.00    -0.000 C 
BRANCH  25  26
ATOM     26  C   UNL     1       6.563 -29.139 -19.517  1.00  0.00    -0.000 C 
BRANCH  26  27
ATOM     27  C   UNL     1       7.650 -29.500 -20.542  1.00  0.00    -0.000 C 
BRANCH  27  28
ATOM     28  C   UNL     1       7.158 -29.242 -21.976  1.00  0.00    -0.000 C 
BRANCH  28  29
ATOM     29  C   UNL     1       5.875 -28.397 -22.016  1.00  0.00    -0.003 C 
ATOM     30  C   UNL     1       5.962 -27.235 -23.005  1.00  0.00     0.004 C 
ENDBRANCH  28  29
ENDBRANCH  27  28
ENDBRANCH  26  27
ENDBRANCH  25  26
ENDBRANCH  24  25
ENDBRANCH  23  24
ENDBRANCH  22  23
ENDBRANCH  21  22
ENDBRANCH  20  21
ENDBRANCH  19  20
ENDBRANCH  18  19
ENDBRANCH  17  18
ENDBRANCH   1  17
TORSDOF 26
ENDMDL
MODEL 8
REMARK VINA RESULT:    16.640      3.509     11.520
REMARK INTER + INTRA:          42.835
REMARK INTER:                  41.255
REMARK INTRA:                   1.580
REMARK UNBOUND:                 0.903
REMARK SMILES CCCCCCCCCCCCCCCCCCCCCCCCCCCC(=O)[O-]
REMARK SMILES IDX 15 1 16 2 17 3 18 4 19 5 20 6 21 7 22 8 23 9 24 10 25 11
REMARK SMILES IDX 26 12 27 13 28 14 29 15 30 16 14 17 13 18 12 19 11 20 10 21
REMARK SMILES IDX 9 22 8 23 7 24 6 25 5 26 4 27 3 28 2 29 1 30
REMARK H PARENT
REMARK Flexibility Score: inf
ROOT
ATOM      1  C   UNL     1      10.289 -29.644 -11.766  1.00  0.00     0.000 C 
ENDROOT
BRANCH   1   2
ATOM      2  C   UNL     1      10.401 -30.342 -10.401  1.00  0.00     0.000 C 
BRANCH   2   3
ATOM      3  C   UNL     1       9.675 -29.584  -9.279  1.00  0.00     0.000 C 
BRANCH   3   4
ATOM      4  C   UNL     1       9.089 -28.243  -9.755  1.00  0.00     0.000 C 
BRANCH   4   5
ATOM      5  C   UNL     1       9.581 -27.054  -8.915  1.00  0.00     0.000 C 
BRANCH   5   6
ATOM      6  C   UNL     1       8.698 -25.805  -9.083  1.00  0.00     0.000 C 
BRANCH   6   7
ATOM      7  C   UNL     1       8.704 -24.907  -7.835  1.00  0.00     0.000 C 
BRANCH   7   8
ATOM      8  C   UNL     1       7.413 -25.039  -7.007  1.00  0.00     0.000 C 
BRANCH   8   9
ATOM      9  C   UNL     1       7.345 -24.020  -5.859  1.00  0.00     0.000 C 
BRANCH   9  10
ATOM     10  C   UNL     1       8.336 -24.341  -4.725  1.00  0.00     0.000 C 
BRANCH  10  11
ATOM     11  C   UNL     1       8.936 -25.754  -4.837  1.00  0.00     0.000 C 
BRANCH  11  12
ATOM     12  C   UNL     1      10.402 -25.872  -4.380  1.00  0.00     0.006 C 
BRANCH  12  13
ATOM     13  C   UNL     1      11.352 -26.267  -5.518  1.00  0.00     0.053 C 
BRANCH  13  14
ATOM     14  C   UNL     1      12.640 -26.791  -4.965  1.00  0.00     0.041 C 
ATOM     15  O   UNL     1      13.734 -26.264  -5.298  1.00  0.00    -0.550 OA
ATOM     16  O   UNL     1      12.636 -27.891  -4.116  1.00  0.00    -0.550 OA
ENDBRANCH  13  14
ENDBRANCH  12  13
ENDBRANCH  11  12
ENDBRANCH  10  11
ENDBRANCH   9  10
ENDBRANCH   8   9
ENDBRANCH   7   8
ENDBRANCH   6   7
ENDBRANCH   5   6
ENDBRANCH   4   5
ENDBRANCH   3   4
ENDBRANCH   2   3
ENDBRANCH   1   2
BRANCH   1  17
ATOM     17  C   UNL     1       9.451 -30.485 -12.741  1.00  0.00     0.000 C 
BRANCH  17  18
ATOM     18  C   UNL     1       8.254 -29.712 -13.319  1.00  0.00     0.000 C 
BRANCH  18  19
ATOM     19  C   UNL     1       8.268 -29.662 -14.856  1.00  0.00     0.000 C 
BRANCH  19  20
ATOM     20  C   UNL     1       7.810 -28.304 -15.413  1.00  0.00     0.000 C 
BRANCH  20  21
ATOM     21  C   UNL     1       6.605 -28.358 -16.372  1.00  0.00     0.000 C 
BRANCH  21  22
ATOM     22  C   UNL     1       6.903 -29.049 -17.720  1.00  0.00    -0.000 C 
BRANCH  22  23
ATOM     23  C   UNL     1       6.627 -28.135 -18.929  1.00  0.00    -0.000 C 
BRANCH  23  24
ATOM     24  C   UNL     1       6.520 -28.931 -20.246  1.00  0.00    -0.000 C 
BRANCH  24  25
ATOM     25  C   UNL     1       7.725 -29.852 -20.521  1.00  0.00    -0.000 C 
BRANCH  25  26
ATOM     26  C   UNL     1       8.974 -29.532 -19.675  1.00  0.00    -0.000 C 
BRANCH  26  27
ATOM     27  C   UNL     1       9.279 -30.624 -18.637  1.00  0.00    -0.000 C 
BRANCH  27  28
ATOM     28  C   UNL     1       9.819 -30.008 -17.336  1.00  0.00    -0.000 C 
BRANCH  28  29
ATOM     29  C   UNL     1       9.933 -31.037 -16.200  1.00  0.00    -0.003 C 
ATOM     30  C   UNL     1       9.239 -32.358 -16.526  1.00  0.00     0.004 C 
ENDBRANCH  28  29
ENDBRANCH  27  28
ENDBRANCH  26  27
ENDBRANCH  25  26
ENDBRANCH  24  25
ENDBRANCH  23  24
ENDBRANCH  22  23
ENDBRANCH  21  22
ENDBRANCH  20  21
ENDBRANCH  19  20
ENDBRANCH  18  19
ENDBRANCH  17  18
ENDBRANCH   1  17
TORSDOF 26
ENDMDL
MODEL 9
REMARK VINA RESULT:    16.761      1.950      3.671
REMARK INTER + INTRA:          43.140
REMARK INTER:                  43.609
REMARK INTRA:                  -0.469
REMARK UNBOUND:                 0.903
REMARK SMILES CCCCCCCCCCCCCCCCCCCCCCCCCCCC(=O)[O-]
REMARK SMILES IDX 15 1 16 2 17 3 18 4 19 5 20 6 21 7 22 8 23 9 24 10 25 11
REMARK SMILES IDX 26 12 27 13 28 14 29 15 30 16 14 17 13 18 12 19 11 20 10 21
REMARK SMILES IDX 9 22 8 23 7 24 6 25 5 26 4 27 3 28 2 29 1 30
REMARK H PARENT
REMARK Flexibility Score: inf
ROOT
ATOM      1  C   UNL     1      10.279 -30.021 -11.903  1.00  0.00     0.000 C 
ENDROOT
BRANCH   1   2
ATOM      2  C   UNL     1       8.808 -30.053 -12.347  1.00  0.00     0.000 C 
BRANCH   2   3
ATOM      3  C   UNL     1       8.642 -30.005 -13.873  1.00  0.00     0.000 C 
BRANCH   3   4
ATOM      4  C   UNL     1       9.817 -30.666 -14.617  1.00  0.00     0.000 C 
BRANCH   4   5
ATOM      5  C   UNL     1       9.349 -31.702 -15.651  1.00  0.00     0.000 C 
BRANCH   5   6
ATOM      6  C   UNL     1       9.401 -31.163 -17.092  1.00  0.00     0.000 C 
BRANCH   6   7
ATOM      7  C   UNL     1       9.021 -29.676 -17.179  1.00  0.00     0.000 C 
BRANCH   7   8
ATOM      8  C   UNL     1       7.732 -29.349 -16.404  1.00  0.00     0.000 C 
BRANCH   8   9
ATOM      9  C   UNL     1       6.621 -28.804 -17.314  1.00  0.00     0.000 C 
BRANCH   9  10
ATOM     10  C   UNL     1       7.170 -28.204 -18.621  1.00  0.00     0.000 C 
BRANCH  10  11
ATOM     11  C   UNL     1       6.171 -28.296 -19.788  1.00  0.00     0.000 C 
BRANCH  11  12
ATOM     12  C   UNL     1       6.800 -28.621 -21.155  1.00  0.00     0.006 C 
BRANCH  12  13
ATOM     13  C   UNL     1       6.849 -30.126 -21.448  1.00  0.00     0.053 C 
BRANCH  13  14
ATOM     14  C   UNL     1       8.216 -30.667 -21.171  1.00  0.00     0.041 C 
ATOM     15  O   UNL     1       9.056 -29.974 -20.541  1.00  0.00    -0.550 OA
ATOM     16  O   UNL     1       8.577 -31.921 -21.649  1.00  0.00    -0.550 OA
ENDBRANCH  13  14
ENDBRANCH  12  13
ENDBRANCH  11  12
ENDBRANCH  10  11
ENDBRANCH   9  10
ENDBRANCH   8   9
ENDBRANCH   7   8
ENDBRANCH   6   7
ENDBRANCH   5   6
ENDBRANCH   4   5
ENDBRANCH   3   4
ENDBRANCH   2   3
ENDBRANCH   1   2
BRANCH   1  17
ATOM     17  C   UNL     1      10.393 -30.199 -10.380  1.00  0.00     0.000 C 
BRANCH  17  18
ATOM     18  C   UNL     1       9.428 -29.292  -9.600  1.00  0.00     0.000 C 
BRANCH  18  19
ATOM     19  C   UNL     1       9.877 -27.821  -9.589  1.00  0.00     0.000 C 
BRANCH  19  20
ATOM     20  C   UNL     1       9.334 -27.040  -8.380  1.00  0.00     0.000 C 
BRANCH  20  21
ATOM     21  C   UNL     1       8.671 -25.689  -8.712  1.00  0.00     0.000 C 
BRANCH  21  22
ATOM     22  C   UNL     1       8.538 -24.739  -7.503  1.00  0.00    -0.000 C 
BRANCH  22  23
ATOM     23  C   UNL     1       7.169 -24.855  -6.806  1.00  0.00    -0.000 C 
BRANCH  23  24
ATOM     24  C   UNL     1       7.214 -24.347  -5.350  1.00  0.00    -0.000 C 
BRANCH  24  25
ATOM     25  C   UNL     1       8.640 -24.114  -4.811  1.00  0.00    -0.000 C 
BRANCH  25  26
ATOM     26  C   UNL     1       9.196 -25.279  -3.968  1.00  0.00    -0.000 C 
BRANCH  26  27
ATOM     27  C   UNL     1      10.290 -26.071  -4.702  1.00  0.00    -0.000 C 
BRANCH  27  28
ATOM     28  C   UNL     1      11.521 -25.190  -4.967  1.00  0.00    -0.000 C 
BRANCH  28  29
ATOM     29  C   UNL     1      12.761 -26.011  -5.358  1.00  0.00    -0.003 C 
ATOM     30  C   UNL     1      12.792 -27.388  -4.696  1.00  0.00     0.004 C 
ENDBRANCH  28  29
ENDBRANCH  27  28
ENDBRANCH  26  27
ENDBRANCH  25  26
ENDBRANCH  24  25
ENDBRANCH  23  24
ENDBRANCH  22  23
ENDBRANCH  21  22
ENDBRANCH  20  21
ENDBRANCH  19  20
ENDBRANCH  18  19
ENDBRANCH  17  18
ENDBRANCH   1  17
TORSDOF 26
ENDMDL
