MODEL 1
REMARK VINA RESULT:    -5.016      0.000      0.000
REMARK INTER + INTRA:          -5.659
REMARK INTER:                  -5.456
REMARK INTRA:                  -0.203
REMARK UNBOUND:                -0.203
REMARK SMILES O=C([O-])c1ccccc1O
REMARK SMILES IDX 4 1 9 2 5 3 8 4 6 5 7 6 2 7 1 8 3 9 10 10
REMARK H PARENT 10 11
REMARK Flexibility Score: inf
ROOT
ATOM      1  C   UNL     1     -22.020 -18.522  44.720  1.00  0.00     0.039 A 
ATOM      2  C   UNL     1     -21.928 -19.910  44.442  1.00  0.00     0.124 A 
ATOM      3  C   UNL     1     -22.400 -18.111  46.012  1.00  0.00     0.014 A 
ATOM      4  C   UNL     1     -22.276 -20.839  45.431  1.00  0.00     0.047 A 
ATOM      5  C   UNL     1     -22.724 -19.051  46.992  1.00  0.00     0.001 A 
ATOM      6  C   UNL     1     -22.671 -20.413  46.699  1.00  0.00     0.004 A 
ENDROOT
BRANCH   1   7
ATOM      7  C   UNL     1     -21.767 -17.489  43.693  1.00  0.00     0.075 C 
ATOM      8  O   UNL     1     -20.611 -17.346  43.212  1.00  0.00    -0.545 OA
ATOM      9  O   UNL     1     -22.774 -16.620  43.293  1.00  0.00    -0.545 OA
ENDBRANCH   1   7
BRANCH   2  10
ATOM     10  O   UNL     1     -21.465 -20.403  43.221  1.00  0.00    -0.507 OA
ATOM     11  H   UNL     1     -22.024 -20.975  42.603  1.00  0.00     0.293 HD
ENDBRANCH   2  10
TORSDOF 2
ENDMDL
MODEL 2
REMARK VINA RESULT:    -4.717     18.391     19.575
REMARK INTER + INTRA:          -5.334
REMARK INTER:                  -5.125
REMARK INTRA:                  -0.209
REMARK UNBOUND:                -0.203
REMARK SMILES O=C([O-])c1ccccc1O
REMARK SMILES IDX 4 1 9 2 5 3 8 4 6 5 7 6 2 7 1 8 3 9 10 10
REMARK H PARENT 10 11
REMARK Flexibility Score: inf
ROOT
ATOM      1  C   UNL     1     -16.168  -2.399  52.109  1.00  0.00     0.039 A 
ATOM      2  C   UNL     1     -16.228  -1.557  53.248  1.00  0.00     0.124 A 
ATOM      3  C   UNL     1     -14.909  -2.826  51.646  1.00  0.00     0.014 A 
ATOM      4  C   UNL     1     -15.042  -1.117  53.849  1.00  0.00     0.047 A 
ATOM      5  C   UNL     1     -13.737  -2.395  52.269  1.00  0.00     0.001 A 
ATOM      6  C   UNL     1     -13.802  -1.534  53.363  1.00  0.00     0.004 A 
ENDROOT
BRANCH   1   7
ATOM      7  C   UNL     1     -17.377  -2.816  51.365  1.00  0.00     0.075 C 
ATOM      8  O   UNL     1     -18.234  -3.555  51.918  1.00  0.00    -0.545 OA
ATOM      9  O   UNL     1     -17.552  -2.461  50.034  1.00  0.00    -0.545 OA
ENDBRANCH   1   7
BRANCH   2  10
ATOM     10  O   UNL     1     -17.436  -1.168  53.832  1.00  0.00    -0.507 OA
ATOM     11  H   UNL     1     -17.954  -1.747  54.478  1.00  0.00     0.293 HD
ENDBRANCH   2  10
TORSDOF 2
ENDMDL
MODEL 3
REMARK VINA RESULT:    -4.682      1.234      2.179
REMARK INTER + INTRA:          -5.296
REMARK INTER:                  -5.072
REMARK INTRA:                  -0.224
REMARK UNBOUND:                -0.203
REMARK SMILES O=C([O-])c1ccccc1O
REMARK SMILES IDX 4 1 9 2 5 3 8 4 6 5 7 6 2 7 1 8 3 9 10 10
REMARK H PARENT 10 11
REMARK Flexibility Score: inf
ROOT
ATOM      1  C   UNL     1     -21.900 -18.690  44.357  1.00  0.00     0.039 A 
ATOM      2  C   UNL     1     -22.087 -18.702  45.763  1.00  0.00     0.124 A 
ATOM      3  C   UNL     1     -21.946 -19.909  43.655  1.00  0.00     0.014 A 
ATOM      4  C   UNL     1     -22.250 -19.923  46.430  1.00  0.00     0.047 A 
ATOM      5  C   UNL     1     -22.131 -21.115  44.333  1.00  0.00     0.001 A 
ATOM      6  C   UNL     1     -22.273 -21.123  45.719  1.00  0.00     0.004 A 
ENDROOT
BRANCH   1   7
ATOM      7  C   UNL     1     -21.620 -17.448  43.605  1.00  0.00     0.075 C 
ATOM      8  O   UNL     1     -20.531 -17.316  42.985  1.00  0.00    -0.545 OA
ATOM      9  O   UNL     1     -22.515 -16.386  43.625  1.00  0.00    -0.545 OA
ENDBRANCH   1   7
BRANCH   2  10
ATOM     10  O   UNL     1     -22.154 -17.532  46.522  1.00  0.00    -0.507 OA
ATOM     11  H   UNL     1     -22.222 -16.609  46.117  1.00  0.00     0.293 HD
ENDBRANCH   2  10
TORSDOF 2
ENDMDL
MODEL 4
REMARK VINA RESULT:    -4.586     16.068     17.468
REMARK INTER + INTRA:          -5.191
REMARK INTER:                  -4.998
REMARK INTRA:                  -0.193
REMARK UNBOUND:                -0.203
REMARK SMILES O=C([O-])c1ccccc1O
REMARK SMILES IDX 4 1 9 2 5 3 8 4 6 5 7 6 2 7 1 8 3 9 10 10
REMARK H PARENT 10 11
REMARK Flexibility Score: inf
ROOT
ATOM      1  C   UNL     1     -25.098  -3.764  52.243  1.00  0.00     0.039 A 
ATOM      2  C   UNL     1     -24.495  -3.647  50.965  1.00  0.00     0.124 A 
ATOM      3  C   UNL     1     -25.486  -2.593  52.921  1.00  0.00     0.014 A 
ATOM      4  C   UNL     1     -24.241  -2.377  50.432  1.00  0.00     0.047 A 
ATOM      5  C   UNL     1     -25.244  -1.335  52.367  1.00  0.00     0.001 A 
ATOM      6  C   UNL     1     -24.614  -1.227  51.128  1.00  0.00     0.004 A 
ENDROOT
BRANCH   1   7
ATOM      7  C   UNL     1     -25.301  -5.070  52.908  1.00  0.00     0.075 C 
ATOM      8  O   UNL     1     -26.132  -5.894  52.442  1.00  0.00    -0.545 OA
ATOM      9  O   UNL     1     -24.634  -5.380  54.087  1.00  0.00    -0.545 OA
ENDBRANCH   1   7
BRANCH   2  10
ATOM     10  O   UNL     1     -24.170  -4.757  50.182  1.00  0.00    -0.507 OA
ATOM     11  H   UNL     1     -24.766  -5.113  49.447  1.00  0.00     0.293 HD
ENDBRANCH   2  10
TORSDOF 2
ENDMDL
MODEL 5
REMARK VINA RESULT:    -4.528      2.551      3.315
REMARK INTER + INTRA:          -5.129
REMARK INTER:                  -4.917
REMARK INTRA:                  -0.212
REMARK UNBOUND:                -0.203
REMARK SMILES O=C([O-])c1ccccc1O
REMARK SMILES IDX 4 1 9 2 5 3 8 4 6 5 7 6 2 7 1 8 3 9 10 10
REMARK H PARENT 10 11
REMARK Flexibility Score: inf
ROOT
ATOM      1  C   UNL     1     -22.117 -18.907  45.997  1.00  0.00     0.039 A 
ATOM      2  C   UNL     1     -22.386 -20.296  46.111  1.00  0.00     0.124 A 
ATOM      3  C   UNL     1     -21.774 -18.383  44.737  1.00  0.00     0.014 A 
ATOM      4  C   UNL     1     -22.245 -21.123  44.990  1.00  0.00     0.047 A 
ATOM      5  C   UNL     1     -21.658 -19.219  43.625  1.00  0.00     0.001 A 
ATOM      6  C   UNL     1     -21.884 -20.588  43.753  1.00  0.00     0.004 A 
ENDROOT
BRANCH   1   7
ATOM      7  C   UNL     1     -22.146 -17.995  47.162  1.00  0.00     0.075 C 
ATOM      8  O   UNL     1     -23.226 -17.794  47.778  1.00  0.00    -0.545 OA
ATOM      9  O   UNL     1     -21.009 -17.298  47.549  1.00  0.00    -0.545 OA
ENDBRANCH   1   7
BRANCH   2  10
ATOM     10  O   UNL     1     -22.828 -20.880  47.300  1.00  0.00    -0.507 OA
ATOM     11  H   UNL     1     -23.709 -21.366  47.386  1.00  0.00     0.293 HD
ENDBRANCH   2  10
TORSDOF 2
ENDMDL
MODEL 6
REMARK VINA RESULT:    -4.524     14.104     15.178
REMARK INTER + INTRA:          -5.124
REMARK INTER:                  -4.916
REMARK INTRA:                  -0.209
REMARK UNBOUND:                -0.203
REMARK SMILES O=C([O-])c1ccccc1O
REMARK SMILES IDX 4 1 9 2 5 3 8 4 6 5 7 6 2 7 1 8 3 9 10 10
REMARK H PARENT 10 11
REMARK Flexibility Score: inf
ROOT
ATOM      1  C   UNL     1     -13.025  -6.944  46.254  1.00  0.00     0.039 A 
ATOM      2  C   UNL     1     -14.107  -6.944  45.336  1.00  0.00     0.124 A 
ATOM      3  C   UNL     1     -11.906  -7.755  45.985  1.00  0.00     0.014 A 
ATOM      4  C   UNL     1     -14.070  -7.792  44.221  1.00  0.00     0.047 A 
ATOM      5  C   UNL     1     -11.877  -8.578  44.859  1.00  0.00     0.001 A 
ATOM      6  C   UNL     1     -12.961  -8.604  43.983  1.00  0.00     0.004 A 
ENDROOT
BRANCH   1   7
ATOM      7  C   UNL     1     -13.045  -6.151  47.502  1.00  0.00     0.075 C 
ATOM      8  O   UNL     1     -14.118  -5.627  47.901  1.00  0.00    -0.545 OA
ATOM      9  O   UNL     1     -11.875  -5.916  48.215  1.00  0.00    -0.545 OA
ENDBRANCH   1   7
BRANCH   2  10
ATOM     10  O   UNL     1     -15.210  -6.098  45.474  1.00  0.00    -0.507 OA
ATOM     11  H   UNL     1     -15.250  -5.341  46.142  1.00  0.00     0.293 HD
ENDBRANCH   2  10
TORSDOF 2
ENDMDL
MODEL 7
REMARK VINA RESULT:    -4.490     15.753     17.266
REMARK INTER + INTRA:          -5.087
REMARK INTER:                  -4.882
REMARK INTRA:                  -0.205
REMARK UNBOUND:                -0.203
REMARK SMILES O=C([O-])c1ccccc1O
REMARK SMILES IDX 4 1 9 2 5 3 8 4 6 5 7 6 2 7 1 8 3 9 10 10
REMARK H PARENT 10 11
REMARK Flexibility Score: inf
ROOT
ATOM      1  C   UNL     1     -24.821  -4.259  51.871  1.00  0.00     0.039 A 
ATOM      2  C   UNL     1     -24.988  -2.867  52.090  1.00  0.00     0.124 A 
ATOM      3  C   UNL     1     -24.274  -4.694  50.649  1.00  0.00     0.014 A 
ATOM      4  C   UNL     1     -24.666  -1.962  51.070  1.00  0.00     0.047 A 
ATOM      5  C   UNL     1     -23.939  -3.777  49.651  1.00  0.00     0.001 A 
ATOM      6  C   UNL     1     -24.144  -2.414  49.858  1.00  0.00     0.004 A 
ENDROOT
BRANCH   1   7
ATOM      7  C   UNL     1     -25.237  -5.273  52.864  1.00  0.00     0.075 C 
ATOM      8  O   UNL     1     -26.183  -6.063  52.603  1.00  0.00    -0.545 OA
ATOM      9  O   UNL     1     -24.641  -5.327  54.118  1.00  0.00    -0.545 OA
ENDBRANCH   1   7
BRANCH   2  10
ATOM     10  O   UNL     1     -25.430  -2.346  53.307  1.00  0.00    -0.507 OA
ATOM     11  H   UNL     1     -26.066  -2.833  53.923  1.00  0.00     0.293 HD
ENDBRANCH   2  10
TORSDOF 2
ENDMDL
MODEL 8
REMARK VINA RESULT:    -4.489     18.511     19.638
REMARK INTER + INTRA:          -5.086
REMARK INTER:                  -4.880
REMARK INTRA:                  -0.206
REMARK UNBOUND:                -0.203
REMARK SMILES O=C([O-])c1ccccc1O
REMARK SMILES IDX 4 1 9 2 5 3 8 4 6 5 7 6 2 7 1 8 3 9 10 10
REMARK H PARENT 10 11
REMARK Flexibility Score: inf
ROOT
ATOM      1  C   UNL     1     -15.298  -2.119  52.301  1.00  0.00     0.039 A 
ATOM      2  C   UNL     1     -16.673  -2.047  52.644  1.00  0.00     0.124 A 
ATOM      3  C   UNL     1     -14.922  -2.836  51.151  1.00  0.00     0.014 A 
ATOM      4  C   UNL     1     -17.617  -2.737  51.873  1.00  0.00     0.047 A 
ATOM      5  C   UNL     1     -15.877  -3.502  50.381  1.00  0.00     0.001 A 
ATOM      6  C   UNL     1     -17.222  -3.461  50.747  1.00  0.00     0.004 A 
ENDROOT
BRANCH   1   7
ATOM      7  C   UNL     1     -14.241  -1.499  53.130  1.00  0.00     0.075 C 
ATOM      8  O   UNL     1     -13.034  -1.586  52.782  1.00  0.00    -0.545 OA
ATOM      9  O   UNL     1     -14.552  -0.875  54.332  1.00  0.00    -0.545 OA
ENDBRANCH   1   7
BRANCH   2  10
ATOM     10  O   UNL     1     -17.143  -1.277  53.710  1.00  0.00    -0.507 OA
ATOM     11  H   UNL     1     -16.536  -0.775  54.344  1.00  0.00     0.293 HD
ENDBRANCH   2  10
TORSDOF 2
ENDMDL
MODEL 9
REMARK VINA RESULT:    -4.351     15.245     16.662
REMARK INTER + INTRA:          -4.935
REMARK INTER:                  -4.709
REMARK INTRA:                  -0.226
REMARK UNBOUND:                -0.203
REMARK SMILES O=C([O-])c1ccccc1O
REMARK SMILES IDX 4 1 9 2 5 3 8 4 6 5 7 6 2 7 1 8 3 9 10 10
REMARK H PARENT 10 11
REMARK Flexibility Score: inf
ROOT
ATOM      1  C   UNL     1     -23.970  -4.026  50.621  1.00  0.00     0.039 A 
ATOM      2  C   UNL     1     -24.245  -2.654  50.391  1.00  0.00     0.124 A 
ATOM      3  C   UNL     1     -24.415  -4.617  51.819  1.00  0.00     0.014 A 
ATOM      4  C   UNL     1     -24.895  -1.902  51.378  1.00  0.00     0.047 A 
ATOM      5  C   UNL     1     -25.079  -3.858  52.784  1.00  0.00     0.001 A 
ATOM      6  C   UNL     1     -25.310  -2.501  52.568  1.00  0.00     0.004 A 
ENDROOT
BRANCH   1   7
ATOM      7  C   UNL     1     -23.198  -4.852  49.667  1.00  0.00     0.075 C 
ATOM      8  O   UNL     1     -23.626  -5.028  48.495  1.00  0.00    -0.545 OA
ATOM      9  O   UNL     1     -22.034  -5.498  50.062  1.00  0.00    -0.545 OA
ENDBRANCH   1   7
BRANCH   2  10
ATOM     10  O   UNL     1     -23.928  -2.015  49.191  1.00  0.00    -0.507 OA
ATOM     11  H   UNL     1     -24.115  -1.037  49.014  1.00  0.00     0.293 HD
ENDBRANCH   2  10
TORSDOF 2
ENDMDL
