MODEL 1
REMARK VINA RESULT:    -5.723      0.000      0.000
REMARK INTER + INTRA:          -6.255
REMARK INTER:                  -6.225
REMARK INTRA:                  -0.029
REMARK UNBOUND:                -0.029
REMARK SMILES COc1ccccc1O
REMARK SMILES IDX 3 1 4 2 5 3 6 4 7 5 8 6 2 7 1 8 9 9
REMARK H PARENT 9 10
REMARK Flexibility Score: inf
ROOT
ATOM      1  C   UNL     1     -11.722   1.800  -9.215  1.00  0.00     0.160 A 
ATOM      2  C   UNL     1     -13.103   1.668  -9.462  1.00  0.00     0.050 A 
ATOM      3  C   UNL     1     -13.977   2.717  -9.158  1.00  0.00     0.004 A 
ATOM      4  C   UNL     1     -13.486   3.901  -8.607  1.00  0.00     0.004 A 
ATOM      5  C   UNL     1     -12.119   4.041  -8.357  1.00  0.00     0.050 A 
ATOM      6  C   UNL     1     -11.235   2.994  -8.660  1.00  0.00     0.157 A 
ENDROOT
BRANCH   1   7
ATOM      7  O   UNL     1     -10.809   0.774  -9.504  1.00  0.00    -0.493 OA
ATOM      8  C   UNL     1     -10.967  -0.171 -10.557  1.00  0.00     0.278 C 
ENDBRANCH   1   7
BRANCH   6   9
ATOM      9  O   UNL     1      -9.870   3.133  -8.412  1.00  0.00    -0.504 OA
ATOM     10  H   UNL     1      -9.480   2.970  -7.491  1.00  0.00     0.293 HD
ENDBRANCH   6   9
TORSDOF 2
ENDMDL
MODEL 2
REMARK VINA RESULT:    -5.675      1.518      3.215
REMARK INTER + INTRA:          -6.202
REMARK INTER:                  -6.156
REMARK INTRA:                  -0.046
REMARK UNBOUND:                -0.029
REMARK SMILES COc1ccccc1O
REMARK SMILES IDX 3 1 4 2 5 3 6 4 7 5 8 6 2 7 1 8 9 9
REMARK H PARENT 9 10
REMARK Flexibility Score: inf
ROOT
ATOM      1  C   UNL     1     -12.774   2.648  -9.383  1.00  0.00     0.160 A 
ATOM      2  C   UNL     1     -13.938   2.109  -9.967  1.00  0.00     0.050 A 
ATOM      3  C   UNL     1     -13.937   0.801 -10.461  1.00  0.00     0.004 A 
ATOM      4  C   UNL     1     -12.781   0.022 -10.381  1.00  0.00     0.004 A 
ATOM      5  C   UNL     1     -11.623   0.548  -9.806  1.00  0.00     0.050 A 
ATOM      6  C   UNL     1     -11.615   1.859  -9.307  1.00  0.00     0.157 A 
ENDROOT
BRANCH   1   7
ATOM      7  O   UNL     1     -12.729   3.955  -8.874  1.00  0.00    -0.493 OA
ATOM      8  C   UNL     1     -13.268   4.348  -7.616  1.00  0.00     0.278 C 
ENDBRANCH   1   7
BRANCH   6   9
ATOM      9  O   UNL     1     -10.459   2.385  -8.732  1.00  0.00    -0.504 OA
ATOM     10  H   UNL     1      -9.811   2.950  -9.268  1.00  0.00     0.293 HD
ENDBRANCH   6   9
TORSDOF 2
ENDMDL
MODEL 3
REMARK VINA RESULT:    -5.337      1.946      3.691
REMARK INTER + INTRA:          -5.834
REMARK INTER:                  -5.806
REMARK INTRA:                  -0.028
REMARK UNBOUND:                -0.029
REMARK SMILES COc1ccccc1O
REMARK SMILES IDX 3 1 4 2 5 3 6 4 7 5 8 6 2 7 1 8 9 9
REMARK H PARENT 9 10
REMARK Flexibility Score: inf
ROOT
ATOM      1  C   UNL     1     -12.391   2.097  -9.252  1.00  0.00     0.160 A 
ATOM      2  C   UNL     1     -11.355   1.183  -9.535  1.00  0.00     0.050 A 
ATOM      3  C   UNL     1     -11.626   0.008 -10.244  1.00  0.00     0.004 A 
ATOM      4  C   UNL     1     -12.925  -0.268 -10.674  1.00  0.00     0.004 A 
ATOM      5  C   UNL     1     -13.958   0.631 -10.397  1.00  0.00     0.050 A 
ATOM      6  C   UNL     1     -13.695   1.812  -9.687  1.00  0.00     0.157 A 
ENDROOT
BRANCH   1   7
ATOM      7  O   UNL     1     -12.165   3.287  -8.545  1.00  0.00    -0.493 OA
ATOM      8  C   UNL     1     -10.890   3.899  -8.384  1.00  0.00     0.278 C 
ENDBRANCH   1   7
BRANCH   6   9
ATOM      9  O   UNL     1     -14.725   2.709  -9.411  1.00  0.00    -0.504 OA
ATOM     10  H   UNL     1     -14.857   3.550  -9.961  1.00  0.00     0.293 HD
ENDBRANCH   6   9
TORSDOF 2
ENDMDL
MODEL 4
REMARK VINA RESULT:    -4.916      1.380      2.354
REMARK INTER + INTRA:          -5.376
REMARK INTER:                  -5.337
REMARK INTRA:                  -0.039
REMARK UNBOUND:                -0.029
REMARK SMILES COc1ccccc1O
REMARK SMILES IDX 3 1 4 2 5 3 6 4 7 5 8 6 2 7 1 8 9 9
REMARK H PARENT 9 10
REMARK Flexibility Score: inf
ROOT
ATOM      1  C   UNL     1     -13.083   2.197  -9.370  1.00  0.00     0.160 A 
ATOM      2  C   UNL     1     -13.774   3.274  -8.780  1.00  0.00     0.050 A 
ATOM      3  C   UNL     1     -13.075   4.256  -8.071  1.00  0.00     0.004 A 
ATOM      4  C   UNL     1     -11.688   4.174  -7.942  1.00  0.00     0.004 A 
ATOM      5  C   UNL     1     -10.995   3.109  -8.521  1.00  0.00     0.050 A 
ATOM      6  C   UNL     1     -11.688   2.120  -9.235  1.00  0.00     0.157 A 
ENDROOT
BRANCH   1   7
ATOM      7  O   UNL     1     -13.743   1.189 -10.090  1.00  0.00    -0.493 OA
ATOM      8  C   UNL     1     -14.815   0.405  -9.578  1.00  0.00     0.278 C 
ENDBRANCH   1   7
BRANCH   6   9
ATOM      9  O   UNL     1     -10.997   1.057  -9.815  1.00  0.00    -0.504 OA
ATOM     10  H   UNL     1     -11.103   0.829 -10.796  1.00  0.00     0.293 HD
ENDBRANCH   6   9
TORSDOF 2
ENDMDL
MODEL 5
REMARK VINA RESULT:    -4.514     15.636     16.742
REMARK INTER + INTRA:          -4.939
REMARK INTER:                  -4.910
REMARK INTRA:                  -0.029
REMARK UNBOUND:                -0.029
REMARK SMILES COc1ccccc1O
REMARK SMILES IDX 3 1 4 2 5 3 6 4 7 5 8 6 2 7 1 8 9 9
REMARK H PARENT 9 10
REMARK Flexibility Score: inf
ROOT
ATOM      1  C   UNL     1      -9.870   5.568   6.717  1.00  0.00     0.160 A 
ATOM      2  C   UNL     1      -9.746   6.011   8.049  1.00  0.00     0.050 A 
ATOM      3  C   UNL     1     -10.431   5.354   9.077  1.00  0.00     0.004 A 
ATOM      4  C   UNL     1     -11.242   4.256   8.788  1.00  0.00     0.004 A 
ATOM      5  C   UNL     1     -11.372   3.811   7.471  1.00  0.00     0.050 A 
ATOM      6  C   UNL     1     -10.688   4.463   6.434  1.00  0.00     0.157 A 
ENDROOT
BRANCH   1   7
ATOM      7  O   UNL     1      -9.202   6.197   5.655  1.00  0.00    -0.493 OA
ATOM      8  C   UNL     1      -8.833   7.572   5.637  1.00  0.00     0.278 C 
ENDBRANCH   1   7
BRANCH   6   9
ATOM      9  O   UNL     1     -10.817   4.019   5.119  1.00  0.00    -0.504 OA
ATOM     10  H   UNL     1     -10.269   3.243   4.766  1.00  0.00     0.293 HD
ENDBRANCH   6   9
TORSDOF 2
ENDMDL
MODEL 6
REMARK VINA RESULT:    -4.486     15.770     16.798
REMARK INTER + INTRA:          -4.909
REMARK INTER:                  -4.866
REMARK INTRA:                  -0.043
REMARK UNBOUND:                -0.029
REMARK SMILES COc1ccccc1O
REMARK SMILES IDX 3 1 4 2 5 3 6 4 7 5 8 6 2 7 1 8 9 9
REMARK H PARENT 9 10
REMARK Flexibility Score: inf
ROOT
ATOM      1  C   UNL     1      -9.915   5.608   6.773  1.00  0.00     0.160 A 
ATOM      2  C   UNL     1     -10.730   4.959   5.823  1.00  0.00     0.050 A 
ATOM      3  C   UNL     1     -11.812   4.178   6.240  1.00  0.00     0.004 A 
ATOM      4  C   UNL     1     -12.091   4.034   7.600  1.00  0.00     0.004 A 
ATOM      5  C   UNL     1     -11.288   4.672   8.548  1.00  0.00     0.050 A 
ATOM      6  C   UNL     1     -10.201   5.459   8.139  1.00  0.00     0.157 A 
ENDROOT
BRANCH   1   7
ATOM      7  O   UNL     1      -8.819   6.402   6.400  1.00  0.00    -0.493 OA
ATOM      8  C   UNL     1      -8.918   7.610   5.653  1.00  0.00     0.278 C 
ENDBRANCH   1   7
BRANCH   6   9
ATOM      9  O   UNL     1      -9.399   6.096   9.085  1.00  0.00    -0.504 OA
ATOM     10  H   UNL     1      -9.655   6.121  10.065  1.00  0.00     0.293 HD
ENDBRANCH   6   9
TORSDOF 2
ENDMDL
MODEL 7
REMARK VINA RESULT:    -4.372      2.770      3.951
REMARK INTER + INTRA:          -4.784
REMARK INTER:                  -4.755
REMARK INTRA:                  -0.029
REMARK UNBOUND:                -0.029
REMARK SMILES COc1ccccc1O
REMARK SMILES IDX 3 1 4 2 5 3 6 4 7 5 8 6 2 7 1 8 9 9
REMARK H PARENT 9 10
REMARK Flexibility Score: inf
ROOT
ATOM      1  C   UNL     1     -10.981  -1.531  -9.737  1.00  0.00     0.160 A 
ATOM      2  C   UNL     1     -11.887  -2.387 -10.397  1.00  0.00     0.050 A 
ATOM      3  C   UNL     1     -13.028  -1.863 -11.014  1.00  0.00     0.004 A 
ATOM      4  C   UNL     1     -13.277  -0.491 -10.978  1.00  0.00     0.004 A 
ATOM      5  C   UNL     1     -12.386   0.364 -10.326  1.00  0.00     0.050 A 
ATOM      6  C   UNL     1     -11.238  -0.152  -9.705  1.00  0.00     0.157 A 
ENDROOT
BRANCH   1   7
ATOM      7  O   UNL     1      -9.824  -2.012  -9.105  1.00  0.00    -0.493 OA
ATOM      8  C   UNL     1      -9.702  -3.306  -8.525  1.00  0.00     0.278 C 
ENDBRANCH   1   7
BRANCH   6   9
ATOM      9  O   UNL     1     -10.348   0.701  -9.054  1.00  0.00    -0.504 OA
ATOM     10  H   UNL     1      -9.450   0.937  -9.458  1.00  0.00     0.293 HD
ENDBRANCH   6   9
TORSDOF 2
ENDMDL
MODEL 8
REMARK VINA RESULT:    -4.335     15.553     16.542
REMARK INTER + INTRA:          -4.744
REMARK INTER:                  -4.713
REMARK INTRA:                  -0.032
REMARK UNBOUND:                -0.029
REMARK SMILES COc1ccccc1O
REMARK SMILES IDX 3 1 4 2 5 3 6 4 7 5 8 6 2 7 1 8 9 9
REMARK H PARENT 9 10
REMARK Flexibility Score: inf
ROOT
ATOM      1  C   UNL     1     -11.492   5.368   6.420  1.00  0.00     0.160 A 
ATOM      2  C   UNL     1     -12.049   4.260   7.090  1.00  0.00     0.050 A 
ATOM      3  C   UNL     1     -11.594   3.904   8.363  1.00  0.00     0.004 A 
ATOM      4  C   UNL     1     -10.583   4.645   8.979  1.00  0.00     0.004 A 
ATOM      5  C   UNL     1     -10.024   5.744   8.322  1.00  0.00     0.050 A 
ATOM      6  C   UNL     1     -10.476   6.108   7.044  1.00  0.00     0.157 A 
ENDROOT
BRANCH   1   7
ATOM      7  O   UNL     1     -11.918   5.761   5.142  1.00  0.00    -0.493 OA
ATOM      8  C   UNL     1     -13.271   5.727   4.698  1.00  0.00     0.278 C 
ENDBRANCH   1   7
BRANCH   6   9
ATOM      9  O   UNL     1      -9.919   7.204   6.389  1.00  0.00    -0.504 OA
ATOM     10  H   UNL     1     -10.424   8.078   6.295  1.00  0.00     0.293 HD
ENDBRANCH   6   9
TORSDOF 2
ENDMDL
MODEL 9
REMARK VINA RESULT:    -4.289     15.095     16.188
REMARK INTER + INTRA:          -4.694
REMARK INTER:                  -4.678
REMARK INTRA:                  -0.017
REMARK UNBOUND:                -0.029
REMARK SMILES COc1ccccc1O
REMARK SMILES IDX 3 1 4 2 5 3 6 4 7 5 8 6 2 7 1 8 9 9
REMARK H PARENT 9 10
REMARK Flexibility Score: inf
ROOT
ATOM      1  C   UNL     1     -11.563   5.411   5.828  1.00  0.00     0.160 A 
ATOM      2  C   UNL     1     -10.280   5.996   5.810  1.00  0.00     0.050 A 
ATOM      3  C   UNL     1      -9.482   5.979   6.958  1.00  0.00     0.004 A 
ATOM      4  C   UNL     1      -9.951   5.384   8.130  1.00  0.00     0.004 A 
ATOM      5  C   UNL     1     -11.221   4.803   8.158  1.00  0.00     0.050 A 
ATOM      6  C   UNL     1     -12.029   4.815   7.010  1.00  0.00     0.157 A 
ENDROOT
BRANCH   1   7
ATOM      7  O   UNL     1     -12.398   5.405   4.700  1.00  0.00    -0.493 OA
ATOM      8  C   UNL     1     -13.350   6.420   4.397  1.00  0.00     0.278 C 
ENDBRANCH   1   7
BRANCH   6   9
ATOM      9  O   UNL     1     -13.296   4.235   7.037  1.00  0.00    -0.504 OA
ATOM     10  H   UNL     1     -14.086   4.708   7.460  1.00  0.00     0.293 HD
ENDBRANCH   6   9
TORSDOF 2
ENDMDL
