MODEL 1
REMARK VINA RESULT:    -5.064      0.000      0.000
REMARK INTER + INTRA:          -5.064
REMARK INTER:                  -5.064
REMARK INTRA:                   0.000
REMARK UNBOUND:                 0.000
REMARK SMILES CC1=CC(=O)[C@H]2C[C@@H]1C2(C)C
REMARK SMILES IDX 1 1 2 2 3 3 4 4 5 5 6 6 7 7 8 8 9 9 10 10 11 11
REMARK H PARENT
REMARK Flexibility Score: inf
ROOT
ATOM      1  C   UNL     1       3.209   4.039  15.513  1.00  0.00     0.040 C 
ATOM      2  C   UNL     1       3.399   3.580  14.101  1.00  0.00    -0.066 C 
ATOM      3  C   UNL     1       4.247   2.564  13.776  1.00  0.00     0.047 C 
ATOM      4  C   UNL     1       4.335   2.216  12.320  1.00  0.00     0.159 C 
ATOM      5  O   UNL     1       5.112   1.326  11.887  1.00  0.00    -0.295 OA
ATOM      6  C   UNL     1       3.414   3.017  11.399  1.00  0.00     0.067 C 
ATOM      7  C   UNL     1       2.053   3.015  12.130  1.00  0.00     0.021 C 
ATOM      8  C   UNL     1       2.591   4.210  12.949  1.00  0.00     0.022 C 
ATOM      9  C   UNL     1       3.542   4.524  11.760  1.00  0.00    -0.019 C 
ATOM     10  C   UNL     1       4.956   5.089  12.079  1.00  0.00     0.012 C 
ATOM     11  C   UNL     1       2.881   5.443  10.701  1.00  0.00     0.012 C 
ENDROOT
TORSDOF 0
ENDMDL
MODEL 2
REMARK VINA RESULT:    -4.738     14.701     16.099
REMARK INTER + INTRA:          -4.738
REMARK INTER:                  -4.738
REMARK INTRA:                   0.000
REMARK UNBOUND:                 0.000
REMARK SMILES CC1=CC(=O)[C@H]2C[C@@H]1C2(C)C
REMARK SMILES IDX 1 1 2 2 3 3 4 4 5 5 6 6 7 7 8 8 9 9 10 10 11 11
REMARK H PARENT
REMARK Flexibility Score: inf
ROOT
ATOM      1  C   UNL     1      -5.315  -9.566  12.430  1.00  0.00     0.040 C 
ATOM      2  C   UNL     1      -6.555  -8.747  12.603  1.00  0.00    -0.066 C 
ATOM      3  C   UNL     1      -7.796  -9.310  12.655  1.00  0.00     0.047 C 
ATOM      4  C   UNL     1      -8.945  -8.363  12.829  1.00  0.00     0.159 C 
ATOM      5  O   UNL     1     -10.141  -8.754  12.849  1.00  0.00    -0.295 OA
ATOM      6  C   UNL     1      -8.562  -6.891  12.982  1.00  0.00     0.067 C 
ATOM      7  C   UNL     1      -7.393  -6.907  13.991  1.00  0.00     0.021 C 
ATOM      8  C   UNL     1      -6.475  -7.219  12.788  1.00  0.00     0.022 C 
ATOM      9  C   UNL     1      -7.530  -6.530  11.876  1.00  0.00    -0.019 C 
ATOM     10  C   UNL     1      -7.750  -7.101  10.446  1.00  0.00     0.012 C 
ATOM     11  C   UNL     1      -7.301  -5.002  11.758  1.00  0.00     0.012 C 
ENDROOT
TORSDOF 0
ENDMDL
MODEL 3
REMARK VINA RESULT:    -4.728      1.204      2.418
REMARK INTER + INTRA:          -4.728
REMARK INTER:                  -4.728
REMARK INTRA:                   0.000
REMARK UNBOUND:                 0.000
REMARK SMILES CC1=CC(=O)[C@H]2C[C@@H]1C2(C)C
REMARK SMILES IDX 1 1 2 2 3 3 4 4 5 5 6 6 7 7 8 8 9 9 10 10 11 11
REMARK H PARENT
REMARK Flexibility Score: inf
ROOT
ATOM      1  C   UNL     1       4.998   6.386  11.714  1.00  0.00     0.040 C 
ATOM      2  C   UNL     1       4.314   5.063  11.864  1.00  0.00    -0.066 C 
ATOM      3  C   UNL     1       5.007   3.893  11.950  1.00  0.00     0.047 C 
ATOM      4  C   UNL     1       4.185   2.647  12.096  1.00  0.00     0.159 C 
ATOM      5  O   UNL     1       4.704   1.501  12.143  1.00  0.00    -0.295 OA
ATOM      6  C   UNL     1       2.675   2.865  12.183  1.00  0.00     0.067 C 
ATOM      7  C   UNL     1       2.519   4.035  13.182  1.00  0.00     0.021 C 
ATOM      8  C   UNL     1       2.780   4.976  11.984  1.00  0.00     0.022 C 
ATOM      9  C   UNL     1       2.250   3.847  11.054  1.00  0.00    -0.019 C 
ATOM     10  C   UNL     1       2.901   3.685   9.651  1.00  0.00     0.012 C 
ATOM     11  C   UNL     1       0.712   3.906  10.870  1.00  0.00     0.012 C 
ENDROOT
TORSDOF 0
ENDMDL
MODEL 4
REMARK VINA RESULT:    -4.700      1.854      2.780
REMARK INTER + INTRA:          -4.700
REMARK INTER:                  -4.700
REMARK INTRA:                   0.000
REMARK UNBOUND:                 0.000
REMARK SMILES CC1=CC(=O)[C@H]2C[C@@H]1C2(C)C
REMARK SMILES IDX 1 1 2 2 3 3 4 4 5 5 6 6 7 7 8 8 9 9 10 10 11 11
REMARK H PARENT
REMARK Flexibility Score: inf
ROOT
ATOM      1  C   UNL     1       1.343   0.603  12.763  1.00  0.00     0.040 C 
ATOM      2  C   UNL     1       2.319   1.729  12.897  1.00  0.00    -0.066 C 
ATOM      3  C   UNL     1       2.591   2.316  14.096  1.00  0.00     0.047 C 
ATOM      4  C   UNL     1       3.591   3.434  14.075  1.00  0.00     0.159 C 
ATOM      5  O   UNL     1       3.896   4.083  15.109  1.00  0.00    -0.295 OA
ATOM      6  C   UNL     1       4.213   3.728  12.710  1.00  0.00     0.067 C 
ATOM      7  C   UNL     1       4.576   2.334  12.152  1.00  0.00     0.021 C 
ATOM      8  C   UNL     1       3.109   2.240  11.676  1.00  0.00     0.022 C 
ATOM      9  C   UNL     1       3.077   3.795  11.651  1.00  0.00    -0.019 C 
ATOM     10  C   UNL     1       1.749   4.509  12.036  1.00  0.00     0.012 C 
ATOM     11  C   UNL     1       3.563   4.375  10.299  1.00  0.00     0.012 C 
ENDROOT
TORSDOF 0
ENDMDL
MODEL 5
REMARK VINA RESULT:    -4.687     14.558     15.904
REMARK INTER + INTRA:          -4.687
REMARK INTER:                  -4.687
REMARK INTRA:                   0.000
REMARK UNBOUND:                 0.000
REMARK SMILES CC1=CC(=O)[C@H]2C[C@@H]1C2(C)C
REMARK SMILES IDX 1 1 2 2 3 3 4 4 5 5 6 6 7 7 8 8 9 9 10 10 11 11
REMARK H PARENT
REMARK Flexibility Score: inf
ROOT
ATOM      1  C   UNL     1      -8.901 -10.112  12.769  1.00  0.00     0.040 C 
ATOM      2  C   UNL     1      -7.645  -9.482  12.255  1.00  0.00    -0.066 C 
ATOM      3  C   UNL     1      -6.411  -9.856  12.696  1.00  0.00     0.047 C 
ATOM      4  C   UNL     1      -5.245  -9.134  12.090  1.00  0.00     0.159 C 
ATOM      5  O   UNL     1      -4.058  -9.358  12.445  1.00  0.00    -0.295 OA
ATOM      6  C   UNL     1      -5.597  -8.109  11.013  1.00  0.00     0.067 C 
ATOM      7  C   UNL     1      -6.625  -8.839  10.119  1.00  0.00     0.021 C 
ATOM      8  C   UNL     1      -7.694  -8.409  11.149  1.00  0.00     0.022 C 
ATOM      9  C   UNL     1      -6.764  -7.223  11.535  1.00  0.00    -0.019 C 
ATOM     10  C   UNL     1      -6.737  -6.765  13.021  1.00  0.00     0.012 C 
ATOM     11  C   UNL     1      -7.000  -5.975  10.648  1.00  0.00     0.012 C 
ENDROOT
TORSDOF 0
ENDMDL
MODEL 6
REMARK VINA RESULT:    -4.650     11.271     12.585
REMARK INTER + INTRA:          -4.650
REMARK INTER:                  -4.650
REMARK INTRA:                   0.000
REMARK UNBOUND:                 0.000
REMARK SMILES CC1=CC(=O)[C@H]2C[C@@H]1C2(C)C
REMARK SMILES IDX 1 1 2 2 3 3 4 4 5 5 6 6 7 7 8 8 9 9 10 10 11 11
REMARK H PARENT
REMARK Flexibility Score: inf
ROOT
ATOM      1  C   UNL     1       0.141  -6.607   7.100  1.00  0.00     0.040 C 
ATOM      2  C   UNL     1       0.904  -7.278   8.198  1.00  0.00    -0.066 C 
ATOM      3  C   UNL     1       0.942  -6.779   9.466  1.00  0.00     0.047 C 
ATOM      4  C   UNL     1       1.749  -7.559  10.460  1.00  0.00     0.159 C 
ATOM      5  O   UNL     1       1.897  -7.180  11.652  1.00  0.00    -0.295 OA
ATOM      6  C   UNL     1       2.379  -8.845   9.927  1.00  0.00     0.067 C 
ATOM      7  C   UNL     1       1.240  -9.521   9.131  1.00  0.00     0.021 C 
ATOM      8  C   UNL     1       1.642  -8.608   7.950  1.00  0.00     0.022 C 
ATOM      9  C   UNL     1       3.068  -8.533   8.568  1.00  0.00    -0.019 C 
ATOM     10  C   UNL     1       3.859  -7.201   8.430  1.00  0.00     0.012 C 
ATOM     11  C   UNL     1       3.981  -9.690   8.090  1.00  0.00     0.012 C 
ENDROOT
TORSDOF 0
ENDMDL
MODEL 7
REMARK VINA RESULT:    -4.573     15.681     16.978
REMARK INTER + INTRA:          -4.573
REMARK INTER:                  -4.573
REMARK INTRA:                   0.000
REMARK UNBOUND:                 0.000
REMARK SMILES CC1=CC(=O)[C@H]2C[C@@H]1C2(C)C
REMARK SMILES IDX 1 1 2 2 3 3 4 4 5 5 6 6 7 7 8 8 9 9 10 10 11 11
REMARK H PARENT
REMARK Flexibility Score: inf
ROOT
ATOM      1  C   UNL     1     -10.833  -9.301  13.190  1.00  0.00     0.040 C 
ATOM      2  C   UNL     1      -9.410  -8.843  13.136  1.00  0.00    -0.066 C 
ATOM      3  C   UNL     1      -8.991  -7.697  13.744  1.00  0.00     0.047 C 
ATOM      4  C   UNL     1      -7.536  -7.366  13.602  1.00  0.00     0.159 C 
ATOM      5  O   UNL     1      -7.036  -6.315  14.081  1.00  0.00    -0.295 OA
ATOM      6  C   UNL     1      -6.702  -8.395  12.837  1.00  0.00     0.067 C 
ATOM      7  C   UNL     1      -7.150  -9.753  13.422  1.00  0.00     0.021 C 
ATOM      8  C   UNL     1      -8.333  -9.690  12.429  1.00  0.00     0.022 C 
ATOM      9  C   UNL     1      -7.457  -8.771  11.531  1.00  0.00    -0.019 C 
ATOM     10  C   UNL     1      -8.161  -7.637  10.732  1.00  0.00     0.012 C 
ATOM     11  C   UNL     1      -6.570  -9.577  10.548  1.00  0.00     0.012 C 
ENDROOT
TORSDOF 0
ENDMDL
MODEL 8
REMARK VINA RESULT:    -4.524     13.900     15.403
REMARK INTER + INTRA:          -4.524
REMARK INTER:                  -4.524
REMARK INTRA:                   0.000
REMARK UNBOUND:                 0.000
REMARK SMILES CC1=CC(=O)[C@H]2C[C@@H]1C2(C)C
REMARK SMILES IDX 1 1 2 2 3 3 4 4 5 5 6 6 7 7 8 8 9 9 10 10 11 11
REMARK H PARENT
REMARK Flexibility Score: inf
ROOT
ATOM      1  C   UNL     1      -3.894  -8.506  12.207  1.00  0.00     0.040 C 
ATOM      2  C   UNL     1      -5.190  -7.890  11.785  1.00  0.00    -0.066 C 
ATOM      3  C   UNL     1      -5.278  -6.595  11.368  1.00  0.00     0.047 C 
ATOM      4  C   UNL     1      -6.644  -6.116  10.978  1.00  0.00     0.159 C 
ATOM      5  O   UNL     1      -6.863  -4.931  10.617  1.00  0.00    -0.295 OA
ATOM      6  C   UNL     1      -7.751  -7.168  11.049  1.00  0.00     0.067 C 
ATOM      7  C   UNL     1      -7.130  -8.415  10.380  1.00  0.00     0.021 C 
ATOM      8  C   UNL     1      -6.487  -8.722  11.751  1.00  0.00     0.022 C 
ATOM      9  C   UNL     1      -7.640  -7.912  12.410  1.00  0.00    -0.019 C 
ATOM     10  C   UNL     1      -7.319  -7.080  13.683  1.00  0.00     0.012 C 
ATOM     11  C   UNL     1      -8.884  -8.789  12.706  1.00  0.00     0.012 C 
ENDROOT
TORSDOF 0
ENDMDL
MODEL 9
REMARK VINA RESULT:    -4.438     14.445     15.785
REMARK INTER + INTRA:          -4.438
REMARK INTER:                  -4.438
REMARK INTRA:                   0.000
REMARK UNBOUND:                 0.000
REMARK SMILES CC1=CC(=O)[C@H]2C[C@@H]1C2(C)C
REMARK SMILES IDX 1 1 2 2 3 3 4 4 5 5 6 6 7 7 8 8 9 9 10 10 11 11
REMARK H PARENT
REMARK Flexibility Score: inf
ROOT
ATOM      1  C   UNL     1      -7.961  -9.758  13.830  1.00  0.00     0.040 C 
ATOM      2  C   UNL     1      -7.462  -9.074  12.596  1.00  0.00    -0.066 C 
ATOM      3  C   UNL     1      -7.357  -9.719  11.400  1.00  0.00     0.047 C 
ATOM      4  C   UNL     1      -6.840  -8.905  10.252  1.00  0.00     0.159 C 
ATOM      5  O   UNL     1      -6.658  -9.397   9.107  1.00  0.00    -0.295 OA
ATOM      6  C   UNL     1      -6.550  -7.438  10.568  1.00  0.00     0.067 C 
ATOM      7  C   UNL     1      -7.785  -6.974  11.371  1.00  0.00     0.021 C 
ATOM      8  C   UNL     1      -7.094  -7.578  12.615  1.00  0.00     0.022 C 
ATOM      9  C   UNL     1      -5.734  -7.369  11.890  1.00  0.00    -0.019 C 
ATOM     10  C   UNL     1      -4.610  -8.419  12.120  1.00  0.00     0.012 C 
ATOM     11  C   UNL     1      -5.139  -5.960  12.143  1.00  0.00     0.012 C 
ENDROOT
TORSDOF 0
ENDMDL
