MODEL 1
REMARK VINA RESULT:    -4.493      0.000      0.000
REMARK INTER + INTRA:          -7.778
REMARK INTER:                  -6.857
REMARK INTRA:                  -0.922
REMARK UNBOUND:                -0.922
REMARK SMILES O=C([O-])CCCCCCCCC(=O)[O-]
REMARK SMILES IDX 7 1 6 2 5 3 4 4 2 5 1 6 3 7 8 8 9 9 10 10 11 11 12 12 13 13
REMARK SMILES IDX 14 14
REMARK H PARENT
REMARK Flexibility Score: inf
ROOT
ATOM      1  C   UNL     1      63.129  29.206  10.458  1.00  0.00     0.000 C 
ENDROOT
BRANCH   1   2
ATOM      2  C   UNL     1      61.705  29.371   9.896  1.00  0.00     0.000 C 
BRANCH   2   3
ATOM      3  C   UNL     1      60.749  28.258  10.360  1.00  0.00     0.006 C 
BRANCH   3   4
ATOM      4  C   UNL     1      59.573  28.809  11.177  1.00  0.00     0.053 C 
BRANCH   4   5
ATOM      5  C   UNL     1      59.550  28.253  12.568  1.00  0.00     0.041 C 
ATOM      6  O   UNL     1      60.528  28.438  13.340  1.00  0.00    -0.550 OA
ATOM      7  O   UNL     1      58.438  27.557  13.023  1.00  0.00    -0.550 OA
ENDBRANCH   4   5
ENDBRANCH   3   4
ENDBRANCH   2   3
ENDBRANCH   1   2
BRANCH   1   8
ATOM      8  C   UNL     1      63.385  29.909  11.805  1.00  0.00     0.000 C 
BRANCH   8   9
ATOM      9  C   UNL     1      63.227  31.443  11.786  1.00  0.00     0.000 C 
BRANCH   9  10
ATOM     10  C   UNL     1      62.337  32.017  12.903  1.00  0.00     0.006 C 
BRANCH  10  11
ATOM     11  C   UNL     1      60.840  31.905  12.588  1.00  0.00     0.053 C 
BRANCH  11  12
ATOM     12  C   UNL     1      60.025  32.345  13.763  1.00  0.00     0.041 C 
ATOM     13  O   UNL     1      58.997  31.699  14.099  1.00  0.00    -0.550 OA
ATOM     14  O   UNL     1      60.428  33.439  14.518  1.00  0.00    -0.550 OA
ENDBRANCH  11  12
ENDBRANCH  10  11
ENDBRANCH   9  10
ENDBRANCH   8   9
ENDBRANCH   1   8
TORSDOF 9
ENDMDL
MODEL 2
REMARK VINA RESULT:    -4.465      1.804      4.493
REMARK INTER + INTRA:          -7.737
REMARK INTER:                  -6.702
REMARK INTRA:                  -1.035
REMARK UNBOUND:                -0.922
REMARK SMILES O=C([O-])CCCCCCCCC(=O)[O-]
REMARK SMILES IDX 7 1 6 2 5 3 4 4 2 5 1 6 3 7 8 8 9 9 10 10 11 11 12 12 13 13
REMARK SMILES IDX 14 14
REMARK H PARENT
REMARK Flexibility Score: inf
ROOT
ATOM      1  C   UNL     1      63.249  29.933  13.072  1.00  0.00     0.000 C 
ENDROOT
BRANCH   1   2
ATOM      2  C   UNL     1      62.770  31.112  12.205  1.00  0.00     0.000 C 
BRANCH   2   3
ATOM      3  C   UNL     1      62.260  32.298  13.041  1.00  0.00     0.006 C 
BRANCH   3   4
ATOM      4  C   UNL     1      60.737  32.460  12.947  1.00  0.00     0.053 C 
BRANCH   4   5
ATOM      5  C   UNL     1      60.068  32.230  14.267  1.00  0.00     0.041 C 
ATOM      6  O   UNL     1      60.672  32.497  15.339  1.00  0.00    -0.550 OA
ATOM      7  O   UNL     1      58.766  31.748  14.314  1.00  0.00    -0.550 OA
ENDBRANCH   4   5
ENDBRANCH   3   4
ENDBRANCH   2   3
ENDBRANCH   1   2
BRANCH   1   8
ATOM      8  C   UNL     1      62.425  28.638  12.927  1.00  0.00     0.000 C 
BRANCH   8   9
ATOM      9  C   UNL     1      60.981  28.716  13.463  1.00  0.00     0.000 C 
BRANCH   9  10
ATOM     10  C   UNL     1      59.895  28.271  12.467  1.00  0.00     0.006 C 
BRANCH  10  11
ATOM     11  C   UNL     1      59.582  29.340  11.412  1.00  0.00     0.053 C 
BRANCH  11  12
ATOM     12  C   UNL     1      60.008  28.876  10.056  1.00  0.00     0.041 C 
ATOM     13  O   UNL     1      61.163  29.143   9.629  1.00  0.00    -0.550 OA
ATOM     14  O   UNL     1      59.149  28.106   9.282  1.00  0.00    -0.550 OA
ENDBRANCH  11  12
ENDBRANCH  10  11
ENDBRANCH   9  10
ENDBRANCH   8   9
ENDBRANCH   1   8
TORSDOF 9
ENDMDL
MODEL 3
REMARK VINA RESULT:    -4.463      1.873      2.477
REMARK INTER + INTRA:          -7.734
REMARK INTER:                  -6.796
REMARK INTRA:                  -0.937
REMARK UNBOUND:                -0.922
REMARK SMILES O=C([O-])CCCCCCCCC(=O)[O-]
REMARK SMILES IDX 7 1 6 2 5 3 4 4 2 5 1 6 3 7 8 8 9 9 10 10 11 11 12 12 13 13
REMARK SMILES IDX 14 14
REMARK H PARENT
REMARK Flexibility Score: inf
ROOT
ATOM      1  C   UNL     1      62.224  28.633  12.921  1.00  0.00     0.000 C 
ENDROOT
BRANCH   1   2
ATOM      2  C   UNL     1      60.773  28.713  13.429  1.00  0.00     0.000 C 
BRANCH   2   3
ATOM      3  C   UNL     1      59.745  28.291  12.365  1.00  0.00     0.006 C 
BRANCH   3   4
ATOM      4  C   UNL     1      59.564  29.359  11.278  1.00  0.00     0.053 C 
BRANCH   4   5
ATOM      5  C   UNL     1      60.011  28.870   9.934  1.00  0.00     0.041 C 
ATOM      6  O   UNL     1      61.191  29.076   9.545  1.00  0.00    -0.550 OA
ATOM      7  O   UNL     1      59.134  28.160   9.124  1.00  0.00    -0.550 OA
ENDBRANCH   4   5
ENDBRANCH   3   4
ENDBRANCH   2   3
ENDBRANCH   1   2
BRANCH   1   8
ATOM      8  C   UNL     1      63.184  29.680  13.521  1.00  0.00     0.000 C 
BRANCH   8   9
ATOM      9  C   UNL     1      62.503  30.907  14.159  1.00  0.00     0.000 C 
BRANCH   9  10
ATOM     10  C   UNL     1      62.378  32.133  13.236  1.00  0.00     0.006 C 
BRANCH  10  11
ATOM     11  C   UNL     1      60.928  32.433  12.839  1.00  0.00     0.053 C 
BRANCH  11  12
ATOM     12  C   UNL     1      60.078  32.605  14.058  1.00  0.00     0.041 C 
ATOM     13  O   UNL     1      60.289  33.563  14.848  1.00  0.00    -0.550 OA
ATOM     14  O   UNL     1      59.020  31.737  14.297  1.00  0.00    -0.550 OA
ENDBRANCH  11  12
ENDBRANCH  10  11
ENDBRANCH   9  10
ENDBRANCH   8   9
ENDBRANCH   1   8
TORSDOF 9
ENDMDL
MODEL 4
REMARK VINA RESULT:    -4.411      0.411      4.006
REMARK INTER + INTRA:          -7.654
REMARK INTER:                  -6.570
REMARK INTRA:                  -1.084
REMARK UNBOUND:                -0.922
REMARK SMILES O=C([O-])CCCCCCCCC(=O)[O-]
REMARK SMILES IDX 7 1 6 2 5 3 4 4 2 5 1 6 3 7 8 8 9 9 10 10 11 11 12 12 13 13
REMARK SMILES IDX 14 14
REMARK H PARENT
REMARK Flexibility Score: inf
ROOT
ATOM      1  C   UNL     1      63.550  30.099  11.944  1.00  0.00     0.000 C 
ENDROOT
BRANCH   1   2
ATOM      2  C   UNL     1      62.854  31.463  11.791  1.00  0.00     0.000 C 
BRANCH   2   3
ATOM      3  C   UNL     1      62.163  31.928  13.084  1.00  0.00     0.006 C 
BRANCH   3   4
ATOM      4  C   UNL     1      60.720  32.388  12.837  1.00  0.00     0.053 C 
BRANCH   4   5
ATOM      5  C   UNL     1      59.905  32.369  14.093  1.00  0.00     0.041 C 
ATOM      6  O   UNL     1      58.855  31.677  14.156  1.00  0.00    -0.550 OA
ATOM      7  O   UNL     1      60.319  33.092  15.204  1.00  0.00    -0.550 OA
ENDBRANCH   4   5
ENDBRANCH   3   4
ENDBRANCH   2   3
ENDBRANCH   1   2
BRANCH   1   8
ATOM      8  C   UNL     1      63.040  28.995  10.996  1.00  0.00     0.000 C 
BRANCH   8   9
ATOM      9  C   UNL     1      61.841  29.391  10.112  1.00  0.00     0.000 C 
BRANCH   9  10
ATOM     10  C   UNL     1      60.563  28.564  10.343  1.00  0.00     0.006 C 
BRANCH  10  11
ATOM     11  C   UNL     1      59.598  29.227  11.333  1.00  0.00     0.053 C 
BRANCH  11  12
ATOM     12  C   UNL     1      59.603  28.494  12.637  1.00  0.00     0.041 C 
ATOM     13  O   UNL     1      58.690  27.668  12.903  1.00  0.00    -0.550 OA
ATOM     14  O   UNL     1      60.642  28.685  13.539  1.00  0.00    -0.550 OA
ENDBRANCH  11  12
ENDBRANCH  10  11
ENDBRANCH   9  10
ENDBRANCH   8   9
ENDBRANCH   1   8
TORSDOF 9
ENDMDL
MODEL 5
REMARK VINA RESULT:    -4.400      1.650      2.248
REMARK INTER + INTRA:          -7.636
REMARK INTER:                  -6.553
REMARK INTRA:                  -1.083
REMARK UNBOUND:                -0.922
REMARK SMILES O=C([O-])CCCCCCCCC(=O)[O-]
REMARK SMILES IDX 7 1 6 2 5 3 4 4 2 5 1 6 3 7 8 8 9 9 10 10 11 11 12 12 13 13
REMARK SMILES IDX 14 14
REMARK H PARENT
REMARK Flexibility Score: inf
ROOT
ATOM      1  C   UNL     1      63.158  30.172  14.325  1.00  0.00     0.000 C 
ENDROOT
BRANCH   1   2
ATOM      2  C   UNL     1      63.490  29.320  13.087  1.00  0.00     0.000 C 
BRANCH   2   3
ATOM      3  C   UNL     1      62.257  28.610  12.504  1.00  0.00     0.006 C 
BRANCH   3   4
ATOM      4  C   UNL     1      61.038  28.714  13.430  1.00  0.00     0.053 C 
BRANCH   4   5
ATOM      5  C   UNL     1      59.750  28.622  12.670  1.00  0.00     0.041 C 
ATOM      6  O   UNL     1      59.532  29.391  11.697  1.00  0.00    -0.550 OA
ATOM      7  O   UNL     1      58.802  27.668  13.018  1.00  0.00    -0.550 OA
ENDBRANCH   4   5
ENDBRANCH   3   4
ENDBRANCH   2   3
ENDBRANCH   1   2
BRANCH   1   8
ATOM      8  C   UNL     1      63.522  31.665  14.208  1.00  0.00     0.000 C 
BRANCH   8   9
ATOM      9  C   UNL     1      62.969  32.380  12.959  1.00  0.00     0.000 C 
BRANCH   9  10
ATOM     10  C   UNL     1      61.435  32.363  12.829  1.00  0.00     0.006 C 
BRANCH  10  11
ATOM     11  C   UNL     1      60.731  33.038  14.012  1.00  0.00     0.053 C 
BRANCH  11  12
ATOM     12  C   UNL     1      59.866  32.055  14.735  1.00  0.00     0.041 C 
ATOM     13  O   UNL     1      58.768  31.689  14.237  1.00  0.00    -0.550 OA
ATOM     14  O   UNL     1      60.294  31.503  15.936  1.00  0.00    -0.550 OA
ENDBRANCH  11  12
ENDBRANCH  10  11
ENDBRANCH   9  10
ENDBRANCH   8   9
ENDBRANCH   1   8
TORSDOF 9
ENDMDL
MODEL 6
REMARK VINA RESULT:    -4.393     13.273     14.590
REMARK INTER + INTRA:          -7.626
REMARK INTER:                  -6.687
REMARK INTRA:                  -0.939
REMARK UNBOUND:                -0.922
REMARK SMILES O=C([O-])CCCCCCCCC(=O)[O-]
REMARK SMILES IDX 7 1 6 2 5 3 4 4 2 5 1 6 3 7 8 8 9 9 10 10 11 11 12 12 13 13
REMARK SMILES IDX 14 14
REMARK H PARENT
REMARK Flexibility Score: inf
ROOT
ATOM      1  C   UNL     1      61.859  28.255  24.633  1.00  0.00     0.000 C 
ENDROOT
BRANCH   1   2
ATOM      2  C   UNL     1      60.743  27.990  25.660  1.00  0.00     0.000 C 
BRANCH   2   3
ATOM      3  C   UNL     1      61.194  27.070  26.807  1.00  0.00     0.006 C 
BRANCH   3   4
ATOM      4  C   UNL     1      62.193  27.761  27.745  1.00  0.00     0.053 C 
BRANCH   4   5
ATOM      5  C   UNL     1      61.627  29.016  28.336  1.00  0.00     0.041 C 
ATOM      6  O   UNL     1      62.181  30.125  28.118  1.00  0.00    -0.550 OA
ATOM      7  O   UNL     1      60.470  28.965  29.103  1.00  0.00    -0.550 OA
ENDBRANCH   4   5
ENDBRANCH   3   4
ENDBRANCH   2   3
ENDBRANCH   1   2
BRANCH   1   8
ATOM      8  C   UNL     1      62.453  29.677  24.667  1.00  0.00     0.000 C 
BRANCH   8   9
ATOM      9  C   UNL     1      63.987  29.752  24.525  1.00  0.00     0.000 C 
BRANCH   9  10
ATOM     10  C   UNL     1      64.767  28.731  25.374  1.00  0.00     0.006 C 
BRANCH  10  11
ATOM     11  C   UNL     1      65.680  27.832  24.532  1.00  0.00     0.053 C 
BRANCH  11  12
ATOM     12  C   UNL     1      65.178  26.423  24.540  1.00  0.00     0.041 C 
ATOM     13  O   UNL     1      65.499  25.630  23.616  1.00  0.00    -0.550 OA
ATOM     14  O   UNL     1      64.396  25.970  25.595  1.00  0.00    -0.550 OA
ENDBRANCH  11  12
ENDBRANCH  10  11
ENDBRANCH   9  10
ENDBRANCH   8   9
ENDBRANCH   1   8
TORSDOF 9
ENDMDL
MODEL 7
REMARK VINA RESULT:    -4.337     13.013     14.181
REMARK INTER + INTRA:          -7.541
REMARK INTER:                  -6.421
REMARK INTRA:                  -1.120
REMARK UNBOUND:                -0.922
REMARK SMILES O=C([O-])CCCCCCCCC(=O)[O-]
REMARK SMILES IDX 7 1 6 2 5 3 4 4 2 5 1 6 3 7 8 8 9 9 10 10 11 11 12 12 13 13
REMARK SMILES IDX 14 14
REMARK H PARENT
REMARK Flexibility Score: inf
ROOT
ATOM      1  C   UNL     1      63.920  30.146  26.228  1.00  0.00     0.000 C 
ENDROOT
BRANCH   1   2
ATOM      2  C   UNL     1      64.905  28.963  26.227  1.00  0.00     0.000 C 
BRANCH   2   3
ATOM      3  C   UNL     1      64.966  28.239  24.871  1.00  0.00     0.006 C 
BRANCH   3   4
ATOM      4  C   UNL     1      64.849  26.717  25.021  1.00  0.00     0.053 C 
BRANCH   4   5
ATOM      5  C   UNL     1      64.169  26.090  23.843  1.00  0.00     0.041 C 
ATOM      6  O   UNL     1      63.256  25.240  24.018  1.00  0.00    -0.550 OA
ATOM      7  O   UNL     1      64.522  26.464  22.554  1.00  0.00    -0.550 OA
ENDBRANCH   4   5
ENDBRANCH   3   4
ENDBRANCH   2   3
ENDBRANCH   1   2
BRANCH   1   8
ATOM      8  C   UNL     1      62.975  30.209  27.444  1.00  0.00     0.000 C 
BRANCH   8   9
ATOM      9  C   UNL     1      62.723  28.861  28.149  1.00  0.00     0.000 C 
BRANCH   9  10
ATOM     10  C   UNL     1      61.408  28.161  27.760  1.00  0.00     0.006 C 
BRANCH  10  11
ATOM     11  C   UNL     1      61.600  27.103  26.666  1.00  0.00     0.053 C 
BRANCH  11  12
ATOM     12  C   UNL     1      60.855  27.491  25.429  1.00  0.00     0.041 C 
ATOM     13  O   UNL     1      61.389  28.253  24.580  1.00  0.00    -0.550 OA
ATOM     14  O   UNL     1      59.590  26.971  25.187  1.00  0.00    -0.550 OA
ENDBRANCH  11  12
ENDBRANCH  10  11
ENDBRANCH   9  10
ENDBRANCH   8   9
ENDBRANCH   1   8
TORSDOF 9
ENDMDL
MODEL 8
REMARK VINA RESULT:    -4.313     13.126     14.177
REMARK INTER + INTRA:          -7.504
REMARK INTER:                  -6.549
REMARK INTRA:                  -0.955
REMARK UNBOUND:                -0.922
REMARK SMILES O=C([O-])CCCCCCCCC(=O)[O-]
REMARK SMILES IDX 7 1 6 2 5 3 4 4 2 5 1 6 3 7 8 8 9 9 10 10 11 11 12 12 13 13
REMARK SMILES IDX 14 14
REMARK H PARENT
REMARK Flexibility Score: inf
ROOT
ATOM      1  C   UNL     1      63.686  29.404  24.520  1.00  0.00     0.000 C 
ENDROOT
BRANCH   1   2
ATOM      2  C   UNL     1      64.554  28.538  25.452  1.00  0.00     0.000 C 
BRANCH   2   3
ATOM      3  C   UNL     1      65.447  27.548  24.684  1.00  0.00     0.006 C 
BRANCH   3   4
ATOM      4  C   UNL     1      64.928  26.107  24.778  1.00  0.00     0.053 C 
BRANCH   4   5
ATOM      5  C   UNL     1      63.962  25.788  23.680  1.00  0.00     0.041 C 
ATOM      6  O   UNL     1      63.067  24.919  23.855  1.00  0.00    -0.550 OA
ATOM      7  O   UNL     1      64.029  26.470  22.472  1.00  0.00    -0.550 OA
ENDBRANCH   4   5
ENDBRANCH   3   4
ENDBRANCH   2   3
ENDBRANCH   1   2
BRANCH   1   8
ATOM      8  C   UNL     1      62.200  29.502  24.917  1.00  0.00     0.000 C 
BRANCH   8   9
ATOM      9  C   UNL     1      61.400  28.189  24.798  1.00  0.00     0.000 C 
BRANCH   9  10
ATOM     10  C   UNL     1      61.143  27.464  26.131  1.00  0.00     0.006 C 
BRANCH  10  11
ATOM     11  C   UNL     1      61.174  28.410  27.338  1.00  0.00     0.053 C 
BRANCH  11  12
ATOM     12  C   UNL     1      62.165  27.932  28.350  1.00  0.00     0.041 C 
ATOM     13  O   UNL     1      63.096  28.689  28.732  1.00  0.00    -0.550 OA
ATOM     14  O   UNL     1      62.033  26.667  28.910  1.00  0.00    -0.550 OA
ENDBRANCH  11  12
ENDBRANCH  10  11
ENDBRANCH   9  10
ENDBRANCH   8   9
ENDBRANCH   1   8
TORSDOF 9
ENDMDL
MODEL 9
REMARK VINA RESULT:    -4.269      1.926      2.775
REMARK INTER + INTRA:          -7.437
REMARK INTER:                  -6.449
REMARK INTRA:                  -0.988
REMARK UNBOUND:                -0.922
REMARK SMILES O=C([O-])CCCCCCCCC(=O)[O-]
REMARK SMILES IDX 7 1 6 2 5 3 4 4 2 5 1 6 3 7 8 8 9 9 10 10 11 11 12 12 13 13
REMARK SMILES IDX 14 14
REMARK H PARENT
REMARK Flexibility Score: inf
ROOT
ATOM      1  C   UNL     1      63.439  29.659  12.489  1.00  0.00     0.000 C 
ENDROOT
BRANCH   1   2
ATOM      2  C   UNL     1      63.170  30.202  11.074  1.00  0.00     0.000 C 
BRANCH   2   3
ATOM      3  C   UNL     1      63.369  29.139   9.980  1.00  0.00     0.006 C 
BRANCH   3   4
ATOM      4  C   UNL     1      62.309  29.240   8.875  1.00  0.00     0.053 C 
BRANCH   4   5
ATOM      5  C   UNL     1      60.927  29.003   9.403  1.00  0.00     0.041 C 
ATOM      6  O   UNL     1      60.011  29.836   9.174  1.00  0.00    -0.550 OA
ATOM      7  O   UNL     1      60.644  27.850  10.121  1.00  0.00    -0.550 OA
ENDBRANCH   4   5
ENDBRANCH   3   4
ENDBRANCH   2   3
ENDBRANCH   1   2
BRANCH   1   8
ATOM      8  C   UNL     1      62.363  28.700  13.037  1.00  0.00     0.000 C 
BRANCH   8   9
ATOM      9  C   UNL     1      61.223  29.375  13.825  1.00  0.00     0.000 C 
BRANCH   9  10
ATOM     10  C   UNL     1      59.973  29.715  12.995  1.00  0.00     0.006 C 
BRANCH  10  11
ATOM     11  C   UNL     1      60.001  31.144  12.437  1.00  0.00     0.053 C 
BRANCH  11  12
ATOM     12  C   UNL     1      60.398  32.113  13.505  1.00  0.00     0.041 C 
ATOM     13  O   UNL     1      59.625  32.340  14.473  1.00  0.00    -0.550 OA
ATOM     14  O   UNL     1      61.642  32.730  13.458  1.00  0.00    -0.550 OA
ENDBRANCH  11  12
ENDBRANCH  10  11
ENDBRANCH   9  10
ENDBRANCH   8   9
ENDBRANCH   1   8
TORSDOF 9
ENDMDL
