MODEL 1
REMARK VINA RESULT:    -2.686      0.000      0.000
REMARK INTER + INTRA:          -2.686
REMARK INTER:                  -2.686
REMARK INTRA:                   0.000
REMARK UNBOUND:                 0.000
REMARK SMILES CC(=O)[O-]
REMARK SMILES IDX 1 1 2 2 3 3 4 4
REMARK H PARENT
REMARK Flexibility Score: inf
ROOT
ATOM      1  C   UNL     1      36.975  73.249  73.702  1.00  0.00     0.063 C 
ATOM      2  C   UNL     1      37.716  73.677  72.481  1.00  0.00     0.038 C 
ATOM      3  O   UNL     1      37.327  73.304  71.344  1.00  0.00    -0.550 OA
ATOM      4  O   UNL     1      38.868  74.444  72.599  1.00  0.00    -0.550 OA
ENDROOT
TORSDOF 0
ENDMDL
MODEL 2
REMARK VINA RESULT:    -2.633      1.500      1.795
REMARK INTER + INTRA:          -2.633
REMARK INTER:                  -2.633
REMARK INTRA:                   0.000
REMARK UNBOUND:                 0.000
REMARK SMILES CC(=O)[O-]
REMARK SMILES IDX 1 1 2 2 3 3 4 4
REMARK H PARENT
REMARK Flexibility Score: inf
ROOT
ATOM      1  C   UNL     1      38.845  74.378  73.187  1.00  0.00     0.063 C 
ATOM      2  C   UNL     1      37.645  73.569  72.832  1.00  0.00     0.038 C 
ATOM      3  O   UNL     1      37.290  73.458  71.629  1.00  0.00    -0.550 OA
ATOM      4  O   UNL     1      36.883  72.978  73.832  1.00  0.00    -0.550 OA
ENDROOT
TORSDOF 0
ENDMDL
MODEL 3
REMARK VINA RESULT:    -2.499      2.271      2.895
REMARK INTER + INTRA:          -2.499
REMARK INTER:                  -2.499
REMARK INTRA:                   0.000
REMARK UNBOUND:                 0.000
REMARK SMILES CC(=O)[O-]
REMARK SMILES IDX 1 1 2 2 3 3 4 4
REMARK H PARENT
REMARK Flexibility Score: inf
ROOT
ATOM      1  C   UNL     1      38.427  74.112  73.319  1.00  0.00     0.063 C 
ATOM      2  C   UNL     1      39.641  74.977  73.319  1.00  0.00     0.038 C 
ATOM      3  O   UNL     1      40.246  75.216  74.396  1.00  0.00    -0.550 OA
ATOM      4  O   UNL     1      40.076  75.565  72.138  1.00  0.00    -0.550 OA
ENDROOT
TORSDOF 0
ENDMDL
MODEL 4
REMARK VINA RESULT:    -2.301      1.961      2.364
REMARK INTER + INTRA:          -2.301
REMARK INTER:                  -2.301
REMARK INTRA:                   0.000
REMARK UNBOUND:                 0.000
REMARK SMILES CC(=O)[O-]
REMARK SMILES IDX 1 1 2 2 3 3 4 4
REMARK H PARENT
REMARK Flexibility Score: inf
ROOT
ATOM      1  C   UNL     1      40.042  75.084  74.012  1.00  0.00     0.063 C 
ATOM      2  C   UNL     1      38.970  74.531  73.136  1.00  0.00     0.038 C 
ATOM      3  O   UNL     1      38.139  73.706  73.598  1.00  0.00    -0.550 OA
ATOM      4  O   UNL     1      38.916  74.883  71.794  1.00  0.00    -0.550 OA
ENDROOT
TORSDOF 0
ENDMDL
MODEL 5
REMARK VINA RESULT:    -2.284      4.537      5.057
REMARK INTER + INTRA:          -2.284
REMARK INTER:                  -2.284
REMARK INTRA:                   0.000
REMARK UNBOUND:                 0.000
REMARK SMILES CC(=O)[O-]
REMARK SMILES IDX 1 1 2 2 3 3 4 4
REMARK H PARENT
REMARK Flexibility Score: inf
ROOT
ATOM      1  C   UNL     1      36.802  71.956  75.177  1.00  0.00     0.063 C 
ATOM      2  C   UNL     1      36.638  70.582  75.731  1.00  0.00     0.038 C 
ATOM      3  O   UNL     1      37.361  70.194  76.685  1.00  0.00    -0.550 OA
ATOM      4  O   UNL     1      35.723  69.706  75.161  1.00  0.00    -0.550 OA
ENDROOT
TORSDOF 0
ENDMDL
MODEL 6
REMARK VINA RESULT:    -2.254      4.384      4.683
REMARK INTER + INTRA:          -2.254
REMARK INTER:                  -2.254
REMARK INTRA:                   0.000
REMARK UNBOUND:                 0.000
REMARK SMILES CC(=O)[O-]
REMARK SMILES IDX 1 1 2 2 3 3 4 4
REMARK H PARENT
REMARK Flexibility Score: inf
ROOT
ATOM      1  C   UNL     1      37.435  69.999  76.641  1.00  0.00     0.063 C 
ATOM      2  C   UNL     1      36.510  70.555  75.612  1.00  0.00     0.038 C 
ATOM      3  O   UNL     1      35.626  69.823  75.097  1.00  0.00    -0.550 OA
ATOM      4  O   UNL     1      36.655  71.867  75.181  1.00  0.00    -0.550 OA
ENDROOT
TORSDOF 0
ENDMDL
MODEL 7
REMARK VINA RESULT:    -2.182      4.626      4.890
REMARK INTER + INTRA:          -2.182
REMARK INTER:                  -2.182
REMARK INTRA:                   0.000
REMARK UNBOUND:                 0.000
REMARK SMILES CC(=O)[O-]
REMARK SMILES IDX 1 1 2 2 3 3 4 4
REMARK H PARENT
REMARK Flexibility Score: inf
ROOT
ATOM      1  C   UNL     1      35.828  69.542  75.152  1.00  0.00     0.063 C 
ATOM      2  C   UNL     1      36.685  70.576  75.802  1.00  0.00     0.038 C 
ATOM      3  O   UNL     1      36.738  71.740  75.328  1.00  0.00    -0.550 OA
ATOM      4  O   UNL     1      37.467  70.242  76.900  1.00  0.00    -0.550 OA
ENDROOT
TORSDOF 0
ENDMDL
MODEL 8
REMARK VINA RESULT:    -2.140      5.638      6.111
REMARK INTER + INTRA:          -2.140
REMARK INTER:                  -2.140
REMARK INTRA:                   0.000
REMARK UNBOUND:                 0.000
REMARK SMILES CC(=O)[O-]
REMARK SMILES IDX 1 1 2 2 3 3 4 4
REMARK H PARENT
REMARK Flexibility Score: inf
ROOT
ATOM      1  C   UNL     1      37.413  70.042  76.503  1.00  0.00     0.063 C 
ATOM      2  C   UNL     1      36.726  68.911  75.816  1.00  0.00     0.038 C 
ATOM      3  O   UNL     1      37.142  67.734  75.966  1.00  0.00    -0.550 OA
ATOM      4  O   UNL     1      35.656  69.161  74.965  1.00  0.00    -0.550 OA
ENDROOT
TORSDOF 0
ENDMDL
MODEL 9
REMARK VINA RESULT:    -2.059     13.610     13.993
REMARK INTER + INTRA:          -2.059
REMARK INTER:                  -2.059
REMARK INTRA:                   0.000
REMARK UNBOUND:                 0.000
REMARK SMILES CC(=O)[O-]
REMARK SMILES IDX 1 1 2 2 3 3 4 4
REMARK H PARENT
REMARK Flexibility Score: inf
ROOT
ATOM      1  C   UNL     1      26.061  67.440  75.895  1.00  0.00     0.063 C 
ATOM      2  C   UNL     1      26.228  66.279  74.973  1.00  0.00     0.038 C 
ATOM      3  O   UNL     1      27.237  65.534  75.071  1.00  0.00    -0.550 OA
ATOM      4  O   UNL     1      25.296  66.049  73.968  1.00  0.00    -0.550 OA
ENDROOT
TORSDOF 0
ENDMDL
