MODEL 1
REMARK VINA RESULT:    -2.649      0.000      0.000
REMARK INTER + INTRA:          -2.995
REMARK INTER:                  -2.959
REMARK INTRA:                  -0.037
REMARK UNBOUND:                -0.037
REMARK SMILES CCCC(=O)[O-]
REMARK SMILES IDX 3 1 4 2 5 3 6 4 2 5 1 6
REMARK H PARENT
REMARK Flexibility Score: inf
ROOT
ATOM      1  C   UNL     1     112.155  65.767 217.606  1.00  0.00     0.052 C 
ENDROOT
BRANCH   1   2
ATOM      2  C   UNL     1     113.127  66.776 217.076  1.00  0.00     0.041 C 
ATOM      3  O   UNL     1     113.030  67.987 217.407  1.00  0.00    -0.550 OA
ATOM      4  O   UNL     1     114.122  66.384 216.189  1.00  0.00    -0.550 OA
ENDBRANCH   1   2
BRANCH   1   5
ATOM      5  C   UNL     1     112.433  64.365 217.050  1.00  0.00     0.003 C 
ATOM      6  C   UNL     1     111.354  63.903 216.070  1.00  0.00     0.004 C 
ENDBRANCH   1   5
TORSDOF 2
ENDMDL
MODEL 2
REMARK VINA RESULT:    -2.576      1.140      2.137
REMARK INTER + INTRA:          -2.914
REMARK INTER:                  -2.874
REMARK INTRA:                  -0.040
REMARK UNBOUND:                -0.037
REMARK SMILES CCCC(=O)[O-]
REMARK SMILES IDX 3 1 4 2 5 3 6 4 2 5 1 6
REMARK H PARENT
REMARK Flexibility Score: inf
ROOT
ATOM      1  C   UNL     1     112.167  65.740 217.111  1.00  0.00     0.052 C 
ENDROOT
BRANCH   1   2
ATOM      2  C   UNL     1     113.362  66.607 216.861  1.00  0.00     0.041 C 
ATOM      3  O   UNL     1     114.419  66.111 216.388  1.00  0.00    -0.550 OA
ATOM      4  O   UNL     1     113.320  67.957 217.181  1.00  0.00    -0.550 OA
ENDBRANCH   1   2
BRANCH   1   5
ATOM      5  C   UNL     1     111.828  65.658 218.604  1.00  0.00     0.003 C 
ATOM      6  C   UNL     1     112.499  64.467 219.289  1.00  0.00     0.004 C 
ENDBRANCH   1   5
TORSDOF 2
ENDMDL
MODEL 3
REMARK VINA RESULT:    -2.546     13.625     14.097
REMARK INTER + INTRA:          -2.880
REMARK INTER:                  -2.875
REMARK INTRA:                  -0.005
REMARK UNBOUND:                -0.037
REMARK SMILES CCCC(=O)[O-]
REMARK SMILES IDX 3 1 4 2 5 3 6 4 2 5 1 6
REMARK H PARENT
REMARK Flexibility Score: inf
ROOT
ATOM      1  C   UNL     1      99.789  60.476 217.696  1.00  0.00     0.052 C 
ENDROOT
BRANCH   1   2
ATOM      2  C   UNL     1     100.125  60.265 219.140  1.00  0.00     0.041 C 
ATOM      3  O   UNL     1      99.353  59.602 219.882  1.00  0.00    -0.550 OA
ATOM      4  O   UNL     1     101.276  60.828 219.675  1.00  0.00    -0.550 OA
ENDBRANCH   1   2
BRANCH   1   5
ATOM      5  C   UNL     1     100.095  59.232 216.854  1.00  0.00     0.003 C 
ATOM      6  C   UNL     1     100.129  59.536 215.356  1.00  0.00     0.004 C 
ENDBRANCH   1   5
TORSDOF 2
ENDMDL
MODEL 4
REMARK VINA RESULT:    -2.513     12.309     13.135
REMARK INTER + INTRA:          -2.843
REMARK INTER:                  -2.805
REMARK INTRA:                  -0.039
REMARK UNBOUND:                -0.037
REMARK SMILES CCCC(=O)[O-]
REMARK SMILES IDX 3 1 4 2 5 3 6 4 2 5 1 6
REMARK H PARENT
REMARK Flexibility Score: inf
ROOT
ATOM      1  C   UNL     1     101.733  59.082 219.210  1.00  0.00     0.052 C 
ENDROOT
BRANCH   1   2
ATOM      2  C   UNL     1     100.719  60.150 219.484  1.00  0.00     0.041 C 
ATOM      3  O   UNL     1     101.081  61.346 219.640  1.00  0.00    -0.550 OA
ATOM      4  O   UNL     1      99.375  59.819 219.599  1.00  0.00    -0.550 OA
ENDBRANCH   1   2
BRANCH   1   5
ATOM      5  C   UNL     1     102.877  59.112 220.229  1.00  0.00     0.003 C 
ATOM      6  C   UNL     1     104.204  59.540 219.602  1.00  0.00     0.004 C 
ENDBRANCH   1   5
TORSDOF 2
ENDMDL
MODEL 5
REMARK VINA RESULT:    -2.436     22.270     22.682
REMARK INTER + INTRA:          -2.758
REMARK INTER:                  -2.752
REMARK INTRA:                  -0.006
REMARK UNBOUND:                -0.037
REMARK SMILES CCCC(=O)[O-]
REMARK SMILES IDX 3 1 4 2 5 3 6 4 2 5 1 6
REMARK H PARENT
REMARK Flexibility Score: inf
ROOT
ATOM      1  C   UNL     1     107.553  50.396 232.563  1.00  0.00     0.052 C 
ENDROOT
BRANCH   1   2
ATOM      2  C   UNL     1     108.765  49.923 233.304  1.00  0.00     0.041 C 
ATOM      3  O   UNL     1     108.715  48.875 234.001  1.00  0.00    -0.550 OA
ATOM      4  O   UNL     1     109.942  50.658 233.252  1.00  0.00    -0.550 OA
ENDBRANCH   1   2
BRANCH   1   5
ATOM      5  C   UNL     1     107.568  49.938 231.099  1.00  0.00     0.003 C 
ATOM      6  C   UNL     1     106.636  50.770 230.219  1.00  0.00     0.004 C 
ENDBRANCH   1   5
TORSDOF 2
ENDMDL
MODEL 6
REMARK VINA RESULT:    -2.381     21.578     22.040
REMARK INTER + INTRA:          -2.696
REMARK INTER:                  -2.681
REMARK INTRA:                  -0.015
REMARK UNBOUND:                -0.037
REMARK SMILES CCCC(=O)[O-]
REMARK SMILES IDX 3 1 4 2 5 3 6 4 2 5 1 6
REMARK H PARENT
REMARK Flexibility Score: inf
ROOT
ATOM      1  C   UNL     1     107.231  50.640 231.069  1.00  0.00     0.052 C 
ENDROOT
BRANCH   1   2
ATOM      2  C   UNL     1     106.315  50.212 229.964  1.00  0.00     0.041 C 
ATOM      3  O   UNL     1     105.837  51.063 229.168  1.00  0.00    -0.550 OA
ATOM      4  O   UNL     1     105.962  48.875 229.834  1.00  0.00    -0.550 OA
ENDBRANCH   1   2
BRANCH   1   5
ATOM      5  C   UNL     1     107.490  49.504 232.064  1.00  0.00     0.003 C 
ATOM      6  C   UNL     1     108.897  49.561 232.659  1.00  0.00     0.004 C 
ENDBRANCH   1   5
TORSDOF 2
ENDMDL
MODEL 7
REMARK VINA RESULT:    -2.330     13.494     14.190
REMARK INTER + INTRA:          -2.639
REMARK INTER:                  -2.577
REMARK INTRA:                  -0.063
REMARK UNBOUND:                -0.037
REMARK SMILES CCCC(=O)[O-]
REMARK SMILES IDX 3 1 4 2 5 3 6 4 2 5 1 6
REMARK H PARENT
REMARK Flexibility Score: inf
ROOT
ATOM      1  C   UNL     1      99.944  59.574 217.641  1.00  0.00     0.052 C 
ENDROOT
BRANCH   1   2
ATOM      2  C   UNL     1     100.051  60.001 219.073  1.00  0.00     0.041 C 
ATOM      3  O   UNL     1     100.925  60.836 219.423  1.00  0.00    -0.550 OA
ATOM      4  O   UNL     1      99.205  59.450 220.026  1.00  0.00    -0.550 OA
ENDBRANCH   1   2
BRANCH   1   5
ATOM      5  C   UNL     1     101.120  58.683 217.225  1.00  0.00     0.003 C 
ATOM      6  C   UNL     1     101.078  57.311 217.898  1.00  0.00     0.004 C 
ENDBRANCH   1   5
TORSDOF 2
ENDMDL
MODEL 8
REMARK VINA RESULT:    -2.322     14.685     15.159
REMARK INTER + INTRA:          -2.630
REMARK INTER:                  -2.603
REMARK INTRA:                  -0.027
REMARK UNBOUND:                -0.037
REMARK SMILES CCCC(=O)[O-]
REMARK SMILES IDX 3 1 4 2 5 3 6 4 2 5 1 6
REMARK H PARENT
REMARK Flexibility Score: inf
ROOT
ATOM      1  C   UNL     1      99.639  65.816 225.459  1.00  0.00     0.052 C 
ENDROOT
BRANCH   1   2
ATOM      2  C   UNL     1     100.913  65.562 224.715  1.00  0.00     0.041 C 
ATOM      3  O   UNL     1     101.757  66.484 224.566  1.00  0.00    -0.550 OA
ATOM      4  O   UNL     1     101.155  64.313 224.156  1.00  0.00    -0.550 OA
ENDBRANCH   1   2
BRANCH   1   5
ATOM      5  C   UNL     1      98.772  64.554 225.547  1.00  0.00     0.003 C 
ATOM      6  C   UNL     1      97.364  64.776 224.994  1.00  0.00     0.004 C 
ENDBRANCH   1   5
TORSDOF 2
ENDMDL
