MODEL 1
REMARK VINA RESULT:    -4.244      0.000      0.000
REMARK INTER + INTRA:         -16.717
REMARK INTER:                 -11.191
REMARK INTRA:                  -5.526
REMARK UNBOUND:                -5.526
REMARK SMILES CCCCCCCCCCCCCCCCCCCCCCCCCCCCCC(=O)[O-]
REMARK SMILES IDX 16 1 17 2 18 3 19 4 20 5 21 6 22 7 23 8 24 9 25 10 26 11
REMARK SMILES IDX 27 12 28 13 29 14 30 15 31 16 32 17 15 18 14 19 13 20 12 21
REMARK SMILES IDX 11 22 10 23 9 24 8 25 7 26 6 27 5 28 4 29 3 30 2 31 1 32
REMARK H PARENT
REMARK Flexibility Score: inf
ROOT
ATOM      1  C   UNL     1      17.454  37.613  33.864  1.00  0.00     0.000 C 
ENDROOT
BRANCH   1   2
ATOM      2  C   UNL     1      18.079  38.045  35.201  1.00  0.00     0.000 C 
BRANCH   2   3
ATOM      3  C   UNL     1      18.433  39.542  35.242  1.00  0.00     0.000 C 
BRANCH   3   4
ATOM      4  C   UNL     1      17.880  40.372  34.070  1.00  0.00     0.000 C 
BRANCH   4   5
ATOM      5  C   UNL     1      18.988  41.024  33.225  1.00  0.00     0.000 C 
BRANCH   5   6
ATOM      6  C   UNL     1      20.380  40.452  33.537  1.00  0.00     0.000 C 
BRANCH   6   7
ATOM      7  C   UNL     1      20.977  39.669  32.354  1.00  0.00     0.000 C 
BRANCH   7   8
ATOM      8  C   UNL     1      21.642  38.350  32.786  1.00  0.00     0.000 C 
BRANCH   8   9
ATOM      9  C   UNL     1      21.833  38.182  34.308  1.00  0.00     0.000 C 
BRANCH   9  10
ATOM     10  C   UNL     1      21.512  36.779  34.856  1.00  0.00     0.000 C 
BRANCH  10  11
ATOM     11  C   UNL     1      22.003  36.518  36.293  1.00  0.00     0.000 C 
BRANCH  11  12
ATOM     12  C   UNL     1      22.670  37.744  36.953  1.00  0.00     0.000 C 
BRANCH  12  13
ATOM     13  C   UNL     1      21.842  38.306  38.121  1.00  0.00     0.006 C 
BRANCH  13  14
ATOM     14  C   UNL     1      20.417  37.738  38.150  1.00  0.00     0.053 C 
BRANCH  14  15
ATOM     15  C   UNL     1      19.676  38.150  39.386  1.00  0.00     0.041 C 
ATOM     16  O   UNL     1      18.528  37.690  39.618  1.00  0.00    -0.550 OA
ATOM     17  O   UNL     1      20.243  39.066  40.263  1.00  0.00    -0.550 OA
ENDBRANCH  14  15
ENDBRANCH  13  14
ENDBRANCH  12  13
ENDBRANCH  11  12
ENDBRANCH  10  11
ENDBRANCH   9  10
ENDBRANCH   8   9
ENDBRANCH   7   8
ENDBRANCH   6   7
ENDBRANCH   5   6
ENDBRANCH   4   5
ENDBRANCH   3   4
ENDBRANCH   2   3
ENDBRANCH   1   2
BRANCH   1  18
ATOM     18  C   UNL     1      18.304  36.555  33.136  1.00  0.00     0.000 C 
BRANCH  18  19
ATOM     19  C   UNL     1      18.495  36.850  31.636  1.00  0.00     0.000 C 
BRANCH  19  20
ATOM     20  C   UNL     1      17.685  38.074  31.171  1.00  0.00     0.000 C 
BRANCH  20  21
ATOM     21  C   UNL     1      18.389  38.875  30.056  1.00  0.00     0.000 C 
BRANCH  21  22
ATOM     22  C   UNL     1      17.833  40.297  29.846  1.00  0.00     0.000 C 
BRANCH  22  23
ATOM     23  C   UNL     1      16.903  40.477  28.631  1.00  0.00     0.000 C 
BRANCH  23  24
ATOM     24  C   UNL     1      15.395  40.479  28.949  1.00  0.00    -0.000 C 
BRANCH  24  25
ATOM     25  C   UNL     1      14.512  40.548  27.692  1.00  0.00    -0.000 C 
BRANCH  25  26
ATOM     26  C   UNL     1      14.243  39.158  27.091  1.00  0.00    -0.000 C 
BRANCH  26  27
ATOM     27  C   UNL     1      15.157  38.840  25.895  1.00  0.00    -0.000 C 
BRANCH  27  28
ATOM     28  C   UNL     1      15.923  37.521  26.075  1.00  0.00    -0.000 C 
BRANCH  28  29
ATOM     29  C   UNL     1      15.511  36.763  27.349  1.00  0.00    -0.000 C 
BRANCH  29  30
ATOM     30  C   UNL     1      16.711  36.132  28.072  1.00  0.00    -0.000 C 
BRANCH  30  31
ATOM     31  C   UNL     1      18.032  36.345  27.319  1.00  0.00    -0.003 C 
ATOM     32  C   UNL     1      19.218  35.833  28.130  1.00  0.00     0.004 C 
ENDBRANCH  30  31
ENDBRANCH  29  30
ENDBRANCH  28  29
ENDBRANCH  27  28
ENDBRANCH  26  27
ENDBRANCH  25  26
ENDBRANCH  24  25
ENDBRANCH  23  24
ENDBRANCH  22  23
ENDBRANCH  21  22
ENDBRANCH  20  21
ENDBRANCH  19  20
ENDBRANCH  18  19
ENDBRANCH   1  18
TORSDOF 28
ENDMDL
MODEL 2
REMARK VINA RESULT:    -4.143      4.851      8.838
REMARK INTER + INTRA:         -16.451
REMARK INTER:                 -10.955
REMARK INTRA:                  -5.495
REMARK UNBOUND:                -5.526
REMARK SMILES CCCCCCCCCCCCCCCCCCCCCCCCCCCCCC(=O)[O-]
REMARK SMILES IDX 16 1 17 2 18 3 19 4 20 5 21 6 22 7 23 8 24 9 25 10 26 11
REMARK SMILES IDX 27 12 28 13 29 14 30 15 31 16 32 17 15 18 14 19 13 20 12 21
REMARK SMILES IDX 11 22 10 23 9 24 8 25 7 26 6 27 5 28 4 29 3 30 2 31 1 32
REMARK H PARENT
REMARK Flexibility Score: inf
ROOT
ATOM      1  C   UNL     1      19.763  34.590  25.980  1.00  0.00     0.000 C 
ENDROOT
BRANCH   1   2
ATOM      2  C   UNL     1      19.839  35.279  24.606  1.00  0.00     0.000 C 
BRANCH   2   3
ATOM      3  C   UNL     1      19.223  36.689  24.607  1.00  0.00     0.000 C 
BRANCH   3   4
ATOM      4  C   UNL     1      18.557  37.106  25.931  1.00  0.00     0.000 C 
BRANCH   4   5
ATOM      5  C   UNL     1      17.588  38.289  25.765  1.00  0.00     0.000 C 
BRANCH   5   6
ATOM      6  C   UNL     1      16.514  38.024  24.698  1.00  0.00     0.000 C 
BRANCH   6   7
ATOM      7  C   UNL     1      15.089  38.021  25.280  1.00  0.00     0.000 C 
BRANCH   7   8
ATOM      8  C   UNL     1      15.070  38.141  26.814  1.00  0.00     0.000 C 
BRANCH   8   9
ATOM      9  C   UNL     1      14.338  39.384  27.363  1.00  0.00     0.000 C 
BRANCH   9  10
ATOM     10  C   UNL     1      15.125  40.704  27.260  1.00  0.00     0.000 C 
BRANCH  10  11
ATOM     11  C   UNL     1      16.453  40.727  28.039  1.00  0.00     0.000 C 
BRANCH  11  12
ATOM     12  C   UNL     1      16.333  40.207  29.488  1.00  0.00     0.000 C 
BRANCH  12  13
ATOM     13  C   UNL     1      17.604  39.480  29.959  1.00  0.00     0.006 C 
BRANCH  13  14
ATOM     14  C   UNL     1      17.686  38.045  29.420  1.00  0.00     0.053 C 
BRANCH  14  15
ATOM     15  C   UNL     1      18.363  37.123  30.388  1.00  0.00     0.041 C 
ATOM     16  O   UNL     1      19.619  37.080  30.448  1.00  0.00    -0.550 OA
ATOM     17  O   UNL     1      17.605  36.289  31.200  1.00  0.00    -0.550 OA
ENDBRANCH  14  15
ENDBRANCH  13  14
ENDBRANCH  12  13
ENDBRANCH  11  12
ENDBRANCH  10  11
ENDBRANCH   9  10
ENDBRANCH   8   9
ENDBRANCH   7   8
ENDBRANCH   6   7
ENDBRANCH   5   6
ENDBRANCH   4   5
ENDBRANCH   3   4
ENDBRANCH   2   3
ENDBRANCH   1   2
BRANCH   1  18
ATOM     18  C   UNL     1      20.519  33.249  26.004  1.00  0.00     0.000 C 
BRANCH  18  19
ATOM     19  C   UNL     1      21.175  32.892  24.657  1.00  0.00     0.000 C 
BRANCH  19  20
ATOM     20  C   UNL     1      20.571  31.622  24.028  1.00  0.00     0.000 C 
BRANCH  20  21
ATOM     21  C   UNL     1      19.465  30.988  24.897  1.00  0.00     0.000 C 
BRANCH  21  22
ATOM     22  C   UNL     1      18.057  31.043  24.274  1.00  0.00     0.000 C 
BRANCH  22  23
ATOM     23  C   UNL     1      17.127  32.141  24.823  1.00  0.00     0.000 C 
BRANCH  23  24
ATOM     24  C   UNL     1      16.896  33.342  23.885  1.00  0.00    -0.000 C 
BRANCH  24  25
ATOM     25  C   UNL     1      16.032  34.446  24.516  1.00  0.00    -0.000 C 
BRANCH  25  26
ATOM     26  C   UNL     1      15.996  34.351  26.051  1.00  0.00    -0.000 C 
BRANCH  26  27
ATOM     27  C   UNL     1      14.565  34.378  26.615  1.00  0.00    -0.000 C 
BRANCH  27  28
ATOM     28  C   UNL     1      14.479  33.780  28.027  1.00  0.00    -0.000 C 
BRANCH  28  29
ATOM     29  C   UNL     1      13.778  32.411  28.052  1.00  0.00    -0.000 C 
BRANCH  29  30
ATOM     30  C   UNL     1      14.380  31.422  27.043  1.00  0.00    -0.000 C 
BRANCH  30  31
ATOM     31  C   UNL     1      13.326  30.834  26.092  1.00  0.00    -0.003 C 
ATOM     32  C   UNL     1      13.495  31.381  24.678  1.00  0.00     0.004 C 
ENDBRANCH  30  31
ENDBRANCH  29  30
ENDBRANCH  28  29
ENDBRANCH  27  28
ENDBRANCH  26  27
ENDBRANCH  25  26
ENDBRANCH  24  25
ENDBRANCH  23  24
ENDBRANCH  22  23
ENDBRANCH  21  22
ENDBRANCH  20  21
ENDBRANCH  19  20
ENDBRANCH  18  19
ENDBRANCH   1  18
TORSDOF 28
ENDMDL
MODEL 3
REMARK VINA RESULT:    -4.136      2.170      4.215
REMARK INTER + INTRA:         -16.431
REMARK INTER:                 -11.694
REMARK INTRA:                  -4.737
REMARK UNBOUND:                -5.526
REMARK SMILES CCCCCCCCCCCCCCCCCCCCCCCCCCCCCC(=O)[O-]
REMARK SMILES IDX 16 1 17 2 18 3 19 4 20 5 21 6 22 7 23 8 24 9 25 10 26 11
REMARK SMILES IDX 27 12 28 13 29 14 30 15 31 16 32 17 15 18 14 19 13 20 12 21
REMARK SMILES IDX 11 22 10 23 9 24 8 25 7 26 6 27 5 28 4 29 3 30 2 31 1 32
REMARK H PARENT
REMARK Flexibility Score: inf
ROOT
ATOM      1  C   UNL     1      20.071  36.901  31.977  1.00  0.00     0.000 C 
ENDROOT
BRANCH   1   2
ATOM      2  C   UNL     1      20.497  36.874  33.455  1.00  0.00     0.000 C 
BRANCH   2   3
ATOM      3  C   UNL     1      21.591  37.905  33.782  1.00  0.00     0.000 C 
BRANCH   3   4
ATOM      4  C   UNL     1      22.156  37.824  35.211  1.00  0.00     0.000 C 
BRANCH   4   5
ATOM      5  C   UNL     1      21.854  36.480  35.896  1.00  0.00     0.000 C 
BRANCH   5   6
ATOM      6  C   UNL     1      22.718  36.250  37.146  1.00  0.00     0.000 C 
BRANCH   6   7
ATOM      7  C   UNL     1      21.877  36.079  38.424  1.00  0.00     0.000 C 
BRANCH   7   8
ATOM      8  C   UNL     1      21.170  37.378  38.851  1.00  0.00     0.000 C 
BRANCH   8   9
ATOM      9  C   UNL     1      19.641  37.391  38.637  1.00  0.00     0.000 C 
BRANCH   9  10
ATOM     10  C   UNL     1      19.087  38.660  37.962  1.00  0.00     0.000 C 
BRANCH  10  11
ATOM     11  C   UNL     1      18.653  38.474  36.495  1.00  0.00     0.000 C 
BRANCH  11  12
ATOM     12  C   UNL     1      18.853  39.733  35.625  1.00  0.00     0.000 C 
BRANCH  12  13
ATOM     13  C   UNL     1      18.271  39.568  34.210  1.00  0.00     0.006 C 
BRANCH  13  14
ATOM     14  C   UNL     1      16.743  39.702  34.192  1.00  0.00     0.053 C 
BRANCH  14  15
ATOM     15  C   UNL     1      16.073  38.408  33.841  1.00  0.00     0.041 C 
ATOM     16  O   UNL     1      14.835  38.268  34.016  1.00  0.00    -0.550 OA
ATOM     17  O   UNL     1      16.825  37.347  33.351  1.00  0.00    -0.550 OA
ENDBRANCH  14  15
ENDBRANCH  13  14
ENDBRANCH  12  13
ENDBRANCH  11  12
ENDBRANCH  10  11
ENDBRANCH   9  10
ENDBRANCH   8   9
ENDBRANCH   7   8
ENDBRANCH   6   7
ENDBRANCH   5   6
ENDBRANCH   4   5
ENDBRANCH   3   4
ENDBRANCH   2   3
ENDBRANCH   1   2
BRANCH   1  18
ATOM     18  C   UNL     1      20.941  37.853  31.135  1.00  0.00     0.000 C 
BRANCH  18  19
ATOM     19  C   UNL     1      20.215  39.152  30.736  1.00  0.00     0.000 C 
BRANCH  19  20
ATOM     20  C   UNL     1      18.684  38.986  30.718  1.00  0.00     0.000 C 
BRANCH  20  21
ATOM     21  C   UNL     1      17.941  40.289  30.353  1.00  0.00     0.000 C 
BRANCH  21  22
ATOM     22  C   UNL     1      16.455  40.094  29.994  1.00  0.00     0.000 C 
BRANCH  22  23
ATOM     23  C   UNL     1      16.032  40.608  28.605  1.00  0.00     0.000 C 
BRANCH  23  24
ATOM     24  C   UNL     1      14.545  40.407  28.252  1.00  0.00    -0.000 C 
BRANCH  24  25
ATOM     25  C   UNL     1      14.299  39.201  27.331  1.00  0.00    -0.000 C 
BRANCH  25  26
ATOM     26  C   UNL     1      15.234  39.200  26.109  1.00  0.00    -0.000 C 
BRANCH  26  27
ATOM     27  C   UNL     1      15.978  37.865  25.931  1.00  0.00    -0.000 C 
BRANCH  27  28
ATOM     28  C   UNL     1      17.497  38.053  25.801  1.00  0.00    -0.000 C 
BRANCH  28  29
ATOM     29  C   UNL     1      18.220  38.017  27.158  1.00  0.00    -0.000 C 
BRANCH  29  30
ATOM     30  C   UNL     1      17.841  36.785  27.995  1.00  0.00    -0.000 C 
BRANCH  30  31
ATOM     31  C   UNL     1      19.058  35.919  28.353  1.00  0.00    -0.003 C 
ATOM     32  C   UNL     1      19.397  34.952  27.223  1.00  0.00     0.004 C 
ENDBRANCH  30  31
ENDBRANCH  29  30
ENDBRANCH  28  29
ENDBRANCH  27  28
ENDBRANCH  26  27
ENDBRANCH  25  26
ENDBRANCH  24  25
ENDBRANCH  23  24
ENDBRANCH  22  23
ENDBRANCH  21  22
ENDBRANCH  20  21
ENDBRANCH  19  20
ENDBRANCH  18  19
ENDBRANCH   1  18
TORSDOF 28
ENDMDL
MODEL 4
REMARK VINA RESULT:    -4.100      3.750      9.245
REMARK INTER + INTRA:         -16.338
REMARK INTER:                 -11.025
REMARK INTRA:                  -5.312
REMARK UNBOUND:                -5.526
REMARK SMILES CCCCCCCCCCCCCCCCCCCCCCCCCCCCCC(=O)[O-]
REMARK SMILES IDX 16 1 17 2 18 3 19 4 20 5 21 6 22 7 23 8 24 9 25 10 26 11
REMARK SMILES IDX 27 12 28 13 29 14 30 15 31 16 32 17 15 18 14 19 13 20 12 21
REMARK SMILES IDX 11 22 10 23 9 24 8 25 7 26 6 27 5 28 4 29 3 30 2 31 1 32
REMARK H PARENT
REMARK Flexibility Score: inf
ROOT
ATOM      1  C   UNL     1      14.583  40.437  28.137  1.00  0.00     0.000 C 
ENDROOT
BRANCH   1   2
ATOM      2  C   UNL     1      14.122  39.108  27.514  1.00  0.00     0.000 C 
BRANCH   2   3
ATOM      3  C   UNL     1      14.680  38.886  26.097  1.00  0.00     0.000 C 
BRANCH   3   4
ATOM      4  C   UNL     1      14.157  37.627  25.383  1.00  0.00     0.000 C 
BRANCH   4   5
ATOM      5  C   UNL     1      15.234  36.932  24.533  1.00  0.00     0.000 C 
BRANCH   5   6
ATOM      6  C   UNL     1      16.492  37.796  24.354  1.00  0.00     0.000 C 
BRANCH   6   7
ATOM      7  C   UNL     1      17.755  37.129  24.928  1.00  0.00     0.000 C 
BRANCH   7   8
ATOM      8  C   UNL     1      18.276  37.829  26.195  1.00  0.00     0.000 C 
BRANCH   8   9
ATOM      9  C   UNL     1      18.272  36.960  27.471  1.00  0.00     0.000 C 
BRANCH   9  10
ATOM     10  C   UNL     1      16.875  36.614  28.020  1.00  0.00     0.000 C 
BRANCH  10  11
ATOM     11  C   UNL     1      16.635  35.114  28.276  1.00  0.00     0.000 C 
BRANCH  11  12
ATOM     12  C   UNL     1      15.978  34.379  27.089  1.00  0.00     0.000 C 
BRANCH  12  13
ATOM     13  C   UNL     1      14.441  34.403  27.160  1.00  0.00     0.006 C 
BRANCH  13  14
ATOM     14  C   UNL     1      13.831  33.002  27.021  1.00  0.00     0.053 C 
BRANCH  14  15
ATOM     15  C   UNL     1      13.933  32.220  28.296  1.00  0.00     0.041 C 
ATOM     16  O   UNL     1      14.115  30.975  28.262  1.00  0.00    -0.550 OA
ATOM     17  O   UNL     1      13.794  32.864  29.519  1.00  0.00    -0.550 OA
ENDBRANCH  14  15
ENDBRANCH  13  14
ENDBRANCH  12  13
ENDBRANCH  11  12
ENDBRANCH  10  11
ENDBRANCH   9  10
ENDBRANCH   8   9
ENDBRANCH   7   8
ENDBRANCH   6   7
ENDBRANCH   5   6
ENDBRANCH   4   5
ENDBRANCH   3   4
ENDBRANCH   2   3
ENDBRANCH   1   2
BRANCH   1  18
ATOM     18  C   UNL     1      15.863  40.980  27.475  1.00  0.00     0.000 C 
BRANCH  18  19
ATOM     19  C   UNL     1      17.138  40.704  28.293  1.00  0.00     0.000 C 
BRANCH  19  20
ATOM     20  C   UNL     1      16.834  40.420  29.776  1.00  0.00     0.000 C 
BRANCH  20  21
ATOM     21  C   UNL     1      17.634  39.225  30.337  1.00  0.00     0.000 C 
BRANCH  21  22
ATOM     22  C   UNL     1      19.107  39.542  30.660  1.00  0.00     0.000 C 
BRANCH  22  23
ATOM     23  C   UNL     1      20.063  38.335  30.669  1.00  0.00     0.000 C 
BRANCH  23  24
ATOM     24  C   UNL     1      19.425  36.990  31.069  1.00  0.00    -0.000 C 
BRANCH  24  25
ATOM     25  C   UNL     1      19.649  36.630  32.547  1.00  0.00    -0.000 C 
BRANCH  25  26
ATOM     26  C   UNL     1      20.905  37.304  33.127  1.00  0.00    -0.000 C 
BRANCH  26  27
ATOM     27  C   UNL     1      20.583  38.260  34.289  1.00  0.00    -0.000 C 
BRANCH  27  28
ATOM     28  C   UNL     1      19.601  37.647  35.298  1.00  0.00    -0.000 C 
BRANCH  28  29
ATOM     29  C   UNL     1      18.437  38.591  35.645  1.00  0.00    -0.000 C 
BRANCH  29  30
ATOM     30  C   UNL     1      17.089  38.085  35.109  1.00  0.00    -0.000 C 
BRANCH  30  31
ATOM     31  C   UNL     1      16.756  38.653  33.721  1.00  0.00    -0.003 C 
ATOM     32  C   UNL     1      16.424  40.140  33.800  1.00  0.00     0.004 C 
ENDBRANCH  30  31
ENDBRANCH  29  30
ENDBRANCH  28  29
ENDBRANCH  27  28
ENDBRANCH  26  27
ENDBRANCH  25  26
ENDBRANCH  24  25
ENDBRANCH  23  24
ENDBRANCH  22  23
ENDBRANCH  21  22
ENDBRANCH  20  21
ENDBRANCH  19  20
ENDBRANCH  18  19
ENDBRANCH   1  18
TORSDOF 28
ENDMDL
MODEL 5
REMARK VINA RESULT:    -4.089      2.422      4.952
REMARK INTER + INTRA:         -16.309
REMARK INTER:                 -10.485
REMARK INTRA:                  -5.824
REMARK UNBOUND:                -5.526
REMARK SMILES CCCCCCCCCCCCCCCCCCCCCCCCCCCCCC(=O)[O-]
REMARK SMILES IDX 16 1 17 2 18 3 19 4 20 5 21 6 22 7 23 8 24 9 25 10 26 11
REMARK SMILES IDX 27 12 28 13 29 14 30 15 31 16 32 17 15 18 14 19 13 20 12 21
REMARK SMILES IDX 11 22 10 23 9 24 8 25 7 26 6 27 5 28 4 29 3 30 2 31 1 32
REMARK H PARENT
REMARK Flexibility Score: inf
ROOT
ATOM      1  C   UNL     1      18.922  35.781  26.097  1.00  0.00     0.000 C 
ENDROOT
BRANCH   1   2
ATOM      2  C   UNL     1      19.270  35.320  27.523  1.00  0.00     0.000 C 
BRANCH   2   3
ATOM      3  C   UNL     1      19.177  36.455  28.559  1.00  0.00     0.000 C 
BRANCH   3   4
ATOM      4  C   UNL     1      18.069  36.283  29.612  1.00  0.00     0.000 C 
BRANCH   4   5
ATOM      5  C   UNL     1      17.531  37.625  30.137  1.00  0.00     0.000 C 
BRANCH   5   6
ATOM      6  C   UNL     1      17.794  38.785  29.164  1.00  0.00     0.000 C 
BRANCH   6   7
ATOM      7  C   UNL     1      18.012  40.126  29.887  1.00  0.00     0.000 C 
BRANCH   7   8
ATOM      8  C   UNL     1      18.795  39.974  31.203  1.00  0.00     0.000 C 
BRANCH   8   9
ATOM      9  C   UNL     1      20.332  39.989  31.055  1.00  0.00     0.000 C 
BRANCH   9  10
ATOM     10  C   UNL     1      21.000  38.601  31.044  1.00  0.00     0.000 C 
BRANCH  10  11
ATOM     11  C   UNL     1      21.107  37.925  32.424  1.00  0.00     0.000 C 
BRANCH  11  12
ATOM     12  C   UNL     1      20.206  36.681  32.577  1.00  0.00     0.000 C 
BRANCH  12  13
ATOM     13  C   UNL     1      19.408  36.691  33.892  1.00  0.00     0.006 C 
BRANCH  13  14
ATOM     14  C   UNL     1      18.077  37.443  33.758  1.00  0.00     0.053 C 
BRANCH  14  15
ATOM     15  C   UNL     1      17.871  38.417  34.879  1.00  0.00     0.041 C 
ATOM     16  O   UNL     1      17.163  39.443  34.704  1.00  0.00    -0.550 OA
ATOM     17  O   UNL     1      18.488  38.206  36.105  1.00  0.00    -0.550 OA
ENDBRANCH  14  15
ENDBRANCH  13  14
ENDBRANCH  12  13
ENDBRANCH  11  12
ENDBRANCH  10  11
ENDBRANCH   9  10
ENDBRANCH   8   9
ENDBRANCH   7   8
ENDBRANCH   6   7
ENDBRANCH   5   6
ENDBRANCH   4   5
ENDBRANCH   3   4
ENDBRANCH   2   3
ENDBRANCH   1   2
BRANCH   1  18
ATOM     18  C   UNL     1      18.625  37.291  26.027  1.00  0.00     0.000 C 
BRANCH  18  19
ATOM     19  C   UNL     1      18.291  37.783  24.606  1.00  0.00     0.000 C 
BRANCH  19  20
ATOM     20  C   UNL     1      17.491  39.099  24.614  1.00  0.00     0.000 C 
BRANCH  20  21
ATOM     21  C   UNL     1      18.230  40.249  25.332  1.00  0.00     0.000 C 
BRANCH  21  22
ATOM     22  C   UNL     1      17.335  41.102  26.253  1.00  0.00     0.000 C 
BRANCH  22  23
ATOM     23  C   UNL     1      15.824  40.821  26.161  1.00  0.00     0.000 C 
BRANCH  23  24
ATOM     24  C   UNL     1      15.117  40.566  27.507  1.00  0.00    -0.000 C 
BRANCH  24  25
ATOM     25  C   UNL     1      14.468  39.174  27.594  1.00  0.00    -0.000 C 
BRANCH  25  26
ATOM     26  C   UNL     1      14.137  38.597  26.207  1.00  0.00    -0.000 C 
BRANCH  26  27
ATOM     27  C   UNL     1      14.776  37.218  25.969  1.00  0.00    -0.000 C 
BRANCH  27  28
ATOM     28  C   UNL     1      15.335  36.600  27.260  1.00  0.00    -0.000 C 
BRANCH  28  29
ATOM     29  C   UNL     1      15.458  35.069  27.181  1.00  0.00    -0.000 C 
BRANCH  29  30
ATOM     30  C   UNL     1      15.180  34.385  28.528  1.00  0.00    -0.000 C 
BRANCH  30  31
ATOM     31  C   UNL     1      14.335  33.111  28.379  1.00  0.00    -0.003 C 
ATOM     32  C   UNL     1      14.016  32.499  29.739  1.00  0.00     0.004 C 
ENDBRANCH  30  31
ENDBRANCH  29  30
ENDBRANCH  28  29
ENDBRANCH  27  28
ENDBRANCH  26  27
ENDBRANCH  25  26
ENDBRANCH  24  25
ENDBRANCH  23  24
ENDBRANCH  22  23
ENDBRANCH  21  22
ENDBRANCH  20  21
ENDBRANCH  19  20
ENDBRANCH  18  19
ENDBRANCH   1  18
TORSDOF 28
ENDMDL
MODEL 6
REMARK VINA RESULT:    -3.999      3.259      6.537
REMARK INTER + INTRA:         -16.071
REMARK INTER:                 -10.862
REMARK INTRA:                  -5.209
REMARK UNBOUND:                -5.526
REMARK SMILES CCCCCCCCCCCCCCCCCCCCCCCCCCCCCC(=O)[O-]
REMARK SMILES IDX 16 1 17 2 18 3 19 4 20 5 21 6 22 7 23 8 24 9 25 10 26 11
REMARK SMILES IDX 27 12 28 13 29 14 30 15 31 16 32 17 15 18 14 19 13 20 12 21
REMARK SMILES IDX 11 22 10 23 9 24 8 25 7 26 6 27 5 28 4 29 3 30 2 31 1 32
REMARK H PARENT
REMARK Flexibility Score: inf
ROOT
ATOM      1  C   UNL     1      15.316  38.108  26.496  1.00  0.00     0.000 C 
ENDROOT
BRANCH   1   2
ATOM      2  C   UNL     1      14.107  38.981  26.874  1.00  0.00     0.000 C 
BRANCH   2   3
ATOM      3  C   UNL     1      14.511  40.305  27.546  1.00  0.00     0.000 C 
BRANCH   3   4
ATOM      4  C   UNL     1      15.768  40.974  26.963  1.00  0.00     0.000 C 
BRANCH   4   5
ATOM      5  C   UNL     1      16.979  40.896  27.907  1.00  0.00     0.000 C 
BRANCH   5   6
ATOM      6  C   UNL     1      16.595  40.428  29.319  1.00  0.00     0.000 C 
BRANCH   6   7
ATOM      7  C   UNL     1      17.206  39.060  29.676  1.00  0.00     0.000 C 
BRANCH   7   8
ATOM      8  C   UNL     1      18.221  38.568  28.629  1.00  0.00     0.000 C 
BRANCH   8   9
ATOM      9  C   UNL     1      18.537  37.058  28.684  1.00  0.00     0.000 C 
BRANCH   9  10
ATOM     10  C   UNL     1      19.634  36.657  29.688  1.00  0.00     0.000 C 
BRANCH  10  11
ATOM     11  C   UNL     1      20.205  37.820  30.520  1.00  0.00     0.000 C 
BRANCH  11  12
ATOM     12  C   UNL     1      20.875  37.372  31.837  1.00  0.00     0.000 C 
BRANCH  12  13
ATOM     13  C   UNL     1      19.915  36.589  32.748  1.00  0.00     0.006 C 
BRANCH  13  14
ATOM     14  C   UNL     1      18.802  37.478  33.320  1.00  0.00     0.053 C 
BRANCH  14  15
ATOM     15  C   UNL     1      17.440  36.926  33.026  1.00  0.00     0.041 C 
ATOM     16  O   UNL     1      16.423  37.425  33.573  1.00  0.00    -0.550 OA
ATOM     17  O   UNL     1      17.300  35.838  32.172  1.00  0.00    -0.550 OA
ENDBRANCH  14  15
ENDBRANCH  13  14
ENDBRANCH  12  13
ENDBRANCH  11  12
ENDBRANCH  10  11
ENDBRANCH   9  10
ENDBRANCH   8   9
ENDBRANCH   7   8
ENDBRANCH   6   7
ENDBRANCH   5   6
ENDBRANCH   4   5
ENDBRANCH   3   4
ENDBRANCH   2   3
ENDBRANCH   1   2
BRANCH   1  18
ATOM     18  C   UNL     1      15.147  37.439  25.119  1.00  0.00     0.000 C 
BRANCH  18  19
ATOM     19  C   UNL     1      16.360  37.634  24.191  1.00  0.00     0.000 C 
BRANCH  19  20
ATOM     20  C   UNL     1      17.369  38.654  24.751  1.00  0.00     0.000 C 
BRANCH  20  21
ATOM     21  C   UNL     1      18.767  38.047  24.993  1.00  0.00     0.000 C 
BRANCH  21  22
ATOM     22  C   UNL     1      18.948  36.623  24.432  1.00  0.00     0.000 C 
BRANCH  22  23
ATOM     23  C   UNL     1      19.637  35.617  25.374  1.00  0.00     0.000 C 
BRANCH  23  24
ATOM     24  C   UNL     1      18.741  34.473  25.887  1.00  0.00    -0.000 C 
BRANCH  24  25
ATOM     25  C   UNL     1      17.575  34.146  24.939  1.00  0.00    -0.000 C 
BRANCH  25  26
ATOM     26  C   UNL     1      16.243  33.980  25.689  1.00  0.00    -0.000 C 
BRANCH  26  27
ATOM     27  C   UNL     1      16.307  34.500  27.136  1.00  0.00    -0.000 C 
BRANCH  27  28
ATOM     28  C   UNL     1      14.913  34.714  27.745  1.00  0.00    -0.000 C 
BRANCH  28  29
ATOM     29  C   UNL     1      13.875  33.705  27.224  1.00  0.00    -0.000 C 
BRANCH  29  30
ATOM     30  C   UNL     1      13.669  32.522  28.182  1.00  0.00    -0.000 C 
BRANCH  30  31
ATOM     31  C   UNL     1      14.033  31.175  27.541  1.00  0.00    -0.003 C 
ATOM     32  C   UNL     1      14.592  30.205  28.577  1.00  0.00     0.004 C 
ENDBRANCH  30  31
ENDBRANCH  29  30
ENDBRANCH  28  29
ENDBRANCH  27  28
ENDBRANCH  26  27
ENDBRANCH  25  26
ENDBRANCH  24  25
ENDBRANCH  23  24
ENDBRANCH  22  23
ENDBRANCH  21  22
ENDBRANCH  20  21
ENDBRANCH  19  20
ENDBRANCH  18  19
ENDBRANCH   1  18
TORSDOF 28
ENDMDL
MODEL 7
REMARK VINA RESULT:    -3.981      3.645      8.790
REMARK INTER + INTRA:         -16.025
REMARK INTER:                 -11.302
REMARK INTRA:                  -4.723
REMARK UNBOUND:                -5.526
REMARK SMILES CCCCCCCCCCCCCCCCCCCCCCCCCCCCCC(=O)[O-]
REMARK SMILES IDX 16 1 17 2 18 3 19 4 20 5 21 6 22 7 23 8 24 9 25 10 26 11
REMARK SMILES IDX 27 12 28 13 29 14 30 15 31 16 32 17 15 18 14 19 13 20 12 21
REMARK SMILES IDX 11 22 10 23 9 24 8 25 7 26 6 27 5 28 4 29 3 30 2 31 1 32
REMARK H PARENT
REMARK Flexibility Score: inf
ROOT
ATOM      1  C   UNL     1      15.031  38.348  27.064  1.00  0.00     0.000 C 
ENDROOT
BRANCH   1   2
ATOM      2  C   UNL     1      14.996  37.901  25.592  1.00  0.00     0.000 C 
BRANCH   2   3
ATOM      3  C   UNL     1      16.387  37.535  25.044  1.00  0.00     0.000 C 
BRANCH   3   4
ATOM      4  C   UNL     1      17.571  38.140  25.819  1.00  0.00     0.000 C 
BRANCH   4   5
ATOM      5  C   UNL     1      18.403  37.081  26.561  1.00  0.00     0.000 C 
BRANCH   5   6
ATOM      6  C   UNL     1      17.761  35.686  26.510  1.00  0.00     0.000 C 
BRANCH   6   7
ATOM      7  C   UNL     1      17.338  35.177  27.900  1.00  0.00     0.000 C 
BRANCH   7   8
ATOM      8  C   UNL     1      15.829  34.892  27.997  1.00  0.00     0.000 C 
BRANCH   8   9
ATOM      9  C   UNL     1      15.234  34.106  26.809  1.00  0.00     0.000 C 
BRANCH   9  10
ATOM     10  C   UNL     1      13.796  33.594  27.019  1.00  0.00     0.000 C 
BRANCH  10  11
ATOM     11  C   UNL     1      13.555  32.881  28.363  1.00  0.00     0.000 C 
BRANCH  11  12
ATOM     12  C   UNL     1      14.211  31.486  28.452  1.00  0.00     0.000 C 
BRANCH  12  13
ATOM     13  C   UNL     1      14.568  31.096  29.897  1.00  0.00     0.006 C 
BRANCH  13  14
ATOM     14  C   UNL     1      14.473  32.287  30.861  1.00  0.00     0.053 C 
BRANCH  14  15
ATOM     15  C   UNL     1      13.758  31.925  32.127  1.00  0.00     0.041 C 
ATOM     16  O   UNL     1      13.003  30.919  32.162  1.00  0.00    -0.550 OA
ATOM     17  O   UNL     1      13.902  32.720  33.258  1.00  0.00    -0.550 OA
ENDBRANCH  14  15
ENDBRANCH  13  14
ENDBRANCH  12  13
ENDBRANCH  11  12
ENDBRANCH  10  11
ENDBRANCH   9  10
ENDBRANCH   8   9
ENDBRANCH   7   8
ENDBRANCH   6   7
ENDBRANCH   5   6
ENDBRANCH   4   5
ENDBRANCH   3   4
ENDBRANCH   2   3
ENDBRANCH   1   2
BRANCH   1  18
ATOM     18  C   UNL     1      14.088  39.534  27.337  1.00  0.00     0.000 C 
BRANCH  18  19
ATOM     19  C   UNL     1      14.772  40.703  28.070  1.00  0.00     0.000 C 
BRANCH  19  20
ATOM     20  C   UNL     1      16.199  40.964  27.553  1.00  0.00     0.000 C 
BRANCH  20  21
ATOM     21  C   UNL     1      17.275  40.812  28.650  1.00  0.00     0.000 C 
BRANCH  21  22
ATOM     22  C   UNL     1      16.866  39.892  29.817  1.00  0.00     0.000 C 
BRANCH  22  23
ATOM     23  C   UNL     1      17.532  38.504  29.838  1.00  0.00     0.000 C 
BRANCH  23  24
ATOM     24  C   UNL     1      19.066  38.510  29.988  1.00  0.00    -0.000 C 
BRANCH  24  25
ATOM     25  C   UNL     1      19.671  37.098  30.068  1.00  0.00    -0.000 C 
BRANCH  25  26
ATOM     26  C   UNL     1      20.034  36.700  31.509  1.00  0.00    -0.000 C 
BRANCH  26  27
ATOM     27  C   UNL     1      20.963  37.719  32.191  1.00  0.00    -0.000 C 
BRANCH  27  28
ATOM     28  C   UNL     1      20.510  38.063  33.618  1.00  0.00    -0.000 C 
BRANCH  28  29
ATOM     29  C   UNL     1      19.459  37.081  34.161  1.00  0.00    -0.000 C 
BRANCH  29  30
ATOM     30  C   UNL     1      18.153  37.781  34.569  1.00  0.00    -0.000 C 
BRANCH  30  31
ATOM     31  C   UNL     1      17.094  37.746  33.457  1.00  0.00    -0.003 C 
ATOM     32  C   UNL     1      15.815  38.454  33.893  1.00  0.00     0.004 C 
ENDBRANCH  30  31
ENDBRANCH  29  30
ENDBRANCH  28  29
ENDBRANCH  27  28
ENDBRANCH  26  27
ENDBRANCH  25  26
ENDBRANCH  24  25
ENDBRANCH  23  24
ENDBRANCH  22  23
ENDBRANCH  21  22
ENDBRANCH  20  21
ENDBRANCH  19  20
ENDBRANCH  18  19
ENDBRANCH   1  18
TORSDOF 28
ENDMDL
MODEL 8
REMARK VINA RESULT:    -3.973      3.715      9.357
REMARK INTER + INTRA:         -16.003
REMARK INTER:                 -11.207
REMARK INTRA:                  -4.796
REMARK UNBOUND:                -5.526
REMARK SMILES CCCCCCCCCCCCCCCCCCCCCCCCCCCCCC(=O)[O-]
REMARK SMILES IDX 16 1 17 2 18 3 19 4 20 5 21 6 22 7 23 8 24 9 25 10 26 11
REMARK SMILES IDX 27 12 28 13 29 14 30 15 31 16 32 17 15 18 14 19 13 20 12 21
REMARK SMILES IDX 11 22 10 23 9 24 8 25 7 26 6 27 5 28 4 29 3 30 2 31 1 32
REMARK H PARENT
REMARK Flexibility Score: inf
ROOT
ATOM      1  C   UNL     1      19.906  37.259  31.643  1.00  0.00     0.000 C 
ENDROOT
BRANCH   1   2
ATOM      2  C   UNL     1      20.207  38.667  31.101  1.00  0.00     0.000 C 
BRANCH   2   3
ATOM      3  C   UNL     1      19.022  39.636  31.260  1.00  0.00     0.000 C 
BRANCH   3   4
ATOM      4  C   UNL     1      17.741  39.224  30.514  1.00  0.00     0.000 C 
BRANCH   4   5
ATOM      5  C   UNL     1      17.199  40.334  29.599  1.00  0.00     0.000 C 
BRANCH   5   6
ATOM      6  C   UNL     1      15.664  40.389  29.585  1.00  0.00     0.000 C 
BRANCH   6   7
ATOM      7  C   UNL     1      15.096  40.727  28.195  1.00  0.00     0.000 C 
BRANCH   7   8
ATOM      8  C   UNL     1      14.119  39.658  27.674  1.00  0.00     0.000 C 
BRANCH   8   9
ATOM      9  C   UNL     1      14.667  38.770  26.536  1.00  0.00     0.000 C 
BRANCH   9  10
ATOM     10  C   UNL     1      16.094  39.115  26.069  1.00  0.00     0.000 C 
BRANCH  10  11
ATOM     11  C   UNL     1      17.162  38.064  26.426  1.00  0.00     0.000 C 
BRANCH  11  12
ATOM     12  C   UNL     1      16.763  37.147  27.602  1.00  0.00     0.000 C 
BRANCH  12  13
ATOM     13  C   UNL     1      17.959  36.367  28.172  1.00  0.00     0.006 C 
BRANCH  13  14
ATOM     14  C   UNL     1      19.020  36.068  27.104  1.00  0.00     0.053 C 
BRANCH  14  15
ATOM     15  C   UNL     1      19.023  34.622  26.710  1.00  0.00     0.041 C 
ATOM     16  O   UNL     1      20.108  33.991  26.627  1.00  0.00    -0.550 OA
ATOM     17  O   UNL     1      17.828  33.983  26.404  1.00  0.00    -0.550 OA
ENDBRANCH  14  15
ENDBRANCH  13  14
ENDBRANCH  12  13
ENDBRANCH  11  12
ENDBRANCH  10  11
ENDBRANCH   9  10
ENDBRANCH   8   9
ENDBRANCH   7   8
ENDBRANCH   6   7
ENDBRANCH   5   6
ENDBRANCH   4   5
ENDBRANCH   3   4
ENDBRANCH   2   3
ENDBRANCH   1   2
BRANCH   1  18
ATOM     18  C   UNL     1      20.592  36.995  32.997  1.00  0.00     0.000 C 
BRANCH  18  19
ATOM     19  C   UNL     1      21.594  38.093  33.399  1.00  0.00     0.000 C 
BRANCH  19  20
ATOM     20  C   UNL     1      22.040  37.971  34.867  1.00  0.00     0.000 C 
BRANCH  20  21
ATOM     21  C   UNL     1      21.609  36.641  35.520  1.00  0.00     0.000 C 
BRANCH  21  22
ATOM     22  C   UNL     1      22.447  36.233  36.747  1.00  0.00     0.000 C 
BRANCH  22  23
ATOM     23  C   UNL     1      21.647  35.898  38.020  1.00  0.00     0.000 C 
BRANCH  23  24
ATOM     24  C   UNL     1      20.537  36.903  38.385  1.00  0.00    -0.000 C 
BRANCH  24  25
ATOM     25  C   UNL     1      21.083  38.263  38.851  1.00  0.00    -0.000 C 
BRANCH  25  26
ATOM     26  C   UNL     1      20.294  39.442  38.255  1.00  0.00    -0.000 C 
BRANCH  26  27
ATOM     27  C   UNL     1      19.276  38.999  37.190  1.00  0.00    -0.000 C 
BRANCH  27  28
ATOM     28  C   UNL     1      19.130  40.024  36.055  1.00  0.00    -0.000 C 
BRANCH  28  29
ATOM     29  C   UNL     1      18.417  39.447  34.821  1.00  0.00    -0.000 C 
BRANCH  29  30
ATOM     30  C   UNL     1      17.486  38.277  35.171  1.00  0.00    -0.000 C 
BRANCH  30  31
ATOM     31  C   UNL     1      16.399  38.050  34.110  1.00  0.00    -0.003 C 
ATOM     32  C   UNL     1      16.729  36.847  33.232  1.00  0.00     0.004 C 
ENDBRANCH  30  31
ENDBRANCH  29  30
ENDBRANCH  28  29
ENDBRANCH  27  28
ENDBRANCH  26  27
ENDBRANCH  25  26
ENDBRANCH  24  25
ENDBRANCH  23  24
ENDBRANCH  22  23
ENDBRANCH  21  22
ENDBRANCH  20  21
ENDBRANCH  19  20
ENDBRANCH  18  19
ENDBRANCH   1  18
TORSDOF 28
ENDMDL
MODEL 9
REMARK VINA RESULT:    -3.957      3.530      7.838
REMARK INTER + INTRA:         -15.959
REMARK INTER:                 -11.028
REMARK INTRA:                  -4.931
REMARK UNBOUND:                -5.526
REMARK SMILES CCCCCCCCCCCCCCCCCCCCCCCCCCCCCC(=O)[O-]
REMARK SMILES IDX 16 1 17 2 18 3 19 4 20 5 21 6 22 7 23 8 24 9 25 10 26 11
REMARK SMILES IDX 27 12 28 13 29 14 30 15 31 16 32 17 15 18 14 19 13 20 12 21
REMARK SMILES IDX 11 22 10 23 9 24 8 25 7 26 6 27 5 28 4 29 3 30 2 31 1 32
REMARK H PARENT
REMARK Flexibility Score: inf
ROOT
ATOM      1  C   UNL     1      16.060  35.543  27.773  1.00  0.00     0.000 C 
ENDROOT
BRANCH   1   2
ATOM      2  C   UNL     1      15.963  35.518  26.238  1.00  0.00     0.000 C 
BRANCH   2   3
ATOM      3  C   UNL     1      14.556  35.866  25.721  1.00  0.00     0.000 C 
BRANCH   3   4
ATOM      4  C   UNL     1      14.424  37.261  25.084  1.00  0.00     0.000 C 
BRANCH   4   5
ATOM      5  C   UNL     1      15.760  38.023  25.034  1.00  0.00     0.000 C 
BRANCH   5   6
ATOM      6  C   UNL     1      15.723  39.329  25.842  1.00  0.00     0.000 C 
BRANCH   6   7
ATOM      7  C   UNL     1      14.682  39.295  26.976  1.00  0.00     0.000 C 
BRANCH   7   8
ATOM      8  C   UNL     1      14.737  40.543  27.874  1.00  0.00     0.000 C 
BRANCH   8   9
ATOM      9  C   UNL     1      15.621  40.405  29.132  1.00  0.00     0.000 C 
BRANCH   9  10
ATOM     10  C   UNL     1      17.136  40.532  28.883  1.00  0.00     0.000 C 
BRANCH  10  11
ATOM     11  C   UNL     1      18.023  39.806  29.912  1.00  0.00     0.000 C 
BRANCH  11  12
ATOM     12  C   UNL     1      17.239  39.232  31.112  1.00  0.00     0.000 C 
BRANCH  12  13
ATOM     13  C   UNL     1      17.814  37.893  31.603  1.00  0.00     0.006 C 
BRANCH  13  14
ATOM     14  C   UNL     1      18.485  38.018  32.978  1.00  0.00     0.053 C 
BRANCH  14  15
ATOM     15  C   UNL     1      19.629  37.063  33.130  1.00  0.00     0.041 C 
ATOM     16  O   UNL     1      19.990  36.683  34.275  1.00  0.00    -0.550 OA
ATOM     17  O   UNL     1      20.317  36.618  32.008  1.00  0.00    -0.550 OA
ENDBRANCH  14  15
ENDBRANCH  13  14
ENDBRANCH  12  13
ENDBRANCH  11  12
ENDBRANCH  10  11
ENDBRANCH   9  10
ENDBRANCH   8   9
ENDBRANCH   7   8
ENDBRANCH   6   7
ENDBRANCH   5   6
ENDBRANCH   4   5
ENDBRANCH   3   4
ENDBRANCH   2   3
ENDBRANCH   1   2
BRANCH   1  18
ATOM     18  C   UNL     1      17.038  36.619  28.279  1.00  0.00     0.000 C 
BRANCH  18  19
ATOM     19  C   UNL     1      18.361  36.662  27.492  1.00  0.00     0.000 C 
BRANCH  19  20
ATOM     20  C   UNL     1      19.315  35.519  27.886  1.00  0.00     0.000 C 
BRANCH  20  21
ATOM     21  C   UNL     1      19.591  34.538  26.727  1.00  0.00     0.000 C 
BRANCH  21  22
ATOM     22  C   UNL     1      19.797  35.213  25.357  1.00  0.00     0.000 C 
BRANCH  22  23
ATOM     23  C   UNL     1      19.984  34.258  24.164  1.00  0.00     0.000 C 
BRANCH  23  24
ATOM     24  C   UNL     1      21.219  33.339  24.241  1.00  0.00    -0.000 C 
BRANCH  24  25
ATOM     25  C   UNL     1      20.863  31.871  24.532  1.00  0.00    -0.000 C 
BRANCH  25  26
ATOM     26  C   UNL     1      19.387  31.559  24.232  1.00  0.00    -0.000 C 
BRANCH  26  27
ATOM     27  C   UNL     1      18.612  31.095  25.477  1.00  0.00    -0.000 C 
BRANCH  27  28
ATOM     28  C   UNL     1      17.293  31.858  25.666  1.00  0.00    -0.000 C 
BRANCH  28  29
ATOM     29  C   UNL     1      16.720  32.393  24.342  1.00  0.00    -0.000 C 
BRANCH  29  30
ATOM     30  C   UNL     1      15.184  32.412  24.329  1.00  0.00    -0.000 C 
BRANCH  30  31
ATOM     31  C   UNL     1      14.574  31.538  25.435  1.00  0.00    -0.003 C 
ATOM     32  C   UNL     1      13.627  32.346  26.317  1.00  0.00     0.004 C 
ENDBRANCH  30  31
ENDBRANCH  29  30
ENDBRANCH  28  29
ENDBRANCH  27  28
ENDBRANCH  26  27
ENDBRANCH  25  26
ENDBRANCH  24  25
ENDBRANCH  23  24
ENDBRANCH  22  23
ENDBRANCH  21  22
ENDBRANCH  20  21
ENDBRANCH  19  20
ENDBRANCH  18  19
ENDBRANCH   1  18
TORSDOF 28
ENDMDL
