MODEL 1
REMARK VINA RESULT:    -5.042      0.000      0.000
REMARK INTER + INTRA:          -8.244
REMARK INTER:                  -7.695
REMARK INTRA:                  -0.549
REMARK UNBOUND:                -0.549
REMARK SMILES CCCCCCCCCCC(=O)[O-]
REMARK SMILES IDX 7 1 8 2 9 3 10 4 11 5 12 6 13 7 6 8 5 9 4 10 3 11 2 12 1 13
REMARK H PARENT
REMARK Flexibility Score: inf
ROOT
ATOM      1  C   UNL     1     -13.068  11.571   8.129  1.00  0.00     0.000 C 
ENDROOT
BRANCH   1   2
ATOM      2  C   UNL     1     -12.365  12.819   8.699  1.00  0.00     0.000 C 
BRANCH   2   3
ATOM      3  C   UNL     1     -10.877  12.628   9.057  1.00  0.00     0.006 C 
BRANCH   3   4
ATOM      4  C   UNL     1     -10.208  13.867   9.671  1.00  0.00     0.053 C 
BRANCH   4   5
ATOM      5  C   UNL     1      -9.020  14.315   8.875  1.00  0.00     0.041 C 
ATOM      6  O   UNL     1      -9.007  14.172   7.624  1.00  0.00    -0.550 OA
ATOM      7  O   UNL     1      -7.914  14.856   9.519  1.00  0.00    -0.550 OA
ENDBRANCH   4   5
ENDBRANCH   3   4
ENDBRANCH   2   3
ENDBRANCH   1   2
BRANCH   1   8
ATOM      8  C   UNL     1     -12.130  10.503   7.536  1.00  0.00     0.000 C 
BRANCH   8   9
ATOM      9  C   UNL     1     -12.098  10.527   5.997  1.00  0.00    -0.000 C 
BRANCH   9  10
ATOM     10  C   UNL     1     -11.051  11.508   5.445  1.00  0.00    -0.000 C 
BRANCH  10  11
ATOM     11  C   UNL     1     -10.828  11.341   3.932  1.00  0.00    -0.000 C 
BRANCH  11  12
ATOM     12  C   UNL     1     -10.212  12.593   3.287  1.00  0.00    -0.003 C 
ATOM     13  C   UNL     1      -9.162  13.262   4.173  1.00  0.00     0.004 C 
ENDBRANCH  11  12
ENDBRANCH  10  11
ENDBRANCH   9  10
ENDBRANCH   8   9
ENDBRANCH   1   8
TORSDOF 9
ENDMDL
MODEL 2
REMARK VINA RESULT:    -4.972      2.002      4.817
REMARK INTER + INTRA:          -8.137
REMARK INTER:                  -7.592
REMARK INTRA:                  -0.545
REMARK UNBOUND:                -0.549
REMARK SMILES CCCCCCCCCCC(=O)[O-]
REMARK SMILES IDX 7 1 8 2 9 3 10 4 11 5 12 6 13 7 6 8 5 9 4 10 3 11 2 12 1 13
REMARK H PARENT
REMARK Flexibility Score: inf
ROOT
ATOM      1  C   UNL     1     -11.982  10.625   5.624  1.00  0.00     0.000 C 
ENDROOT
BRANCH   1   2
ATOM      2  C   UNL     1     -10.970  11.630   5.038  1.00  0.00     0.000 C 
BRANCH   2   3
ATOM      3  C   UNL     1     -10.703  11.485   3.527  1.00  0.00     0.006 C 
BRANCH   3   4
ATOM      4  C   UNL     1      -9.233  11.671   3.121  1.00  0.00     0.053 C 
BRANCH   4   5
ATOM      5  C   UNL     1      -8.768  13.080   3.329  1.00  0.00     0.041 C 
ATOM      6  O   UNL     1      -9.429  14.041   2.855  1.00  0.00    -0.550 OA
ATOM      7  O   UNL     1      -7.586  13.329   4.017  1.00  0.00    -0.550 OA
ENDBRANCH   4   5
ENDBRANCH   3   4
ENDBRANCH   2   3
ENDBRANCH   1   2
BRANCH   1   8
ATOM      8  C   UNL     1     -12.021  10.554   7.161  1.00  0.00     0.000 C 
BRANCH   8   9
ATOM      9  C   UNL     1     -13.068  11.501   7.775  1.00  0.00    -0.000 C 
BRANCH   9  10
ATOM     10  C   UNL     1     -12.434  12.582   8.667  1.00  0.00    -0.000 C 
BRANCH  10  11
ATOM     11  C   UNL     1     -10.908  12.430   8.782  1.00  0.00    -0.000 C 
BRANCH  11  12
ATOM     12  C   UNL     1     -10.271  13.533   9.642  1.00  0.00    -0.003 C 
ATOM     13  C   UNL     1      -9.280  14.397   8.863  1.00  0.00     0.004 C 
ENDBRANCH  11  12
ENDBRANCH  10  11
ENDBRANCH   9  10
ENDBRANCH   8   9
ENDBRANCH   1   8
TORSDOF 9
ENDMDL
MODEL 3
REMARK VINA RESULT:    -4.950      2.031      4.872
REMARK INTER + INTRA:          -8.104
REMARK INTER:                  -7.610
REMARK INTRA:                  -0.495
REMARK UNBOUND:                -0.549
REMARK SMILES CCCCCCCCCCC(=O)[O-]
REMARK SMILES IDX 7 1 8 2 9 3 10 4 11 5 12 6 13 7 6 8 5 9 4 10 3 11 2 12 1 13
REMARK H PARENT
REMARK Flexibility Score: inf
ROOT
ATOM      1  C   UNL     1     -12.093  10.360   7.273  1.00  0.00     0.000 C 
ENDROOT
BRANCH   1   2
ATOM      2  C   UNL     1     -12.140  10.610   5.751  1.00  0.00     0.000 C 
BRANCH   2   3
ATOM      3  C   UNL     1     -11.020  11.515   5.201  1.00  0.00     0.006 C 
BRANCH   3   4
ATOM      4  C   UNL     1     -10.773  11.374   3.691  1.00  0.00     0.053 C 
BRANCH   4   5
ATOM      5  C   UNL     1      -9.876  12.452   3.166  1.00  0.00     0.041 C 
ATOM      6  O   UNL     1      -9.295  12.308   2.058  1.00  0.00    -0.550 OA
ATOM      7  O   UNL     1      -9.655  13.600   3.916  1.00  0.00    -0.550 OA
ENDBRANCH   4   5
ENDBRANCH   3   4
ENDBRANCH   2   3
ENDBRANCH   1   2
BRANCH   1   8
ATOM      8  C   UNL     1     -13.073  11.206   8.106  1.00  0.00     0.000 C 
BRANCH   8   9
ATOM      9  C   UNL     1     -12.464  12.542   8.567  1.00  0.00    -0.000 C 
BRANCH   9  10
ATOM     10  C   UNL     1     -10.996  12.402   9.005  1.00  0.00    -0.000 C 
BRANCH  10  11
ATOM     11  C   UNL     1     -10.415  13.718   9.549  1.00  0.00    -0.000 C 
BRANCH  11  12
ATOM     12  C   UNL     1      -9.306  14.287   8.650  1.00  0.00    -0.003 C 
ATOM     13  C   UNL     1      -7.991  14.507   9.396  1.00  0.00     0.004 C 
ENDBRANCH  11  12
ENDBRANCH  10  11
ENDBRANCH   9  10
ENDBRANCH   8   9
ENDBRANCH   1   8
TORSDOF 9
ENDMDL
MODEL 4
REMARK VINA RESULT:    -4.909      4.212      5.341
REMARK INTER + INTRA:          -8.041
REMARK INTER:                  -7.566
REMARK INTRA:                  -0.475
REMARK UNBOUND:                -0.549
REMARK SMILES CCCCCCCCCCC(=O)[O-]
REMARK SMILES IDX 7 1 8 2 9 3 10 4 11 5 12 6 13 7 6 8 5 9 4 10 3 11 2 12 1 13
REMARK H PARENT
REMARK Flexibility Score: inf
ROOT
ATOM      1  C   UNL     1     -12.661  11.355   6.213  1.00  0.00     0.000 C 
ENDROOT
BRANCH   1   2
ATOM      2  C   UNL     1     -12.933  11.027   7.695  1.00  0.00     0.000 C 
BRANCH   2   3
ATOM      3  C   UNL     1     -12.759   9.544   8.080  1.00  0.00     0.006 C 
BRANCH   3   4
ATOM      4  C   UNL     1     -13.267   8.550   7.024  1.00  0.00     0.053 C 
BRANCH   4   5
ATOM      5  C   UNL     1     -14.195   7.533   7.612  1.00  0.00     0.041 C 
ATOM      6  O   UNL     1     -14.826   7.789   8.671  1.00  0.00    -0.550 OA
ATOM      7  O   UNL     1     -14.336   6.288   7.011  1.00  0.00    -0.550 OA
ENDBRANCH   4   5
ENDBRANCH   3   4
ENDBRANCH   2   3
ENDBRANCH   1   2
BRANCH   1   8
ATOM      8  C   UNL     1     -11.178  11.532   5.842  1.00  0.00     0.000 C 
BRANCH   8   9
ATOM      9  C   UNL     1     -10.900  11.266   4.352  1.00  0.00    -0.000 C 
BRANCH   9  10
ATOM     10  C   UNL     1     -10.285  12.483   3.640  1.00  0.00    -0.000 C 
BRANCH  10  11
ATOM     11  C   UNL     1      -9.175  13.151   4.468  1.00  0.00    -0.000 C 
BRANCH  11  12
ATOM     12  C   UNL     1      -7.875  13.333   3.669  1.00  0.00    -0.003 C 
ATOM     13  C   UNL     1      -7.373  12.031   3.045  1.00  0.00     0.004 C 
ENDBRANCH  11  12
ENDBRANCH  10  11
ENDBRANCH   9  10
ENDBRANCH   8   9
ENDBRANCH   1   8
TORSDOF 9
ENDMDL
MODEL 5
REMARK VINA RESULT:    -4.820      2.316      4.296
REMARK INTER + INTRA:          -7.905
REMARK INTER:                  -7.336
REMARK INTRA:                  -0.569
REMARK UNBOUND:                -0.549
REMARK SMILES CCCCCCCCCCC(=O)[O-]
REMARK SMILES IDX 7 1 8 2 9 3 10 4 11 5 12 6 13 7 6 8 5 9 4 10 3 11 2 12 1 13
REMARK H PARENT
REMARK Flexibility Score: inf
ROOT
ATOM      1  C   UNL     1     -10.667  11.406   4.043  1.00  0.00     0.000 C 
ENDROOT
BRANCH   1   2
ATOM      2  C   UNL     1     -11.128  11.580   5.504  1.00  0.00     0.000 C 
BRANCH   2   3
ATOM      3  C   UNL     1     -12.142  10.530   6.001  1.00  0.00     0.006 C 
BRANCH   3   4
ATOM      4  C   UNL     1     -12.145  10.321   7.523  1.00  0.00     0.053 C 
BRANCH   4   5
ATOM      5  C   UNL     1     -12.275  11.615   8.267  1.00  0.00     0.041 C 
ATOM      6  O   UNL     1     -13.361  12.252   8.242  1.00  0.00    -0.550 OA
ATOM      7  O   UNL     1     -11.187  12.134   8.957  1.00  0.00    -0.550 OA
ENDBRANCH   4   5
ENDBRANCH   3   4
ENDBRANCH   2   3
ENDBRANCH   1   2
BRANCH   1   8
ATOM      8  C   UNL     1     -10.025  12.651   3.405  1.00  0.00     0.000 C 
BRANCH   8   9
ATOM      9  C   UNL     1      -9.048  13.370   4.352  1.00  0.00    -0.000 C 
BRANCH   9  10
ATOM     10  C   UNL     1      -7.581  13.209   3.919  1.00  0.00    -0.000 C 
BRANCH  10  11
ATOM     11  C   UNL     1      -7.446  12.659   2.489  1.00  0.00    -0.000 C 
BRANCH  11  12
ATOM     12  C   UNL     1      -6.870  13.696   1.512  1.00  0.00    -0.003 C 
ATOM     13  C   UNL     1      -7.942  14.603   0.909  1.00  0.00     0.004 C 
ENDBRANCH  11  12
ENDBRANCH  10  11
ENDBRANCH   9  10
ENDBRANCH   8   9
ENDBRANCH   1   8
TORSDOF 9
ENDMDL
MODEL 6
REMARK VINA RESULT:    -4.812      3.771      6.339
REMARK INTER + INTRA:          -7.894
REMARK INTER:                  -7.337
REMARK INTRA:                  -0.557
REMARK UNBOUND:                -0.549
REMARK SMILES CCCCCCCCCCC(=O)[O-]
REMARK SMILES IDX 7 1 8 2 9 3 10 4 11 5 12 6 13 7 6 8 5 9 4 10 3 11 2 12 1 13
REMARK H PARENT
REMARK Flexibility Score: inf
ROOT
ATOM      1  C   UNL     1     -10.767  12.499   9.195  1.00  0.00     0.000 C 
ENDROOT
BRANCH   1   2
ATOM      2  C   UNL     1     -12.093  12.208   8.462  1.00  0.00     0.000 C 
BRANCH   2   3
ATOM      3  C   UNL     1     -12.035  11.062   7.434  1.00  0.00     0.006 C 
BRANCH   3   4
ATOM      4  C   UNL     1     -12.722   9.765   7.890  1.00  0.00     0.053 C 
BRANCH   4   5
ATOM      5  C   UNL     1     -13.168   8.929   6.729  1.00  0.00     0.041 C 
ATOM      6  O   UNL     1     -13.139   9.401   5.562  1.00  0.00    -0.550 OA
ATOM      7  O   UNL     1     -13.650   7.643   6.942  1.00  0.00    -0.550 OA
ENDBRANCH   4   5
ENDBRANCH   3   4
ENDBRANCH   2   3
ENDBRANCH   1   2
BRANCH   1   8
ATOM      8  C   UNL     1     -10.456  13.990   9.420  1.00  0.00     0.000 C 
BRANCH   8   9
ATOM      9  C   UNL     1      -9.228  14.469   8.625  1.00  0.00    -0.000 C 
BRANCH   9  10
ATOM     10  C   UNL     1      -7.939  14.451   9.463  1.00  0.00    -0.000 C 
BRANCH  10  11
ATOM     11  C   UNL     1      -8.214  14.604  10.969  1.00  0.00    -0.000 C 
BRANCH  11  12
ATOM     12  C   UNL     1      -7.505  13.528  11.807  1.00  0.00    -0.003 C 
ATOM     13  C   UNL     1      -8.382  12.303  12.067  1.00  0.00     0.004 C 
ENDBRANCH  11  12
ENDBRANCH  10  11
ENDBRANCH   9  10
ENDBRANCH   8   9
ENDBRANCH   1   8
TORSDOF 9
ENDMDL
MODEL 7
REMARK VINA RESULT:    -4.704      3.935      6.064
REMARK INTER + INTRA:          -7.729
REMARK INTER:                  -7.294
REMARK INTRA:                  -0.435
REMARK UNBOUND:                -0.549
REMARK SMILES CCCCCCCCCCC(=O)[O-]
REMARK SMILES IDX 7 1 8 2 9 3 10 4 11 5 12 6 13 7 6 8 5 9 4 10 3 11 2 12 1 13
REMARK H PARENT
REMARK Flexibility Score: inf
ROOT
ATOM      1  C   UNL     1     -12.073  11.181   6.706  1.00  0.00     0.000 C 
ENDROOT
BRANCH   1   2
ATOM      2  C   UNL     1     -12.807  10.167   7.607  1.00  0.00     0.000 C 
BRANCH   2   3
ATOM      3  C   UNL     1     -13.132   8.815   6.942  1.00  0.00     0.006 C 
BRANCH   3   4
ATOM      4  C   UNL     1     -14.254   8.022   7.630  1.00  0.00     0.053 C 
BRANCH   4   5
ATOM      5  C   UNL     1     -14.105   8.019   9.120  1.00  0.00     0.041 C 
ATOM      6  O   UNL     1     -13.149   7.401   9.659  1.00  0.00    -0.550 OA
ATOM      7  O   UNL     1     -15.042   8.668   9.915  1.00  0.00    -0.550 OA
ENDBRANCH   4   5
ENDBRANCH   3   4
ENDBRANCH   2   3
ENDBRANCH   1   2
BRANCH   1   8
ATOM      8  C   UNL     1     -10.916  11.941   7.380  1.00  0.00     0.000 C 
BRANCH   8   9
ATOM      9  C   UNL     1     -11.158  12.186   8.880  1.00  0.00    -0.000 C 
BRANCH   9  10
ATOM     10  C   UNL     1     -10.860  13.636   9.297  1.00  0.00    -0.000 C 
BRANCH  10  11
ATOM     11  C   UNL     1      -9.504  14.134   8.768  1.00  0.00    -0.000 C 
BRANCH  11  12
ATOM     12  C   UNL     1      -8.618  14.715   9.880  1.00  0.00    -0.003 C 
ATOM     13  C   UNL     1      -8.304  13.702  10.981  1.00  0.00     0.004 C 
ENDBRANCH  11  12
ENDBRANCH  10  11
ENDBRANCH   9  10
ENDBRANCH   8   9
ENDBRANCH   1   8
TORSDOF 9
ENDMDL
MODEL 8
REMARK VINA RESULT:    -4.703      2.969      4.856
REMARK INTER + INTRA:          -7.728
REMARK INTER:                  -7.170
REMARK INTRA:                  -0.557
REMARK UNBOUND:                -0.549
REMARK SMILES CCCCCCCCCCC(=O)[O-]
REMARK SMILES IDX 7 1 8 2 9 3 10 4 11 5 12 6 13 7 6 8 5 9 4 10 3 11 2 12 1 13
REMARK H PARENT
REMARK Flexibility Score: inf
ROOT
ATOM      1  C   UNL     1     -10.886  12.134   3.443  1.00  0.00     0.000 C 
ENDROOT
BRANCH   1   2
ATOM      2  C   UNL     1     -10.639  11.424   4.790  1.00  0.00     0.000 C 
BRANCH   2   3
ATOM      3  C   UNL     1     -11.884  11.269   5.686  1.00  0.00     0.006 C 
BRANCH   3   4
ATOM      4  C   UNL     1     -11.577  11.184   7.190  1.00  0.00     0.053 C 
BRANCH   4   5
ATOM      5  C   UNL     1     -12.825  11.097   8.013  1.00  0.00     0.041 C 
ATOM      6  O   UNL     1     -13.421   9.996   8.144  1.00  0.00    -0.550 OA
ATOM      7  O   UNL     1     -13.350  12.240   8.604  1.00  0.00    -0.550 OA
ENDBRANCH   4   5
ENDBRANCH   3   4
ENDBRANCH   2   3
ENDBRANCH   1   2
BRANCH   1   8
ATOM      8  C   UNL     1      -9.828  13.179   3.048  1.00  0.00     0.000 C 
BRANCH   8   9
ATOM      9  C   UNL     1      -8.636  13.219   4.022  1.00  0.00    -0.000 C 
BRANCH   9  10
ATOM     10  C   UNL     1      -7.295  12.941   3.324  1.00  0.00    -0.000 C 
BRANCH  10  11
ATOM     11  C   UNL     1      -7.352  11.706   2.409  1.00  0.00    -0.000 C 
BRANCH  11  12
ATOM     12  C   UNL     1      -6.429  10.575   2.891  1.00  0.00    -0.003 C 
ATOM     13  C   UNL     1      -5.242  11.083   3.708  1.00  0.00     0.004 C 
ENDBRANCH  11  12
ENDBRANCH  10  11
ENDBRANCH   9  10
ENDBRANCH   8   9
ENDBRANCH   1   8
TORSDOF 9
ENDMDL
MODEL 9
REMARK VINA RESULT:    -4.617      5.006      6.419
REMARK INTER + INTRA:          -7.595
REMARK INTER:                  -7.277
REMARK INTRA:                  -0.318
REMARK UNBOUND:                -0.549
REMARK SMILES CCCCCCCCCCC(=O)[O-]
REMARK SMILES IDX 7 1 8 2 9 3 10 4 11 5 12 6 13 7 6 8 5 9 4 10 3 11 2 12 1 13
REMARK H PARENT
REMARK Flexibility Score: inf
ROOT
ATOM      1  C   UNL     1     -12.846  10.083   8.127  1.00  0.00     0.000 C 
ENDROOT
BRANCH   1   2
ATOM      2  C   UNL     1     -13.206   8.877   7.237  1.00  0.00     0.000 C 
BRANCH   2   3
ATOM      3  C   UNL     1     -14.028   7.772   7.930  1.00  0.00     0.006 C 
BRANCH   3   4
ATOM      4  C   UNL     1     -13.928   6.392   7.262  1.00  0.00     0.053 C 
BRANCH   4   5
ATOM      5  C   UNL     1     -15.037   5.481   7.690  1.00  0.00     0.041 C 
ATOM      6  O   UNL     1     -15.959   5.911   8.432  1.00  0.00    -0.550 OA
ATOM      7  O   UNL     1     -15.033   4.147   7.300  1.00  0.00    -0.550 OA
ENDBRANCH   4   5
ENDBRANCH   3   4
ENDBRANCH   2   3
ENDBRANCH   1   2
BRANCH   1   8
ATOM      8  C   UNL     1     -12.362  11.334   7.373  1.00  0.00     0.000 C 
BRANCH   8   9
ATOM      9  C   UNL     1     -12.228  11.102   5.857  1.00  0.00    -0.000 C 
BRANCH   9  10
ATOM     10  C   UNL     1     -10.870  11.569   5.307  1.00  0.00    -0.000 C 
BRANCH  10  11
ATOM     11  C   UNL     1     -10.739  11.341   3.791  1.00  0.00    -0.000 C 
BRANCH  11  12
ATOM     12  C   UNL     1     -10.355  12.624   3.036  1.00  0.00    -0.003 C 
ATOM     13  C   UNL     1      -9.250  13.417   3.734  1.00  0.00     0.004 C 
ENDBRANCH  11  12
ENDBRANCH  10  11
ENDBRANCH   9  10
ENDBRANCH   8   9
ENDBRANCH   1   8
TORSDOF 9
ENDMDL
