MODEL 1
REMARK VINA RESULT:    -3.527      0.000      0.000
REMARK INTER + INTRA:          -3.863
REMARK INTER:                  -3.836
REMARK INTRA:                  -0.027
REMARK UNBOUND:                -0.027
REMARK SMILES O=C([O-])c1ccc(O)cc1
REMARK SMILES IDX 4 1 5 2 10 3 6 4 9 5 7 6 2 7 1 8 3 9 8 10
REMARK H PARENT 8 11
REMARK Flexibility Score: inf
ROOT
ATOM      1  C   UNL     1      22.593  17.603  43.429  1.00  0.00    -0.003 A 
ATOM      2  C   UNL     1      22.602  16.207  43.611  1.00  0.00     0.014 A 
ATOM      3  C   UNL     1      22.814  18.123  42.141  1.00  0.00     0.014 A 
ATOM      4  C   UNL     1      22.829  15.354  42.527  1.00  0.00     0.047 A 
ATOM      5  C   UNL     1      23.040  17.267  41.060  1.00  0.00     0.047 A 
ATOM      6  C   UNL     1      23.048  15.882  41.249  1.00  0.00     0.115 A 
ENDROOT
BRANCH   1   7
ATOM      7  C   UNL     1      22.354  18.511  44.571  1.00  0.00     0.071 C 
ATOM      8  O   UNL     1      23.319  18.983  45.228  1.00  0.00    -0.545 OA
ATOM      9  O   UNL     1      21.057  18.857  44.936  1.00  0.00    -0.545 OA
ENDBRANCH   1   7
BRANCH   6  10
ATOM     10  O   UNL     1      23.275  15.040  40.161  1.00  0.00    -0.508 OA
ATOM     11  H   UNL     1      23.047  15.325  39.216  1.00  0.00     0.293 HD
ENDBRANCH   6  10
TORSDOF 2
ENDMDL
MODEL 2
REMARK VINA RESULT:    -3.483     18.650     20.065
REMARK INTER + INTRA:          -3.815
REMARK INTER:                  -3.784
REMARK INTRA:                  -0.030
REMARK UNBOUND:                -0.027
REMARK SMILES O=C([O-])c1ccc(O)cc1
REMARK SMILES IDX 4 1 5 2 10 3 6 4 9 5 7 6 2 7 1 8 3 9 8 10
REMARK H PARENT 8 11
REMARK Flexibility Score: inf
ROOT
ATOM      1  C   UNL     1      27.357  33.322  52.544  1.00  0.00    -0.003 A 
ATOM      2  C   UNL     1      28.448  33.011  51.711  1.00  0.00     0.014 A 
ATOM      3  C   UNL     1      27.601  33.933  53.787  1.00  0.00     0.014 A 
ATOM      4  C   UNL     1      29.753  33.306  52.116  1.00  0.00     0.047 A 
ATOM      5  C   UNL     1      28.907  34.226  54.188  1.00  0.00     0.047 A 
ATOM      6  C   UNL     1      29.986  33.913  53.356  1.00  0.00     0.115 A 
ENDROOT
BRANCH   1   7
ATOM      7  C   UNL     1      25.973  33.014  52.122  1.00  0.00     0.071 C 
ATOM      8  O   UNL     1      25.190  32.397  52.892  1.00  0.00    -0.545 OA
ATOM      9  O   UNL     1      25.517  33.401  50.866  1.00  0.00    -0.545 OA
ENDBRANCH   1   7
BRANCH   6  10
ATOM     10  O   UNL     1      31.283  34.212  53.770  1.00  0.00    -0.508 OA
ATOM     11  H   UNL     1      31.497  34.407  54.741  1.00  0.00     0.293 HD
ENDBRANCH   6  10
TORSDOF 2
ENDMDL
MODEL 3
REMARK VINA RESULT:    -3.471      0.502      1.907
REMARK INTER + INTRA:          -3.802
REMARK INTER:                  -3.775
REMARK INTRA:                  -0.027
REMARK UNBOUND:                -0.027
REMARK SMILES O=C([O-])c1ccc(O)cc1
REMARK SMILES IDX 4 1 5 2 10 3 6 4 9 5 7 6 2 7 1 8 3 9 8 10
REMARK H PARENT 8 11
REMARK Flexibility Score: inf
ROOT
ATOM      1  C   UNL     1      22.614  18.029  43.553  1.00  0.00    -0.003 A 
ATOM      2  C   UNL     1      22.796  18.626  42.291  1.00  0.00     0.014 A 
ATOM      3  C   UNL     1      22.602  16.626  43.647  1.00  0.00     0.014 A 
ATOM      4  C   UNL     1      22.961  17.834  41.151  1.00  0.00     0.047 A 
ATOM      5  C   UNL     1      22.768  15.837  42.505  1.00  0.00     0.047 A 
ATOM      6  C   UNL     1      22.947  16.438  41.255  1.00  0.00     0.115 A 
ENDROOT
BRANCH   1   7
ATOM      7  C   UNL     1      22.439  18.861  44.763  1.00  0.00     0.071 C 
ATOM      8  O   UNL     1      21.287  19.163  45.173  1.00  0.00    -0.545 OA
ATOM      9  O   UNL     1      23.547  19.323  45.466  1.00  0.00    -0.545 OA
ENDBRANCH   1   7
BRANCH   6  10
ATOM     10  O   UNL     1      23.111  15.638  40.125  1.00  0.00    -0.508 OA
ATOM     11  H   UNL     1      22.475  15.698  39.339  1.00  0.00     0.293 HD
ENDBRANCH   6  10
TORSDOF 2
ENDMDL
MODEL 4
REMARK VINA RESULT:    -3.468     18.539     20.057
REMARK INTER + INTRA:          -3.800
REMARK INTER:                  -3.770
REMARK INTRA:                  -0.030
REMARK UNBOUND:                -0.027
REMARK SMILES O=C([O-])c1ccc(O)cc1
REMARK SMILES IDX 4 1 5 2 10 3 6 4 9 5 7 6 2 7 1 8 3 9 8 10
REMARK H PARENT 8 11
REMARK Flexibility Score: inf
ROOT
ATOM      1  C   UNL     1      27.335  33.319  52.502  1.00  0.00    -0.003 A 
ATOM      2  C   UNL     1      27.504  33.940  53.754  1.00  0.00     0.014 A 
ATOM      3  C   UNL     1      28.470  33.047  51.718  1.00  0.00     0.014 A 
ATOM      4  C   UNL     1      28.783  34.281  54.207  1.00  0.00     0.047 A 
ATOM      5  C   UNL     1      29.746  33.389  52.175  1.00  0.00     0.047 A 
ATOM      6  C   UNL     1      29.906  34.007  53.418  1.00  0.00     0.115 A 
ENDROOT
BRANCH   1   7
ATOM      7  C   UNL     1      25.986  32.955  52.017  1.00  0.00     0.071 C 
ATOM      8  O   UNL     1      25.209  32.272  52.735  1.00  0.00    -0.545 OA
ATOM      9  O   UNL     1      25.556  33.364  50.758  1.00  0.00    -0.545 OA
ENDBRANCH   1   7
BRANCH   6  10
ATOM     10  O   UNL     1      31.185  34.342  53.860  1.00  0.00    -0.508 OA
ATOM     11  H   UNL     1      32.004  34.165  53.292  1.00  0.00     0.293 HD
ENDBRANCH   6  10
TORSDOF 2
ENDMDL
MODEL 5
REMARK VINA RESULT:    -3.314      2.150      4.373
REMARK INTER + INTRA:          -3.631
REMARK INTER:                  -3.604
REMARK INTRA:                  -0.027
REMARK UNBOUND:                -0.027
REMARK SMILES O=C([O-])c1ccc(O)cc1
REMARK SMILES IDX 4 1 5 2 10 3 6 4 9 5 7 6 2 7 1 8 3 9 8 10
REMARK H PARENT 8 11
REMARK Flexibility Score: inf
ROOT
ATOM      1  C   UNL     1      23.300  18.476  42.087  1.00  0.00    -0.003 A 
ATOM      2  C   UNL     1      24.322  19.354  42.495  1.00  0.00     0.014 A 
ATOM      3  C   UNL     1      22.691  17.647  43.046  1.00  0.00     0.014 A 
ATOM      4  C   UNL     1      24.723  19.398  43.834  1.00  0.00     0.047 A 
ATOM      5  C   UNL     1      23.095  17.694  44.383  1.00  0.00     0.047 A 
ATOM      6  C   UNL     1      24.111  18.568  44.781  1.00  0.00     0.115 A 
ENDROOT
BRANCH   1   7
ATOM      7  C   UNL     1      22.870  18.425  40.673  1.00  0.00     0.071 C 
ATOM      8  O   UNL     1      23.331  17.549  39.894  1.00  0.00    -0.545 OA
ATOM      9  O   UNL     1      21.950  19.346  40.183  1.00  0.00    -0.545 OA
ENDBRANCH   1   7
BRANCH   6  10
ATOM     10  O   UNL     1      24.503  18.604  46.118  1.00  0.00    -0.508 OA
ATOM     11  H   UNL     1      25.456  18.822  46.384  1.00  0.00     0.293 HD
ENDBRANCH   6  10
TORSDOF 2
ENDMDL
MODEL 6
REMARK VINA RESULT:    -3.307      2.362      2.946
REMARK INTER + INTRA:          -3.624
REMARK INTER:                  -3.589
REMARK INTRA:                  -0.035
REMARK UNBOUND:                -0.027
REMARK SMILES O=C([O-])c1ccc(O)cc1
REMARK SMILES IDX 4 1 5 2 10 3 6 4 9 5 7 6 2 7 1 8 3 9 8 10
REMARK H PARENT 8 11
REMARK Flexibility Score: inf
ROOT
ATOM      1  C   UNL     1      23.409  19.212  42.753  1.00  0.00    -0.003 A 
ATOM      2  C   UNL     1      23.181  18.779  44.073  1.00  0.00     0.014 A 
ATOM      3  C   UNL     1      23.236  18.300  41.697  1.00  0.00     0.014 A 
ATOM      4  C   UNL     1      22.787  17.461  44.326  1.00  0.00     0.047 A 
ATOM      5  C   UNL     1      22.843  16.984  41.955  1.00  0.00     0.047 A 
ATOM      6  C   UNL     1      22.618  16.560  43.268  1.00  0.00     0.115 A 
ENDROOT
BRANCH   1   7
ATOM      7  C   UNL     1      23.824  20.605  42.478  1.00  0.00     0.071 C 
ATOM      8  O   UNL     1      23.693  21.498  43.356  1.00  0.00    -0.545 OA
ATOM      9  O   UNL     1      24.367  20.947  41.243  1.00  0.00    -0.545 OA
ENDBRANCH   1   7
BRANCH   6  10
ATOM     10  O   UNL     1      22.227  15.245  43.509  1.00  0.00    -0.508 OA
ATOM     11  H   UNL     1      21.483  14.808  42.977  1.00  0.00     0.293 HD
ENDBRANCH   6  10
TORSDOF 2
ENDMDL
MODEL 7
REMARK VINA RESULT:    -3.290     17.821     18.113
REMARK INTER + INTRA:          -3.605
REMARK INTER:                  -3.572
REMARK INTRA:                  -0.033
REMARK UNBOUND:                -0.027
REMARK SMILES O=C([O-])c1ccc(O)cc1
REMARK SMILES IDX 4 1 5 2 10 3 6 4 9 5 7 6 2 7 1 8 3 9 8 10
REMARK H PARENT 8 11
REMARK Flexibility Score: inf
ROOT
ATOM      1  C   UNL     1      18.093  28.396  56.185  1.00  0.00    -0.003 A 
ATOM      2  C   UNL     1      16.877  28.773  55.585  1.00  0.00     0.014 A 
ATOM      3  C   UNL     1      19.292  28.945  55.699  1.00  0.00     0.014 A 
ATOM      4  C   UNL     1      16.865  29.681  54.521  1.00  0.00     0.047 A 
ATOM      5  C   UNL     1      19.276  29.852  54.635  1.00  0.00     0.047 A 
ATOM      6  C   UNL     1      18.065  30.222  54.043  1.00  0.00     0.115 A 
ENDROOT
BRANCH   1   7
ATOM      7  C   UNL     1      18.112  27.437  57.311  1.00  0.00     0.071 C 
ATOM      8  O   UNL     1      18.938  27.571  58.253  1.00  0.00    -0.545 OA
ATOM      9  O   UNL     1      17.217  26.372  57.345  1.00  0.00    -0.545 OA
ENDBRANCH   1   7
BRANCH   6  10
ATOM     10  O   UNL     1      18.065  31.127  52.984  1.00  0.00    -0.508 OA
ATOM     11  H   UNL     1      18.711  31.907  52.954  1.00  0.00     0.293 HD
ENDBRANCH   6  10
TORSDOF 2
ENDMDL
MODEL 8
REMARK VINA RESULT:    -3.253     18.292     20.018
REMARK INTER + INTRA:          -3.565
REMARK INTER:                  -3.533
REMARK INTRA:                  -0.032
REMARK UNBOUND:                -0.027
REMARK SMILES O=C([O-])c1ccc(O)cc1
REMARK SMILES IDX 4 1 5 2 10 3 6 4 9 5 7 6 2 7 1 8 3 9 8 10
REMARK H PARENT 8 11
REMARK Flexibility Score: inf
ROOT
ATOM      1  C   UNL     1      28.589  33.680  53.065  1.00  0.00    -0.003 A 
ATOM      2  C   UNL     1      28.550  33.138  51.766  1.00  0.00     0.014 A 
ATOM      3  C   UNL     1      27.379  33.909  53.743  1.00  0.00     0.014 A 
ATOM      4  C   UNL     1      27.326  32.835  51.162  1.00  0.00     0.047 A 
ATOM      5  C   UNL     1      26.157  33.605  53.136  1.00  0.00     0.047 A 
ATOM      6  C   UNL     1      26.126  33.068  51.846  1.00  0.00     0.115 A 
ENDROOT
BRANCH   1   7
ATOM      7  C   UNL     1      29.880  34.002  53.710  1.00  0.00     0.071 C 
ATOM      8  O   UNL     1      30.887  33.267  53.531  1.00  0.00    -0.545 OA
ATOM      9  O   UNL     1      30.001  35.125  54.523  1.00  0.00    -0.545 OA
ENDBRANCH   1   7
BRANCH   6  10
ATOM     10  O   UNL     1      24.901  32.769  51.254  1.00  0.00    -0.508 OA
ATOM     11  H   UNL     1      24.110  33.398  51.328  1.00  0.00     0.293 HD
ENDBRANCH   6  10
TORSDOF 2
ENDMDL
MODEL 9
REMARK VINA RESULT:    -3.207     17.617     19.892
REMARK INTER + INTRA:          -3.515
REMARK INTER:                  -3.480
REMARK INTRA:                  -0.034
REMARK UNBOUND:                -0.027
REMARK SMILES O=C([O-])c1ccc(O)cc1
REMARK SMILES IDX 4 1 5 2 10 3 6 4 9 5 7 6 2 7 1 8 3 9 8 10
REMARK H PARENT 8 11
REMARK Flexibility Score: inf
ROOT
ATOM      1  C   UNL     1      21.442  28.154  58.205  1.00  0.00    -0.003 A 
ATOM      2  C   UNL     1      22.188  29.115  57.498  1.00  0.00     0.014 A 
ATOM      3  C   UNL     1      20.694  28.560  59.324  1.00  0.00     0.014 A 
ATOM      4  C   UNL     1      22.185  30.453  57.905  1.00  0.00     0.047 A 
ATOM      5  C   UNL     1      20.694  29.899  59.729  1.00  0.00     0.047 A 
ATOM      6  C   UNL     1      21.439  30.848  59.022  1.00  0.00     0.115 A 
ENDROOT
BRANCH   1   7
ATOM      7  C   UNL     1      21.440  26.737  57.779  1.00  0.00     0.071 C 
ATOM      8  O   UNL     1      20.475  25.982  58.069  1.00  0.00    -0.545 OA
ATOM      9  O   UNL     1      22.506  26.220  57.050  1.00  0.00    -0.545 OA
ENDBRANCH   1   7
BRANCH   6  10
ATOM     10  O   UNL     1      21.428  32.178  59.437  1.00  0.00    -0.508 OA
ATOM     11  H   UNL     1      21.100  32.442  60.358  1.00  0.00     0.293 HD
ENDBRANCH   6  10
TORSDOF 2
ENDMDL
