MODEL 1
REMARK VINA RESULT:    -2.896      0.000      0.000
REMARK INTER + INTRA:         -12.266
REMARK INTER:                  -7.638
REMARK INTRA:                  -4.629
REMARK UNBOUND:                -4.629
REMARK SMILES CCCCCCCCCCCCCCCCCCCCCCCCCCCCCC(=O)[O-]
REMARK SMILES IDX 16 1 17 2 18 3 19 4 20 5 21 6 22 7 23 8 24 9 25 10 26 11
REMARK SMILES IDX 27 12 28 13 29 14 30 15 31 16 32 17 15 18 14 19 13 20 12 21
REMARK SMILES IDX 11 22 10 23 9 24 8 25 7 26 6 27 5 28 4 29 3 30 2 31 1 32
REMARK H PARENT
REMARK Flexibility Score: inf
ROOT
ATOM      1  C   UNL     1      28.867  15.049 -15.692  1.00  0.00     0.000 C 
ENDROOT
BRANCH   1   2
ATOM      2  C   UNL     1      28.134  13.694 -15.791  1.00  0.00     0.000 C 
BRANCH   2   3
ATOM      3  C   UNL     1      26.604  13.858 -15.776  1.00  0.00     0.000 C 
BRANCH   3   4
ATOM      4  C   UNL     1      25.918  13.176 -16.972  1.00  0.00     0.000 C 
BRANCH   4   5
ATOM      5  C   UNL     1      25.636  14.135 -18.149  1.00  0.00     0.000 C 
BRANCH   5   6
ATOM      6  C   UNL     1      24.136  14.219 -18.487  1.00  0.00     0.000 C 
BRANCH   6   7
ATOM      7  C   UNL     1      23.253  14.306 -17.223  1.00  0.00     0.000 C 
BRANCH   7   8
ATOM      8  C   UNL     1      22.233  15.456 -17.253  1.00  0.00     0.000 C 
BRANCH   8   9
ATOM      9  C   UNL     1      22.132  16.130 -18.631  1.00  0.00     0.000 C 
BRANCH   9  10
ATOM     10  C   UNL     1      22.480  17.627 -18.582  1.00  0.00     0.000 C 
BRANCH  10  11
ATOM     11  C   UNL     1      23.971  17.875 -18.301  1.00  0.00     0.000 C 
BRANCH  11  12
ATOM     12  C   UNL     1      24.748  18.092 -19.605  1.00  0.00     0.000 C 
BRANCH  12  13
ATOM     13  C   UNL     1      26.181  17.546 -19.491  1.00  0.00     0.006 C 
BRANCH  13  14
ATOM     14  C   UNL     1      26.711  17.604 -18.053  1.00  0.00     0.053 C 
BRANCH  14  15
ATOM     15  C   UNL     1      27.586  18.799 -17.832  1.00  0.00     0.041 C 
ATOM     16  O   UNL     1      28.534  18.747 -17.004  1.00  0.00    -0.550 OA
ATOM     17  O   UNL     1      27.329  19.984 -18.510  1.00  0.00    -0.550 OA
ENDBRANCH  14  15
ENDBRANCH  13  14
ENDBRANCH  12  13
ENDBRANCH  11  12
ENDBRANCH  10  11
ENDBRANCH   9  10
ENDBRANCH   8   9
ENDBRANCH   7   8
ENDBRANCH   6   7
ENDBRANCH   5   6
ENDBRANCH   4   5
ENDBRANCH   3   4
ENDBRANCH   2   3
ENDBRANCH   1   2
BRANCH   1  18
ATOM     18  C   UNL     1      29.814  15.325 -16.872  1.00  0.00     0.000 C 
BRANCH  18  19
ATOM     19  C   UNL     1      29.349  14.657 -18.177  1.00  0.00     0.000 C 
BRANCH  19  20
ATOM     20  C   UNL     1      30.150  15.129 -19.402  1.00  0.00     0.000 C 
BRANCH  20  21
ATOM     21  C   UNL     1      29.875  16.596 -19.765  1.00  0.00     0.000 C 
BRANCH  21  22
ATOM     22  C   UNL     1      31.185  17.362 -19.989  1.00  0.00     0.000 C 
BRANCH  22  23
ATOM     23  C   UNL     1      31.740  17.900 -18.663  1.00  0.00     0.000 C 
BRANCH  23  24
ATOM     24  C   UNL     1      33.224  18.273 -18.800  1.00  0.00    -0.000 C 
BRANCH  24  25
ATOM     25  C   UNL     1      34.161  17.152 -18.323  1.00  0.00    -0.000 C 
BRANCH  25  26
ATOM     26  C   UNL     1      34.787  16.368 -19.488  1.00  0.00    -0.000 C 
BRANCH  26  27
ATOM     27  C   UNL     1      33.972  15.104 -19.801  1.00  0.00    -0.000 C 
BRANCH  27  28
ATOM     28  C   UNL     1      34.794  13.810 -19.664  1.00  0.00    -0.000 C 
BRANCH  28  29
ATOM     29  C   UNL     1      34.451  12.948 -18.434  1.00  0.00    -0.000 C 
BRANCH  29  30
ATOM     30  C   UNL     1      35.325  13.270 -17.214  1.00  0.00    -0.000 C 
BRANCH  30  31
ATOM     31  C   UNL     1      34.464  13.488 -15.963  1.00  0.00    -0.003 C 
ATOM     32  C   UNL     1      33.127  14.132 -16.318  1.00  0.00     0.004 C 
ENDBRANCH  30  31
ENDBRANCH  29  30
ENDBRANCH  28  29
ENDBRANCH  27  28
ENDBRANCH  26  27
ENDBRANCH  25  26
ENDBRANCH  24  25
ENDBRANCH  23  24
ENDBRANCH  22  23
ENDBRANCH  21  22
ENDBRANCH  20  21
ENDBRANCH  19  20
ENDBRANCH  18  19
ENDBRANCH   1  18
TORSDOF 28
ENDMDL
MODEL 2
REMARK VINA RESULT:    -2.826      1.923      8.410
REMARK INTER + INTRA:         -12.080
REMARK INTER:                  -7.063
REMARK INTRA:                  -5.017
REMARK UNBOUND:                -4.629
REMARK SMILES CCCCCCCCCCCCCCCCCCCCCCCCCCCCCC(=O)[O-]
REMARK SMILES IDX 16 1 17 2 18 3 19 4 20 5 21 6 22 7 23 8 24 9 25 10 26 11
REMARK SMILES IDX 27 12 28 13 29 14 30 15 31 16 32 17 15 18 14 19 13 20 12 21
REMARK SMILES IDX 11 22 10 23 9 24 8 25 7 26 6 27 5 28 4 29 3 30 2 31 1 32
REMARK H PARENT
REMARK Flexibility Score: inf
ROOT
ATOM      1  C   UNL     1      28.890  17.601 -17.596  1.00  0.00     0.000 C 
ENDROOT
BRANCH   1   2
ATOM      2  C   UNL     1      28.842  16.704 -18.852  1.00  0.00     0.000 C 
BRANCH   2   3
ATOM      3  C   UNL     1      28.684  15.216 -18.497  1.00  0.00     0.000 C 
BRANCH   3   4
ATOM      4  C   UNL     1      28.688  14.959 -16.980  1.00  0.00     0.000 C 
BRANCH   4   5
ATOM      5  C   UNL     1      29.157  13.538 -16.598  1.00  0.00     0.000 C 
BRANCH   5   6
ATOM      6  C   UNL     1      29.946  13.520 -15.276  1.00  0.00     0.000 C 
BRANCH   6   7
ATOM      7  C   UNL     1      31.358  14.126 -15.427  1.00  0.00     0.000 C 
BRANCH   7   8
ATOM      8  C   UNL     1      32.407  13.139 -15.966  1.00  0.00     0.000 C 
BRANCH   8   9
ATOM      9  C   UNL     1      33.826  13.729 -15.993  1.00  0.00     0.000 C 
BRANCH   9  10
ATOM     10  C   UNL     1      34.115  14.509 -17.286  1.00  0.00     0.000 C 
BRANCH  10  11
ATOM     11  C   UNL     1      33.592  13.787 -18.538  1.00  0.00     0.000 C 
BRANCH  11  12
ATOM     12  C   UNL     1      32.614  14.676 -19.317  1.00  0.00     0.000 C 
BRANCH  12  13
ATOM     13  C   UNL     1      32.411  16.024 -18.608  1.00  0.00     0.006 C 
BRANCH  13  14
ATOM     14  C   UNL     1      33.071  17.184 -19.365  1.00  0.00     0.053 C 
BRANCH  14  15
ATOM     15  C   UNL     1      33.749  18.140 -18.432  1.00  0.00     0.041 C 
ATOM     16  O   UNL     1      34.865  17.847 -17.925  1.00  0.00    -0.550 OA
ATOM     17  O   UNL     1      33.130  19.335 -18.090  1.00  0.00    -0.550 OA
ENDBRANCH  14  15
ENDBRANCH  13  14
ENDBRANCH  12  13
ENDBRANCH  11  12
ENDBRANCH  10  11
ENDBRANCH   9  10
ENDBRANCH   8   9
ENDBRANCH   7   8
ENDBRANCH   6   7
ENDBRANCH   5   6
ENDBRANCH   4   5
ENDBRANCH   3   4
ENDBRANCH   2   3
ENDBRANCH   1   2
BRANCH   1  18
ATOM     18  C   UNL     1      27.902  18.779 -17.641  1.00  0.00     0.000 C 
BRANCH  18  19
ATOM     19  C   UNL     1      27.580  19.231 -19.076  1.00  0.00     0.000 C 
BRANCH  19  20
ATOM     20  C   UNL     1      26.071  19.246 -19.368  1.00  0.00     0.000 C 
BRANCH  20  21
ATOM     21  C   UNL     1      25.577  17.945 -20.017  1.00  0.00     0.000 C 
BRANCH  21  22
ATOM     22  C   UNL     1      24.956  17.010 -18.971  1.00  0.00     0.000 C 
BRANCH  22  23
ATOM     23  C   UNL     1      23.777  17.687 -18.259  1.00  0.00     0.000 C 
BRANCH  23  24
ATOM     24  C   UNL     1      22.715  16.656 -17.851  1.00  0.00    -0.000 C 
BRANCH  24  25
ATOM     25  C   UNL     1      22.320  15.725 -19.008  1.00  0.00    -0.000 C 
BRANCH  25  26
ATOM     26  C   UNL     1      21.919  14.320 -18.527  1.00  0.00    -0.000 C 
BRANCH  26  27
ATOM     27  C   UNL     1      22.067  14.199 -17.003  1.00  0.00    -0.000 C 
BRANCH  27  28
ATOM     28  C   UNL     1      22.861  12.951 -16.574  1.00  0.00    -0.000 C 
BRANCH  28  29
ATOM     29  C   UNL     1      24.225  13.241 -15.921  1.00  0.00    -0.000 C 
BRANCH  29  30
ATOM     30  C   UNL     1      25.227  13.887 -16.888  1.00  0.00    -0.000 C 
BRANCH  30  31
ATOM     31  C   UNL     1      25.691  12.883 -17.950  1.00  0.00    -0.003 C 
ATOM     32  C   UNL     1      25.464  13.423 -19.359  1.00  0.00     0.004 C 
ENDBRANCH  30  31
ENDBRANCH  29  30
ENDBRANCH  28  29
ENDBRANCH  27  28
ENDBRANCH  26  27
ENDBRANCH  25  26
ENDBRANCH  24  25
ENDBRANCH  23  24
ENDBRANCH  22  23
ENDBRANCH  21  22
ENDBRANCH  20  21
ENDBRANCH  19  20
ENDBRANCH  18  19
ENDBRANCH   1  18
TORSDOF 28
ENDMDL
MODEL 3
REMARK VINA RESULT:    -2.672      1.664      4.209
REMARK INTER + INTRA:         -11.674
REMARK INTER:                  -6.978
REMARK INTRA:                  -4.696
REMARK UNBOUND:                -4.629
REMARK SMILES CCCCCCCCCCCCCCCCCCCCCCCCCCCCCC(=O)[O-]
REMARK SMILES IDX 16 1 17 2 18 3 19 4 20 5 21 6 22 7 23 8 24 9 25 10 26 11
REMARK SMILES IDX 27 12 28 13 29 14 30 15 31 16 32 17 15 18 14 19 13 20 12 21
REMARK SMILES IDX 11 22 10 23 9 24 8 25 7 26 6 27 5 28 4 29 3 30 2 31 1 32
REMARK H PARENT
REMARK Flexibility Score: inf
ROOT
ATOM      1  C   UNL     1      29.882  17.598 -19.419  1.00  0.00     0.000 C 
ENDROOT
BRANCH   1   2
ATOM      2  C   UNL     1      28.929  18.105 -18.315  1.00  0.00     0.000 C 
BRANCH   2   3
ATOM      3  C   UNL     1      27.770  18.940 -18.885  1.00  0.00     0.000 C 
BRANCH   3   4
ATOM      4  C   UNL     1      26.557  19.002 -17.940  1.00  0.00     0.000 C 
BRANCH   4   5
ATOM      5  C   UNL     1      25.504  17.907 -18.218  1.00  0.00     0.000 C 
BRANCH   5   6
ATOM      6  C   UNL     1      25.151  17.803 -19.713  1.00  0.00     0.000 C 
BRANCH   6   7
ATOM      7  C   UNL     1      23.967  16.846 -19.970  1.00  0.00     0.000 C 
BRANCH   7   8
ATOM      8  C   UNL     1      23.445  16.144 -18.705  1.00  0.00     0.000 C 
BRANCH   8   9
ATOM      9  C   UNL     1      23.588  14.614 -18.767  1.00  0.00     0.000 C 
BRANCH   9  10
ATOM     10  C   UNL     1      24.338  14.144 -20.024  1.00  0.00     0.000 C 
BRANCH  10  11
ATOM     11  C   UNL     1      25.234  12.925 -19.753  1.00  0.00     0.000 C 
BRANCH  11  12
ATOM     12  C   UNL     1      26.712  13.332 -19.687  1.00  0.00     0.000 C 
BRANCH  12  13
ATOM     13  C   UNL     1      27.188  13.439 -18.229  1.00  0.00     0.006 C 
BRANCH  13  14
ATOM     14  C   UNL     1      27.096  14.874 -17.693  1.00  0.00     0.053 C 
BRANCH  14  15
ATOM     15  C   UNL     1      27.130  14.909 -16.196  1.00  0.00     0.041 C 
ATOM     16  O   UNL     1      28.011  15.583 -15.597  1.00  0.00    -0.550 OA
ATOM     17  O   UNL     1      26.216  14.163 -15.462  1.00  0.00    -0.550 OA
ENDBRANCH  14  15
ENDBRANCH  13  14
ENDBRANCH  12  13
ENDBRANCH  11  12
ENDBRANCH  10  11
ENDBRANCH   9  10
ENDBRANCH   8   9
ENDBRANCH   7   8
ENDBRANCH   6   7
ENDBRANCH   5   6
ENDBRANCH   4   5
ENDBRANCH   3   4
ENDBRANCH   2   3
ENDBRANCH   1   2
BRANCH   1  18
ATOM     18  C   UNL     1      29.477  16.235 -20.005  1.00  0.00     0.000 C 
BRANCH  18  19
ATOM     19  C   UNL     1      30.662  15.263 -20.125  1.00  0.00     0.000 C 
BRANCH  19  20
ATOM     20  C   UNL     1      30.663  14.192 -19.021  1.00  0.00     0.000 C 
BRANCH  20  21
ATOM     21  C   UNL     1      30.900  14.779 -17.622  1.00  0.00     0.000 C 
BRANCH  21  22
ATOM     22  C   UNL     1      30.474  13.789 -16.531  1.00  0.00     0.000 C 
BRANCH  22  23
ATOM     23  C   UNL     1      31.657  13.427 -15.624  1.00  0.00     0.000 C 
BRANCH  23  24
ATOM     24  C   UNL     1      32.846  12.913 -16.450  1.00  0.00    -0.000 C 
BRANCH  24  25
ATOM     25  C   UNL     1      34.103  13.779 -16.278  1.00  0.00    -0.000 C 
BRANCH  25  26
ATOM     26  C   UNL     1      35.101  13.610 -17.436  1.00  0.00    -0.000 C 
BRANCH  26  27
ATOM     27  C   UNL     1      34.370  13.521 -18.783  1.00  0.00    -0.000 C 
BRANCH  27  28
ATOM     28  C   UNL     1      35.017  14.393 -19.876  1.00  0.00    -0.000 C 
BRANCH  28  29
ATOM     29  C   UNL     1      34.524  15.852 -19.921  1.00  0.00    -0.000 C 
BRANCH  29  30
ATOM     30  C   UNL     1      34.692  16.583 -18.581  1.00  0.00    -0.000 C 
BRANCH  30  31
ATOM     31  C   UNL     1      33.418  17.352 -18.211  1.00  0.00    -0.003 C 
ATOM     32  C   UNL     1      33.320  18.663 -18.986  1.00  0.00     0.004 C 
ENDBRANCH  30  31
ENDBRANCH  29  30
ENDBRANCH  28  29
ENDBRANCH  27  28
ENDBRANCH  26  27
ENDBRANCH  25  26
ENDBRANCH  24  25
ENDBRANCH  23  24
ENDBRANCH  22  23
ENDBRANCH  21  22
ENDBRANCH  20  21
ENDBRANCH  19  20
ENDBRANCH  18  19
ENDBRANCH   1  18
TORSDOF 28
ENDMDL
MODEL 4
REMARK VINA RESULT:    -2.534      1.221      3.392
REMARK INTER + INTRA:         -11.312
REMARK INTER:                  -7.915
REMARK INTRA:                  -3.397
REMARK UNBOUND:                -4.629
REMARK SMILES CCCCCCCCCCCCCCCCCCCCCCCCCCCCCC(=O)[O-]
REMARK SMILES IDX 16 1 17 2 18 3 19 4 20 5 21 6 22 7 23 8 24 9 25 10 26 11
REMARK SMILES IDX 27 12 28 13 29 14 30 15 31 16 32 17 15 18 14 19 13 20 12 21
REMARK SMILES IDX 11 22 10 23 9 24 8 25 7 26 6 27 5 28 4 29 3 30 2 31 1 32
REMARK H PARENT
REMARK Flexibility Score: inf
ROOT
ATOM      1  C   UNL     1      28.591  14.408 -18.247  1.00  0.00     0.000 C 
ENDROOT
BRANCH   1   2
ATOM      2  C   UNL     1      27.282  14.632 -19.036  1.00  0.00     0.000 C 
BRANCH   2   3
ATOM      3  C   UNL     1      26.747  13.331 -19.656  1.00  0.00     0.000 C 
BRANCH   3   4
ATOM      4  C   UNL     1      25.272  13.435 -20.084  1.00  0.00     0.000 C 
BRANCH   4   5
ATOM      5  C   UNL     1      24.278  13.086 -18.955  1.00  0.00     0.000 C 
BRANCH   5   6
ATOM      6  C   UNL     1      24.193  14.193 -17.889  1.00  0.00     0.000 C 
BRANCH   6   7
ATOM      7  C   UNL     1      22.811  14.241 -17.201  1.00  0.00     0.000 C 
BRANCH   7   8
ATOM      8  C   UNL     1      21.875  15.328 -17.756  1.00  0.00     0.000 C 
BRANCH   8   9
ATOM      9  C   UNL     1      22.006  16.666 -17.010  1.00  0.00     0.000 C 
BRANCH   9  10
ATOM     10  C   UNL     1      22.210  17.854 -17.965  1.00  0.00     0.000 C 
BRANCH  10  11
ATOM     11  C   UNL     1      22.724  17.417 -19.346  1.00  0.00     0.000 C 
BRANCH  11  12
ATOM     12  C   UNL     1      24.151  17.925 -19.588  1.00  0.00     0.000 C 
BRANCH  12  13
ATOM     13  C   UNL     1      25.006  17.790 -18.317  1.00  0.00     0.006 C 
BRANCH  13  14
ATOM     14  C   UNL     1      26.499  18.003 -18.597  1.00  0.00     0.053 C 
BRANCH  14  15
ATOM     15  C   UNL     1      27.094  19.028 -17.682  1.00  0.00     0.041 C 
ATOM     16  O   UNL     1      26.374  19.946 -17.203  1.00  0.00    -0.550 OA
ATOM     17  O   UNL     1      28.452  18.997 -17.390  1.00  0.00    -0.550 OA
ENDBRANCH  14  15
ENDBRANCH  13  14
ENDBRANCH  12  13
ENDBRANCH  11  12
ENDBRANCH  10  11
ENDBRANCH   9  10
ENDBRANCH   8   9
ENDBRANCH   7   8
ENDBRANCH   6   7
ENDBRANCH   5   6
ENDBRANCH   4   5
ENDBRANCH   3   4
ENDBRANCH   2   3
ENDBRANCH   1   2
BRANCH   1  18
ATOM     18  C   UNL     1      28.885  15.509 -17.215  1.00  0.00     0.000 C 
BRANCH  18  19
ATOM     19  C   UNL     1      28.530  15.088 -15.779  1.00  0.00     0.000 C 
BRANCH  19  20
ATOM     20  C   UNL     1      28.813  13.600 -15.510  1.00  0.00     0.000 C 
BRANCH  20  21
ATOM     21  C   UNL     1      30.209  13.358 -14.918  1.00  0.00     0.000 C 
BRANCH  21  22
ATOM     22  C   UNL     1      31.223  13.020 -16.018  1.00  0.00     0.000 C 
BRANCH  22  23
ATOM     23  C   UNL     1      32.254  14.144 -16.179  1.00  0.00     0.000 C 
BRANCH  23  24
ATOM     24  C   UNL     1      33.682  13.611 -15.988  1.00  0.00    -0.000 C 
BRANCH  24  25
ATOM     25  C   UNL     1      34.449  13.484 -17.314  1.00  0.00    -0.000 C 
BRANCH  25  26
ATOM     26  C   UNL     1      34.447  14.790 -18.126  1.00  0.00    -0.000 C 
BRANCH  26  27
ATOM     27  C   UNL     1      34.599  16.010 -17.206  1.00  0.00    -0.000 C 
BRANCH  27  28
ATOM     28  C   UNL     1      34.797  17.326 -17.981  1.00  0.00    -0.000 C 
BRANCH  28  29
ATOM     29  C   UNL     1      33.768  17.583 -19.098  1.00  0.00    -0.000 C 
BRANCH  29  30
ATOM     30  C   UNL     1      32.449  18.169 -18.575  1.00  0.00    -0.000 C 
BRANCH  30  31
ATOM     31  C   UNL     1      31.244  17.462 -19.208  1.00  0.00    -0.003 C 
ATOM     32  C   UNL     1      31.627  16.080 -19.731  1.00  0.00     0.004 C 
ENDBRANCH  30  31
ENDBRANCH  29  30
ENDBRANCH  28  29
ENDBRANCH  27  28
ENDBRANCH  26  27
ENDBRANCH  25  26
ENDBRANCH  24  25
ENDBRANCH  23  24
ENDBRANCH  22  23
ENDBRANCH  21  22
ENDBRANCH  20  21
ENDBRANCH  19  20
ENDBRANCH  18  19
ENDBRANCH   1  18
TORSDOF 28
ENDMDL
MODEL 5
REMARK VINA RESULT:    -2.482      1.271      2.241
REMARK INTER + INTRA:         -11.173
REMARK INTER:                  -7.246
REMARK INTRA:                  -3.927
REMARK UNBOUND:                -4.629
REMARK SMILES CCCCCCCCCCCCCCCCCCCCCCCCCCCCCC(=O)[O-]
REMARK SMILES IDX 16 1 17 2 18 3 19 4 20 5 21 6 22 7 23 8 24 9 25 10 26 11
REMARK SMILES IDX 27 12 28 13 29 14 30 15 31 16 32 17 15 18 14 19 13 20 12 21
REMARK SMILES IDX 11 22 10 23 9 24 8 25 7 26 6 27 5 28 4 29 3 30 2 31 1 32
REMARK H PARENT
REMARK Flexibility Score: inf
ROOT
ATOM      1  C   UNL     1      29.608  15.039 -16.310  1.00  0.00     0.000 C 
ENDROOT
BRANCH   1   2
ATOM      2  C   UNL     1      28.207  15.539 -15.897  1.00  0.00     0.000 C 
BRANCH   2   3
ATOM      3  C   UNL     1      27.148  14.426 -15.968  1.00  0.00     0.000 C 
BRANCH   3   4
ATOM      4  C   UNL     1      26.786  14.038 -17.412  1.00  0.00     0.000 C 
BRANCH   4   5
ATOM      5  C   UNL     1      25.347  14.432 -17.813  1.00  0.00     0.000 C 
BRANCH   5   6
ATOM      6  C   UNL     1      24.306  13.974 -16.776  1.00  0.00     0.000 C 
BRANCH   6   7
ATOM      7  C   UNL     1      23.077  13.308 -17.433  1.00  0.00     0.000 C 
BRANCH   7   8
ATOM      8  C   UNL     1      21.986  14.302 -17.865  1.00  0.00     0.000 C 
BRANCH   8   9
ATOM      9  C   UNL     1      22.213  15.718 -17.309  1.00  0.00     0.000 C 
BRANCH   9  10
ATOM     10  C   UNL     1      21.993  16.809 -18.369  1.00  0.00     0.000 C 
BRANCH  10  11
ATOM     11  C   UNL     1      22.920  16.643 -19.584  1.00  0.00     0.000 C 
BRANCH  11  12
ATOM     12  C   UNL     1      23.934  17.792 -19.663  1.00  0.00     0.000 C 
BRANCH  12  13
ATOM     13  C   UNL     1      24.573  18.058 -18.290  1.00  0.00     0.006 C 
BRANCH  13  14
ATOM     14  C   UNL     1      26.075  18.354 -18.397  1.00  0.00     0.053 C 
BRANCH  14  15
ATOM     15  C   UNL     1      26.412  19.709 -17.856  1.00  0.00     0.041 C 
ATOM     16  O   UNL     1      26.050  20.036 -16.694  1.00  0.00    -0.550 OA
ATOM     17  O   UNL     1      27.088  20.626 -18.650  1.00  0.00    -0.550 OA
ENDBRANCH  14  15
ENDBRANCH  13  14
ENDBRANCH  12  13
ENDBRANCH  11  12
ENDBRANCH  10  11
ENDBRANCH   9  10
ENDBRANCH   8   9
ENDBRANCH   7   8
ENDBRANCH   6   7
ENDBRANCH   5   6
ENDBRANCH   4   5
ENDBRANCH   3   4
ENDBRANCH   2   3
ENDBRANCH   1   2
BRANCH   1  18
ATOM     18  C   UNL     1      29.760  13.511 -16.247  1.00  0.00     0.000 C 
BRANCH  18  19
ATOM     19  C   UNL     1      30.068  12.886 -17.619  1.00  0.00     0.000 C 
BRANCH  19  20
ATOM     20  C   UNL     1      31.072  13.717 -18.435  1.00  0.00     0.000 C 
BRANCH  20  21
ATOM     21  C   UNL     1      30.577  14.019 -19.858  1.00  0.00     0.000 C 
BRANCH  21  22
ATOM     22  C   UNL     1      29.217  14.726 -19.828  1.00  0.00     0.000 C 
BRANCH  22  23
ATOM     23  C   UNL     1      29.368  16.223 -20.125  1.00  0.00     0.000 C 
BRANCH  23  24
ATOM     24  C   UNL     1      29.431  17.038 -18.824  1.00  0.00    -0.000 C 
BRANCH  24  25
ATOM     25  C   UNL     1      30.819  17.648 -18.574  1.00  0.00    -0.000 C 
BRANCH  25  26
ATOM     26  C   UNL     1      31.681  17.699 -19.847  1.00  0.00    -0.000 C 
BRANCH  26  27
ATOM     27  C   UNL     1      33.011  16.959 -19.640  1.00  0.00    -0.000 C 
BRANCH  27  28
ATOM     28  C   UNL     1      33.875  17.577 -18.525  1.00  0.00    -0.000 C 
BRANCH  28  29
ATOM     29  C   UNL     1      34.806  16.587 -17.800  1.00  0.00    -0.000 C 
BRANCH  29  30
ATOM     30  C   UNL     1      34.306  15.138 -17.862  1.00  0.00    -0.000 C 
BRANCH  30  31
ATOM     31  C   UNL     1      33.995  14.603 -16.459  1.00  0.00    -0.003 C 
ATOM     32  C   UNL     1      34.975  13.505 -16.056  1.00  0.00     0.004 C 
ENDBRANCH  30  31
ENDBRANCH  29  30
ENDBRANCH  28  29
ENDBRANCH  27  28
ENDBRANCH  26  27
ENDBRANCH  25  26
ENDBRANCH  24  25
ENDBRANCH  23  24
ENDBRANCH  22  23
ENDBRANCH  21  22
ENDBRANCH  20  21
ENDBRANCH  19  20
ENDBRANCH  18  19
ENDBRANCH   1  18
TORSDOF 28
ENDMDL
MODEL 6
REMARK VINA RESULT:    -2.398      1.604      8.638
REMARK INTER + INTRA:         -10.952
REMARK INTER:                  -7.037
REMARK INTRA:                  -3.915
REMARK UNBOUND:                -4.629
REMARK SMILES CCCCCCCCCCCCCCCCCCCCCCCCCCCCCC(=O)[O-]
REMARK SMILES IDX 16 1 17 2 18 3 19 4 20 5 21 6 22 7 23 8 24 9 25 10 26 11
REMARK SMILES IDX 27 12 28 13 29 14 30 15 31 16 32 17 15 18 14 19 13 20 12 21
REMARK SMILES IDX 11 22 10 23 9 24 8 25 7 26 6 27 5 28 4 29 3 30 2 31 1 32
REMARK H PARENT
REMARK Flexibility Score: inf
ROOT
ATOM      1  C   UNL     1      28.633  15.928 -16.786  1.00  0.00     0.000 C 
ENDROOT
BRANCH   1   2
ATOM      2  C   UNL     1      28.996  15.191 -18.093  1.00  0.00     0.000 C 
BRANCH   2   3
ATOM      3  C   UNL     1      30.478  14.781 -18.136  1.00  0.00     0.000 C 
BRANCH   3   4
ATOM      4  C   UNL     1      30.685  13.266 -17.967  1.00  0.00     0.000 C 
BRANCH   4   5
ATOM      5  C   UNL     1      31.281  12.876 -16.597  1.00  0.00     0.000 C 
BRANCH   5   6
ATOM      6  C   UNL     1      32.386  13.847 -16.143  1.00  0.00     0.000 C 
BRANCH   6   7
ATOM      7  C   UNL     1      33.754  13.148 -15.984  1.00  0.00     0.000 C 
BRANCH   7   8
ATOM      8  C   UNL     1      34.893  13.823 -16.766  1.00  0.00     0.000 C 
BRANCH   8   9
ATOM      9  C   UNL     1      35.448  12.939 -17.896  1.00  0.00     0.000 C 
BRANCH   9  10
ATOM     10  C   UNL     1      35.239  13.560 -19.286  1.00  0.00     0.000 C 
BRANCH  10  11
ATOM     11  C   UNL     1      33.796  14.045 -19.503  1.00  0.00     0.000 C 
BRANCH  11  12
ATOM     12  C   UNL     1      33.774  15.447 -20.124  1.00  0.00     0.000 C 
BRANCH  12  13
ATOM     13  C   UNL     1      34.743  16.389 -19.392  1.00  0.00     0.006 C 
BRANCH  13  14
ATOM     14  C   UNL     1      34.122  16.987 -18.122  1.00  0.00     0.053 C 
BRANCH  14  15
ATOM     15  C   UNL     1      33.148  18.079 -18.444  1.00  0.00     0.041 C 
ATOM     16  O   UNL     1      33.514  19.285 -18.413  1.00  0.00    -0.550 OA
ATOM     17  O   UNL     1      31.827  17.768 -18.736  1.00  0.00    -0.550 OA
ENDBRANCH  14  15
ENDBRANCH  13  14
ENDBRANCH  12  13
ENDBRANCH  11  12
ENDBRANCH  10  11
ENDBRANCH   9  10
ENDBRANCH   8   9
ENDBRANCH   7   8
ENDBRANCH   6   7
ENDBRANCH   5   6
ENDBRANCH   4   5
ENDBRANCH   3   4
ENDBRANCH   2   3
ENDBRANCH   1   2
BRANCH   1  18
ATOM     18  C   UNL     1      28.571  15.007 -15.555  1.00  0.00     0.000 C 
BRANCH  18  19
ATOM     19  C   UNL     1      27.737  13.739 -15.802  1.00  0.00     0.000 C 
BRANCH  19  20
ATOM     20  C   UNL     1      26.224  14.012 -15.781  1.00  0.00     0.000 C 
BRANCH  20  21
ATOM     21  C   UNL     1      25.570  13.848 -17.160  1.00  0.00     0.000 C 
BRANCH  21  22
ATOM     22  C   UNL     1      26.399  12.919 -18.056  1.00  0.00     0.000 C 
BRANCH  22  23
ATOM     23  C   UNL     1      25.882  12.942 -19.500  1.00  0.00     0.000 C 
BRANCH  23  24
ATOM     24  C   UNL     1      25.024  14.190 -19.758  1.00  0.00    -0.000 C 
BRANCH  24  25
ATOM     25  C   UNL     1      23.518  13.906 -19.650  1.00  0.00    -0.000 C 
BRANCH  25  26
ATOM     26  C   UNL     1      22.711  15.143 -19.225  1.00  0.00    -0.000 C 
BRANCH  26  27
ATOM     27  C   UNL     1      23.307  16.423 -19.831  1.00  0.00    -0.000 C 
BRANCH  27  28
ATOM     28  C   UNL     1      24.022  17.304 -18.790  1.00  0.00    -0.000 C 
BRANCH  28  29
ATOM     29  C   UNL     1      25.093  18.250 -19.365  1.00  0.00    -0.000 C 
BRANCH  29  30
ATOM     30  C   UNL     1      26.525  17.761 -19.108  1.00  0.00    -0.000 C 
BRANCH  30  31
ATOM     31  C   UNL     1      27.337  18.814 -18.344  1.00  0.00    -0.003 C 
ATOM     32  C   UNL     1      26.433  19.691 -17.484  1.00  0.00     0.004 C 
ENDBRANCH  30  31
ENDBRANCH  29  30
ENDBRANCH  28  29
ENDBRANCH  27  28
ENDBRANCH  26  27
ENDBRANCH  25  26
ENDBRANCH  24  25
ENDBRANCH  23  24
ENDBRANCH  22  23
ENDBRANCH  21  22
ENDBRANCH  20  21
ENDBRANCH  19  20
ENDBRANCH  18  19
ENDBRANCH   1  18
TORSDOF 28
ENDMDL
MODEL 7
REMARK VINA RESULT:    -2.236      1.935      8.591
REMARK INTER + INTRA:         -10.526
REMARK INTER:                  -6.161
REMARK INTRA:                  -4.365
REMARK UNBOUND:                -4.629
REMARK SMILES CCCCCCCCCCCCCCCCCCCCCCCCCCCCCC(=O)[O-]
REMARK SMILES IDX 16 1 17 2 18 3 19 4 20 5 21 6 22 7 23 8 24 9 25 10 26 11
REMARK SMILES IDX 27 12 28 13 29 14 30 15 31 16 32 17 15 18 14 19 13 20 12 21
REMARK SMILES IDX 11 22 10 23 9 24 8 25 7 26 6 27 5 28 4 29 3 30 2 31 1 32
REMARK H PARENT
REMARK Flexibility Score: inf
ROOT
ATOM      1  C   UNL     1      28.627  17.325 -16.753  1.00  0.00     0.000 C 
ENDROOT
BRANCH   1   2
ATOM      2  C   UNL     1      28.903  17.165 -18.263  1.00  0.00     0.000 C 
BRANCH   2   3
ATOM      3  C   UNL     1      30.365  16.781 -18.549  1.00  0.00     0.000 C 
BRANCH   3   4
ATOM      4  C   UNL     1      30.588  16.319 -20.000  1.00  0.00     0.000 C 
BRANCH   4   5
ATOM      5  C   UNL     1      30.933  14.819 -20.122  1.00  0.00     0.000 C 
BRANCH   5   6
ATOM      6  C   UNL     1      30.107  13.950 -19.157  1.00  0.00     0.000 C 
BRANCH   6   7
ATOM      7  C   UNL     1      30.971  12.894 -18.433  1.00  0.00     0.000 C 
BRANCH   7   8
ATOM      8  C   UNL     1      31.097  13.124 -16.918  1.00  0.00     0.000 C 
BRANCH   8   9
ATOM      9  C   UNL     1      32.557  13.250 -16.452  1.00  0.00     0.000 C 
BRANCH   9  10
ATOM     10  C   UNL     1      33.110  14.673 -16.627  1.00  0.00     0.000 C 
BRANCH  10  11
ATOM     11  C   UNL     1      34.391  14.706 -17.477  1.00  0.00     0.000 C 
BRANCH  11  12
ATOM     12  C   UNL     1      34.059  14.871 -18.966  1.00  0.00     0.000 C 
BRANCH  12  13
ATOM     13  C   UNL     1      34.835  16.049 -19.575  1.00  0.00     0.006 C 
BRANCH  13  14
ATOM     14  C   UNL     1      33.973  17.312 -19.696  1.00  0.00     0.053 C 
BRANCH  14  15
ATOM     15  C   UNL     1      34.043  18.151 -18.458  1.00  0.00     0.041 C 
ATOM     16  O   UNL     1      33.211  19.080 -18.272  1.00  0.00    -0.550 OA
ATOM     17  O   UNL     1      35.053  17.936 -17.528  1.00  0.00    -0.550 OA
ENDBRANCH  14  15
ENDBRANCH  13  14
ENDBRANCH  12  13
ENDBRANCH  11  12
ENDBRANCH  10  11
ENDBRANCH   9  10
ENDBRANCH   8   9
ENDBRANCH   7   8
ENDBRANCH   6   7
ENDBRANCH   5   6
ENDBRANCH   4   5
ENDBRANCH   3   4
ENDBRANCH   2   3
ENDBRANCH   1   2
BRANCH   1  18
ATOM     18  C   UNL     1      28.818  16.027 -15.951  1.00  0.00     0.000 C 
BRANCH  18  19
ATOM     19  C   UNL     1      28.092  14.826 -16.580  1.00  0.00     0.000 C 
BRANCH  19  20
ATOM     20  C   UNL     1      26.706  14.580 -15.961  1.00  0.00     0.000 C 
BRANCH  20  21
ATOM     21  C   UNL     1      25.871  13.565 -16.755  1.00  0.00     0.000 C 
BRANCH  21  22
ATOM     22  C   UNL     1      26.586  13.156 -18.048  1.00  0.00     0.000 C 
BRANCH  22  23
ATOM     23  C   UNL     1      25.612  13.141 -19.234  1.00  0.00     0.000 C 
BRANCH  23  24
ATOM     24  C   UNL     1      24.308  13.873 -18.884  1.00  0.00    -0.000 C 
BRANCH  24  25
ATOM     25  C   UNL     1      23.462  14.200 -20.124  1.00  0.00    -0.000 C 
BRANCH  25  26
ATOM     26  C   UNL     1      22.206  15.020 -19.785  1.00  0.00    -0.000 C 
BRANCH  26  27
ATOM     27  C   UNL     1      22.525  16.109 -18.749  1.00  0.00    -0.000 C 
BRANCH  27  28
ATOM     28  C   UNL     1      22.375  17.535 -19.311  1.00  0.00    -0.000 C 
BRANCH  28  29
ATOM     29  C   UNL     1      23.660  18.135 -19.912  1.00  0.00    -0.000 C 
BRANCH  29  30
ATOM     30  C   UNL     1      24.939  17.541 -19.306  1.00  0.00    -0.000 C 
BRANCH  30  31
ATOM     31  C   UNL     1      25.510  18.459 -18.218  1.00  0.00    -0.003 C 
ATOM     32  C   UNL     1      26.375  19.561 -18.823  1.00  0.00     0.004 C 
ENDBRANCH  30  31
ENDBRANCH  29  30
ENDBRANCH  28  29
ENDBRANCH  27  28
ENDBRANCH  26  27
ENDBRANCH  25  26
ENDBRANCH  24  25
ENDBRANCH  23  24
ENDBRANCH  22  23
ENDBRANCH  21  22
ENDBRANCH  20  21
ENDBRANCH  19  20
ENDBRANCH  18  19
ENDBRANCH   1  18
TORSDOF 28
ENDMDL
MODEL 8
REMARK VINA RESULT:    -2.184      1.728      8.749
REMARK INTER + INTRA:         -10.387
REMARK INTER:                  -6.549
REMARK INTRA:                  -3.838
REMARK UNBOUND:                -4.629
REMARK SMILES CCCCCCCCCCCCCCCCCCCCCCCCCCCCCC(=O)[O-]
REMARK SMILES IDX 16 1 17 2 18 3 19 4 20 5 21 6 22 7 23 8 24 9 25 10 26 11
REMARK SMILES IDX 27 12 28 13 29 14 30 15 31 16 32 17 15 18 14 19 13 20 12 21
REMARK SMILES IDX 11 22 10 23 9 24 8 25 7 26 6 27 5 28 4 29 3 30 2 31 1 32
REMARK H PARENT
REMARK Flexibility Score: inf
ROOT
ATOM      1  C   UNL     1      29.090  17.742 -17.708  1.00  0.00     0.000 C 
ENDROOT
BRANCH   1   2
ATOM      2  C   UNL     1      29.671  17.643 -19.134  1.00  0.00     0.000 C 
BRANCH   2   3
ATOM      3  C   UNL     1      31.177  17.328 -19.127  1.00  0.00     0.000 C 
BRANCH   3   4
ATOM      4  C   UNL     1      31.525  16.057 -19.922  1.00  0.00     0.000 C 
BRANCH   4   5
ATOM      5  C   UNL     1      32.970  15.562 -19.689  1.00  0.00     0.000 C 
BRANCH   5   6
ATOM      6  C   UNL     1      33.946  16.720 -19.415  1.00  0.00     0.000 C 
BRANCH   6   7
ATOM      7  C   UNL     1      34.630  16.597 -18.036  1.00  0.00     0.000 C 
BRANCH   7   8
ATOM      8  C   UNL     1      33.992  15.543 -17.115  1.00  0.00     0.000 C 
BRANCH   8   9
ATOM      9  C   UNL     1      35.030  14.624 -16.450  1.00  0.00     0.000 C 
BRANCH   9  10
ATOM     10  C   UNL     1      34.777  13.137 -16.750  1.00  0.00     0.000 C 
BRANCH  10  11
ATOM     11  C   UNL     1      33.360  12.878 -17.285  1.00  0.00     0.000 C 
BRANCH  11  12
ATOM     12  C   UNL     1      32.318  13.000 -16.165  1.00  0.00     0.000 C 
BRANCH  12  13
ATOM     13  C   UNL     1      30.936  13.355 -16.736  1.00  0.00     0.006 C 
BRANCH  13  14
ATOM     14  C   UNL     1      30.473  14.754 -16.310  1.00  0.00     0.053 C 
BRANCH  14  15
ATOM     15  C   UNL     1      29.188  14.703 -15.543  1.00  0.00     0.041 C 
ATOM     16  O   UNL     1      28.617  13.599 -15.335  1.00  0.00    -0.550 OA
ATOM     17  O   UNL     1      28.599  15.878 -15.093  1.00  0.00    -0.550 OA
ENDBRANCH  14  15
ENDBRANCH  13  14
ENDBRANCH  12  13
ENDBRANCH  11  12
ENDBRANCH  10  11
ENDBRANCH   9  10
ENDBRANCH   8   9
ENDBRANCH   7   8
ENDBRANCH   6   7
ENDBRANCH   5   6
ENDBRANCH   4   5
ENDBRANCH   3   4
ENDBRANCH   2   3
ENDBRANCH   1   2
BRANCH   1  18
ATOM     18  C   UNL     1      28.153  18.946 -17.507  1.00  0.00     0.000 C 
BRANCH  18  19
ATOM     19  C   UNL     1      26.676  18.599 -17.759  1.00  0.00     0.000 C 
BRANCH  19  20
ATOM     20  C   UNL     1      26.033  19.494 -18.832  1.00  0.00     0.000 C 
BRANCH  20  21
ATOM     21  C   UNL     1      25.707  18.733 -20.125  1.00  0.00     0.000 C 
BRANCH  21  22
ATOM     22  C   UNL     1      24.923  17.449 -19.824  1.00  0.00     0.000 C 
BRANCH  22  23
ATOM     23  C   UNL     1      23.412  17.710 -19.844  1.00  0.00     0.000 C 
BRANCH  23  24
ATOM     24  C   UNL     1      22.743  17.167 -18.573  1.00  0.00    -0.000 C 
BRANCH  24  25
ATOM     25  C   UNL     1      23.402  15.875 -18.063  1.00  0.00    -0.000 C 
BRANCH  25  26
ATOM     26  C   UNL     1      22.464  15.043 -17.173  1.00  0.00    -0.000 C 
BRANCH  26  27
ATOM     27  C   UNL     1      22.249  13.641 -17.762  1.00  0.00    -0.000 C 
BRANCH  27  28
ATOM     28  C   UNL     1      23.188  13.335 -18.943  1.00  0.00    -0.000 C 
BRANCH  28  29
ATOM     29  C   UNL     1      24.615  12.912 -18.546  1.00  0.00    -0.000 C 
BRANCH  29  30
ATOM     30  C   UNL     1      25.702  13.649 -19.340  1.00  0.00    -0.000 C 
BRANCH  30  31
ATOM     31  C   UNL     1      26.780  14.211 -18.405  1.00  0.00    -0.003 C 
ATOM     32  C   UNL     1      28.139  14.265 -19.098  1.00  0.00     0.004 C 
ENDBRANCH  30  31
ENDBRANCH  29  30
ENDBRANCH  28  29
ENDBRANCH  27  28
ENDBRANCH  26  27
ENDBRANCH  25  26
ENDBRANCH  24  25
ENDBRANCH  23  24
ENDBRANCH  22  23
ENDBRANCH  21  22
ENDBRANCH  20  21
ENDBRANCH  19  20
ENDBRANCH  18  19
ENDBRANCH   1  18
TORSDOF 28
ENDMDL
