MODEL 1
REMARK VINA RESULT:    -3.205      0.000      0.000
REMARK INTER + INTRA:          -9.660
REMARK INTER:                  -6.951
REMARK INTRA:                  -2.708
REMARK UNBOUND:                -2.708
REMARK SMILES CCCCCCCCCCCCCCCCCCCCCC(=O)[O-]
REMARK SMILES IDX 12 1 11 2 10 3 9 4 8 5 7 6 6 7 5 8 4 9 3 10 2 11 1 12 13 13
REMARK SMILES IDX 14 14 15 15 16 16 17 17 18 18 19 19 20 20 21 21 22 22 23 23
REMARK SMILES IDX 24 24
REMARK H PARENT
REMARK Flexibility Score: inf
ROOT
ATOM      1  C   UNL     1      10.456 -30.568  13.706  1.00  0.00     0.000 C 
ENDROOT
BRANCH   1   2
ATOM      2  C   UNL     1      10.272 -29.190  13.049  1.00  0.00     0.000 C 
BRANCH   2   3
ATOM      3  C   UNL     1       9.173 -29.184  11.973  1.00  0.00     0.000 C 
BRANCH   3   4
ATOM      4  C   UNL     1       8.122 -30.300  12.157  1.00  0.00    -0.000 C 
BRANCH   4   5
ATOM      5  C   UNL     1       6.864 -29.804  12.892  1.00  0.00    -0.000 C 
BRANCH   5   6
ATOM      6  C   UNL     1       6.251 -30.892  13.801  1.00  0.00    -0.000 C 
BRANCH   6   7
ATOM      7  C   UNL     1       6.333 -30.562  15.301  1.00  0.00    -0.000 C 
BRANCH   7   8
ATOM      8  C   UNL     1       7.400 -29.502  15.621  1.00  0.00    -0.000 C 
BRANCH   8   9
ATOM      9  C   UNL     1       8.347 -29.940  16.750  1.00  0.00    -0.000 C 
BRANCH   9  10
ATOM     10  C   UNL     1       7.876 -29.467  18.135  1.00  0.00    -0.000 C 
BRANCH  10  11
ATOM     11  C   UNL     1       8.972 -28.662  18.841  1.00  0.00    -0.003 C 
ATOM     12  C   UNL     1      10.055 -28.226  17.860  1.00  0.00     0.004 C 
ENDBRANCH  10  11
ENDBRANCH   9  10
ENDBRANCH   8   9
ENDBRANCH   7   8
ENDBRANCH   6   7
ENDBRANCH   5   6
ENDBRANCH   4   5
ENDBRANCH   3   4
ENDBRANCH   2   3
ENDBRANCH   1   2
BRANCH   1  13
ATOM     13  C   UNL     1      11.271 -31.537  12.834  1.00  0.00     0.000 C 
BRANCH  13  14
ATOM     14  C   UNL     1      11.111 -33.003  13.275  1.00  0.00     0.000 C 
BRANCH  14  15
ATOM     15  C   UNL     1       9.967 -33.717  12.538  1.00  0.00     0.000 C 
BRANCH  15  16
ATOM     16  C   UNL     1       8.688 -33.818  13.387  1.00  0.00     0.000 C 
BRANCH  16  17
ATOM     17  C   UNL     1       7.443 -34.162  12.551  1.00  0.00     0.000 C 
BRANCH  17  18
ATOM     18  C   UNL     1       6.232 -34.602  13.402  1.00  0.00     0.000 C 
BRANCH  18  19
ATOM     19  C   UNL     1       6.644 -35.021  14.825  1.00  0.00     0.000 C 
BRANCH  19  20
ATOM     20  C   UNL     1       5.875 -34.255  15.913  1.00  0.00     0.006 C 
BRANCH  20  21
ATOM     21  C   UNL     1       6.174 -34.774  17.325  1.00  0.00     0.053 C 
BRANCH  21  22
ATOM     22  C   UNL     1       7.311 -34.014  17.931  1.00  0.00     0.041 C 
ATOM     23  O   UNL     1       7.740 -34.318  19.076  1.00  0.00    -0.550 OA
ATOM     24  O   UNL     1       7.867 -32.936  17.253  1.00  0.00    -0.550 OA
ENDBRANCH  21  22
ENDBRANCH  20  21
ENDBRANCH  19  20
ENDBRANCH  18  19
ENDBRANCH  17  18
ENDBRANCH  16  17
ENDBRANCH  15  16
ENDBRANCH  14  15
ENDBRANCH  13  14
ENDBRANCH   1  13
TORSDOF 20
ENDMDL
MODEL 2
REMARK VINA RESULT:    -3.052      1.272      4.984
REMARK INTER + INTRA:          -9.330
REMARK INTER:                  -6.733
REMARK INTRA:                  -2.596
REMARK UNBOUND:                -2.708
REMARK SMILES CCCCCCCCCCCCCCCCCCCCCC(=O)[O-]
REMARK SMILES IDX 12 1 11 2 10 3 9 4 8 5 7 6 6 7 5 8 4 9 3 10 2 11 1 12 13 13
REMARK SMILES IDX 14 14 15 15 16 16 17 17 18 18 19 19 20 20 21 21 22 22 23 23
REMARK SMILES IDX 24 24
REMARK H PARENT
REMARK Flexibility Score: inf
ROOT
ATOM      1  C   UNL     1      10.284 -29.494  13.684  1.00  0.00     0.000 C 
ENDROOT
BRANCH   1   2
ATOM      2  C   UNL     1       9.720 -29.288  12.268  1.00  0.00     0.000 C 
BRANCH   2   3
ATOM      3  C   UNL     1       8.448 -30.112  12.007  1.00  0.00     0.000 C 
BRANCH   3   4
ATOM      4  C   UNL     1       7.205 -29.585  12.758  1.00  0.00    -0.000 C 
BRANCH   4   5
ATOM      5  C   UNL     1       6.379 -30.719  13.388  1.00  0.00    -0.000 C 
BRANCH   5   6
ATOM      6  C   UNL     1       7.009 -32.108  13.143  1.00  0.00    -0.000 C 
BRANCH   6   7
ATOM      7  C   UNL     1       5.976 -33.237  12.985  1.00  0.00    -0.000 C 
BRANCH   7   8
ATOM      8  C   UNL     1       6.624 -34.598  12.686  1.00  0.00    -0.000 C 
BRANCH   8   9
ATOM      9  C   UNL     1       7.928 -34.468  11.881  1.00  0.00    -0.000 C 
BRANCH   9  10
ATOM     10  C   UNL     1       9.175 -34.803  12.715  1.00  0.00    -0.000 C 
BRANCH  10  11
ATOM     11  C   UNL     1      10.288 -33.779  12.470  1.00  0.00    -0.003 C 
ATOM     12  C   UNL     1      10.997 -33.413  13.770  1.00  0.00     0.004 C 
ENDBRANCH  10  11
ENDBRANCH   9  10
ENDBRANCH   8   9
ENDBRANCH   7   8
ENDBRANCH   6   7
ENDBRANCH   5   6
ENDBRANCH   4   5
ENDBRANCH   3   4
ENDBRANCH   2   3
ENDBRANCH   1   2
BRANCH   1  13
ATOM     13  C   UNL     1      11.414 -28.508  14.023  1.00  0.00     0.000 C 
BRANCH  13  14
ATOM     14  C   UNL     1      11.558 -28.274  15.537  1.00  0.00     0.000 C 
BRANCH  14  15
ATOM     15  C   UNL     1      10.322 -28.739  16.324  1.00  0.00     0.000 C 
BRANCH  15  16
ATOM     16  C   UNL     1      10.046 -27.868  17.562  1.00  0.00     0.000 C 
BRANCH  16  17
ATOM     17  C   UNL     1       9.123 -28.556  18.582  1.00  0.00     0.000 C 
BRANCH  17  18
ATOM     18  C   UNL     1       8.561 -29.907  18.090  1.00  0.00     0.000 C 
BRANCH  18  19
ATOM     19  C   UNL     1       7.026 -29.889  17.969  1.00  0.00     0.000 C 
BRANCH  19  20
ATOM     20  C   UNL     1       6.492 -30.992  17.042  1.00  0.00     0.006 C 
BRANCH  20  21
ATOM     21  C   UNL     1       7.552 -32.050  16.710  1.00  0.00     0.053 C 
BRANCH  21  22
ATOM     22  C   UNL     1       7.120 -33.394  17.204  1.00  0.00     0.041 C 
ATOM     23  O   UNL     1       6.316 -34.089  16.530  1.00  0.00    -0.550 OA
ATOM     24  O   UNL     1       7.569 -33.860  18.434  1.00  0.00    -0.550 OA
ENDBRANCH  21  22
ENDBRANCH  20  21
ENDBRANCH  19  20
ENDBRANCH  18  19
ENDBRANCH  17  18
ENDBRANCH  16  17
ENDBRANCH  15  16
ENDBRANCH  14  15
ENDBRANCH  13  14
ENDBRANCH   1  13
TORSDOF 20
ENDMDL
MODEL 3
REMARK VINA RESULT:    -3.027      2.185      5.673
REMARK INTER + INTRA:          -9.275
REMARK INTER:                  -6.989
REMARK INTRA:                  -2.286
REMARK UNBOUND:                -2.708
REMARK SMILES CCCCCCCCCCCCCCCCCCCCCC(=O)[O-]
REMARK SMILES IDX 12 1 11 2 10 3 9 4 8 5 7 6 6 7 5 8 4 9 3 10 2 11 1 12 13 13
REMARK SMILES IDX 14 14 15 15 16 16 17 17 18 18 19 19 20 20 21 21 22 22 23 23
REMARK SMILES IDX 24 24
REMARK H PARENT
REMARK Flexibility Score: inf
ROOT
ATOM      1  C   UNL     1       7.934 -29.932  18.316  1.00  0.00     0.000 C 
ENDROOT
BRANCH   1   2
ATOM      2  C   UNL     1       8.607 -28.571  18.559  1.00  0.00     0.000 C 
BRANCH   2   3
ATOM      3  C   UNL     1       9.987 -28.460  17.889  1.00  0.00     0.000 C 
BRANCH   3   4
ATOM      4  C   UNL     1       9.957 -28.711  16.366  1.00  0.00    -0.000 C 
BRANCH   4   5
ATOM      5  C   UNL     1      11.253 -28.255  15.673  1.00  0.00    -0.000 C 
BRANCH   5   6
ATOM      6  C   UNL     1      11.320 -28.714  14.200  1.00  0.00    -0.000 C 
BRANCH   6   7
ATOM      7  C   UNL     1      10.276 -29.783  13.836  1.00  0.00    -0.000 C 
BRANCH   7   8
ATOM      8  C   UNL     1      10.316 -30.174  12.351  1.00  0.00    -0.000 C 
BRANCH   8   9
ATOM      9  C   UNL     1      11.344 -31.280  12.059  1.00  0.00    -0.000 C 
BRANCH   9  10
ATOM     10  C   UNL     1      10.738 -32.690  12.145  1.00  0.00    -0.000 C 
BRANCH  10  11
ATOM     11  C   UNL     1      11.835 -33.751  12.280  1.00  0.00    -0.003 C 
ATOM     12  C   UNL     1      11.949 -34.248  13.717  1.00  0.00     0.004 C 
ENDBRANCH  10  11
ENDBRANCH   9  10
ENDBRANCH   8   9
ENDBRANCH   7   8
ENDBRANCH   6   7
ENDBRANCH   5   6
ENDBRANCH   4   5
ENDBRANCH   3   4
ENDBRANCH   2   3
ENDBRANCH   1   2
BRANCH   1  13
ATOM     13  C   UNL     1       6.810 -29.860  17.269  1.00  0.00     0.000 C 
BRANCH  13  14
ATOM     14  C   UNL     1       6.237 -31.246  16.924  1.00  0.00     0.000 C 
BRANCH  14  15
ATOM     15  C   UNL     1       7.253 -32.377  17.155  1.00  0.00     0.000 C 
BRANCH  15  16
ATOM     16  C   UNL     1       8.577 -32.146  16.407  1.00  0.00     0.000 C 
BRANCH  16  17
ATOM     17  C   UNL     1       8.584 -32.768  15.001  1.00  0.00     0.000 C 
BRANCH  17  18
ATOM     18  C   UNL     1       7.305 -33.569  14.675  1.00  0.00     0.000 C 
BRANCH  18  19
ATOM     19  C   UNL     1       7.122 -33.781  13.161  1.00  0.00     0.000 C 
BRANCH  19  20
ATOM     20  C   UNL     1       6.208 -32.724  12.521  1.00  0.00     0.006 C 
BRANCH  20  21
ATOM     21  C   UNL     1       6.994 -31.576  11.875  1.00  0.00     0.053 C 
BRANCH  21  22
ATOM     22  C   UNL     1       6.695 -30.284  12.567  1.00  0.00     0.041 C 
ATOM     23  O   UNL     1       6.222 -30.284  13.734  1.00  0.00    -0.550 OA
ATOM     24  O   UNL     1       6.893 -29.079  11.904  1.00  0.00    -0.550 OA
ENDBRANCH  21  22
ENDBRANCH  20  21
ENDBRANCH  19  20
ENDBRANCH  18  19
ENDBRANCH  17  18
ENDBRANCH  16  17
ENDBRANCH  15  16
ENDBRANCH  14  15
ENDBRANCH  13  14
ENDBRANCH   1  13
TORSDOF 20
ENDMDL
MODEL 4
REMARK VINA RESULT:    -2.971      1.421      5.095
REMARK INTER + INTRA:          -9.152
REMARK INTER:                  -6.668
REMARK INTRA:                  -2.484
REMARK UNBOUND:                -2.708
REMARK SMILES CCCCCCCCCCCCCCCCCCCCCC(=O)[O-]
REMARK SMILES IDX 12 1 11 2 10 3 9 4 8 5 7 6 6 7 5 8 4 9 3 10 2 11 1 12 13 13
REMARK SMILES IDX 14 14 15 15 16 16 17 17 18 18 19 19 20 20 21 21 22 22 23 23
REMARK SMILES IDX 24 24
REMARK H PARENT
REMARK Flexibility Score: inf
ROOT
ATOM      1  C   UNL     1       9.936 -29.113  15.949  1.00  0.00     0.000 C 
ENDROOT
BRANCH   1   2
ATOM      2  C   UNL     1      10.936 -28.900  14.801  1.00  0.00     0.000 C 
BRANCH   2   3
ATOM      3  C   UNL     1      10.461 -29.519  13.475  1.00  0.00     0.000 C 
BRANCH   3   4
ATOM      4  C   UNL     1       8.965 -29.276  13.180  1.00  0.00    -0.000 C 
BRANCH   4   5
ATOM      5  C   UNL     1       8.386 -30.317  12.206  1.00  0.00    -0.000 C 
BRANCH   5   6
ATOM      6  C   UNL     1       9.270 -31.579  12.104  1.00  0.00    -0.000 C 
BRANCH   6   7
ATOM      7  C   UNL     1       9.022 -32.600  13.228  1.00  0.00    -0.000 C 
BRANCH   7   8
ATOM      8  C   UNL     1       8.122 -33.765  12.785  1.00  0.00    -0.000 C 
BRANCH   8   9
ATOM      9  C   UNL     1       8.867 -35.110  12.759  1.00  0.00    -0.000 C 
BRANCH   9  10
ATOM     10  C   UNL     1      10.303 -35.003  13.299  1.00  0.00    -0.000 C 
BRANCH  10  11
ATOM     11  C   UNL     1      11.324 -35.104  12.161  1.00  0.00    -0.003 C 
ATOM     12  C   UNL     1      12.265 -33.904  12.154  1.00  0.00     0.004 C 
ENDBRANCH  10  11
ENDBRANCH   9  10
ENDBRANCH   8   9
ENDBRANCH   7   8
ENDBRANCH   6   7
ENDBRANCH   5   6
ENDBRANCH   4   5
ENDBRANCH   3   4
ENDBRANCH   2   3
ENDBRANCH   1   2
BRANCH   1  13
ATOM     13  C   UNL     1      10.167 -28.149  17.125  1.00  0.00     0.000 C 
BRANCH  13  14
ATOM     14  C   UNL     1       9.178 -28.381  18.280  1.00  0.00     0.000 C 
BRANCH  14  15
ATOM     15  C   UNL     1       8.284 -29.611  18.052  1.00  0.00     0.000 C 
BRANCH  15  16
ATOM     16  C   UNL     1       6.790 -29.303  18.253  1.00  0.00     0.000 C 
BRANCH  16  17
ATOM     17  C   UNL     1       5.943 -29.617  17.008  1.00  0.00     0.000 C 
BRANCH  17  18
ATOM     18  C   UNL     1       6.773 -30.138  15.815  1.00  0.00     0.000 C 
BRANCH  18  19
ATOM     19  C   UNL     1       6.006 -31.187  14.989  1.00  0.00     0.000 C 
BRANCH  19  20
ATOM     20  C   UNL     1       5.875 -32.534  15.716  1.00  0.00     0.006 C 
BRANCH  20  21
ATOM     21  C   UNL     1       6.969 -32.745  16.770  1.00  0.00     0.053 C 
BRANCH  21  22
ATOM     22  C   UNL     1       6.779 -34.057  17.465  1.00  0.00     0.041 C 
ATOM     23  O   UNL     1       5.876 -34.849  17.088  1.00  0.00    -0.550 OA
ATOM     24  O   UNL     1       7.568 -34.384  18.560  1.00  0.00    -0.550 OA
ENDBRANCH  21  22
ENDBRANCH  20  21
ENDBRANCH  19  20
ENDBRANCH  18  19
ENDBRANCH  17  18
ENDBRANCH  16  17
ENDBRANCH  15  16
ENDBRANCH  14  15
ENDBRANCH  13  14
ENDBRANCH   1  13
TORSDOF 20
ENDMDL
MODEL 5
REMARK VINA RESULT:    -2.946      1.559      5.144
REMARK INTER + INTRA:          -9.099
REMARK INTER:                  -6.299
REMARK INTRA:                  -2.800
REMARK UNBOUND:                -2.708
REMARK SMILES CCCCCCCCCCCCCCCCCCCCCC(=O)[O-]
REMARK SMILES IDX 12 1 11 2 10 3 9 4 8 5 7 6 6 7 5 8 4 9 3 10 2 11 1 12 13 13
REMARK SMILES IDX 14 14 15 15 16 16 17 17 18 18 19 19 20 20 21 21 22 22 23 23
REMARK SMILES IDX 24 24
REMARK H PARENT
REMARK Flexibility Score: inf
ROOT
ATOM      1  C   UNL     1      10.947 -30.634  13.326  1.00  0.00     0.000 C 
ENDROOT
BRANCH   1   2
ATOM      2  C   UNL     1      10.962 -31.548  12.090  1.00  0.00     0.000 C 
BRANCH   2   3
ATOM      3  C   UNL     1      11.871 -32.777  12.267  1.00  0.00     0.000 C 
BRANCH   3   4
ATOM      4  C   UNL     1      11.652 -33.520  13.603  1.00  0.00    -0.000 C 
BRANCH   4   5
ATOM      5  C   UNL     1      11.118 -34.948  13.397  1.00  0.00    -0.000 C 
BRANCH   5   6
ATOM      6  C   UNL     1       9.705 -34.960  12.773  1.00  0.00    -0.000 C 
BRANCH   6   7
ATOM      7  C   UNL     1       8.641 -34.265  13.640  1.00  0.00    -0.000 C 
BRANCH   7   8
ATOM      8  C   UNL     1       7.391 -33.865  12.840  1.00  0.00    -0.000 C 
BRANCH   8   9
ATOM      9  C   UNL     1       7.423 -32.396  12.389  1.00  0.00    -0.000 C 
BRANCH   9  10
ATOM     10  C   UNL     1       7.524 -31.416  13.569  1.00  0.00    -0.000 C 
BRANCH  10  11
ATOM     11  C   UNL     1       6.729 -30.136  13.287  1.00  0.00    -0.003 C 
ATOM     12  C   UNL     1       7.042 -29.587  11.899  1.00  0.00     0.004 C 
ENDBRANCH  10  11
ENDBRANCH   9  10
ENDBRANCH   8   9
ENDBRANCH   7   8
ENDBRANCH   6   7
ENDBRANCH   5   6
ENDBRANCH   4   5
ENDBRANCH   3   4
ENDBRANCH   2   3
ENDBRANCH   1   2
BRANCH   1  13
ATOM     13  C   UNL     1      10.424 -29.222  13.015  1.00  0.00     0.000 C 
BRANCH  13  14
ATOM     14  C   UNL     1      11.251 -28.123  13.704  1.00  0.00     0.000 C 
BRANCH  14  15
ATOM     15  C   UNL     1      11.630 -28.488  15.148  1.00  0.00     0.000 C 
BRANCH  15  16
ATOM     16  C   UNL     1      10.608 -27.973  16.177  1.00  0.00     0.000 C 
BRANCH  16  17
ATOM     17  C   UNL     1       9.526 -29.012  16.515  1.00  0.00     0.000 C 
BRANCH  17  18
ATOM     18  C   UNL     1       9.279 -29.174  18.030  1.00  0.00     0.000 C 
BRANCH  18  19
ATOM     19  C   UNL     1       7.802 -28.956  18.404  1.00  0.00     0.000 C 
BRANCH  19  20
ATOM     20  C   UNL     1       7.020 -30.273  18.526  1.00  0.00     0.006 C 
BRANCH  20  21
ATOM     21  C   UNL     1       6.643 -30.864  17.162  1.00  0.00     0.053 C 
BRANCH  21  22
ATOM     22  C   UNL     1       7.198 -32.246  17.020  1.00  0.00     0.041 C 
ATOM     23  O   UNL     1       8.440 -32.442  17.095  1.00  0.00    -0.550 OA
ATOM     24  O   UNL     1       6.348 -33.313  16.758  1.00  0.00    -0.550 OA
ENDBRANCH  21  22
ENDBRANCH  20  21
ENDBRANCH  19  20
ENDBRANCH  18  19
ENDBRANCH  17  18
ENDBRANCH  16  17
ENDBRANCH  15  16
ENDBRANCH  14  15
ENDBRANCH  13  14
ENDBRANCH   1  13
TORSDOF 20
ENDMDL
MODEL 6
REMARK VINA RESULT:    -2.862      1.734      4.151
REMARK INTER + INTRA:          -8.916
REMARK INTER:                  -5.922
REMARK INTRA:                  -2.993
REMARK UNBOUND:                -2.708
REMARK SMILES CCCCCCCCCCCCCCCCCCCCCC(=O)[O-]
REMARK SMILES IDX 12 1 11 2 10 3 9 4 8 5 7 6 6 7 5 8 4 9 3 10 2 11 1 12 13 13
REMARK SMILES IDX 14 14 15 15 16 16 17 17 18 18 19 19 20 20 21 21 22 22 23 23
REMARK SMILES IDX 24 24
REMARK H PARENT
REMARK Flexibility Score: inf
ROOT
ATOM      1  C   UNL     1       7.844 -30.752  16.227  1.00  0.00     0.000 C 
ENDROOT
BRANCH   1   2
ATOM      2  C   UNL     1       6.702 -30.208  15.352  1.00  0.00     0.000 C 
BRANCH   2   3
ATOM      3  C   UNL     1       6.651 -30.865  13.962  1.00  0.00     0.000 C 
BRANCH   3   4
ATOM      4  C   UNL     1       6.672 -29.851  12.798  1.00  0.00    -0.000 C 
BRANCH   4   5
ATOM      5  C   UNL     1       7.893 -30.038  11.881  1.00  0.00    -0.000 C 
BRANCH   5   6
ATOM      6  C   UNL     1       9.057 -29.096  12.259  1.00  0.00    -0.000 C 
BRANCH   6   7
ATOM      7  C   UNL     1      10.363 -29.833  12.602  1.00  0.00    -0.000 C 
BRANCH   7   8
ATOM      8  C   UNL     1      11.112 -29.198  13.785  1.00  0.00    -0.000 C 
BRANCH   8   9
ATOM      9  C   UNL     1      10.233 -29.073  15.041  1.00  0.00    -0.000 C 
BRANCH   9  10
ATOM     10  C   UNL     1      10.958 -28.378  16.204  1.00  0.00    -0.000 C 
BRANCH  10  11
ATOM     11  C   UNL     1       9.955 -27.747  17.176  1.00  0.00    -0.003 C 
ATOM     12  C   UNL     1       9.748 -28.626  18.405  1.00  0.00     0.004 C 
ENDBRANCH  10  11
ENDBRANCH   9  10
ENDBRANCH   8   9
ENDBRANCH   7   8
ENDBRANCH   6   7
ENDBRANCH   5   6
ENDBRANCH   4   5
ENDBRANCH   3   4
ENDBRANCH   2   3
ENDBRANCH   1   2
BRANCH   1  13
ATOM     13  C   UNL     1       7.362 -31.217  17.611  1.00  0.00     0.000 C 
BRANCH  13  14
ATOM     14  C   UNL     1       7.372 -32.749  17.754  1.00  0.00     0.000 C 
BRANCH  14  15
ATOM     15  C   UNL     1       7.354 -33.467  16.395  1.00  0.00     0.000 C 
BRANCH  15  16
ATOM     16  C   UNL     1       5.977 -34.067  16.061  1.00  0.00     0.000 C 
BRANCH  16  17
ATOM     17  C   UNL     1       5.875 -34.552  14.605  1.00  0.00     0.000 C 
BRANCH  17  18
ATOM     18  C   UNL     1       7.247 -34.747  13.924  1.00  0.00     0.000 C 
BRANCH  18  19
ATOM     19  C   UNL     1       7.258 -34.219  12.478  1.00  0.00     0.000 C 
BRANCH  19  20
ATOM     20  C   UNL     1       8.579 -33.527  12.109  1.00  0.00     0.006 C 
BRANCH  20  21
ATOM     21  C   UNL     1       9.809 -34.309  12.588  1.00  0.00     0.053 C 
BRANCH  21  22
ATOM     22  C   UNL     1      10.712 -33.424  13.387  1.00  0.00     0.041 C 
ATOM     23  O   UNL     1      11.924 -33.301  13.070  1.00  0.00    -0.550 OA
ATOM     24  O   UNL     1      10.227 -32.771  14.514  1.00  0.00    -0.550 OA
ENDBRANCH  21  22
ENDBRANCH  20  21
ENDBRANCH  19  20
ENDBRANCH  18  19
ENDBRANCH  17  18
ENDBRANCH  16  17
ENDBRANCH  15  16
ENDBRANCH  14  15
ENDBRANCH  13  14
ENDBRANCH   1  13
TORSDOF 20
ENDMDL
MODEL 7
REMARK VINA RESULT:    -2.853      1.818      5.395
REMARK INTER + INTRA:          -8.898
REMARK INTER:                  -6.183
REMARK INTRA:                  -2.715
REMARK UNBOUND:                -2.708
REMARK SMILES CCCCCCCCCCCCCCCCCCCCCC(=O)[O-]
REMARK SMILES IDX 12 1 11 2 10 3 9 4 8 5 7 6 6 7 5 8 4 9 3 10 2 11 1 12 13 13
REMARK SMILES IDX 14 14 15 15 16 16 17 17 18 18 19 19 20 20 21 21 22 22 23 23
REMARK SMILES IDX 24 24
REMARK H PARENT
REMARK Flexibility Score: inf
ROOT
ATOM      1  C   UNL     1       8.073 -33.961  13.242  1.00  0.00     0.000 C 
ENDROOT
BRANCH   1   2
ATOM      2  C   UNL     1       8.912 -34.051  11.957  1.00  0.00     0.000 C 
BRANCH   2   3
ATOM      3  C   UNL     1      10.013 -35.122  12.037  1.00  0.00     0.000 C 
BRANCH   3   4
ATOM      4  C   UNL     1      11.015 -34.893  13.190  1.00  0.00    -0.000 C 
BRANCH   4   5
ATOM      5  C   UNL     1      12.260 -34.112  12.737  1.00  0.00    -0.000 C 
BRANCH   5   6
ATOM      6  C   UNL     1      11.897 -32.882  11.876  1.00  0.00    -0.000 C 
BRANCH   6   7
ATOM      7  C   UNL     1      11.826 -31.568  12.672  1.00  0.00    -0.000 C 
BRANCH   7   8
ATOM      8  C   UNL     1      10.385 -31.152  13.007  1.00  0.00    -0.000 C 
BRANCH   8   9
ATOM      9  C   UNL     1      10.110 -29.672  12.693  1.00  0.00    -0.000 C 
BRANCH   9  10
ATOM     10  C   UNL     1       8.625 -29.303  12.833  1.00  0.00    -0.000 C 
BRANCH  10  11
ATOM     11  C   UNL     1       7.728 -30.469  12.403  1.00  0.00    -0.003 C 
ATOM     12  C   UNL     1       6.325 -30.329  12.984  1.00  0.00     0.004 C 
ENDBRANCH  10  11
ENDBRANCH   9  10
ENDBRANCH   8   9
ENDBRANCH   7   8
ENDBRANCH   6   7
ENDBRANCH   5   6
ENDBRANCH   4   5
ENDBRANCH   3   4
ENDBRANCH   2   3
ENDBRANCH   1   2
BRANCH   1  13
ATOM     13  C   UNL     1       6.585 -34.261  13.002  1.00  0.00     0.000 C 
BRANCH  13  14
ATOM     14  C   UNL     1       5.928 -34.976  14.196  1.00  0.00     0.000 C 
BRANCH  14  15
ATOM     15  C   UNL     1       6.813 -34.957  15.453  1.00  0.00     0.000 C 
BRANCH  15  16
ATOM     16  C   UNL     1       6.051 -34.499  16.708  1.00  0.00     0.000 C 
BRANCH  16  17
ATOM     17  C   UNL     1       6.491 -33.109  17.199  1.00  0.00     0.000 C 
BRANCH  17  18
ATOM     18  C   UNL     1       6.922 -32.162  16.059  1.00  0.00     0.000 C 
BRANCH  18  19
ATOM     19  C   UNL     1       8.250 -31.446  16.369  1.00  0.00     0.000 C 
BRANCH  19  20
ATOM     20  C   UNL     1       8.069 -29.937  16.600  1.00  0.00     0.006 C 
BRANCH  20  21
ATOM     21  C   UNL     1       8.026 -29.568  18.088  1.00  0.00     0.053 C 
BRANCH  21  22
ATOM     22  C   UNL     1       9.319 -28.945  18.509  1.00  0.00     0.041 C 
ATOM     23  O   UNL     1      10.089 -28.438  17.651  1.00  0.00    -0.550 OA
ATOM     24  O   UNL     1       9.699 -28.966  19.845  1.00  0.00    -0.550 OA
ENDBRANCH  21  22
ENDBRANCH  20  21
ENDBRANCH  19  20
ENDBRANCH  18  19
ENDBRANCH  17  18
ENDBRANCH  16  17
ENDBRANCH  15  16
ENDBRANCH  14  15
ENDBRANCH  13  14
ENDBRANCH   1  13
TORSDOF 20
ENDMDL
MODEL 8
REMARK VINA RESULT:    -2.655      1.694      4.839
REMARK INTER + INTRA:          -8.468
REMARK INTER:                  -5.331
REMARK INTRA:                  -3.137
REMARK UNBOUND:                -2.708
REMARK SMILES CCCCCCCCCCCCCCCCCCCCCC(=O)[O-]
REMARK SMILES IDX 12 1 11 2 10 3 9 4 8 5 7 6 6 7 5 8 4 9 3 10 2 11 1 12 13 13
REMARK SMILES IDX 14 14 15 15 16 16 17 17 18 18 19 19 20 20 21 21 22 22 23 23
REMARK SMILES IDX 24 24
REMARK H PARENT
REMARK Flexibility Score: inf
ROOT
ATOM      1  C   UNL     1      10.722 -30.111  13.998  1.00  0.00     0.000 C 
ENDROOT
BRANCH   1   2
ATOM      2  C   UNL     1      11.794 -30.866  13.195  1.00  0.00     0.000 C 
BRANCH   2   3
ATOM      3  C   UNL     1      11.461 -32.356  13.010  1.00  0.00     0.000 C 
BRANCH   3   4
ATOM      4  C   UNL     1      10.121 -32.775  13.653  1.00  0.00    -0.000 C 
BRANCH   4   5
ATOM      5  C   UNL     1       9.436 -33.919  12.885  1.00  0.00    -0.000 C 
BRANCH   5   6
ATOM      6  C   UNL     1       8.075 -33.493  12.294  1.00  0.00    -0.000 C 
BRANCH   6   7
ATOM      7  C   UNL     1       7.005 -34.597  12.347  1.00  0.00    -0.000 C 
BRANCH   7   8
ATOM      8  C   UNL     1       5.920 -34.326  13.401  1.00  0.00    -0.000 C 
BRANCH   8   9
ATOM      9  C   UNL     1       6.142 -35.125  14.696  1.00  0.00    -0.000 C 
BRANCH   9  10
ATOM     10  C   UNL     1       6.990 -34.362  15.726  1.00  0.00    -0.000 C 
BRANCH  10  11
ATOM     11  C   UNL     1       6.224 -34.184  17.042  1.00  0.00    -0.003 C 
ATOM     12  C   UNL     1       7.068 -34.622  18.235  1.00  0.00     0.004 C 
ENDBRANCH  10  11
ENDBRANCH   9  10
ENDBRANCH   8   9
ENDBRANCH   7   8
ENDBRANCH   6   7
ENDBRANCH   5   6
ENDBRANCH   4   5
ENDBRANCH   3   4
ENDBRANCH   2   3
ENDBRANCH   1   2
BRANCH   1  13
ATOM     13  C   UNL     1       9.986 -29.053  13.159  1.00  0.00     0.000 C 
BRANCH  13  14
ATOM     14  C   UNL     1       9.374 -29.640  11.875  1.00  0.00     0.000 C 
BRANCH  14  15
ATOM     15  C   UNL     1       7.840 -29.721  11.937  1.00  0.00     0.000 C 
BRANCH  15  16
ATOM     16  C   UNL     1       7.292 -29.498  13.358  1.00  0.00     0.000 C 
BRANCH  16  17
ATOM     17  C   UNL     1       6.565 -30.733  13.916  1.00  0.00     0.000 C 
BRANCH  17  18
ATOM     18  C   UNL     1       7.167 -31.258  15.237  1.00  0.00     0.000 C 
BRANCH  18  19
ATOM     19  C   UNL     1       6.519 -30.605  16.471  1.00  0.00     0.000 C 
BRANCH  19  20
ATOM     20  C   UNL     1       7.352 -29.443  17.033  1.00  0.00     0.006 C 
BRANCH  20  21
ATOM     21  C   UNL     1       8.817 -29.828  17.274  1.00  0.00     0.053 C 
BRANCH  21  22
ATOM     22  C   UNL     1       9.463 -28.862  18.216  1.00  0.00     0.041 C 
ATOM     23  O   UNL     1      10.286 -28.011  17.788  1.00  0.00    -0.550 OA
ATOM     24  O   UNL     1       9.192 -28.933  19.578  1.00  0.00    -0.550 OA
ENDBRANCH  21  22
ENDBRANCH  20  21
ENDBRANCH  19  20
ENDBRANCH  18  19
ENDBRANCH  17  18
ENDBRANCH  16  17
ENDBRANCH  15  16
ENDBRANCH  14  15
ENDBRANCH  13  14
ENDBRANCH   1  13
TORSDOF 20
ENDMDL
