MODEL 1
REMARK VINA RESULT:    -5.868      0.000      0.000
REMARK INTER + INTRA:         -10.324
REMARK INTER:                  -9.127
REMARK INTRA:                  -1.197
REMARK UNBOUND:                -1.197
REMARK SMILES COc1cc(CNC(=O)CCCCC=CC(C)C)ccc1O
REMARK SMILES IDX 11 1 12 2 13 3 14 4 15 5 16 6 17 7 18 8 10 9 8 10 9 11 7 12
REMARK SMILES IDX 6 14 5 15 4 16 19 17 3 18 20 19 21 20 2 21 1 22 22 23
REMARK H PARENT 7 13 22 24
REMARK Flexibility Score: inf
ROOT
ATOM      1  C   UNL     1      60.522  37.955   8.792  1.00  0.00     0.010 C 
ENDROOT
BRANCH   1   2
ATOM      2  C   UNL     1      59.718  36.920   7.978  1.00  0.00     0.005 C 
BRANCH   2   3
ATOM      3  C   UNL     1      58.849  37.548   6.875  1.00  0.00     0.027 C 
BRANCH   3   4
ATOM      4  C   UNL     1      59.189  37.016   5.505  1.00  0.00    -0.031 C 
ATOM      5  C   UNL     1      59.857  37.662   4.525  1.00  0.00    -0.028 C 
BRANCH   5   6
ATOM      6  C   UNL     1      60.529  39.023   4.585  1.00  0.00     0.005 C 
ATOM      7  C   UNL     1      61.813  39.006   5.424  1.00  0.00     0.012 C 
ATOM      8  C   UNL     1      59.586  40.165   4.980  1.00  0.00     0.012 C 
ENDBRANCH   5   6
ENDBRANCH   3   4
ENDBRANCH   2   3
ENDBRANCH   1   2
BRANCH   1   9
ATOM      9  C   UNL     1      59.919  39.363   8.697  1.00  0.00     0.100 C 
BRANCH   9  10
ATOM     10  C   UNL     1      61.001  40.399   8.733  1.00  0.00     0.220 C 
ATOM     11  O   UNL     1      60.748  41.575   8.357  1.00  0.00    -0.275 OA
ATOM     12  N   UNL     1      62.326  40.038   9.149  1.00  0.00    -0.352 N 
ATOM     13  H   UNL     1      62.523  39.044   9.403  1.00  0.00     0.163 HD
BRANCH  12  14
ATOM     14  C   UNL     1      63.423  41.000   9.199  1.00  0.00     0.151 C 
BRANCH  14  15
ATOM     15  C   UNL     1      63.637  41.475  10.611  1.00  0.00    -0.025 A 
ATOM     16  C   UNL     1      62.981  40.847  11.682  1.00  0.00     0.056 A 
ATOM     17  C   UNL     1      64.521  42.529  10.869  1.00  0.00     0.009 A 
ATOM     18  C   UNL     1      63.199  41.275  13.009  1.00  0.00     0.160 A 
ATOM     19  C   UNL     1      64.741  42.960  12.179  1.00  0.00     0.050 A 
ATOM     20  C   UNL     1      64.085  42.342  13.248  1.00  0.00     0.157 A 
BRANCH  18  21
ATOM     21  O   UNL     1      62.560  40.668  14.101  1.00  0.00    -0.493 OA
ATOM     22  C   UNL     1      62.250  39.281  14.186  1.00  0.00     0.278 C 
ENDBRANCH  18  21
BRANCH  20  23
ATOM     23  O   UNL     1      64.328  42.800  14.542  1.00  0.00    -0.504 OA
ATOM     24  H   UNL     1      63.581  43.079  15.166  1.00  0.00     0.293 HD
ENDBRANCH  20  23
ENDBRANCH  14  15
ENDBRANCH  12  14
ENDBRANCH   9  10
ENDBRANCH   1   9
TORSDOF 10
ENDMDL
MODEL 2
REMARK VINA RESULT:    -5.859      1.838      3.097
REMARK INTER + INTRA:         -10.310
REMARK INTER:                  -9.014
REMARK INTRA:                  -1.296
REMARK UNBOUND:                -1.197
REMARK SMILES COc1cc(CNC(=O)CCCCC=CC(C)C)ccc1O
REMARK SMILES IDX 11 1 12 2 13 3 14 4 15 5 16 6 17 7 18 8 10 9 8 10 9 11 7 12
REMARK SMILES IDX 6 14 5 15 4 16 19 17 3 18 20 19 21 20 2 21 1 22 22 23
REMARK H PARENT 7 13 22 24
REMARK Flexibility Score: inf
ROOT
ATOM      1  C   UNL     1      60.768  42.195   6.587  1.00  0.00     0.010 C 
ENDROOT
BRANCH   1   2
ATOM      2  C   UNL     1      59.469  41.964   7.387  1.00  0.00     0.005 C 
BRANCH   2   3
ATOM      3  C   UNL     1      58.559  40.883   6.780  1.00  0.00     0.027 C 
BRANCH   3   4
ATOM      4  C   UNL     1      59.344  39.765   6.142  1.00  0.00    -0.031 C 
ATOM      5  C   UNL     1      59.941  38.729   6.769  1.00  0.00    -0.028 C 
BRANCH   5   6
ATOM      6  C   UNL     1      59.883  38.362   8.242  1.00  0.00     0.005 C 
ATOM      7  C   UNL     1      61.013  39.009   9.052  1.00  0.00     0.012 C 
ATOM      8  C   UNL     1      59.763  36.856   8.503  1.00  0.00     0.012 C 
ENDBRANCH   5   6
ENDBRANCH   3   4
ENDBRANCH   2   3
ENDBRANCH   1   2
BRANCH   1   9
ATOM      9  C   UNL     1      61.810  42.990   7.387  1.00  0.00     0.100 C 
BRANCH   9  10
ATOM     10  C   UNL     1      62.798  42.062   8.026  1.00  0.00     0.220 C 
ATOM     11  O   UNL     1      63.363  41.179   7.327  1.00  0.00    -0.275 OA
ATOM     12  N   UNL     1      63.059  42.152   9.434  1.00  0.00    -0.352 N 
ATOM     13  H   UNL     1      62.536  42.856  10.002  1.00  0.00     0.163 HD
BRANCH  12  14
ATOM     14  C   UNL     1      64.005  41.272  10.115  1.00  0.00     0.151 C 
BRANCH  14  15
ATOM     15  C   UNL     1      63.560  41.023  11.530  1.00  0.00    -0.025 A 
ATOM     16  C   UNL     1      63.353  39.714  11.993  1.00  0.00     0.056 A 
ATOM     17  C   UNL     1      63.380  42.100  12.407  1.00  0.00     0.009 A 
ATOM     18  C   UNL     1      62.958  39.478  13.327  1.00  0.00     0.160 A 
ATOM     19  C   UNL     1      62.988  41.874  13.728  1.00  0.00     0.050 A 
ATOM     20  C   UNL     1      62.775  40.573  14.192  1.00  0.00     0.157 A 
BRANCH  18  21
ATOM     21  O   UNL     1      62.744  38.181  13.821  1.00  0.00    -0.493 OA
ATOM     22  C   UNL     1      63.623  37.082  13.609  1.00  0.00     0.278 C 
ENDBRANCH  18  21
BRANCH  20  23
ATOM     23  O   UNL     1      62.382  40.386  15.517  1.00  0.00    -0.504 OA
ATOM     24  H   UNL     1      61.651  40.940  15.947  1.00  0.00     0.293 HD
ENDBRANCH  20  23
ENDBRANCH  14  15
ENDBRANCH  12  14
ENDBRANCH   9  10
ENDBRANCH   1   9
TORSDOF 10
ENDMDL
MODEL 3
REMARK VINA RESULT:    -5.454      2.317      8.084
REMARK INTER + INTRA:          -9.680
REMARK INTER:                  -8.913
REMARK INTRA:                  -0.767
REMARK UNBOUND:                -1.197
REMARK SMILES COc1cc(CNC(=O)CCCCC=CC(C)C)ccc1O
REMARK SMILES IDX 11 1 12 2 13 3 14 4 15 5 16 6 17 7 18 8 10 9 8 10 9 11 7 12
REMARK SMILES IDX 6 14 5 15 4 16 19 17 3 18 20 19 21 20 2 21 1 22 22 23
REMARK H PARENT 7 13 22 24
REMARK Flexibility Score: inf
ROOT
ATOM      1  C   UNL     1      63.519  41.934   9.868  1.00  0.00     0.010 C 
ENDROOT
BRANCH   1   2
ATOM      2  C   UNL     1      64.382  40.798  10.455  1.00  0.00     0.005 C 
BRANCH   2   3
ATOM      3  C   UNL     1      63.704  40.049  11.616  1.00  0.00     0.027 C 
BRANCH   3   4
ATOM      4  C   UNL     1      63.522  40.921  12.832  1.00  0.00    -0.031 C 
ATOM      5  C   UNL     1      62.723  40.678  13.894  1.00  0.00    -0.028 C 
BRANCH   5   6
ATOM      6  C   UNL     1      61.904  39.433  14.189  1.00  0.00     0.005 C 
ATOM      7  C   UNL     1      60.787  39.696  15.206  1.00  0.00     0.012 C 
ATOM      8  C   UNL     1      62.748  38.206  14.550  1.00  0.00     0.012 C 
ENDBRANCH   5   6
ENDBRANCH   3   4
ENDBRANCH   2   3
ENDBRANCH   1   2
BRANCH   1   9
ATOM      9  C   UNL     1      63.135  41.673   8.404  1.00  0.00     0.100 C 
BRANCH   9  10
ATOM     10  C   UNL     1      61.665  41.410   8.288  1.00  0.00     0.220 C 
ATOM     11  O   UNL     1      61.035  40.954   9.280  1.00  0.00    -0.275 OA
ATOM     12  N   UNL     1      60.993  41.633   7.040  1.00  0.00    -0.352 N 
ATOM     13  H   UNL     1      61.548  41.959   6.217  1.00  0.00     0.163 HD
BRANCH  12  14
ATOM     14  C   UNL     1      59.564  41.389   6.863  1.00  0.00     0.151 C 
BRANCH  14  15
ATOM     15  C   UNL     1      59.342  40.070   6.172  1.00  0.00    -0.025 A 
ATOM     16  C   UNL     1      59.471  38.864   6.878  1.00  0.00     0.056 A 
ATOM     17  C   UNL     1      58.971  40.042   4.821  1.00  0.00     0.009 A 
ATOM     18  C   UNL     1      59.240  37.629   6.236  1.00  0.00     0.160 A 
ATOM     19  C   UNL     1      58.743  38.823   4.179  1.00  0.00     0.050 A 
ATOM     20  C   UNL     1      58.876  37.619   4.877  1.00  0.00     0.157 A 
BRANCH  18  21
ATOM     21  O   UNL     1      59.360  36.405   6.915  1.00  0.00    -0.493 OA
ATOM     22  C   UNL     1      59.041  36.209   8.288  1.00  0.00     0.278 C 
ENDBRANCH  18  21
BRANCH  20  23
ATOM     23  O   UNL     1      58.641  36.421   4.203  1.00  0.00    -0.504 OA
ATOM     24  H   UNL     1      59.006  36.243   3.275  1.00  0.00     0.293 HD
ENDBRANCH  20  23
ENDBRANCH  14  15
ENDBRANCH  12  14
ENDBRANCH   9  10
ENDBRANCH   1   9
TORSDOF 10
ENDMDL
MODEL 4
REMARK VINA RESULT:    -5.131      2.090      3.374
REMARK INTER + INTRA:          -9.178
REMARK INTER:                  -8.284
REMARK INTRA:                  -0.894
REMARK UNBOUND:                -1.197
REMARK SMILES COc1cc(CNC(=O)CCCCC=CC(C)C)ccc1O
REMARK SMILES IDX 11 1 12 2 13 3 14 4 15 5 16 6 17 7 18 8 10 9 8 10 9 11 7 12
REMARK SMILES IDX 6 14 5 15 4 16 19 17 3 18 20 19 21 20 2 21 1 22 22 23
REMARK H PARENT 7 13 22 24
REMARK Flexibility Score: inf
ROOT
ATOM      1  C   UNL     1      62.314  42.342   6.648  1.00  0.00     0.010 C 
ENDROOT
BRANCH   1   2
ATOM      2  C   UNL     1      60.883  41.938   6.236  1.00  0.00     0.005 C 
BRANCH   2   3
ATOM      3  C   UNL     1      59.887  41.927   7.408  1.00  0.00     0.027 C 
BRANCH   3   4
ATOM      4  C   UNL     1      58.683  41.063   7.129  1.00  0.00    -0.031 C 
ATOM      5  C   UNL     1      58.650  39.715   7.058  1.00  0.00    -0.028 C 
BRANCH   5   6
ATOM      6  C   UNL     1      59.769  38.729   7.349  1.00  0.00     0.005 C 
ATOM      7  C   UNL     1      59.475  37.330   6.794  1.00  0.00     0.012 C 
ATOM      8  C   UNL     1      60.202  38.698   8.819  1.00  0.00     0.012 C 
ENDBRANCH   5   6
ENDBRANCH   3   4
ENDBRANCH   2   3
ENDBRANCH   1   2
BRANCH   1   9
ATOM      9  C   UNL     1      63.272  41.143   6.672  1.00  0.00     0.100 C 
BRANCH   9  10
ATOM     10  C   UNL     1      64.272  41.294   7.776  1.00  0.00     0.220 C 
ATOM     11  O   UNL     1      65.473  41.553   7.496  1.00  0.00    -0.275 OA
ATOM     12  N   UNL     1      63.870  41.097   9.140  1.00  0.00    -0.352 N 
ATOM     13  H   UNL     1      62.881  40.827   9.342  1.00  0.00     0.163 HD
BRANCH  12  14
ATOM     14  C   UNL     1      64.800  41.223  10.259  1.00  0.00     0.151 C 
BRANCH  14  15
ATOM     15  C   UNL     1      64.082  40.995  11.561  1.00  0.00    -0.025 A 
ATOM     16  C   UNL     1      63.769  39.693  11.985  1.00  0.00     0.056 A 
ATOM     17  C   UNL     1      63.750  42.083  12.378  1.00  0.00     0.009 A 
ATOM     18  C   UNL     1      63.118  39.476  13.218  1.00  0.00     0.160 A 
ATOM     19  C   UNL     1      63.103  41.876  13.598  1.00  0.00     0.050 A 
ATOM     20  C   UNL     1      62.784  40.582  14.021  1.00  0.00     0.157 A 
BRANCH  18  21
ATOM     21  O   UNL     1      62.792  38.188  13.670  1.00  0.00    -0.493 OA
ATOM     22  C   UNL     1      63.645  37.054  13.558  1.00  0.00     0.278 C 
ENDBRANCH  18  21
BRANCH  20  23
ATOM     23  O   UNL     1      62.137  40.415  15.245  1.00  0.00    -0.504 OA
ATOM     24  H   UNL     1      62.357  39.651  15.872  1.00  0.00     0.293 HD
ENDBRANCH  20  23
ENDBRANCH  14  15
ENDBRANCH  12  14
ENDBRANCH   9  10
ENDBRANCH   1   9
TORSDOF 10
ENDMDL
MODEL 5
REMARK VINA RESULT:    -5.046      2.231      3.938
REMARK INTER + INTRA:          -9.045
REMARK INTER:                  -7.747
REMARK INTRA:                  -1.298
REMARK UNBOUND:                -1.197
REMARK SMILES COc1cc(CNC(=O)CCCCC=CC(C)C)ccc1O
REMARK SMILES IDX 11 1 12 2 13 3 14 4 15 5 16 6 17 7 18 8 10 9 8 10 9 11 7 12
REMARK SMILES IDX 6 14 5 15 4 16 19 17 3 18 20 19 21 20 2 21 1 22 22 23
REMARK H PARENT 7 13 22 24
REMARK Flexibility Score: inf
ROOT
ATOM      1  C   UNL     1      59.803  37.338   5.249  1.00  0.00     0.010 C 
ENDROOT
BRANCH   1   2
ATOM      2  C   UNL     1      58.929  37.695   4.029  1.00  0.00     0.005 C 
BRANCH   2   3
ATOM      3  C   UNL     1      58.676  39.204   3.876  1.00  0.00     0.027 C 
BRANCH   3   4
ATOM      4  C   UNL     1      59.915  40.022   4.135  1.00  0.00    -0.031 C 
ATOM      5  C   UNL     1      59.987  41.207   4.779  1.00  0.00    -0.028 C 
BRANCH   5   6
ATOM      6  C   UNL     1      58.877  41.956   5.498  1.00  0.00     0.005 C 
ATOM      7  C   UNL     1      58.437  41.253   6.787  1.00  0.00     0.012 C 
ATOM      8  C   UNL     1      57.693  42.325   4.597  1.00  0.00     0.012 C 
ENDBRANCH   5   6
ENDBRANCH   3   4
ENDBRANCH   2   3
ENDBRANCH   1   2
BRANCH   1   9
ATOM      9  C   UNL     1      59.010  36.597   6.335  1.00  0.00     0.100 C 
BRANCH   9  10
ATOM     10  C   UNL     1      59.388  37.099   7.694  1.00  0.00     0.220 C 
ATOM     11  O   UNL     1      59.161  36.384   8.707  1.00  0.00    -0.275 OA
ATOM     12  N   UNL     1      59.962  38.406   7.842  1.00  0.00    -0.352 N 
ATOM     13  H   UNL     1      60.088  39.002   6.993  1.00  0.00     0.163 HD
BRANCH  12  14
ATOM     14  C   UNL     1      60.345  38.954   9.140  1.00  0.00     0.151 C 
BRANCH  14  15
ATOM     15  C   UNL     1      61.600  39.774   9.010  1.00  0.00    -0.025 A 
ATOM     16  C   UNL     1      62.459  39.943  10.108  1.00  0.00     0.056 A 
ATOM     17  C   UNL     1      61.936  40.349   7.778  1.00  0.00     0.009 A 
ATOM     18  C   UNL     1      63.647  40.692   9.981  1.00  0.00     0.160 A 
ATOM     19  C   UNL     1      63.109  41.094   7.645  1.00  0.00     0.050 A 
ATOM     20  C   UNL     1      63.965  41.269   8.737  1.00  0.00     0.157 A 
BRANCH  18  21
ATOM     21  O   UNL     1      64.528  40.878  11.058  1.00  0.00    -0.493 OA
ATOM     22  C   UNL     1      64.171  41.481  12.297  1.00  0.00     0.278 C 
ENDBRANCH  18  21
BRANCH  20  23
ATOM     23  O   UNL     1      65.128  42.020   8.567  1.00  0.00    -0.504 OA
ATOM     24  H   UNL     1      65.345  42.489   7.696  1.00  0.00     0.293 HD
ENDBRANCH  20  23
ENDBRANCH  14  15
ENDBRANCH  12  14
ENDBRANCH   9  10
ENDBRANCH   1   9
TORSDOF 10
ENDMDL
MODEL 6
REMARK VINA RESULT:    -5.015      1.656      2.590
REMARK INTER + INTRA:          -8.998
REMARK INTER:                  -7.742
REMARK INTRA:                  -1.256
REMARK UNBOUND:                -1.197
REMARK SMILES COc1cc(CNC(=O)CCCCC=CC(C)C)ccc1O
REMARK SMILES IDX 11 1 12 2 13 3 14 4 15 5 16 6 17 7 18 8 10 9 8 10 9 11 7 12
REMARK SMILES IDX 6 14 5 15 4 16 19 17 3 18 20 19 21 20 2 21 1 22 22 23
REMARK H PARENT 7 13 22 24
REMARK Flexibility Score: inf
ROOT
ATOM      1  C   UNL     1      59.012  39.839   6.934  1.00  0.00     0.010 C 
ENDROOT
BRANCH   1   2
ATOM      2  C   UNL     1      58.519  41.042   6.103  1.00  0.00     0.005 C 
BRANCH   2   3
ATOM      3  C   UNL     1      59.554  41.549   5.084  1.00  0.00     0.027 C 
BRANCH   3   4
ATOM      4  C   UNL     1      60.718  42.243   5.746  1.00  0.00    -0.031 C 
ATOM      5  C   UNL     1      62.016  41.876   5.699  1.00  0.00    -0.028 C 
BRANCH   5   6
ATOM      6  C   UNL     1      62.649  40.756   4.890  1.00  0.00     0.005 C 
ATOM      7  C   UNL     1      62.471  39.384   5.552  1.00  0.00     0.012 C 
ATOM      8  C   UNL     1      64.102  41.027   4.485  1.00  0.00     0.012 C 
ENDBRANCH   5   6
ENDBRANCH   3   4
ENDBRANCH   2   3
ENDBRANCH   1   2
BRANCH   1   9
ATOM      9  C   UNL     1      59.316  40.224   8.389  1.00  0.00     0.100 C 
BRANCH   9  10
ATOM     10  C   UNL     1      60.713  39.826   8.754  1.00  0.00     0.220 C 
ATOM     11  O   UNL     1      61.039  38.609   8.732  1.00  0.00    -0.275 OA
ATOM     12  N   UNL     1      61.656  40.824   9.172  1.00  0.00    -0.352 N 
ATOM     13  H   UNL     1      61.345  41.819   9.235  1.00  0.00     0.163 HD
BRANCH  12  14
ATOM     14  C   UNL     1      63.029  40.498   9.546  1.00  0.00     0.151 C 
BRANCH  14  15
ATOM     15  C   UNL     1      63.376  41.138  10.864  1.00  0.00    -0.025 A 
ATOM     16  C   UNL     1      62.867  40.619  12.065  1.00  0.00     0.056 A 
ATOM     17  C   UNL     1      64.240  42.240  10.901  1.00  0.00     0.009 A 
ATOM     18  C   UNL     1      63.211  41.203  13.302  1.00  0.00     0.160 A 
ATOM     19  C   UNL     1      64.583  42.824  12.122  1.00  0.00     0.050 A 
ATOM     20  C   UNL     1      64.073  42.315  13.320  1.00  0.00     0.157 A 
BRANCH  18  21
ATOM     21  O   UNL     1      62.720  40.707  14.520  1.00  0.00    -0.493 OA
ATOM     22  C   UNL     1      61.955  39.515  14.657  1.00  0.00     0.278 C 
ENDBRANCH  18  21
BRANCH  20  23
ATOM     23  O   UNL     1      64.437  42.925  14.519  1.00  0.00    -0.504 OA
ATOM     24  H   UNL     1      64.186  43.882  14.737  1.00  0.00     0.293 HD
ENDBRANCH  20  23
ENDBRANCH  14  15
ENDBRANCH  12  14
ENDBRANCH   9  10
ENDBRANCH   1   9
TORSDOF 10
ENDMDL
MODEL 7
REMARK VINA RESULT:    -4.890      1.630      2.496
REMARK INTER + INTRA:          -8.803
REMARK INTER:                  -8.094
REMARK INTRA:                  -0.710
REMARK UNBOUND:                -1.197
REMARK SMILES COc1cc(CNC(=O)CCCCC=CC(C)C)ccc1O
REMARK SMILES IDX 11 1 12 2 13 3 14 4 15 5 16 6 17 7 18 8 10 9 8 10 9 11 7 12
REMARK SMILES IDX 6 14 5 15 4 16 19 17 3 18 20 19 21 20 2 21 1 22 22 23
REMARK H PARENT 7 13 22 24
REMARK Flexibility Score: inf
ROOT
ATOM      1  C   UNL     1      59.365  38.880   7.960  1.00  0.00     0.010 C 
ENDROOT
BRANCH   1   2
ATOM      2  C   UNL     1      59.585  38.208   6.589  1.00  0.00     0.005 C 
BRANCH   2   3
ATOM      3  C   UNL     1      60.539  38.988   5.669  1.00  0.00     0.027 C 
BRANCH   3   4
ATOM      4  C   UNL     1      59.944  39.239   4.306  1.00  0.00    -0.031 C 
ATOM      5  C   UNL     1      59.177  40.286   3.934  1.00  0.00    -0.028 C 
BRANCH   5   6
ATOM      6  C   UNL     1      58.815  41.520   4.742  1.00  0.00     0.005 C 
ATOM      7  C   UNL     1      57.455  42.104   4.340  1.00  0.00     0.012 C 
ATOM      8  C   UNL     1      59.920  42.582   4.783  1.00  0.00     0.012 C 
ENDBRANCH   5   6
ENDBRANCH   3   4
ENDBRANCH   2   3
ENDBRANCH   1   2
BRANCH   1   9
ATOM      9  C   UNL     1      60.164  40.184   8.102  1.00  0.00     0.100 C 
BRANCH   9  10
ATOM     10  C   UNL     1      61.410  39.949   8.900  1.00  0.00     0.220 C 
ATOM     11  O   UNL     1      61.646  38.800   9.360  1.00  0.00    -0.275 OA
ATOM     12  N   UNL     1      62.301  41.039   9.175  1.00  0.00    -0.352 N 
ATOM     13  H   UNL     1      62.054  41.994   8.829  1.00  0.00     0.163 HD
BRANCH  12  14
ATOM     14  C   UNL     1      63.527  40.875   9.951  1.00  0.00     0.151 C 
BRANCH  14  15
ATOM     15  C   UNL     1      63.201  40.722  11.413  1.00  0.00    -0.025 A 
ATOM     16  C   UNL     1      63.185  39.452  12.011  1.00  0.00     0.056 A 
ATOM     17  C   UNL     1      62.945  41.855  12.195  1.00  0.00     0.009 A 
ATOM     18  C   UNL     1      62.904  39.309  13.386  1.00  0.00     0.160 A 
ATOM     19  C   UNL     1      62.664  41.721  13.556  1.00  0.00     0.050 A 
ATOM     20  C   UNL     1      62.640  40.458  14.154  1.00  0.00     0.157 A 
BRANCH  18  21
ATOM     21  O   UNL     1      62.881  38.053  14.014  1.00  0.00    -0.493 OA
ATOM     22  C   UNL     1      63.750  36.974  13.691  1.00  0.00     0.278 C 
ENDBRANCH  18  21
BRANCH  20  23
ATOM     23  O   UNL     1      62.355  40.363  15.516  1.00  0.00    -0.504 OA
ATOM     24  H   UNL     1      61.424  40.158  15.860  1.00  0.00     0.293 HD
ENDBRANCH  20  23
ENDBRANCH  14  15
ENDBRANCH  12  14
ENDBRANCH   9  10
ENDBRANCH   1   9
TORSDOF 10
ENDMDL
MODEL 8
REMARK VINA RESULT:    -4.883     18.207     20.329
REMARK INTER + INTRA:          -8.791
REMARK INTER:                  -8.063
REMARK INTRA:                  -0.728
REMARK UNBOUND:                -1.197
REMARK SMILES COc1cc(CNC(=O)CCCCC=CC(C)C)ccc1O
REMARK SMILES IDX 11 1 12 2 13 3 14 4 15 5 16 6 17 7 18 8 10 9 8 10 9 11 7 12
REMARK SMILES IDX 6 14 5 15 4 16 19 17 3 18 20 19 21 20 2 21 1 22 22 23
REMARK H PARENT 7 13 22 24
REMARK Flexibility Score: inf
ROOT
ATOM      1  C   UNL     1      49.209  29.060  16.264  1.00  0.00     0.010 C 
ENDROOT
BRANCH   1   2
ATOM      2  C   UNL     1      48.882  30.556  16.076  1.00  0.00     0.005 C 
BRANCH   2   3
ATOM      3  C   UNL     1      47.387  30.882  16.229  1.00  0.00     0.027 C 
BRANCH   3   4
ATOM      4  C   UNL     1      46.506  29.713  15.869  1.00  0.00    -0.031 C 
ATOM      5  C   UNL     1      46.004  29.418  14.650  1.00  0.00    -0.028 C 
BRANCH   5   6
ATOM      6  C   UNL     1      46.285  30.106  13.325  1.00  0.00     0.005 C 
ATOM      7  C   UNL     1      47.650  29.720  12.742  1.00  0.00     0.012 C 
ATOM      8  C   UNL     1      46.070  31.624  13.356  1.00  0.00     0.012 C 
ENDBRANCH   5   6
ENDBRANCH   3   4
ENDBRANCH   2   3
ENDBRANCH   1   2
BRANCH   1   9
ATOM      9  C   UNL     1      50.201  28.822  17.411  1.00  0.00     0.100 C 
BRANCH   9  10
ATOM     10  C   UNL     1      49.506  28.200  18.583  1.00  0.00     0.220 C 
ATOM     11  O   UNL     1      48.283  28.436  18.778  1.00  0.00    -0.275 OA
ATOM     12  N   UNL     1      50.243  27.381  19.503  1.00  0.00    -0.352 N 
ATOM     13  H   UNL     1      51.268  27.247  19.351  1.00  0.00     0.163 HD
BRANCH  12  14
ATOM     14  C   UNL     1      49.623  26.754  20.667  1.00  0.00     0.151 C 
BRANCH  14  15
ATOM     15  C   UNL     1      50.611  25.858  21.364  1.00  0.00    -0.025 A 
ATOM     16  C   UNL     1      51.540  25.109  20.625  1.00  0.00     0.056 A 
ATOM     17  C   UNL     1      50.630  25.792  22.763  1.00  0.00     0.009 A 
ATOM     18  C   UNL     1      52.482  24.287  21.279  1.00  0.00     0.160 A 
ATOM     19  C   UNL     1      51.557  24.979  23.417  1.00  0.00     0.050 A 
ATOM     20  C   UNL     1      52.481  24.226  22.684  1.00  0.00     0.157 A 
BRANCH  18  21
ATOM     21  O   UNL     1      53.425  23.527  20.569  1.00  0.00    -0.493 OA
ATOM     22  C   UNL     1      53.406  23.329  19.160  1.00  0.00     0.278 C 
ENDBRANCH  18  21
BRANCH  20  23
ATOM     23  O   UNL     1      53.392  23.425  23.372  1.00  0.00    -0.504 OA
ATOM     24  H   UNL     1      54.389  23.598  23.348  1.00  0.00     0.293 HD
ENDBRANCH  20  23
ENDBRANCH  14  15
ENDBRANCH  12  14
ENDBRANCH   9  10
ENDBRANCH   1   9
TORSDOF 10
ENDMDL
MODEL 9
REMARK VINA RESULT:    -4.834      1.741      3.089
REMARK INTER + INTRA:          -8.716
REMARK INTER:                  -8.050
REMARK INTRA:                  -0.667
REMARK UNBOUND:                -1.197
REMARK SMILES COc1cc(CNC(=O)CCCCC=CC(C)C)ccc1O
REMARK SMILES IDX 11 1 12 2 13 3 14 4 15 5 16 6 17 7 18 8 10 9 8 10 9 11 7 12
REMARK SMILES IDX 6 14 5 15 4 16 19 17 3 18 20 19 21 20 2 21 1 22 22 23
REMARK H PARENT 7 13 22 24
REMARK Flexibility Score: inf
ROOT
ATOM      1  C   UNL     1      61.421  40.137   7.887  1.00  0.00     0.010 C 
ENDROOT
BRANCH   1   2
ATOM      2  C   UNL     1      60.024  40.418   7.297  1.00  0.00     0.005 C 
BRANCH   2   3
ATOM      3  C   UNL     1      60.002  40.450   5.760  1.00  0.00     0.027 C 
BRANCH   3   4
ATOM      4  C   UNL     1      61.010  39.508   5.152  1.00  0.00    -0.031 C 
ATOM      5  C   UNL     1      60.806  38.224   4.788  1.00  0.00    -0.028 C 
BRANCH   5   6
ATOM      6  C   UNL     1      59.504  37.442   4.787  1.00  0.00     0.005 C 
ATOM      7  C   UNL     1      58.429  38.094   3.909  1.00  0.00     0.012 C 
ATOM      8  C   UNL     1      58.985  37.097   6.189  1.00  0.00     0.012 C 
ENDBRANCH   5   6
ENDBRANCH   3   4
ENDBRANCH   2   3
ENDBRANCH   1   2
BRANCH   1   9
ATOM      9  C   UNL     1      62.356  41.350   7.768  1.00  0.00     0.100 C 
BRANCH   9  10
ATOM     10  C   UNL     1      63.317  41.385   8.916  1.00  0.00     0.220 C 
ATOM     11  O   UNL     1      64.478  40.918   8.770  1.00  0.00    -0.275 OA
ATOM     12  N   UNL     1      62.897  41.905  10.186  1.00  0.00    -0.352 N 
ATOM     13  H   UNL     1      61.912  42.235  10.298  1.00  0.00     0.163 HD
BRANCH  12  14
ATOM     14  C   UNL     1      63.785  41.960  11.344  1.00  0.00     0.151 C 
BRANCH  14  15
ATOM     15  C   UNL     1      63.505  40.808  12.271  1.00  0.00    -0.025 A 
ATOM     16  C   UNL     1      62.669  40.976  13.387  1.00  0.00     0.056 A 
ATOM     17  C   UNL     1      64.053  39.547  12.006  1.00  0.00     0.009 A 
ATOM     18  C   UNL     1      62.386  39.891  14.243  1.00  0.00     0.160 A 
ATOM     19  C   UNL     1      63.780  38.468  12.850  1.00  0.00     0.050 A 
ATOM     20  C   UNL     1      62.953  38.633  13.965  1.00  0.00     0.157 A 
BRANCH  18  21
ATOM     21  O   UNL     1      61.554  40.026  15.365  1.00  0.00    -0.493 OA
ATOM     22  C   UNL     1      60.174  39.680  15.392  1.00  0.00     0.278 C 
ENDBRANCH  18  21
BRANCH  20  23
ATOM     23  O   UNL     1      62.703  37.534  14.786  1.00  0.00    -0.504 OA
ATOM     24  H   UNL     1      62.326  36.665  14.426  1.00  0.00     0.293 HD
ENDBRANCH  20  23
ENDBRANCH  14  15
ENDBRANCH  12  14
ENDBRANCH   9  10
ENDBRANCH   1   9
TORSDOF 10
ENDMDL
