MODEL 1
REMARK VINA RESULT:    -2.778      0.000      0.000
REMARK INTER + INTRA:          -3.114
REMARK INTER:                  -3.103
REMARK INTRA:                  -0.011
REMARK UNBOUND:                -0.011
REMARK SMILES CCCC(=O)[O-]
REMARK SMILES IDX 3 1 4 2 5 3 6 4 2 5 1 6
REMARK H PARENT
REMARK Flexibility Score: inf
ROOT
ATOM      1  C   UNL     1       7.933  -8.969  43.130  1.00  0.00     0.052 C 
ENDROOT
BRANCH   1   2
ATOM      2  C   UNL     1       8.419  -7.641  43.625  1.00  0.00     0.041 C 
ATOM      3  O   UNL     1       9.403  -7.082  43.075  1.00  0.00    -0.550 OA
ATOM      4  O   UNL     1       7.762  -7.005  44.671  1.00  0.00    -0.550 OA
ENDBRANCH   1   2
BRANCH   1   5
ATOM      5  C   UNL     1       7.444  -9.861  44.279  1.00  0.00     0.003 C 
ATOM      6  C   UNL     1       6.478 -10.946  43.804  1.00  0.00     0.004 C 
ENDBRANCH   1   5
TORSDOF 2
ENDMDL
MODEL 2
REMARK VINA RESULT:    -2.711      2.642      4.197
REMARK INTER + INTRA:          -3.039
REMARK INTER:                  -3.008
REMARK INTRA:                  -0.031
REMARK UNBOUND:                -0.011
REMARK SMILES CCCC(=O)[O-]
REMARK SMILES IDX 3 1 4 2 5 3 6 4 2 5 1 6
REMARK H PARENT
REMARK Flexibility Score: inf
ROOT
ATOM      1  C   UNL     1       7.508  -6.087  41.624  1.00  0.00     0.052 C 
ENDROOT
BRANCH   1   2
ATOM      2  C   UNL     1       8.045  -7.440  41.978  1.00  0.00     0.041 C 
ATOM      3  O   UNL     1       7.557  -8.473  41.449  1.00  0.00    -0.550 OA
ATOM      4  O   UNL     1       9.106  -7.558  42.866  1.00  0.00    -0.550 OA
ENDBRANCH   1   2
BRANCH   1   5
ATOM      5  C   UNL     1       7.423  -5.170  42.851  1.00  0.00     0.003 C 
ATOM      6  C   UNL     1       8.153  -3.843  42.638  1.00  0.00     0.004 C 
ENDBRANCH   1   5
TORSDOF 2
ENDMDL
MODEL 3
REMARK VINA RESULT:    -2.686      2.804      4.372
REMARK INTER + INTRA:          -3.011
REMARK INTER:                  -2.973
REMARK INTRA:                  -0.038
REMARK UNBOUND:                -0.011
REMARK SMILES CCCC(=O)[O-]
REMARK SMILES IDX 3 1 4 2 5 3 6 4 2 5 1 6
REMARK H PARENT
REMARK Flexibility Score: inf
ROOT
ATOM      1  C   UNL     1       7.328  -5.280  42.845  1.00  0.00     0.052 C 
ENDROOT
BRANCH   1   2
ATOM      2  C   UNL     1       8.228  -6.352  43.381  1.00  0.00     0.041 C 
ATOM      3  O   UNL     1       9.338  -6.579  42.833  1.00  0.00    -0.550 OA
ATOM      4  O   UNL     1       7.854  -7.076  44.506  1.00  0.00    -0.550 OA
ENDBRANCH   1   2
BRANCH   1   5
ATOM      5  C   UNL     1       8.123  -4.067  42.346  1.00  0.00     0.003 C 
ATOM      6  C   UNL     1       8.066  -3.919  40.826  1.00  0.00     0.004 C 
ENDBRANCH   1   5
TORSDOF 2
ENDMDL
MODEL 4
REMARK VINA RESULT:    -2.681      2.239      2.701
REMARK INTER + INTRA:          -3.006
REMARK INTER:                  -2.967
REMARK INTRA:                  -0.039
REMARK UNBOUND:                -0.011
REMARK SMILES CCCC(=O)[O-]
REMARK SMILES IDX 3 1 4 2 5 3 6 4 2 5 1 6
REMARK H PARENT
REMARK Flexibility Score: inf
ROOT
ATOM      1  C   UNL     1       7.781  -6.549  41.621  1.00  0.00     0.052 C 
ENDROOT
BRANCH   1   2
ATOM      2  C   UNL     1       7.683  -6.018  43.019  1.00  0.00     0.041 C 
ATOM      3  O   UNL     1       7.255  -4.852  43.224  1.00  0.00    -0.550 OA
ATOM      4  O   UNL     1       8.031  -6.824  44.096  1.00  0.00    -0.550 OA
ENDBRANCH   1   2
BRANCH   1   5
ATOM      5  C   UNL     1       8.373  -7.964  41.590  1.00  0.00     0.003 C 
ATOM      6  C   UNL     1       7.308  -9.036  41.357  1.00  0.00     0.004 C 
ENDBRANCH   1   5
TORSDOF 2
ENDMDL
MODEL 5
REMARK VINA RESULT:    -2.671      2.661      3.870
REMARK INTER + INTRA:          -2.994
REMARK INTER:                  -2.955
REMARK INTRA:                  -0.039
REMARK UNBOUND:                -0.011
REMARK SMILES CCCC(=O)[O-]
REMARK SMILES IDX 3 1 4 2 5 3 6 4 2 5 1 6
REMARK H PARENT
REMARK Flexibility Score: inf
ROOT
ATOM      1  C   UNL     1       8.441  -7.545  41.604  1.00  0.00     0.052 C 
ENDROOT
BRANCH   1   2
ATOM      2  C   UNL     1       7.614  -8.767  41.865  1.00  0.00     0.041 C 
ATOM      3  O   UNL     1       7.574  -9.270  43.019  1.00  0.00    -0.550 OA
ATOM      4  O   UNL     1       6.862  -9.330  40.843  1.00  0.00    -0.550 OA
ENDBRANCH   1   2
BRANCH   1   5
ATOM      5  C   UNL     1       7.585  -6.272  41.588  1.00  0.00     0.003 C 
ATOM      6  C   UNL     1       7.587  -5.551  42.936  1.00  0.00     0.004 C 
ENDBRANCH   1   5
TORSDOF 2
ENDMDL
MODEL 6
REMARK VINA RESULT:    -2.668      1.340      1.681
REMARK INTER + INTRA:          -2.991
REMARK INTER:                  -2.985
REMARK INTRA:                  -0.006
REMARK UNBOUND:                -0.011
REMARK SMILES CCCC(=O)[O-]
REMARK SMILES IDX 3 1 4 2 5 3 6 4 2 5 1 6
REMARK H PARENT
REMARK Flexibility Score: inf
ROOT
ATOM      1  C   UNL     1       8.131  -8.646  42.471  1.00  0.00     0.052 C 
ENDROOT
BRANCH   1   2
ATOM      2  C   UNL     1       8.227  -7.164  42.269  1.00  0.00     0.041 C 
ATOM      3  O   UNL     1       7.411  -6.573  41.514  1.00  0.00    -0.550 OA
ATOM      4  O   UNL     1       9.197  -6.432  42.941  1.00  0.00    -0.550 OA
ENDBRANCH   1   2
BRANCH   1   5
ATOM      5  C   UNL     1       8.003  -9.011  43.955  1.00  0.00     0.003 C 
ATOM      6  C   UNL     1       7.219 -10.305  44.171  1.00  0.00     0.004 C 
ENDBRANCH   1   5
TORSDOF 2
ENDMDL
MODEL 7
REMARK VINA RESULT:    -2.631      3.067      3.921
REMARK INTER + INTRA:          -2.949
REMARK INTER:                  -2.911
REMARK INTRA:                  -0.039
REMARK UNBOUND:                -0.011
REMARK SMILES CCCC(=O)[O-]
REMARK SMILES IDX 3 1 4 2 5 3 6 4 2 5 1 6
REMARK H PARENT
REMARK Flexibility Score: inf
ROOT
ATOM      1  C   UNL     1       7.468  -5.227  42.659  1.00  0.00     0.052 C 
ENDROOT
BRANCH   1   2
ATOM      2  C   UNL     1       8.588  -4.232  42.668  1.00  0.00     0.041 C 
ATOM      3  O   UNL     1       9.775  -4.613  42.492  1.00  0.00    -0.550 OA
ATOM      4  O   UNL     1       8.317  -2.880  42.836  1.00  0.00    -0.550 OA
ENDBRANCH   1   2
BRANCH   1   5
ATOM      5  C   UNL     1       7.570  -6.189  41.468  1.00  0.00     0.003 C 
ATOM      6  C   UNL     1       7.865  -7.625  41.902  1.00  0.00     0.004 C 
ENDBRANCH   1   5
TORSDOF 2
ENDMDL
MODEL 8
REMARK VINA RESULT:    -2.576     10.877     11.715
REMARK INTER + INTRA:          -2.889
REMARK INTER:                  -2.883
REMARK INTRA:                  -0.005
REMARK UNBOUND:                -0.011
REMARK SMILES CCCC(=O)[O-]
REMARK SMILES IDX 3 1 4 2 5 3 6 4 2 5 1 6
REMARK H PARENT
REMARK Flexibility Score: inf
ROOT
ATOM      1  C   UNL     1       6.551  -1.349  35.503  1.00  0.00     0.052 C 
ENDROOT
BRANCH   1   2
ATOM      2  C   UNL     1       6.018  -0.526  34.370  1.00  0.00     0.041 C 
ATOM      3  O   UNL     1       5.154  -1.005  33.591  1.00  0.00    -0.550 OA
ATOM      4  O   UNL     1       6.451   0.783  34.196  1.00  0.00    -0.550 OA
ENDBRANCH   1   2
BRANCH   1   5
ATOM      5  C   UNL     1       5.706  -1.184  36.773  1.00  0.00     0.003 C 
ATOM      6  C   UNL     1       6.024  -2.246  37.826  1.00  0.00     0.004 C 
ENDBRANCH   1   5
TORSDOF 2
ENDMDL
MODEL 9
REMARK VINA RESULT:    -2.574     10.938     11.894
REMARK INTER + INTRA:          -2.886
REMARK INTER:                  -2.816
REMARK INTRA:                  -0.070
REMARK UNBOUND:                -0.011
REMARK SMILES CCCC(=O)[O-]
REMARK SMILES IDX 3 1 4 2 5 3 6 4 2 5 1 6
REMARK H PARENT
REMARK Flexibility Score: inf
ROOT
ATOM      1  C   UNL     1       5.614  -1.381  34.574  1.00  0.00     0.052 C 
ENDROOT
BRANCH   1   2
ATOM      2  C   UNL     1       6.094  -1.535  35.986  1.00  0.00     0.041 C 
ATOM      3  O   UNL     1       7.247  -1.984  36.217  1.00  0.00    -0.550 OA
ATOM      4  O   UNL     1       5.279  -1.150  37.043  1.00  0.00    -0.550 OA
ENDBRANCH   1   2
BRANCH   1   5
ATOM      5  C   UNL     1       5.165   0.056  34.280  1.00  0.00     0.003 C 
ATOM      6  C   UNL     1       6.298   1.068  34.456  1.00  0.00     0.004 C 
ENDBRANCH   1   5
TORSDOF 2
ENDMDL
