MODEL 1
REMARK VINA RESULT:    -8.887      0.000      0.000
REMARK INTER + INTRA:         -11.028
REMARK INTER:                 -10.706
REMARK INTRA:                  -0.322
REMARK UNBOUND:                -0.322
REMARK SMILES O=c1c(O)c(-c2ccc(O)c(O)c2)oc2cc(O)cc(O)c12
REMARK SMILES IDX 5 1 3 2 2 3 1 4 22 5 20 6 19 7 17 8 16 9 15 10 14 11 6 12
REMARK SMILES IDX 7 13 8 14 9 15 13 16 11 17 10 18 12 20 4 22 21 24 18 26
REMARK H PARENT 10 19 12 21 4 23 21 25 18 27
REMARK Flexibility Score: inf
ROOT
ATOM      1  C   UNL     1     137.409 -17.965  79.614  1.00  0.00     0.180 A 
ATOM      2  C   UNL     1     138.532 -18.395  78.887  1.00  0.00     0.208 A 
ATOM      3  C   UNL     1     139.722 -17.655  78.970  1.00  0.00     0.238 A 
ATOM      4  O   UNL     1     140.700 -18.003  78.259  1.00  0.00    -0.285 OA
ATOM      5  C   UNL     1     139.792 -16.526  79.823  1.00  0.00     0.111 A 
ATOM      6  C   UNL     1     140.960 -15.729  80.021  1.00  0.00     0.134 A 
ATOM      7  C   UNL     1     140.881 -14.572  80.807  1.00  0.00     0.093 A 
ATOM      8  C   UNL     1     139.697 -14.219  81.454  1.00  0.00     0.123 A 
ATOM      9  C   UNL     1     138.565 -15.022  81.312  1.00  0.00     0.094 A 
ATOM     10  C   UNL     1     138.601 -16.160  80.504  1.00  0.00     0.146 A 
ATOM     11  O   UNL     1     137.496 -16.884  80.380  1.00  0.00    -0.452 OA
ENDROOT
BRANCH   1  12
ATOM     12  C   UNL     1     136.116 -18.684  79.566  1.00  0.00     0.025 A 
ATOM     13  C   UNL     1     135.776 -19.566  80.604  1.00  0.00     0.016 A 
ATOM     14  C   UNL     1     134.553 -20.239  80.589  1.00  0.00     0.051 A 
ATOM     15  C   UNL     1     133.642 -20.029  79.545  1.00  0.00     0.157 A 
ATOM     16  C   UNL     1     135.191 -18.460  78.530  1.00  0.00     0.062 A 
ATOM     17  C   UNL     1     133.962 -19.131  78.513  1.00  0.00     0.158 A 
BRANCH  15  18
ATOM     18  O   UNL     1     132.423 -20.704  79.532  1.00  0.00    -0.504 OA
ATOM     19  H   UNL     1     131.552 -20.230  79.740  1.00  0.00     0.293 HD
ENDBRANCH  15  18
BRANCH  17  20
ATOM     20  O   UNL     1     133.073 -18.889  77.467  1.00  0.00    -0.504 OA
ATOM     21  H   UNL     1     132.646 -19.641  76.939  1.00  0.00     0.293 HD
ENDBRANCH  17  20
ENDBRANCH   1  12
BRANCH   2  22
ATOM     22  O   UNL     1     138.465 -19.555  78.110  1.00  0.00    -0.502 OA
ATOM     23  H   UNL     1     138.550 -19.540  77.101  1.00  0.00     0.293 HD
ENDBRANCH   2  22
BRANCH   6  24
ATOM     24  O   UNL     1     142.217 -16.036  79.493  1.00  0.00    -0.507 OA
ATOM     25  H   UNL     1     142.384 -16.683  78.737  1.00  0.00     0.293 HD
ENDBRANCH   6  24
BRANCH   8  26
ATOM     26  O   UNL     1     139.661 -13.071  82.243  1.00  0.00    -0.508 OA
ATOM     27  H   UNL     1     139.894 -13.098  83.228  1.00  0.00     0.293 HD
ENDBRANCH   8  26
TORSDOF 6
ENDMDL
MODEL 2
REMARK VINA RESULT:    -7.382      2.989      6.203
REMARK INTER + INTRA:          -9.215
REMARK INTER:                  -8.884
REMARK INTRA:                  -0.331
REMARK UNBOUND:                -0.322
REMARK SMILES O=c1c(O)c(-c2ccc(O)c(O)c2)oc2cc(O)cc(O)c12
REMARK SMILES IDX 5 1 3 2 2 3 1 4 22 5 20 6 19 7 17 8 16 9 15 10 14 11 6 12
REMARK SMILES IDX 7 13 8 14 9 15 13 16 11 17 10 18 12 20 4 22 21 24 18 26
REMARK H PARENT 10 19 12 21 4 23 21 25 18 27
REMARK Flexibility Score: inf
ROOT
ATOM      1  C   UNL     1     139.014 -19.545  78.699  1.00  0.00     0.180 A 
ATOM      2  C   UNL     1     137.761 -19.976  78.231  1.00  0.00     0.208 A 
ATOM      3  C   UNL     1     136.600 -19.535  78.886  1.00  0.00     0.238 A 
ATOM      4  O   UNL     1     135.487 -19.983  78.508  1.00  0.00    -0.285 OA
ATOM      5  C   UNL     1     136.703 -18.623  79.965  1.00  0.00     0.111 A 
ATOM      6  C   UNL     1     135.591 -18.074  80.673  1.00  0.00     0.134 A 
ATOM      7  C   UNL     1     135.818 -17.265  81.794  1.00  0.00     0.093 A 
ATOM      8  C   UNL     1     137.112 -16.932  82.192  1.00  0.00     0.123 A 
ATOM      9  C   UNL     1     138.204 -17.418  81.474  1.00  0.00     0.094 A 
ATOM     10  C   UNL     1     138.013 -18.259  80.376  1.00  0.00     0.146 A 
ATOM     11  O   UNL     1     139.080 -18.716  79.734  1.00  0.00    -0.452 OA
ENDROOT
BRANCH   1  12
ATOM     12  C   UNL     1     140.283 -19.979  78.071  1.00  0.00     0.025 A 
ATOM     13  C   UNL     1     140.856 -19.193  77.058  1.00  0.00     0.016 A 
ATOM     14  C   UNL     1     142.062 -19.572  76.466  1.00  0.00     0.051 A 
ATOM     15  C   UNL     1     142.723 -20.734  76.886  1.00  0.00     0.157 A 
ATOM     16  C   UNL     1     140.958 -21.133  78.505  1.00  0.00     0.062 A 
ATOM     17  C   UNL     1     142.169 -21.515  77.915  1.00  0.00     0.158 A 
BRANCH  15  18
ATOM     18  O   UNL     1     143.925 -21.111  76.292  1.00  0.00    -0.504 OA
ATOM     19  H   UNL     1     144.029 -21.156  75.285  1.00  0.00     0.293 HD
ENDBRANCH  15  18
BRANCH  17  20
ATOM     20  O   UNL     1     142.809 -22.669  78.367  1.00  0.00    -0.504 OA
ATOM     21  H   UNL     1     143.647 -23.027  77.925  1.00  0.00     0.293 HD
ENDBRANCH  17  20
ENDBRANCH   1  12
BRANCH   2  22
ATOM     22  O   UNL     1     137.678 -20.815  77.116  1.00  0.00    -0.502 OA
ATOM     23  H   UNL     1     138.461 -21.370  76.793  1.00  0.00     0.293 HD
ENDBRANCH   2  22
BRANCH   6  24
ATOM     24  O   UNL     1     134.256 -18.270  80.309  1.00  0.00    -0.507 OA
ATOM     25  H   UNL     1     133.467 -17.814  80.741  1.00  0.00     0.293 HD
ENDBRANCH   6  24
BRANCH   8  26
ATOM     26  O   UNL     1     137.299 -16.109  83.301  1.00  0.00    -0.508 OA
ATOM     27  H   UNL     1     137.581 -15.141  83.202  1.00  0.00     0.293 HD
ENDBRANCH   8  26
TORSDOF 6
ENDMDL
MODEL 3
REMARK VINA RESULT:    -7.248      3.737      6.257
REMARK INTER + INTRA:          -9.053
REMARK INTER:                  -8.956
REMARK INTRA:                  -0.097
REMARK UNBOUND:                -0.322
REMARK SMILES O=c1c(O)c(-c2ccc(O)c(O)c2)oc2cc(O)cc(O)c12
REMARK SMILES IDX 5 1 3 2 2 3 1 4 22 5 20 6 19 7 17 8 16 9 15 10 14 11 6 12
REMARK SMILES IDX 7 13 8 14 9 15 13 16 11 17 10 18 12 20 4 22 21 24 18 26
REMARK H PARENT 10 19 12 21 4 23 21 25 18 27
REMARK Flexibility Score: inf
ROOT
ATOM      1  C   UNL     1     134.046 -18.963  76.940  1.00  0.00     0.180 A 
ATOM      2  C   UNL     1     133.308 -19.415  78.047  1.00  0.00     0.208 A 
ATOM      3  C   UNL     1     133.993 -19.928  79.160  1.00  0.00     0.238 A 
ATOM      4  O   UNL     1     133.324 -20.399  80.116  1.00  0.00    -0.285 OA
ATOM      5  C   UNL     1     135.410 -19.932  79.175  1.00  0.00     0.111 A 
ATOM      6  C   UNL     1     136.209 -20.386  80.267  1.00  0.00     0.134 A 
ATOM      7  C   UNL     1     137.602 -20.442  80.127  1.00  0.00     0.093 A 
ATOM      8  C   UNL     1     138.228 -20.000  78.962  1.00  0.00     0.123 A 
ATOM      9  C   UNL     1     137.459 -19.503  77.909  1.00  0.00     0.094 A 
ATOM     10  C   UNL     1     136.066 -19.471  78.003  1.00  0.00     0.146 A 
ATOM     11  O   UNL     1     135.372 -19.009  76.970  1.00  0.00    -0.452 OA
ENDROOT
BRANCH   1  12
ATOM     12  C   UNL     1     133.395 -18.423  75.724  1.00  0.00     0.025 A 
ATOM     13  C   UNL     1     133.592 -19.067  74.492  1.00  0.00     0.016 A 
ATOM     14  C   UNL     1     132.971 -18.588  73.336  1.00  0.00     0.051 A 
ATOM     15  C   UNL     1     132.132 -17.467  73.396  1.00  0.00     0.157 A 
ATOM     16  C   UNL     1     132.536 -17.311  75.785  1.00  0.00     0.062 A 
ATOM     17  C   UNL     1     131.911 -16.829  74.629  1.00  0.00     0.158 A 
BRANCH  15  18
ATOM     18  O   UNL     1     131.516 -16.990  72.241  1.00  0.00    -0.504 OA
ATOM     19  H   UNL     1     130.570 -16.627  72.255  1.00  0.00     0.293 HD
ENDBRANCH  15  18
BRANCH  17  20
ATOM     20  O   UNL     1     131.070 -15.721  74.725  1.00  0.00    -0.504 OA
ATOM     21  H   UNL     1     131.019 -15.019  73.996  1.00  0.00     0.293 HD
ENDBRANCH  17  20
ENDBRANCH   1  12
BRANCH   2  22
ATOM     22  O   UNL     1     131.912 -19.332  78.043  1.00  0.00    -0.502 OA
ATOM     23  H   UNL     1     131.416 -18.510  78.364  1.00  0.00     0.293 HD
ENDBRANCH   2  22
BRANCH   6  24
ATOM     24  O   UNL     1     135.694 -20.768  81.509  1.00  0.00    -0.507 OA
ATOM     25  H   UNL     1     134.898 -20.342  81.960  1.00  0.00     0.293 HD
ENDBRANCH   6  24
BRANCH   8  26
ATOM     26  O   UNL     1     139.616 -20.054  78.865  1.00  0.00    -0.508 OA
ATOM     27  H   UNL     1     140.078 -20.313  78.001  1.00  0.00     0.293 HD
ENDBRANCH   8  26
TORSDOF 6
ENDMDL
MODEL 4
REMARK VINA RESULT:    -6.750      2.683      5.175
REMARK INTER + INTRA:          -8.453
REMARK INTER:                  -8.306
REMARK INTRA:                  -0.147
REMARK UNBOUND:                -0.322
REMARK SMILES O=c1c(O)c(-c2ccc(O)c(O)c2)oc2cc(O)cc(O)c12
REMARK SMILES IDX 5 1 3 2 2 3 1 4 22 5 20 6 19 7 17 8 16 9 15 10 14 11 6 12
REMARK SMILES IDX 7 13 8 14 9 15 13 16 11 17 10 18 12 20 4 22 21 24 18 26
REMARK H PARENT 10 19 12 21 4 23 21 25 18 27
REMARK Flexibility Score: inf
ROOT
ATOM      1  C   UNL     1     139.459 -18.005  78.911  1.00  0.00     0.180 A 
ATOM      2  C   UNL     1     138.087 -17.889  78.631  1.00  0.00     0.208 A 
ATOM      3  C   UNL     1     137.380 -16.785  79.135  1.00  0.00     0.238 A 
ATOM      4  O   UNL     1     136.138 -16.727  78.943  1.00  0.00    -0.285 OA
ATOM      5  C   UNL     1     138.064 -15.783  79.866  1.00  0.00     0.111 A 
ATOM      6  C   UNL     1     137.457 -14.600  80.385  1.00  0.00     0.134 A 
ATOM      7  C   UNL     1     138.211 -13.731  81.185  1.00  0.00     0.093 A 
ATOM      8  C   UNL     1     139.563 -13.968  81.430  1.00  0.00     0.123 A 
ATOM      9  C   UNL     1     140.180 -15.092  80.881  1.00  0.00     0.094 A 
ATOM     10  C   UNL     1     139.446 -15.998  80.112  1.00  0.00     0.146 A 
ATOM     11  O   UNL     1     140.067 -17.066  79.627  1.00  0.00    -0.452 OA
ENDROOT
BRANCH   1  12
ATOM     12  C   UNL     1     140.269 -19.146  78.428  1.00  0.00     0.025 A 
ATOM     13  C   UNL     1     139.969 -20.443  78.874  1.00  0.00     0.016 A 
ATOM     14  C   UNL     1     140.707 -21.537  78.416  1.00  0.00     0.051 A 
ATOM     15  C   UNL     1     141.746 -21.354  77.494  1.00  0.00     0.157 A 
ATOM     16  C   UNL     1     141.300 -18.968  77.487  1.00  0.00     0.062 A 
ATOM     17  C   UNL     1     142.039 -20.063  77.024  1.00  0.00     0.158 A 
BRANCH  15  18
ATOM     18  O   UNL     1     142.481 -22.447  77.040  1.00  0.00    -0.504 OA
ATOM     19  H   UNL     1     142.441 -23.345  77.508  1.00  0.00     0.293 HD
ENDBRANCH  15  18
BRANCH  17  20
ATOM     20  O   UNL     1     143.057 -19.848  76.095  1.00  0.00    -0.504 OA
ATOM     21  H   UNL     1     144.004 -20.174  76.251  1.00  0.00     0.293 HD
ENDBRANCH  17  20
ENDBRANCH   1  12
BRANCH   2  22
ATOM     22  O   UNL     1     137.447 -18.849  77.843  1.00  0.00    -0.502 OA
ATOM     23  H   UNL     1     136.974 -19.652  78.242  1.00  0.00     0.293 HD
ENDBRANCH   2  22
BRANCH   6  24
ATOM     24  O   UNL     1     136.136 -14.220  80.130  1.00  0.00    -0.507 OA
ATOM     25  H   UNL     1     135.729 -13.336  80.394  1.00  0.00     0.293 HD
ENDBRANCH   6  24
BRANCH   8  26
ATOM     26  O   UNL     1     140.286 -13.072  82.215  1.00  0.00    -0.508 OA
ATOM     27  H   UNL     1     141.266 -13.221  82.424  1.00  0.00     0.293 HD
ENDBRANCH   8  26
TORSDOF 6
ENDMDL
MODEL 5
REMARK VINA RESULT:    -6.739      2.678      6.744
REMARK INTER + INTRA:          -8.440
REMARK INTER:                  -8.293
REMARK INTRA:                  -0.148
REMARK UNBOUND:                -0.322
REMARK SMILES O=c1c(O)c(-c2ccc(O)c(O)c2)oc2cc(O)cc(O)c12
REMARK SMILES IDX 5 1 3 2 2 3 1 4 22 5 20 6 19 7 17 8 16 9 15 10 14 11 6 12
REMARK SMILES IDX 7 13 8 14 9 15 13 16 11 17 10 18 12 20 4 22 21 24 18 26
REMARK H PARENT 10 19 12 21 4 23 21 25 18 27
REMARK Flexibility Score: inf
ROOT
ATOM      1  C   UNL     1     139.177 -19.130  78.682  1.00  0.00     0.180 A 
ATOM      2  C   UNL     1     139.221 -17.884  79.329  1.00  0.00     0.208 A 
ATOM      3  C   UNL     1     138.048 -17.375  79.908  1.00  0.00     0.238 A 
ATOM      4  O   UNL     1     138.078 -16.226  80.422  1.00  0.00    -0.285 OA
ATOM      5  C   UNL     1     136.858 -18.143  79.882  1.00  0.00     0.111 A 
ATOM      6  C   UNL     1     135.622 -17.746  80.476  1.00  0.00     0.134 A 
ATOM      7  C   UNL     1     134.482 -18.540  80.294  1.00  0.00     0.093 A 
ATOM      8  C   UNL     1     134.547 -19.745  79.596  1.00  0.00     0.123 A 
ATOM      9  C   UNL     1     135.762 -20.169  79.058  1.00  0.00     0.094 A 
ATOM     10  C   UNL     1     136.908 -19.381  79.189  1.00  0.00     0.146 A 
ATOM     11  O   UNL     1     138.039 -19.812  78.644  1.00  0.00    -0.452 OA
ENDROOT
BRANCH   1  12
ATOM     12  C   UNL     1     140.368 -19.726  78.034  1.00  0.00     0.025 A 
ATOM     13  C   UNL     1     140.963 -19.068  76.945  1.00  0.00     0.016 A 
ATOM     14  C   UNL     1     142.099 -19.601  76.332  1.00  0.00     0.051 A 
ATOM     15  C   UNL     1     142.668 -20.791  76.807  1.00  0.00     0.157 A 
ATOM     16  C   UNL     1     140.953 -20.908  78.521  1.00  0.00     0.062 A 
ATOM     17  C   UNL     1     142.094 -21.444  77.910  1.00  0.00     0.158 A 
BRANCH  15  18
ATOM     18  O   UNL     1     143.800 -21.320  76.192  1.00  0.00    -0.504 OA
ATOM     19  H   UNL     1     144.591 -20.738  75.943  1.00  0.00     0.293 HD
ENDBRANCH  15  18
BRANCH  17  20
ATOM     20  O   UNL     1     142.643 -22.621  78.417  1.00  0.00    -0.504 OA
ATOM     21  H   UNL     1     142.276 -23.073  79.246  1.00  0.00     0.293 HD
ENDBRANCH  17  20
ENDBRANCH   1  12
BRANCH   2  22
ATOM     22  O   UNL     1     140.424 -17.176  79.411  1.00  0.00    -0.502 OA
ATOM     23  H   UNL     1     141.060 -17.275  80.194  1.00  0.00     0.293 HD
ENDBRANCH   2  22
BRANCH   6  24
ATOM     24  O   UNL     1     135.464 -16.605  81.269  1.00  0.00    -0.507 OA
ATOM     25  H   UNL     1     135.054 -16.595  82.190  1.00  0.00     0.293 HD
ENDBRANCH   6  24
BRANCH   8  26
ATOM     26  O   UNL     1     133.396 -20.517  79.450  1.00  0.00    -0.508 OA
ATOM     27  H   UNL     1     133.346 -21.271  78.775  1.00  0.00     0.293 HD
ENDBRANCH   8  26
TORSDOF 6
ENDMDL
MODEL 6
REMARK VINA RESULT:    -6.708      1.437      7.128
REMARK INTER + INTRA:          -8.402
REMARK INTER:                  -8.305
REMARK INTRA:                  -0.098
REMARK UNBOUND:                -0.322
REMARK SMILES O=c1c(O)c(-c2ccc(O)c(O)c2)oc2cc(O)cc(O)c12
REMARK SMILES IDX 5 1 3 2 2 3 1 4 22 5 20 6 19 7 17 8 16 9 15 10 14 11 6 12
REMARK SMILES IDX 7 13 8 14 9 15 13 16 11 17 10 18 12 20 4 22 21 24 18 26
REMARK H PARENT 10 19 12 21 4 23 21 25 18 27
REMARK Flexibility Score: inf
ROOT
ATOM      1  C   UNL     1     137.846 -17.603  79.801  1.00  0.00     0.180 A 
ATOM      2  C   UNL     1     137.220 -18.127  80.944  1.00  0.00     0.208 A 
ATOM      3  C   UNL     1     135.966 -18.746  80.812  1.00  0.00     0.238 A 
ATOM      4  O   UNL     1     135.379 -19.146  81.850  1.00  0.00    -0.285 OA
ATOM      5  C   UNL     1     135.379 -18.882  79.530  1.00  0.00     0.111 A 
ATOM      6  C   UNL     1     134.134 -19.531  79.272  1.00  0.00     0.134 A 
ATOM      7  C   UNL     1     133.601 -19.512  77.977  1.00  0.00     0.093 A 
ATOM      8  C   UNL     1     134.296 -18.925  76.920  1.00  0.00     0.123 A 
ATOM      9  C   UNL     1     135.539 -18.337  77.151  1.00  0.00     0.094 A 
ATOM     10  C   UNL     1     136.080 -18.305  78.438  1.00  0.00     0.146 A 
ATOM     11  O   UNL     1     137.256 -17.717  78.617  1.00  0.00    -0.452 OA
ENDROOT
BRANCH   1  12
ATOM     12  C   UNL     1     139.160 -16.924  79.862  1.00  0.00     0.025 A 
ATOM     13  C   UNL     1     140.204 -17.364  79.033  1.00  0.00     0.016 A 
ATOM     14  C   UNL     1     141.446 -16.725  79.059  1.00  0.00     0.051 A 
ATOM     15  C   UNL     1     141.659 -15.627  79.903  1.00  0.00     0.157 A 
ATOM     16  C   UNL     1     139.371 -15.809  80.693  1.00  0.00     0.062 A 
ATOM     17  C   UNL     1     140.614 -15.165  80.720  1.00  0.00     0.158 A 
BRANCH  15  18
ATOM     18  O   UNL     1     142.900 -14.994  79.929  1.00  0.00    -0.504 OA
ATOM     19  H   UNL     1     142.983 -13.987  79.852  1.00  0.00     0.293 HD
ENDBRANCH  15  18
BRANCH  17  20
ATOM     20  O   UNL     1     140.789 -14.066  81.561  1.00  0.00    -0.504 OA
ATOM     21  H   UNL     1     140.016 -13.472  81.837  1.00  0.00     0.293 HD
ENDBRANCH  17  20
ENDBRANCH   1  12
BRANCH   2  22
ATOM     22  O   UNL     1     137.851 -18.050  82.189  1.00  0.00    -0.502 OA
ATOM     23  H   UNL     1     138.160 -18.872  82.694  1.00  0.00     0.293 HD
ENDBRANCH   2  22
BRANCH   6  24
ATOM     24  O   UNL     1     133.397 -20.224  80.236  1.00  0.00    -0.507 OA
ATOM     25  H   UNL     1     133.770 -20.578  81.104  1.00  0.00     0.293 HD
ENDBRANCH   6  24
BRANCH   8  26
ATOM     26  O   UNL     1     133.743 -18.941  75.641  1.00  0.00    -0.508 OA
ATOM     27  H   UNL     1     134.319 -18.847  74.813  1.00  0.00     0.293 HD
ENDBRANCH   8  26
TORSDOF 6
ENDMDL
