MODEL 1
REMARK VINA RESULT:    26.294      0.000      0.000
REMARK INTER + INTRA:          68.076
REMARK INTER:                  69.333
REMARK INTRA:                  -1.257
REMARK UNBOUND:                -1.257
REMARK SMILES CCCCCCCCCCCCCCCCCCCCCCCCCCCCCC(=O)[O-]
REMARK SMILES IDX 16 1 17 2 18 3 19 4 20 5 21 6 22 7 23 8 24 9 25 10 26 11
REMARK SMILES IDX 27 12 28 13 29 14 30 15 31 16 32 17 15 18 14 19 13 20 12 21
REMARK SMILES IDX 11 22 10 23 9 24 8 25 7 26 6 27 5 28 4 29 3 30 2 31 1 32
REMARK H PARENT
REMARK Flexibility Score: inf
ROOT
ATOM      1  C   UNL     1       2.807  45.051  17.636  1.00  0.00     0.000 C 
ENDROOT
BRANCH   1   2
ATOM      2  C   UNL     1       2.131  46.106  18.522  1.00  0.00     0.000 C 
BRANCH   2   3
ATOM      3  C   UNL     1       1.960  45.647  19.980  1.00  0.00     0.000 C 
BRANCH   3   4
ATOM      4  C   UNL     1       2.721  44.347  20.315  1.00  0.00     0.000 C 
BRANCH   4   5
ATOM      5  C   UNL     1       2.184  43.670  21.585  1.00  0.00     0.000 C 
BRANCH   5   6
ATOM      6  C   UNL     1       2.819  42.288  21.785  1.00  0.00     0.000 C 
BRANCH   6   7
ATOM      7  C   UNL     1       3.222  42.075  23.252  1.00  0.00     0.000 C 
BRANCH   7   8
ATOM      8  C   UNL     1       4.631  41.478  23.396  1.00  0.00     0.000 C 
BRANCH   8   9
ATOM      9  C   UNL     1       5.696  42.297  22.645  1.00  0.00     0.000 C 
BRANCH   9  10
ATOM     10  C   UNL     1       6.764  42.895  23.580  1.00  0.00     0.000 C 
BRANCH  10  11
ATOM     11  C   UNL     1       8.217  42.712  23.104  1.00  0.00     0.000 C 
BRANCH  11  12
ATOM     12  C   UNL     1       8.368  41.599  22.054  1.00  0.00     0.000 C 
BRANCH  12  13
ATOM     13  C   UNL     1       9.372  41.953  20.943  1.00  0.00     0.006 C 
BRANCH  13  14
ATOM     14  C   UNL     1       8.736  42.061  19.545  1.00  0.00     0.053 C 
BRANCH  14  15
ATOM     15  C   UNL     1       9.520  41.325  18.501  1.00  0.00     0.041 C 
ATOM     16  O   UNL     1       9.092  40.234  18.039  1.00  0.00    -0.550 OA
ATOM     17  O   UNL     1      10.741  41.822  18.062  1.00  0.00    -0.550 OA
ENDBRANCH  14  15
ENDBRANCH  13  14
ENDBRANCH  12  13
ENDBRANCH  11  12
ENDBRANCH  10  11
ENDBRANCH   9  10
ENDBRANCH   8   9
ENDBRANCH   7   8
ENDBRANCH   6   7
ENDBRANCH   5   6
ENDBRANCH   4   5
ENDBRANCH   3   4
ENDBRANCH   2   3
ENDBRANCH   1   2
BRANCH   1  18
ATOM     18  C   UNL     1       3.596  45.712  16.498  1.00  0.00     0.000 C 
BRANCH  18  19
ATOM     19  C   UNL     1       2.706  46.671  15.693  1.00  0.00     0.000 C 
BRANCH  19  20
ATOM     20  C   UNL     1       3.480  47.884  15.148  1.00  0.00     0.000 C 
BRANCH  20  21
ATOM     21  C   UNL     1       4.089  47.623  13.763  1.00  0.00     0.000 C 
BRANCH  21  22
ATOM     22  C   UNL     1       5.561  48.053  13.717  1.00  0.00     0.000 C 
BRANCH  22  23
ATOM     23  C   UNL     1       6.249  47.697  12.388  1.00  0.00     0.000 C 
BRANCH  23  24
ATOM     24  C   UNL     1       7.742  48.078  12.338  1.00  0.00    -0.000 C 
BRANCH  24  25
ATOM     25  C   UNL     1       8.377  47.771  10.969  1.00  0.00    -0.000 C 
BRANCH  25  26
ATOM     26  C   UNL     1       8.364  48.985  10.028  1.00  0.00    -0.000 C 
BRANCH  26  27
ATOM     27  C   UNL     1       7.343  48.836   8.890  1.00  0.00    -0.000 C 
BRANCH  27  28
ATOM     28  C   UNL     1       6.230  49.887   9.009  1.00  0.00    -0.000 C 
BRANCH  28  29
ATOM     29  C   UNL     1       4.824  49.274   8.885  1.00  0.00    -0.000 C 
BRANCH  29  30
ATOM     30  C   UNL     1       3.943  49.575  10.111  1.00  0.00    -0.000 C 
BRANCH  30  31
ATOM     31  C   UNL     1       3.496  48.302  10.845  1.00  0.00    -0.003 C 
ATOM     32  C   UNL     1       4.151  47.036  10.292  1.00  0.00     0.004 C 
ENDBRANCH  30  31
ENDBRANCH  29  30
ENDBRANCH  28  29
ENDBRANCH  27  28
ENDBRANCH  26  27
ENDBRANCH  25  26
ENDBRANCH  24  25
ENDBRANCH  23  24
ENDBRANCH  22  23
ENDBRANCH  21  22
ENDBRANCH  20  21
ENDBRANCH  19  20
ENDBRANCH  18  19
ENDBRANCH   1  18
TORSDOF 28
ENDMDL
MODEL 2
REMARK VINA RESULT:    26.457      4.075     10.856
REMARK INTER + INTRA:          68.508
REMARK INTER:                  69.369
REMARK INTRA:                  -0.861
REMARK UNBOUND:                -1.257
REMARK SMILES CCCCCCCCCCCCCCCCCCCCCCCCCCCCCC(=O)[O-]
REMARK SMILES IDX 16 1 17 2 18 3 19 4 20 5 21 6 22 7 23 8 24 9 25 10 26 11
REMARK SMILES IDX 27 12 28 13 29 14 30 15 31 16 32 17 15 18 14 19 13 20 12 21
REMARK SMILES IDX 11 22 10 23 9 24 8 25 7 26 6 27 5 28 4 29 3 30 2 31 1 32
REMARK H PARENT
REMARK Flexibility Score: inf
ROOT
ATOM      1  C   UNL     1       3.675  47.076  20.087  1.00  0.00     0.000 C 
ENDROOT
BRANCH   1   2
ATOM      2  C   UNL     1       2.614  46.654  19.061  1.00  0.00     0.000 C 
BRANCH   2   3
ATOM      3  C   UNL     1       3.123  45.591  18.072  1.00  0.00     0.000 C 
BRANCH   3   4
ATOM      4  C   UNL     1       3.305  46.119  16.633  1.00  0.00     0.000 C 
BRANCH   4   5
ATOM      5  C   UNL     1       2.299  47.229  16.291  1.00  0.00     0.000 C 
BRANCH   5   6
ATOM      6  C   UNL     1       2.370  47.600  14.804  1.00  0.00     0.000 C 
BRANCH   6   7
ATOM      7  C   UNL     1       3.675  47.092  14.173  1.00  0.00     0.000 C 
BRANCH   7   8
ATOM      8  C   UNL     1       4.168  47.995  13.030  1.00  0.00     0.000 C 
BRANCH   8   9
ATOM      9  C   UNL     1       5.703  48.013  12.914  1.00  0.00     0.000 C 
BRANCH   9  10
ATOM     10  C   UNL     1       6.204  47.623  11.512  1.00  0.00     0.000 C 
BRANCH  10  11
ATOM     11  C   UNL     1       7.723  47.394  11.408  1.00  0.00     0.000 C 
BRANCH  11  12
ATOM     12  C   UNL     1       8.401  48.323  10.388  1.00  0.00     0.000 C 
BRANCH  12  13
ATOM     13  C   UNL     1       7.666  48.373   9.037  1.00  0.00     0.006 C 
BRANCH  13  14
ATOM     14  C   UNL     1       6.685  49.552   8.908  1.00  0.00     0.053 C 
BRANCH  14  15
ATOM     15  C   UNL     1       5.252  49.110   8.926  1.00  0.00     0.041 C 
ATOM     16  O   UNL     1       4.966  47.885   8.884  1.00  0.00    -0.550 OA
ATOM     17  O   UNL     1       4.230  50.051   8.952  1.00  0.00    -0.550 OA
ENDBRANCH  14  15
ENDBRANCH  13  14
ENDBRANCH  12  13
ENDBRANCH  11  12
ENDBRANCH  10  11
ENDBRANCH   9  10
ENDBRANCH   8   9
ENDBRANCH   7   8
ENDBRANCH   6   7
ENDBRANCH   5   6
ENDBRANCH   4   5
ENDBRANCH   3   4
ENDBRANCH   2   3
ENDBRANCH   1   2
BRANCH   1  18
ATOM     18  C   UNL     1       4.375  45.849  20.688  1.00  0.00     0.000 C 
BRANCH  18  19
ATOM     19  C   UNL     1       5.763  46.218  21.234  1.00  0.00     0.000 C 
BRANCH  19  20
ATOM     20  C   UNL     1       6.746  46.635  20.128  1.00  0.00     0.000 C 
BRANCH  20  21
ATOM     21  C   UNL     1       7.732  45.516  19.760  1.00  0.00     0.000 C 
BRANCH  21  22
ATOM     22  C   UNL     1       9.173  45.913  20.108  1.00  0.00     0.000 C 
BRANCH  22  23
ATOM     23  C   UNL     1       9.969  44.770  20.759  1.00  0.00     0.000 C 
BRANCH  23  24
ATOM     24  C   UNL     1      10.413  43.676  19.767  1.00  0.00    -0.000 C 
BRANCH  24  25
ATOM     25  C   UNL     1       9.991  42.267  20.226  1.00  0.00    -0.000 C 
BRANCH  25  26
ATOM     26  C   UNL     1       9.193  41.512  19.153  1.00  0.00    -0.000 C 
BRANCH  26  27
ATOM     27  C   UNL     1       9.900  41.507  17.789  1.00  0.00    -0.000 C 
BRANCH  27  28
ATOM     28  C   UNL     1      10.273  40.078  17.368  1.00  0.00    -0.000 C 
BRANCH  28  29
ATOM     29  C   UNL     1      11.662  40.001  16.711  1.00  0.00    -0.000 C 
BRANCH  29  30
ATOM     30  C   UNL     1      12.164  38.552  16.572  1.00  0.00    -0.000 C 
BRANCH  30  31
ATOM     31  C   UNL     1      13.670  38.420  16.850  1.00  0.00    -0.003 C 
ATOM     32  C   UNL     1      14.136  39.283  18.022  1.00  0.00     0.004 C 
ENDBRANCH  30  31
ENDBRANCH  29  30
ENDBRANCH  28  29
ENDBRANCH  27  28
ENDBRANCH  26  27
ENDBRANCH  25  26
ENDBRANCH  24  25
ENDBRANCH  23  24
ENDBRANCH  22  23
ENDBRANCH  21  22
ENDBRANCH  20  21
ENDBRANCH  19  20
ENDBRANCH  18  19
ENDBRANCH   1  18
TORSDOF 28
ENDMDL
MODEL 3
REMARK VINA RESULT:    26.682      1.395      2.713
REMARK INTER + INTRA:          69.100
REMARK INTER:                  69.619
REMARK INTRA:                  -0.519
REMARK UNBOUND:                -1.257
REMARK SMILES CCCCCCCCCCCCCCCCCCCCCCCCCCCCCC(=O)[O-]
REMARK SMILES IDX 16 1 17 2 18 3 19 4 20 5 21 6 22 7 23 8 24 9 25 10 26 11
REMARK SMILES IDX 27 12 28 13 29 14 30 15 31 16 32 17 15 18 14 19 13 20 12 21
REMARK SMILES IDX 11 22 10 23 9 24 8 25 7 26 6 27 5 28 4 29 3 30 2 31 1 32
REMARK H PARENT
REMARK Flexibility Score: inf
ROOT
ATOM      1  C   UNL     1       3.397  44.815  16.855  1.00  0.00     0.000 C 
ENDROOT
BRANCH   1   2
ATOM      2  C   UNL     1       2.944  45.563  18.116  1.00  0.00     0.000 C 
BRANCH   2   3
ATOM      3  C   UNL     1       2.115  44.686  19.071  1.00  0.00     0.000 C 
BRANCH   3   4
ATOM      4  C   UNL     1       1.975  45.275  20.490  1.00  0.00     0.000 C 
BRANCH   4   5
ATOM      5  C   UNL     1       2.803  44.499  21.526  1.00  0.00     0.000 C 
BRANCH   5   6
ATOM      6  C   UNL     1       1.997  43.336  22.118  1.00  0.00     0.000 C 
BRANCH   6   7
ATOM      7  C   UNL     1       2.374  42.007  21.445  1.00  0.00     0.000 C 
BRANCH   7   8
ATOM      8  C   UNL     1       3.094  41.044  22.403  1.00  0.00     0.000 C 
BRANCH   8   9
ATOM      9  C   UNL     1       4.029  41.778  23.381  1.00  0.00     0.000 C 
BRANCH   9  10
ATOM     10  C   UNL     1       5.508  41.715  22.961  1.00  0.00     0.000 C 
BRANCH  10  11
ATOM     11  C   UNL     1       6.352  42.934  23.375  1.00  0.00     0.000 C 
BRANCH  11  12
ATOM     12  C   UNL     1       7.850  42.610  23.505  1.00  0.00     0.000 C 
BRANCH  12  13
ATOM     13  C   UNL     1       8.496  42.206  22.169  1.00  0.00     0.006 C 
BRANCH  13  14
ATOM     14  C   UNL     1       9.863  42.867  21.916  1.00  0.00     0.053 C 
BRANCH  14  15
ATOM     15  C   UNL     1       9.941  43.524  20.570  1.00  0.00     0.041 C 
ATOM     16  O   UNL     1      10.957  44.197  20.252  1.00  0.00    -0.550 OA
ATOM     17  O   UNL     1       8.880  43.424  19.680  1.00  0.00    -0.550 OA
ENDBRANCH  14  15
ENDBRANCH  13  14
ENDBRANCH  12  13
ENDBRANCH  11  12
ENDBRANCH  10  11
ENDBRANCH   9  10
ENDBRANCH   8   9
ENDBRANCH   7   8
ENDBRANCH   6   7
ENDBRANCH   5   6
ENDBRANCH   4   5
ENDBRANCH   3   4
ENDBRANCH   2   3
ENDBRANCH   1   2
BRANCH   1  18
ATOM     18  C   UNL     1       4.189  45.740  15.922  1.00  0.00     0.000 C 
BRANCH  18  19
ATOM     19  C   UNL     1       3.397  47.018  15.607  1.00  0.00     0.000 C 
BRANCH  19  20
ATOM     20  C   UNL     1       2.198  46.761  14.679  1.00  0.00     0.000 C 
BRANCH  20  21
ATOM     21  C   UNL     1       2.539  46.977  13.198  1.00  0.00     0.000 C 
BRANCH  21  22
ATOM     22  C   UNL     1       3.835  47.782  13.040  1.00  0.00     0.000 C 
BRANCH  22  23
ATOM     23  C   UNL     1       4.354  47.807  11.592  1.00  0.00     0.000 C 
BRANCH  23  24
ATOM     24  C   UNL     1       3.855  49.014  10.773  1.00  0.00    -0.000 C 
BRANCH  24  25
ATOM     25  C   UNL     1       4.649  49.200   9.466  1.00  0.00    -0.000 C 
BRANCH  25  26
ATOM     26  C   UNL     1       5.135  47.868   8.877  1.00  0.00    -0.000 C 
BRANCH  26  27
ATOM     27  C   UNL     1       6.270  47.240   9.699  1.00  0.00    -0.000 C 
BRANCH  27  28
ATOM     28  C   UNL     1       7.577  47.203   8.894  1.00  0.00    -0.000 C 
BRANCH  28  29
ATOM     29  C   UNL     1       8.479  48.417   9.179  1.00  0.00    -0.000 C 
BRANCH  29  30
ATOM     30  C   UNL     1       8.184  49.058  10.547  1.00  0.00    -0.000 C 
BRANCH  30  31
ATOM     31  C   UNL     1       8.551  48.139  11.722  1.00  0.00    -0.003 C 
ATOM     32  C   UNL     1       7.366  47.849  12.642  1.00  0.00     0.004 C 
ENDBRANCH  30  31
ENDBRANCH  29  30
ENDBRANCH  28  29
ENDBRANCH  27  28
ENDBRANCH  26  27
ENDBRANCH  25  26
ENDBRANCH  24  25
ENDBRANCH  23  24
ENDBRANCH  22  23
ENDBRANCH  21  22
ENDBRANCH  20  21
ENDBRANCH  19  20
ENDBRANCH  18  19
ENDBRANCH   1  18
TORSDOF 28
ENDMDL
MODEL 4
REMARK VINA RESULT:    26.895      2.646      4.363
REMARK INTER + INTRA:          69.663
REMARK INTER:                  71.639
REMARK INTRA:                  -1.976
REMARK UNBOUND:                -1.257
REMARK SMILES CCCCCCCCCCCCCCCCCCCCCCCCCCCCCC(=O)[O-]
REMARK SMILES IDX 16 1 17 2 18 3 19 4 20 5 21 6 22 7 23 8 24 9 25 10 26 11
REMARK SMILES IDX 27 12 28 13 29 14 30 15 31 16 32 17 15 18 14 19 13 20 12 21
REMARK SMILES IDX 11 22 10 23 9 24 8 25 7 26 6 27 5 28 4 29 3 30 2 31 1 32
REMARK H PARENT
REMARK Flexibility Score: inf
ROOT
ATOM      1  C   UNL     1       2.903  47.052  18.187  1.00  0.00     0.000 C 
ENDROOT
BRANCH   1   2
ATOM      2  C   UNL     1       3.020  46.557  19.635  1.00  0.00     0.000 C 
BRANCH   2   3
ATOM      3  C   UNL     1       4.205  47.185  20.391  1.00  0.00     0.000 C 
BRANCH   3   4
ATOM      4  C   UNL     1       5.038  46.164  21.195  1.00  0.00     0.000 C 
BRANCH   4   5
ATOM      5  C   UNL     1       6.542  46.471  21.140  1.00  0.00     0.000 C 
BRANCH   5   6
ATOM      6  C   UNL     1       7.222  45.698  20.003  1.00  0.00     0.000 C 
BRANCH   6   7
ATOM      7  C   UNL     1       8.747  45.877  20.052  1.00  0.00     0.000 C 
BRANCH   7   8
ATOM      8  C   UNL     1       9.503  44.599  19.652  1.00  0.00     0.000 C 
BRANCH   8   9
ATOM      9  C   UNL     1       9.849  43.717  20.865  1.00  0.00     0.000 C 
BRANCH   9  10
ATOM     10  C   UNL     1       8.883  42.530  21.040  1.00  0.00     0.000 C 
BRANCH  10  11
ATOM     11  C   UNL     1       8.805  41.964  22.470  1.00  0.00     0.000 C 
BRANCH  11  12
ATOM     12  C   UNL     1       7.645  42.557  23.286  1.00  0.00     0.000 C 
BRANCH  12  13
ATOM     13  C   UNL     1       6.280  42.402  22.593  1.00  0.00     0.006 C 
BRANCH  13  14
ATOM     14  C   UNL     1       5.081  42.719  23.505  1.00  0.00     0.053 C 
BRANCH  14  15
ATOM     15  C   UNL     1       4.148  41.555  23.651  1.00  0.00     0.041 C 
ATOM     16  O   UNL     1       4.258  40.774  24.632  1.00  0.00    -0.550 OA
ATOM     17  O   UNL     1       3.179  41.310  22.686  1.00  0.00    -0.550 OA
ENDBRANCH  14  15
ENDBRANCH  13  14
ENDBRANCH  12  13
ENDBRANCH  11  12
ENDBRANCH  10  11
ENDBRANCH   9  10
ENDBRANCH   8   9
ENDBRANCH   7   8
ENDBRANCH   6   7
ENDBRANCH   5   6
ENDBRANCH   4   5
ENDBRANCH   3   4
ENDBRANCH   2   3
ENDBRANCH   1   2
BRANCH   1  18
ATOM     18  C   UNL     1       2.783  45.872  17.212  1.00  0.00     0.000 C 
BRANCH  18  19
ATOM     19  C   UNL     1       3.714  46.055  16.005  1.00  0.00     0.000 C 
BRANCH  19  20
ATOM     20  C   UNL     1       3.222  47.142  15.034  1.00  0.00     0.000 C 
BRANCH  20  21
ATOM     21  C   UNL     1       4.155  47.325  13.827  1.00  0.00     0.000 C 
BRANCH  21  22
ATOM     22  C   UNL     1       3.394  47.892  12.622  1.00  0.00     0.000 C 
BRANCH  22  23
ATOM     23  C   UNL     1       4.327  48.422  11.519  1.00  0.00     0.000 C 
BRANCH  23  24
ATOM     24  C   UNL     1       4.061  47.808  10.130  1.00  0.00    -0.000 C 
BRANCH  24  25
ATOM     25  C   UNL     1       4.348  48.802   8.989  1.00  0.00    -0.000 C 
BRANCH  25  26
ATOM     26  C   UNL     1       4.907  50.139   9.498  1.00  0.00    -0.000 C 
BRANCH  26  27
ATOM     27  C   UNL     1       6.268  50.483   8.875  1.00  0.00    -0.000 C 
BRANCH  27  28
ATOM     28  C   UNL     1       7.417  49.895   9.705  1.00  0.00    -0.000 C 
BRANCH  28  29
ATOM     29  C   UNL     1       8.337  48.982   8.876  1.00  0.00    -0.000 C 
BRANCH  29  30
ATOM     30  C   UNL     1       8.039  47.489   9.100  1.00  0.00    -0.000 C 
BRANCH  30  31
ATOM     31  C   UNL     1       7.226  47.234  10.379  1.00  0.00    -0.003 C 
ATOM     32  C   UNL     1       8.063  47.368  11.651  1.00  0.00     0.004 C 
ENDBRANCH  30  31
ENDBRANCH  29  30
ENDBRANCH  28  29
ENDBRANCH  27  28
ENDBRANCH  26  27
ENDBRANCH  25  26
ENDBRANCH  24  25
ENDBRANCH  23  24
ENDBRANCH  22  23
ENDBRANCH  21  22
ENDBRANCH  20  21
ENDBRANCH  19  20
ENDBRANCH  18  19
ENDBRANCH   1  18
TORSDOF 28
ENDMDL
MODEL 5
REMARK VINA RESULT:    27.212      2.733     11.676
REMARK INTER + INTRA:          70.498
REMARK INTER:                  70.379
REMARK INTRA:                   0.119
REMARK UNBOUND:                -1.257
REMARK SMILES CCCCCCCCCCCCCCCCCCCCCCCCCCCCCC(=O)[O-]
REMARK SMILES IDX 16 1 17 2 18 3 19 4 20 5 21 6 22 7 23 8 24 9 25 10 26 11
REMARK SMILES IDX 27 12 28 13 29 14 30 15 31 16 32 17 15 18 14 19 13 20 12 21
REMARK SMILES IDX 11 22 10 23 9 24 8 25 7 26 6 27 5 28 4 29 3 30 2 31 1 32
REMARK H PARENT
REMARK Flexibility Score: inf
ROOT
ATOM      1  C   UNL     1       2.374  46.686  17.968  1.00  0.00     0.000 C 
ENDROOT
BRANCH   1   2
ATOM      2  C   UNL     1       3.472  46.810  16.903  1.00  0.00     0.000 C 
BRANCH   2   3
ATOM      3  C   UNL     1       3.023  46.319  15.516  1.00  0.00     0.000 C 
BRANCH   3   4
ATOM      4  C   UNL     1       2.546  47.451  14.582  1.00  0.00     0.000 C 
BRANCH   4   5
ATOM      5  C   UNL     1       3.103  47.303  13.158  1.00  0.00     0.000 C 
BRANCH   5   6
ATOM      6  C   UNL     1       4.570  47.745  13.089  1.00  0.00     0.000 C 
BRANCH   6   7
ATOM      7  C   UNL     1       4.966  48.115  11.652  1.00  0.00     0.000 C 
BRANCH   7   8
ATOM      8  C   UNL     1       3.755  48.191  10.707  1.00  0.00     0.000 C 
BRANCH   8   9
ATOM      9  C   UNL     1       3.853  49.367   9.720  1.00  0.00     0.000 C 
BRANCH   9  10
ATOM     10  C   UNL     1       5.141  49.339   8.877  1.00  0.00     0.000 C 
BRANCH  10  11
ATOM     11  C   UNL     1       6.258  50.278   9.370  1.00  0.00     0.000 C 
BRANCH  11  12
ATOM     12  C   UNL     1       7.640  49.605   9.391  1.00  0.00     0.000 C 
BRANCH  12  13
ATOM     13  C   UNL     1       8.033  49.079  10.782  1.00  0.00     0.006 C 
BRANCH  13  14
ATOM     14  C   UNL     1       8.439  47.595  10.792  1.00  0.00     0.053 C 
BRANCH  14  15
ATOM     15  C   UNL     1       7.546  46.750   9.935  1.00  0.00     0.041 C 
ATOM     16  O   UNL     1       7.037  47.227   8.886  1.00  0.00    -0.550 OA
ATOM     17  O   UNL     1       7.242  45.448  10.311  1.00  0.00    -0.550 OA
ENDBRANCH  14  15
ENDBRANCH  13  14
ENDBRANCH  12  13
ENDBRANCH  11  12
ENDBRANCH  10  11
ENDBRANCH   9  10
ENDBRANCH   8   9
ENDBRANCH   7   8
ENDBRANCH   6   7
ENDBRANCH   5   6
ENDBRANCH   4   5
ENDBRANCH   3   4
ENDBRANCH   2   3
ENDBRANCH   1   2
BRANCH   1  18
ATOM     18  C   UNL     1       2.452  45.330  18.682  1.00  0.00     0.000 C 
BRANCH  18  19
ATOM     19  C   UNL     1       1.694  45.364  20.018  1.00  0.00     0.000 C 
BRANCH  19  20
ATOM     20  C   UNL     1       2.410  44.577  21.128  1.00  0.00     0.000 C 
BRANCH  20  21
ATOM     21  C   UNL     1       1.964  43.109  21.196  1.00  0.00     0.000 C 
BRANCH  21  22
ATOM     22  C   UNL     1       2.323  42.484  22.550  1.00  0.00     0.000 C 
BRANCH  22  23
ATOM     23  C   UNL     1       3.627  41.669  22.507  1.00  0.00     0.000 C 
BRANCH  23  24
ATOM     24  C   UNL     1       4.232  41.391  23.898  1.00  0.00    -0.000 C 
BRANCH  24  25
ATOM     25  C   UNL     1       5.638  42.000  24.055  1.00  0.00    -0.000 C 
BRANCH  25  26
ATOM     26  C   UNL     1       6.607  41.538  22.956  1.00  0.00    -0.000 C 
BRANCH  26  27
ATOM     27  C   UNL     1       7.392  42.704  22.336  1.00  0.00    -0.000 C 
BRANCH  27  28
ATOM     28  C   UNL     1       8.905  42.469  22.448  1.00  0.00    -0.000 C 
BRANCH  28  29
ATOM     29  C   UNL     1       9.679  43.025  21.240  1.00  0.00    -0.000 C 
BRANCH  29  30
ATOM     30  C   UNL     1       9.010  42.668  19.900  1.00  0.00    -0.000 C 
BRANCH  30  31
ATOM     31  C   UNL     1       9.577  41.381  19.281  1.00  0.00    -0.003 C 
ATOM     32  C   UNL     1       9.716  41.464  17.761  1.00  0.00     0.004 C 
ENDBRANCH  30  31
ENDBRANCH  29  30
ENDBRANCH  28  29
ENDBRANCH  27  28
ENDBRANCH  26  27
ENDBRANCH  25  26
ENDBRANCH  24  25
ENDBRANCH  23  24
ENDBRANCH  22  23
ENDBRANCH  21  22
ENDBRANCH  20  21
ENDBRANCH  19  20
ENDBRANCH  18  19
ENDBRANCH   1  18
TORSDOF 28
ENDMDL
MODEL 6
REMARK VINA RESULT:    27.486      2.318      4.006
REMARK INTER + INTRA:          71.220
REMARK INTER:                  73.182
REMARK INTRA:                  -1.962
REMARK UNBOUND:                -1.257
REMARK SMILES CCCCCCCCCCCCCCCCCCCCCCCCCCCCCC(=O)[O-]
REMARK SMILES IDX 16 1 17 2 18 3 19 4 20 5 21 6 22 7 23 8 24 9 25 10 26 11
REMARK SMILES IDX 27 12 28 13 29 14 30 15 31 16 32 17 15 18 14 19 13 20 12 21
REMARK SMILES IDX 11 22 10 23 9 24 8 25 7 26 6 27 5 28 4 29 3 30 2 31 1 32
REMARK H PARENT
REMARK Flexibility Score: inf
ROOT
ATOM      1  C   UNL     1       1.903  45.815  19.002  1.00  0.00     0.000 C 
ENDROOT
BRANCH   1   2
ATOM      2  C   UNL     1       2.619  46.303  20.268  1.00  0.00     0.000 C 
BRANCH   2   3
ATOM      3  C   UNL     1       3.912  47.081  19.967  1.00  0.00     0.000 C 
BRANCH   3   4
ATOM      4  C   UNL     1       5.026  46.861  21.011  1.00  0.00     0.000 C 
BRANCH   4   5
ATOM      5  C   UNL     1       5.870  45.614  20.705  1.00  0.00     0.000 C 
BRANCH   5   6
ATOM      6  C   UNL     1       7.219  45.999  20.084  1.00  0.00     0.000 C 
BRANCH   6   7
ATOM      7  C   UNL     1       8.343  45.089  20.603  1.00  0.00     0.000 C 
BRANCH   7   8
ATOM      8  C   UNL     1       9.742  45.608  20.231  1.00  0.00     0.000 C 
BRANCH   8   9
ATOM      9  C   UNL     1      10.822  44.517  20.337  1.00  0.00     0.000 C 
BRANCH   9  10
ATOM     10  C   UNL     1      10.685  43.430  19.254  1.00  0.00     0.000 C 
BRANCH  10  11
ATOM     11  C   UNL     1      10.014  42.127  19.725  1.00  0.00     0.000 C 
BRANCH  11  12
ATOM     12  C   UNL     1       8.850  41.692  18.821  1.00  0.00     0.000 C 
BRANCH  12  13
ATOM     13  C   UNL     1       9.288  40.747  17.688  1.00  0.00     0.006 C 
BRANCH  13  14
ATOM     14  C   UNL     1      10.686  40.137  17.895  1.00  0.00     0.053 C 
BRANCH  14  15
ATOM     15  C   UNL     1      11.438  39.979  16.609  1.00  0.00     0.041 C 
ATOM     16  O   UNL     1      11.494  40.930  15.786  1.00  0.00    -0.550 OA
ATOM     17  O   UNL     1      12.048  38.770  16.299  1.00  0.00    -0.550 OA
ENDBRANCH  14  15
ENDBRANCH  13  14
ENDBRANCH  12  13
ENDBRANCH  11  12
ENDBRANCH  10  11
ENDBRANCH   9  10
ENDBRANCH   8   9
ENDBRANCH   7   8
ENDBRANCH   6   7
ENDBRANCH   5   6
ENDBRANCH   4   5
ENDBRANCH   3   4
ENDBRANCH   2   3
ENDBRANCH   1   2
BRANCH   1  18
ATOM     18  C   UNL     1       2.403  44.423  18.590  1.00  0.00     0.000 C 
BRANCH  18  19
ATOM     19  C   UNL     1       3.586  44.526  17.616  1.00  0.00     0.000 C 
BRANCH  19  20
ATOM     20  C   UNL     1       3.155  44.942  16.199  1.00  0.00     0.000 C 
BRANCH  20  21
ATOM     21  C   UNL     1       3.921  46.170  15.684  1.00  0.00     0.000 C 
BRANCH  21  22
ATOM     22  C   UNL     1       2.993  47.385  15.554  1.00  0.00     0.000 C 
BRANCH  22  23
ATOM     23  C   UNL     1       3.452  48.376  14.470  1.00  0.00     0.000 C 
BRANCH  23  24
ATOM     24  C   UNL     1       4.242  47.719  13.320  1.00  0.00    -0.000 C 
BRANCH  24  25
ATOM     25  C   UNL     1       3.642  48.045  11.940  1.00  0.00    -0.000 C 
BRANCH  25  26
ATOM     26  C   UNL     1       4.664  47.898  10.803  1.00  0.00    -0.000 C 
BRANCH  26  27
ATOM     27  C   UNL     1       4.804  49.179   9.968  1.00  0.00    -0.000 C 
BRANCH  27  28
ATOM     28  C   UNL     1       5.869  49.012   8.875  1.00  0.00    -0.000 C 
BRANCH  28  29
ATOM     29  C   UNL     1       7.181  49.739   9.215  1.00  0.00    -0.000 C 
BRANCH  29  30
ATOM     30  C   UNL     1       8.420  48.858   8.971  1.00  0.00    -0.000 C 
BRANCH  30  31
ATOM     31  C   UNL     1       8.337  47.507   9.699  1.00  0.00    -0.003 C 
ATOM     32  C   UNL     1       8.073  47.655  11.197  1.00  0.00     0.004 C 
ENDBRANCH  30  31
ENDBRANCH  29  30
ENDBRANCH  28  29
ENDBRANCH  27  28
ENDBRANCH  26  27
ENDBRANCH  25  26
ENDBRANCH  24  25
ENDBRANCH  23  24
ENDBRANCH  22  23
ENDBRANCH  21  22
ENDBRANCH  20  21
ENDBRANCH  19  20
ENDBRANCH  18  19
ENDBRANCH   1  18
TORSDOF 28
ENDMDL
MODEL 7
REMARK VINA RESULT:    27.526      3.051     11.671
REMARK INTER + INTRA:          71.326
REMARK INTER:                  71.601
REMARK INTRA:                  -0.275
REMARK UNBOUND:                -1.257
REMARK SMILES CCCCCCCCCCCCCCCCCCCCCCCCCCCCCC(=O)[O-]
REMARK SMILES IDX 16 1 17 2 18 3 19 4 20 5 21 6 22 7 23 8 24 9 25 10 26 11
REMARK SMILES IDX 27 12 28 13 29 14 30 15 31 16 32 17 15 18 14 19 13 20 12 21
REMARK SMILES IDX 11 22 10 23 9 24 8 25 7 26 6 27 5 28 4 29 3 30 2 31 1 32
REMARK H PARENT
REMARK Flexibility Score: inf
ROOT
ATOM      1  C   UNL     1       2.808  45.751  19.146  1.00  0.00     0.000 C 
ENDROOT
BRANCH   1   2
ATOM      2  C   UNL     1       2.281  45.921  17.715  1.00  0.00     0.000 C 
BRANCH   2   3
ATOM      3  C   UNL     1       2.933  47.099  16.970  1.00  0.00     0.000 C 
BRANCH   3   4
ATOM      4  C   UNL     1       3.661  46.685  15.673  1.00  0.00     0.000 C 
BRANCH   4   5
ATOM      5  C   UNL     1       3.314  47.607  14.494  1.00  0.00     0.000 C 
BRANCH   5   6
ATOM      6  C   UNL     1       3.922  47.084  13.186  1.00  0.00     0.000 C 
BRANCH   6   7
ATOM      7  C   UNL     1       3.288  47.775  11.969  1.00  0.00     0.000 C 
BRANCH   7   8
ATOM      8  C   UNL     1       4.312  48.568  11.141  1.00  0.00     0.000 C 
BRANCH   8   9
ATOM      9  C   UNL     1       3.679  49.239   9.909  1.00  0.00     0.000 C 
BRANCH   9  10
ATOM     10  C   UNL     1       4.721  49.703   8.875  1.00  0.00     0.000 C 
BRANCH  10  11
ATOM     11  C   UNL     1       6.039  48.908   8.883  1.00  0.00     0.000 C 
BRANCH  11  12
ATOM     12  C   UNL     1       5.859  47.454   9.350  1.00  0.00     0.000 C 
BRANCH  12  13
ATOM     13  C   UNL     1       7.136  46.859   9.970  1.00  0.00     0.006 C 
BRANCH  13  14
ATOM     14  C   UNL     1       8.097  47.915  10.544  1.00  0.00     0.053 C 
BRANCH  14  15
ATOM     15  C   UNL     1       8.145  47.892  12.042  1.00  0.00     0.041 C 
ATOM     16  O   UNL     1       7.168  47.448  12.701  1.00  0.00    -0.550 OA
ATOM     17  O   UNL     1       9.251  48.395  12.715  1.00  0.00    -0.550 OA
ENDBRANCH  14  15
ENDBRANCH  13  14
ENDBRANCH  12  13
ENDBRANCH  11  12
ENDBRANCH  10  11
ENDBRANCH   9  10
ENDBRANCH   8   9
ENDBRANCH   7   8
ENDBRANCH   6   7
ENDBRANCH   5   6
ENDBRANCH   4   5
ENDBRANCH   3   4
ENDBRANCH   2   3
ENDBRANCH   1   2
BRANCH   1  18
ATOM     18  C   UNL     1       2.661  47.054  19.944  1.00  0.00     0.000 C 
BRANCH  18  19
ATOM     19  C   UNL     1       4.034  47.613  20.347  1.00  0.00     0.000 C 
BRANCH  19  20
ATOM     20  C   UNL     1       5.011  46.517  20.803  1.00  0.00     0.000 C 
BRANCH  20  21
ATOM     21  C   UNL     1       6.202  46.351  19.847  1.00  0.00     0.000 C 
BRANCH  21  22
ATOM     22  C   UNL     1       7.487  46.019  20.618  1.00  0.00     0.000 C 
BRANCH  22  23
ATOM     23  C   UNL     1       8.492  45.205  19.785  1.00  0.00     0.000 C 
BRANCH  23  24
ATOM     24  C   UNL     1       9.914  45.175  20.381  1.00  0.00    -0.000 C 
BRANCH  24  25
ATOM     25  C   UNL     1      10.251  43.813  21.017  1.00  0.00    -0.000 C 
BRANCH  25  26
ATOM     26  C   UNL     1       9.077  42.824  20.949  1.00  0.00    -0.000 C 
BRANCH  26  27
ATOM     27  C   UNL     1       8.856  42.084  22.276  1.00  0.00    -0.000 C 
BRANCH  27  28
ATOM     28  C   UNL     1       9.063  43.024  23.473  1.00  0.00    -0.000 C 
BRANCH  28  29
ATOM     29  C   UNL     1      10.538  43.124  23.896  1.00  0.00    -0.000 C 
BRANCH  29  30
ATOM     30  C   UNL     1      10.712  43.103  25.426  1.00  0.00    -0.000 C 
BRANCH  30  31
ATOM     31  C   UNL     1       9.449  42.625  26.158  1.00  0.00    -0.003 C 
ATOM     32  C   UNL     1       9.422  43.039  27.629  1.00  0.00     0.004 C 
ENDBRANCH  30  31
ENDBRANCH  29  30
ENDBRANCH  28  29
ENDBRANCH  27  28
ENDBRANCH  26  27
ENDBRANCH  25  26
ENDBRANCH  24  25
ENDBRANCH  23  24
ENDBRANCH  22  23
ENDBRANCH  21  22
ENDBRANCH  20  21
ENDBRANCH  19  20
ENDBRANCH  18  19
ENDBRANCH   1  18
TORSDOF 28
ENDMDL
MODEL 8
REMARK VINA RESULT:    27.583      3.499     11.726
REMARK INTER + INTRA:          71.477
REMARK INTER:                  72.745
REMARK INTRA:                  -1.268
REMARK UNBOUND:                -1.257
REMARK SMILES CCCCCCCCCCCCCCCCCCCCCCCCCCCCCC(=O)[O-]
REMARK SMILES IDX 16 1 17 2 18 3 19 4 20 5 21 6 22 7 23 8 24 9 25 10 26 11
REMARK SMILES IDX 27 12 28 13 29 14 30 15 31 16 32 17 15 18 14 19 13 20 12 21
REMARK SMILES IDX 11 22 10 23 9 24 8 25 7 26 6 27 5 28 4 29 3 30 2 31 1 32
REMARK H PARENT
REMARK Flexibility Score: inf
ROOT
ATOM      1  C   UNL     1       3.779  47.097  20.136  1.00  0.00     0.000 C 
ENDROOT
BRANCH   1   2
ATOM      2  C   UNL     1       2.376  46.759  19.615  1.00  0.00     0.000 C 
BRANCH   2   3
ATOM      3  C   UNL     1       2.377  45.620  18.580  1.00  0.00     0.000 C 
BRANCH   3   4
ATOM      4  C   UNL     1       3.058  45.995  17.246  1.00  0.00     0.000 C 
BRANCH   4   5
ATOM      5  C   UNL     1       2.885  47.483  16.905  1.00  0.00     0.000 C 
BRANCH   5   6
ATOM      6  C   UNL     1       2.876  47.704  15.387  1.00  0.00     0.000 C 
BRANCH   6   7
ATOM      7  C   UNL     1       2.537  46.403  14.644  1.00  0.00     0.000 C 
BRANCH   7   8
ATOM      8  C   UNL     1       3.026  46.412  13.186  1.00  0.00     0.000 C 
BRANCH   8   9
ATOM      9  C   UNL     1       3.359  47.829  12.686  1.00  0.00     0.000 C 
BRANCH   9  10
ATOM     10  C   UNL     1       4.339  47.833  11.499  1.00  0.00     0.000 C 
BRANCH  10  11
ATOM     11  C   UNL     1       4.102  48.950  10.467  1.00  0.00     0.000 C 
BRANCH  11  12
ATOM     12  C   UNL     1       4.728  48.643   9.096  1.00  0.00     0.000 C 
BRANCH  12  13
ATOM     13  C   UNL     1       6.194  49.097   8.988  1.00  0.00     0.006 C 
BRANCH  13  14
ATOM     14  C   UNL     1       7.206  48.044   9.473  1.00  0.00     0.053 C 
BRANCH  14  15
ATOM     15  C   UNL     1       7.994  48.510  10.660  1.00  0.00     0.041 C 
ATOM     16  O   UNL     1       8.257  49.733  10.805  1.00  0.00    -0.550 OA
ATOM     17  O   UNL     1       8.470  47.593  11.588  1.00  0.00    -0.550 OA
ENDBRANCH  14  15
ENDBRANCH  13  14
ENDBRANCH  12  13
ENDBRANCH  11  12
ENDBRANCH  10  11
ENDBRANCH   9  10
ENDBRANCH   8   9
ENDBRANCH   7   8
ENDBRANCH   6   7
ENDBRANCH   5   6
ENDBRANCH   4   5
ENDBRANCH   3   4
ENDBRANCH   2   3
ENDBRANCH   1   2
BRANCH   1  18
ATOM     18  C   UNL     1       4.533  45.825  20.549  1.00  0.00     0.000 C 
BRANCH  18  19
ATOM     19  C   UNL     1       5.898  46.166  21.164  1.00  0.00     0.000 C 
BRANCH  19  20
ATOM     20  C   UNL     1       6.899  46.702  20.127  1.00  0.00     0.000 C 
BRANCH  20  21
ATOM     21  C   UNL     1       7.879  45.626  19.638  1.00  0.00     0.000 C 
BRANCH  21  22
ATOM     22  C   UNL     1       9.333  46.044  19.892  1.00  0.00     0.000 C 
BRANCH  22  23
ATOM     23  C   UNL     1      10.194  44.904  20.461  1.00  0.00     0.000 C 
BRANCH  23  24
ATOM     24  C   UNL     1       9.399  43.623  20.781  1.00  0.00    -0.000 C 
BRANCH  24  25
ATOM     25  C   UNL     1       9.432  43.275  22.281  1.00  0.00    -0.000 C 
BRANCH  25  26
ATOM     26  C   UNL     1       8.223  42.434  22.718  1.00  0.00    -0.000 C 
BRANCH  26  27
ATOM     27  C   UNL     1       8.235  41.025  22.107  1.00  0.00    -0.000 C 
BRANCH  27  28
ATOM     28  C   UNL     1       9.059  40.058  22.970  1.00  0.00    -0.000 C 
BRANCH  28  29
ATOM     29  C   UNL     1       8.501  38.625  22.945  1.00  0.00    -0.000 C 
BRANCH  29  30
ATOM     30  C   UNL     1       9.585  37.579  22.626  1.00  0.00    -0.000 C 
BRANCH  30  31
ATOM     31  C   UNL     1      10.729  37.581  23.652  1.00  0.00    -0.003 C 
ATOM     32  C   UNL     1      10.285  38.053  25.036  1.00  0.00     0.004 C 
ENDBRANCH  30  31
ENDBRANCH  29  30
ENDBRANCH  28  29
ENDBRANCH  27  28
ENDBRANCH  26  27
ENDBRANCH  25  26
ENDBRANCH  24  25
ENDBRANCH  23  24
ENDBRANCH  22  23
ENDBRANCH  21  22
ENDBRANCH  20  21
ENDBRANCH  19  20
ENDBRANCH  18  19
ENDBRANCH   1  18
TORSDOF 28
ENDMDL
MODEL 9
REMARK VINA RESULT:    27.654      3.126     10.434
REMARK INTER + INTRA:          71.665
REMARK INTER:                  72.601
REMARK INTRA:                  -0.937
REMARK UNBOUND:                -1.257
REMARK SMILES CCCCCCCCCCCCCCCCCCCCCCCCCCCCCC(=O)[O-]
REMARK SMILES IDX 16 1 17 2 18 3 19 4 20 5 21 6 22 7 23 8 24 9 25 10 26 11
REMARK SMILES IDX 27 12 28 13 29 14 30 15 31 16 32 17 15 18 14 19 13 20 12 21
REMARK SMILES IDX 11 22 10 23 9 24 8 25 7 26 6 27 5 28 4 29 3 30 2 31 1 32
REMARK H PARENT
REMARK Flexibility Score: inf
ROOT
ATOM      1  C   UNL     1       2.761  42.382  21.628  1.00  0.00     0.000 C 
ENDROOT
BRANCH   1   2
ATOM      2  C   UNL     1       2.089  43.661  22.148  1.00  0.00     0.000 C 
BRANCH   2   3
ATOM      3  C   UNL     1       2.402  44.897  21.287  1.00  0.00     0.000 C 
BRANCH   3   4
ATOM      4  C   UNL     1       1.751  44.859  19.888  1.00  0.00     0.000 C 
BRANCH   4   5
ATOM      5  C   UNL     1       2.562  45.649  18.849  1.00  0.00     0.000 C 
BRANCH   5   6
ATOM      6  C   UNL     1       2.495  44.979  17.471  1.00  0.00     0.000 C 
BRANCH   6   7
ATOM      7  C   UNL     1       3.812  45.168  16.703  1.00  0.00     0.000 C 
BRANCH   7   8
ATOM      8  C   UNL     1       3.588  45.604  15.245  1.00  0.00     0.000 C 
BRANCH   8   9
ATOM      9  C   UNL     1       3.109  47.062  15.135  1.00  0.00     0.000 C 
BRANCH   9  10
ATOM     10  C   UNL     1       3.998  47.919  14.215  1.00  0.00     0.000 C 
BRANCH  10  11
ATOM     11  C   UNL     1       3.782  47.688  12.708  1.00  0.00     0.000 C 
BRANCH  11  12
ATOM     12  C   UNL     1       5.011  48.059  11.863  1.00  0.00     0.000 C 
BRANCH  12  13
ATOM     13  C   UNL     1       4.649  48.816  10.573  1.00  0.00     0.006 C 
BRANCH  13  14
ATOM     14  C   UNL     1       5.433  48.344   9.336  1.00  0.00     0.053 C 
BRANCH  14  15
ATOM     15  C   UNL     1       6.776  47.780   9.690  1.00  0.00     0.041 C 
ATOM     16  O   UNL     1       7.147  46.676   9.211  1.00  0.00    -0.550 OA
ATOM     17  O   UNL     1       7.606  48.454  10.577  1.00  0.00    -0.550 OA
ENDBRANCH  14  15
ENDBRANCH  13  14
ENDBRANCH  12  13
ENDBRANCH  11  12
ENDBRANCH  10  11
ENDBRANCH   9  10
ENDBRANCH   8   9
ENDBRANCH   7   8
ENDBRANCH   6   7
ENDBRANCH   5   6
ENDBRANCH   4   5
ENDBRANCH   3   4
ENDBRANCH   2   3
ENDBRANCH   1   2
BRANCH   1  18
ATOM     18  C   UNL     1       3.078  41.421  22.782  1.00  0.00     0.000 C 
BRANCH  18  19
ATOM     19  C   UNL     1       4.323  41.878  23.556  1.00  0.00     0.000 C 
BRANCH  19  20
ATOM     20  C   UNL     1       5.594  41.117  23.141  1.00  0.00     0.000 C 
BRANCH  20  21
ATOM     21  C   UNL     1       6.521  41.956  22.248  1.00  0.00     0.000 C 
BRANCH  21  22
ATOM     22  C   UNL     1       7.995  41.692  22.580  1.00  0.00     0.000 C 
BRANCH  22  23
ATOM     23  C   UNL     1       8.784  42.979  22.875  1.00  0.00     0.000 C 
BRANCH  23  24
ATOM     24  C   UNL     1       9.494  43.570  21.640  1.00  0.00    -0.000 C 
BRANCH  24  25
ATOM     25  C   UNL     1       9.068  42.874  20.334  1.00  0.00    -0.000 C 
BRANCH  25  26
ATOM     26  C   UNL     1      10.228  42.123  19.661  1.00  0.00    -0.000 C 
BRANCH  26  27
ATOM     27  C   UNL     1       9.975  41.868  18.168  1.00  0.00    -0.000 C 
BRANCH  27  28
ATOM     28  C   UNL     1       9.532  40.418  17.925  1.00  0.00    -0.000 C 
BRANCH  28  29
ATOM     29  C   UNL     1      10.472  39.667  16.967  1.00  0.00    -0.000 C 
BRANCH  29  30
ATOM     30  C   UNL     1      11.890  40.265  16.949  1.00  0.00    -0.000 C 
BRANCH  30  31
ATOM     31  C   UNL     1      12.821  39.551  15.957  1.00  0.00    -0.003 C 
ATOM     32  C   UNL     1      12.102  38.484  15.131  1.00  0.00     0.004 C 
ENDBRANCH  30  31
ENDBRANCH  29  30
ENDBRANCH  28  29
ENDBRANCH  27  28
ENDBRANCH  26  27
ENDBRANCH  25  26
ENDBRANCH  24  25
ENDBRANCH  23  24
ENDBRANCH  22  23
ENDBRANCH  21  22
ENDBRANCH  20  21
ENDBRANCH  19  20
ENDBRANCH  18  19
ENDBRANCH   1  18
TORSDOF 28
ENDMDL
