MODEL 1
REMARK VINA RESULT:    -5.007      0.000      0.000
REMARK INTER + INTRA:          -5.007
REMARK INTER:                  -5.007
REMARK INTRA:                   0.000
REMARK UNBOUND:                 0.000
REMARK SMILES O=c1ccc2ccccc2o1
REMARK SMILES IDX 7 1 8 2 9 3 10 4 5 5 6 6 4 7 3 8 2 9 1 10 11 11
REMARK H PARENT
REMARK Flexibility Score: inf
ROOT
ATOM      1  C   UNL     1      17.296   8.516 -20.712  1.00  0.00     0.001 A 
ATOM      2  C   UNL     1      16.986   8.078 -22.003  1.00  0.00     0.004 A 
ATOM      3  C   UNL     1      17.919   7.342 -22.742  1.00  0.00     0.048 A 
ATOM      4  C   UNL     1      19.168   7.041 -22.188  1.00  0.00     0.138 A 
ATOM      5  C   UNL     1      19.483   7.484 -20.884  1.00  0.00     0.018 A 
ATOM      6  C   UNL     1      18.543   8.221 -20.150  1.00  0.00     0.012 A 
ATOM      7  C   UNL     1      20.740   7.169 -20.359  1.00  0.00     0.019 A 
ATOM      8  C   UNL     1      21.639   6.432 -21.130  1.00  0.00     0.094 A 
ATOM      9  C   UNL     1      21.258   6.028 -22.414  1.00  0.00     0.336 A 
ATOM     10  O   UNL     1      22.056   5.363 -23.125  1.00  0.00    -0.246 OA
ATOM     11  O   UNL     1      20.057   6.341 -22.890  1.00  0.00    -0.423 OA
ENDROOT
TORSDOF 0
ENDMDL
MODEL 2
REMARK VINA RESULT:    -4.786      1.157      2.115
REMARK INTER + INTRA:          -4.786
REMARK INTER:                  -4.786
REMARK INTRA:                   0.000
REMARK UNBOUND:                 0.000
REMARK SMILES O=c1ccc2ccccc2o1
REMARK SMILES IDX 7 1 8 2 9 3 10 4 5 5 6 6 4 7 3 8 2 9 1 10 11 11
REMARK H PARENT
REMARK Flexibility Score: inf
ROOT
ATOM      1  C   UNL     1      17.000   8.063 -22.001  1.00  0.00     0.001 A 
ATOM      2  C   UNL     1      17.420   8.497 -20.740  1.00  0.00     0.004 A 
ATOM      3  C   UNL     1      18.702   8.181 -20.276  1.00  0.00     0.048 A 
ATOM      4  C   UNL     1      19.569   7.428 -21.076  1.00  0.00     0.138 A 
ATOM      5  C   UNL     1      19.145   6.988 -22.349  1.00  0.00     0.018 A 
ATOM      6  C   UNL     1      17.859   7.309 -22.808  1.00  0.00     0.012 A 
ATOM      7  C   UNL     1      20.033   6.236 -23.125  1.00  0.00     0.019 A 
ATOM      8  C   UNL     1      21.301   5.944 -22.624  1.00  0.00     0.094 A 
ATOM      9  C   UNL     1      21.652   6.413 -21.353  1.00  0.00     0.336 A 
ATOM     10  O   UNL     1      22.792   6.160 -20.883  1.00  0.00    -0.246 OA
ATOM     11  O   UNL     1      20.788   7.126 -20.635  1.00  0.00    -0.423 OA
ENDROOT
TORSDOF 0
ENDMDL
MODEL 3
REMARK VINA RESULT:    -4.754     21.804     22.238
REMARK INTER + INTRA:          -4.754
REMARK INTER:                  -4.754
REMARK INTRA:                   0.000
REMARK UNBOUND:                 0.000
REMARK SMILES O=c1ccc2ccccc2o1
REMARK SMILES IDX 7 1 8 2 9 3 10 4 5 5 6 6 4 7 3 8 2 9 1 10 11 11
REMARK H PARENT
REMARK Flexibility Score: inf
ROOT
ATOM      1  C   UNL     1       7.496  -7.662  -6.071  1.00  0.00     0.001 A 
ATOM      2  C   UNL     1       7.794  -6.322  -5.807  1.00  0.00     0.004 A 
ATOM      3  C   UNL     1       8.845  -5.688  -6.478  1.00  0.00     0.048 A 
ATOM      4  C   UNL     1       9.603  -6.396  -7.418  1.00  0.00     0.138 A 
ATOM      5  C   UNL     1       9.303  -7.750  -7.685  1.00  0.00     0.018 A 
ATOM      6  C   UNL     1       8.248  -8.379  -7.008  1.00  0.00     0.012 A 
ATOM      7  C   UNL     1      10.078  -8.431  -8.628  1.00  0.00     0.019 A 
ATOM      8  C   UNL     1      11.116  -7.760  -9.274  1.00  0.00     0.094 A 
ATOM      9  C   UNL     1      11.356  -6.418  -8.959  1.00  0.00     0.336 A 
ATOM     10  O   UNL     1      12.288  -5.796  -9.531  1.00  0.00    -0.246 OA
ATOM     11  O   UNL     1      10.603  -5.793  -8.057  1.00  0.00    -0.423 OA
ENDROOT
TORSDOF 0
ENDMDL
MODEL 4
REMARK VINA RESULT:    -4.709     20.841     21.515
REMARK INTER + INTRA:          -4.709
REMARK INTER:                  -4.709
REMARK INTRA:                   0.000
REMARK UNBOUND:                 0.000
REMARK SMILES O=c1ccc2ccccc2o1
REMARK SMILES IDX 7 1 8 2 9 3 10 4 5 5 6 6 4 7 3 8 2 9 1 10 11 11
REMARK H PARENT
REMARK Flexibility Score: inf
ROOT
ATOM      1  C   UNL     1      10.939  -5.629 -10.805  1.00  0.00     0.001 A 
ATOM      2  C   UNL     1      11.748  -6.104  -9.768  1.00  0.00     0.004 A 
ATOM      3  C   UNL     1      11.212  -6.304  -8.491  1.00  0.00     0.048 A 
ATOM      4  C   UNL     1       9.861  -6.030  -8.249  1.00  0.00     0.138 A 
ATOM      5  C   UNL     1       9.044  -5.550  -9.296  1.00  0.00     0.018 A 
ATOM      6  C   UNL     1       9.588  -5.351 -10.573  1.00  0.00     0.012 A 
ATOM      7  C   UNL     1       7.698  -5.284  -9.023  1.00  0.00     0.019 A 
ATOM      8  C   UNL     1       7.205  -5.499  -7.736  1.00  0.00     0.094 A 
ATOM      9  C   UNL     1       8.074  -5.976  -6.749  1.00  0.00     0.336 A 
ATOM     10  O   UNL     1       7.649  -6.176  -5.581  1.00  0.00    -0.246 OA
ATOM     11  O   UNL     1       9.350  -6.221  -7.035  1.00  0.00    -0.423 OA
ENDROOT
TORSDOF 0
ENDMDL
MODEL 5
REMARK VINA RESULT:    -4.686      1.337      4.080
REMARK INTER + INTRA:          -4.686
REMARK INTER:                  -4.686
REMARK INTRA:                   0.000
REMARK UNBOUND:                 0.000
REMARK SMILES O=c1ccc2ccccc2o1
REMARK SMILES IDX 7 1 8 2 9 3 10 4 5 5 6 6 4 7 3 8 2 9 1 10 11 11
REMARK H PARENT
REMARK Flexibility Score: inf
ROOT
ATOM      1  C   UNL     1      23.719   5.947 -21.171  1.00  0.00     0.001 A 
ATOM      2  C   UNL     1      23.553   5.458 -22.471  1.00  0.00     0.004 A 
ATOM      3  C   UNL     1      22.317   5.573 -23.115  1.00  0.00     0.048 A 
ATOM      4  C   UNL     1      21.240   6.180 -22.459  1.00  0.00     0.138 A 
ATOM      5  C   UNL     1      21.406   6.673 -21.146  1.00  0.00     0.018 A 
ATOM      6  C   UNL     1      22.649   6.554 -20.506  1.00  0.00     0.012 A 
ATOM      7  C   UNL     1      20.312   7.274 -20.516  1.00  0.00     0.019 A 
ATOM      8  C   UNL     1      19.098   7.368 -21.196  1.00  0.00     0.094 A 
ATOM      9  C   UNL     1      19.007   6.856 -22.495  1.00  0.00     0.336 A 
ATOM     10  O   UNL     1      17.920   6.932 -23.125  1.00  0.00    -0.246 OA
ATOM     11  O   UNL     1      20.063   6.290 -23.071  1.00  0.00    -0.423 OA
ENDROOT
TORSDOF 0
ENDMDL
MODEL 6
REMARK VINA RESULT:    -4.672      1.913      4.368
REMARK INTER + INTRA:          -4.672
REMARK INTER:                  -4.672
REMARK INTRA:                   0.000
REMARK UNBOUND:                 0.000
REMARK SMILES O=c1ccc2ccccc2o1
REMARK SMILES IDX 7 1 8 2 9 3 10 4 5 5 6 6 4 7 3 8 2 9 1 10 11 11
REMARK H PARENT
REMARK Flexibility Score: inf
ROOT
ATOM      1  C   UNL     1      21.425   5.915 -22.581  1.00  0.00     0.001 A 
ATOM      2  C   UNL     1      21.757   6.295 -21.277  1.00  0.00     0.004 A 
ATOM      3  C   UNL     1      20.846   7.020 -20.501  1.00  0.00     0.048 A 
ATOM      4  C   UNL     1      19.598   7.367 -21.029  1.00  0.00     0.138 A 
ATOM      5  C   UNL     1      19.262   6.984 -22.346  1.00  0.00     0.018 A 
ATOM      6  C   UNL     1      20.179   6.257 -23.119  1.00  0.00     0.012 A 
ATOM      7  C   UNL     1      18.007   7.346 -22.847  1.00  0.00     0.019 A 
ATOM      8  C   UNL     1      17.130   8.069 -22.038  1.00  0.00     0.094 A 
ATOM      9  C   UNL     1      17.532   8.414 -20.743  1.00  0.00     0.336 A 
ATOM     10  O   UNL     1      16.754   9.066 -19.998  1.00  0.00    -0.246 OA
ATOM     11  O   UNL     1      18.731   8.057 -20.291  1.00  0.00    -0.423 OA
ENDROOT
TORSDOF 0
ENDMDL
MODEL 7
REMARK VINA RESULT:    -4.655     17.895     19.205
REMARK INTER + INTRA:          -4.655
REMARK INTER:                  -4.655
REMARK INTRA:                   0.000
REMARK UNBOUND:                 0.000
REMARK SMILES O=c1ccc2ccccc2o1
REMARK SMILES IDX 7 1 8 2 9 3 10 4 5 5 6 6 4 7 3 8 2 9 1 10 11 11
REMARK H PARENT
REMARK Flexibility Score: inf
ROOT
ATOM      1  C   UNL     1       5.235   3.245  -7.502  1.00  0.00     0.001 A 
ATOM      2  C   UNL     1       6.277   2.966  -8.392  1.00  0.00     0.004 A 
ATOM      3  C   UNL     1       6.518   3.810  -9.482  1.00  0.00     0.048 A 
ATOM      4  C   UNL     1       5.714   4.938  -9.684  1.00  0.00     0.138 A 
ATOM      5  C   UNL     1       4.661   5.220  -8.786  1.00  0.00     0.018 A 
ATOM      6  C   UNL     1       4.425   4.369  -7.696  1.00  0.00     0.012 A 
ATOM      7  C   UNL     1       3.875   6.353  -9.015  1.00  0.00     0.019 A 
ATOM      8  C   UNL     1       4.151   7.167 -10.113  1.00  0.00     0.094 A 
ATOM      9  C   UNL     1       5.210   6.825 -10.961  1.00  0.00     0.336 A 
ATOM     10  O   UNL     1       5.475   7.547 -11.958  1.00  0.00    -0.246 OA
ATOM     11  O   UNL     1       5.943   5.741 -10.721  1.00  0.00    -0.423 OA
ENDROOT
TORSDOF 0
ENDMDL
MODEL 8
REMARK VINA RESULT:    -4.618     17.173     18.660
REMARK INTER + INTRA:          -4.618
REMARK INTER:                  -4.618
REMARK INTRA:                   0.000
REMARK UNBOUND:                 0.000
REMARK SMILES O=c1ccc2ccccc2o1
REMARK SMILES IDX 7 1 8 2 9 3 10 4 5 5 6 6 4 7 3 8 2 9 1 10 11 11
REMARK H PARENT
REMARK Flexibility Score: inf
ROOT
ATOM      1  C   UNL     1       3.875   4.646  -7.451  1.00  0.00     0.001 A 
ATOM      2  C   UNL     1       4.689   3.573  -7.073  1.00  0.00     0.004 A 
ATOM      3  C   UNL     1       5.818   3.244  -7.830  1.00  0.00     0.048 A 
ATOM      4  C   UNL     1       6.136   3.988  -8.971  1.00  0.00     0.138 A 
ATOM      5  C   UNL     1       5.315   5.071  -9.355  1.00  0.00     0.018 A 
ATOM      6  C   UNL     1       4.184   5.396  -8.590  1.00  0.00     0.012 A 
ATOM      7  C   UNL     1       5.658   5.796 -10.500  1.00  0.00     0.019 A 
ATOM      8  C   UNL     1       6.793   5.433 -11.225  1.00  0.00     0.094 A 
ATOM      9  C   UNL     1       7.559   4.348 -10.786  1.00  0.00     0.336 A 
ATOM     10  O   UNL     1       8.586   4.005 -11.427  1.00  0.00    -0.246 OA
ATOM     11  O   UNL     1       7.210   3.675  -9.693  1.00  0.00    -0.423 OA
ENDROOT
TORSDOF 0
ENDMDL
