MODEL 1
REMARK VINA RESULT:    -3.759      0.000      0.000
REMARK INTER + INTRA:          -2.073
REMARK INTER:                  -4.639
REMARK INTRA:                   2.566
REMARK UNBOUND:                 2.566
REMARK SMILES C=C1CC[C@H]2[C@H]([C@H]3[C@H](C)CC[C@H]13)C2(C)C
REMARK SMILES IDX 3 1 2 2 1 3 12 4 9 5 8 6 10 7 7 8 11 9 4 11 5 12 6 13 13 14
REMARK SMILES IDX 14 16 15 17
REMARK H PARENT
REMARK Flexibility Score: 80.00
ROOT
ATOM      1  C   UNL     1     131.905 134.814 136.081  1.00  0.00     0.031 C 
ENDROOT
BRANCH   1   2
ATOM      2  C   UNL     1     132.924 134.782 137.224  1.00  0.00    -0.074 C 
ATOM      3  C   UNL     1     133.758 133.736 137.349  1.00  0.00     0.008 C 
BRANCH   2   4
ATOM      4  C   UNL     1     133.108 136.060 138.038  1.00  0.00     0.018 C 
ATOM      5  C   UNL     1     135.682 138.777 138.432  1.00  0.00     0.008 C 
ATOM      6  C   UNL     1     134.315 138.085 138.461  1.00  0.00    -0.010 C 
ATOM      7  C   UNL     1     134.029 137.397 139.823  1.00  0.00     0.004 C 
ATOM      8  C   UNL     1     134.212 136.942 137.457  1.00  0.00     0.003 CG0
ATOM      9  C   UNL     1     133.463 135.993 139.518  1.00  0.00     0.008 C 
ATOM     10  G   UNL     1     134.119 137.189 135.923  1.00  0.00     0.000 G0
ENDBRANCH   2   4
ENDBRANCH   1   2
BRANCH   1  11
ATOM     11  C   UNL     1     132.299 135.767 134.917  1.00  0.00     0.009 C 
BRANCH  11  12
ATOM     12  C   UNL     1     132.618 137.173 135.464  1.00  0.00    -0.001 C 
ATOM     13  C   UNL     1     134.116 137.191 135.901  1.00  0.00     0.002 CG0
ATOM     14  C   UNL     1     133.558 138.232 134.921  1.00  0.00    -0.029 C 
ATOM     15  G   UNL     1     134.188 136.979 137.441  1.00  0.00     0.000 G0
ATOM     16  C   UNL     1     133.976 138.082 133.452  1.00  0.00     0.011 C 
ATOM     17  C   UNL     1     133.372 139.663 135.441  1.00  0.00     0.011 C 
ENDBRANCH  11  12
ENDBRANCH   1  11
TORSDOF 0
ENDMDL
MODEL 2
REMARK VINA RESULT:    -3.697      5.073      6.566
REMARK INTER + INTRA:          -1.995
REMARK INTER:                  -4.685
REMARK INTRA:                   2.689
REMARK UNBOUND:                 2.566
REMARK SMILES C=C1CC[C@H]2[C@H]([C@H]3[C@H](C)CC[C@H]13)C2(C)C
REMARK SMILES IDX 3 1 2 2 1 3 12 4 9 5 8 6 10 7 7 8 11 9 4 11 5 12 6 13 13 14
REMARK SMILES IDX 14 16 15 17
REMARK H PARENT
REMARK Flexibility Score: 80.00
ROOT
ATOM      1  C   UNL     1     140.538 138.211 135.288  1.00  0.00     0.031 C 
ENDROOT
BRANCH   1   2
ATOM      2  C   UNL     1     139.663 138.397 136.531  1.00  0.00    -0.074 C 
ATOM      3  C   UNL     1     138.736 139.368 136.557  1.00  0.00     0.008 C 
BRANCH   2   4
ATOM      4  C   UNL     1     139.723 137.312 137.602  1.00  0.00     0.018 C 
ATOM      5  C   UNL     1     137.535 134.537 138.897  1.00  0.00     0.008 C 
ATOM      6  C   UNL     1     138.810 135.330 138.591  1.00  0.00    -0.010 C 
ATOM      7  C   UNL     1     139.182 136.316 139.732  1.00  0.00     0.004 C 
ATOM      8  C   UNL     1     138.661 136.237 137.374  1.00  0.00     0.003 CG0
ATOM      9  C   UNL     1     139.547 137.664 139.074  1.00  0.00     0.008 C 
ATOM     10  G   UNL     1     138.593 135.677 135.923  1.00  0.00     0.000 G0
ENDBRANCH   2   4
ENDBRANCH   1   2
BRANCH   1  11
ATOM     11  C   UNL     1     140.137 136.987 134.417  1.00  0.00     0.009 C 
BRANCH  11  12
ATOM     12  C   UNL     1     140.034 135.720 135.292  1.00  0.00    -0.001 C 
ATOM     13  C   UNL     1     138.598 135.671 135.899  1.00  0.00     0.002 CG0
ATOM     14  C   UNL     1     139.172 134.486 135.109  1.00  0.00    -0.029 C 
ATOM     15  G   UNL     1     138.654 136.223 137.353  1.00  0.00     0.000 G0
ATOM     16  C   UNL     1     138.599 134.259 133.705  1.00  0.00     0.011 C 
ATOM     17  C   UNL     1     139.569 133.235 135.903  1.00  0.00     0.011 C 
ENDBRANCH  11  12
ENDBRANCH   1  11
TORSDOF 0
ENDMDL
MODEL 3
REMARK VINA RESULT:    -3.617      2.940      5.011
REMARK INTER + INTRA:          -1.897
REMARK INTER:                  -4.712
REMARK INTRA:                   2.816
REMARK UNBOUND:                 2.566
REMARK SMILES C=C1CC[C@H]2[C@H]([C@H]3[C@H](C)CC[C@H]13)C2(C)C
REMARK SMILES IDX 3 1 2 2 1 3 12 4 9 5 8 6 10 7 7 8 11 9 4 11 5 12 6 13 13 14
REMARK SMILES IDX 14 16 15 17
REMARK H PARENT
REMARK Flexibility Score: 80.00
ROOT
ATOM      1  C   UNL     1     132.712 133.521 135.139  1.00  0.00     0.031 C 
ENDROOT
BRANCH   1   2
ATOM      2  C   UNL     1     134.162 133.637 134.661  1.00  0.00    -0.074 C 
ATOM      3  C   UNL     1     134.488 134.544 133.725  1.00  0.00     0.008 C 
BRANCH   2   4
ATOM      4  C   UNL     1     135.224 132.872 135.444  1.00  0.00     0.018 C 
ATOM      5  C   UNL     1     138.010 133.634 137.857  1.00  0.00     0.008 C 
ATOM      6  C   UNL     1     136.918 132.835 137.137  1.00  0.00    -0.010 C 
ATOM      7  C   UNL     1     137.460 132.082 135.892  1.00  0.00     0.004 C 
ATOM      8  C   UNL     1     135.819 133.723 136.565  1.00  0.00     0.003 CG0
ATOM      9  C   UNL     1     136.457 132.315 134.741  1.00  0.00     0.008 C 
ATOM     10  G   UNL     1     134.776 134.443 137.469  1.00  0.00     0.000 G0
ENDBRANCH   2   4
ENDBRANCH   1   2
BRANCH   1  11
ATOM     11  C   UNL     1     132.469 134.119 136.554  1.00  0.00     0.009 C 
BRANCH  11  12
ATOM     12  C   UNL     1     133.501 133.557 137.554  1.00  0.00    -0.001 C 
ATOM     13  C   UNL     1     134.780 134.446 137.475  1.00  0.00     0.002 CG0
ATOM     14  C   UNL     1     134.070 134.185 138.811  1.00  0.00    -0.029 C 
ATOM     15  G   UNL     1     135.825 133.735 136.567  1.00  0.00     0.000 G0
ATOM     16  C   UNL     1     133.278 135.358 139.405  1.00  0.00     0.011 C 
ATOM     17  C   UNL     1     134.763 133.248 139.808  1.00  0.00     0.011 C 
ENDBRANCH  11  12
ENDBRANCH   1  11
TORSDOF 0
ENDMDL
MODEL 4
REMARK VINA RESULT:    -3.578      3.156      4.625
REMARK INTER + INTRA:          -1.849
REMARK INTER:                  -4.530
REMARK INTRA:                   2.680
REMARK UNBOUND:                 2.566
REMARK SMILES C=C1CC[C@H]2[C@H]([C@H]3[C@H](C)CC[C@H]13)C2(C)C
REMARK SMILES IDX 3 1 2 2 1 3 12 4 9 5 8 6 10 7 7 8 11 9 4 11 5 12 6 13 13 14
REMARK SMILES IDX 14 16 15 17
REMARK H PARENT
REMARK Flexibility Score: 80.00
ROOT
ATOM      1  C   UNL     1     137.965 132.076 136.502  1.00  0.00     0.031 C 
ENDROOT
BRANCH   1   2
ATOM      2  C   UNL     1     137.809 133.138 137.595  1.00  0.00    -0.074 C 
ATOM      3  C   UNL     1     138.769 134.059 137.774  1.00  0.00     0.008 C 
BRANCH   2   4
ATOM      4  C   UNL     1     136.450 133.248 138.280  1.00  0.00     0.018 C 
ATOM      5  C   UNL     1     133.514 135.603 138.306  1.00  0.00     0.008 C 
ATOM      6  C   UNL     1     134.305 134.299 138.461  1.00  0.00    -0.010 C 
ATOM      7  C   UNL     1     134.883 134.124 139.892  1.00  0.00     0.004 C 
ATOM      8  C   UNL     1     135.542 134.252 137.571  1.00  0.00     0.003 CG0
ATOM      9  C   UNL     1     136.349 133.664 139.742  1.00  0.00     0.008 C 
ATOM     10  G   UNL     1     135.449 134.080 136.026  1.00  0.00     0.000 G0
ENDBRANCH   2   4
ENDBRANCH   1   2
BRANCH   1  11
ATOM     11  C   UNL     1     137.082 132.332 135.249  1.00  0.00     0.009 C 
BRANCH  11  12
ATOM     12  C   UNL     1     135.614 132.558 135.667  1.00  0.00    -0.001 C 
ATOM     13  C   UNL     1     135.441 134.068 136.017  1.00  0.00     0.002 CG0
ATOM     14  C   UNL     1     134.531 133.376 134.992  1.00  0.00    -0.029 C 
ATOM     15  G   UNL     1     135.519 134.233 137.562  1.00  0.00     0.000 G0
ATOM     16  C   UNL     1     134.766 133.733 133.518  1.00  0.00     0.011 C 
ATOM     17  C   UNL     1     133.082 133.096 135.410  1.00  0.00     0.011 C 
ENDBRANCH  11  12
ENDBRANCH   1  11
TORSDOF 0
ENDMDL
MODEL 5
REMARK VINA RESULT:    -3.546      1.246      2.666
REMARK INTER + INTRA:          -1.809
REMARK INTER:                  -4.485
REMARK INTRA:                   2.675
REMARK UNBOUND:                 2.566
REMARK SMILES C=C1CC[C@H]2[C@H]([C@H]3[C@H](C)CC[C@H]13)C2(C)C
REMARK SMILES IDX 3 1 2 2 1 3 12 4 9 5 8 6 10 7 7 8 11 9 4 11 5 12 6 13 13 14
REMARK SMILES IDX 14 16 15 17
REMARK H PARENT
REMARK Flexibility Score: 80.00
ROOT
ATOM      1  C   UNL     1     132.731 135.267 138.113  1.00  0.00     0.031 C 
ENDROOT
BRANCH   1   2
ATOM      2  C   UNL     1     133.922 136.229 138.148  1.00  0.00    -0.074 C 
ATOM      3  C   UNL     1     135.110 135.807 138.610  1.00  0.00     0.008 C 
BRANCH   2   4
ATOM      4  C   UNL     1     133.767 137.567 137.431  1.00  0.00     0.018 C 
ATOM      5  C   UNL     1     135.051 139.231 134.309  1.00  0.00     0.008 C 
ATOM      6  C   UNL     1     134.124 138.926 135.491  1.00  0.00    -0.010 C 
ATOM      7  C   UNL     1     134.470 139.771 136.747  1.00  0.00     0.004 C 
ATOM      8  C   UNL     1     134.253 137.489 135.984  1.00  0.00     0.003 CG0
ATOM      9  C   UNL     1     134.458 138.817 137.961  1.00  0.00     0.008 C 
ATOM     10  G   UNL     1     133.708 136.279 135.170  1.00  0.00     0.000 G0
ENDBRANCH   2   4
ENDBRANCH   1   2
BRANCH   1  11
ATOM     11  C   UNL     1     132.396 134.737 136.691  1.00  0.00     0.009 C 
BRANCH  11  12
ATOM     12  C   UNL     1     132.262 135.912 135.701  1.00  0.00    -0.001 C 
ATOM     13  C   UNL     1     133.688 136.263 135.176  1.00  0.00     0.002 CG0
ATOM     14  C   UNL     1     132.535 135.957 134.210  1.00  0.00    -0.029 C 
ATOM     15  G   UNL     1     134.227 137.483 135.979  1.00  0.00     0.000 G0
ATOM     16  C   UNL     1     132.589 134.605 133.487  1.00  0.00     0.011 C 
ATOM     17  C   UNL     1     131.939 137.134 133.427  1.00  0.00     0.011 C 
ENDBRANCH  11  12
ENDBRANCH   1  11
TORSDOF 0
ENDMDL
MODEL 6
REMARK VINA RESULT:    -3.486      3.389      4.790
REMARK INTER + INTRA:          -1.735
REMARK INTER:                  -4.435
REMARK INTRA:                   2.700
REMARK UNBOUND:                 2.566
REMARK SMILES C=C1CC[C@H]2[C@H]([C@H]3[C@H](C)CC[C@H]13)C2(C)C
REMARK SMILES IDX 3 1 2 2 1 3 12 4 9 5 8 6 10 7 7 8 11 9 4 11 5 12 6 13 13 14
REMARK SMILES IDX 14 16 15 17
REMARK H PARENT
REMARK Flexibility Score: 80.00
ROOT
ATOM      1  C   UNL     1     135.075 140.934 135.731  1.00  0.00     0.031 C 
ENDROOT
BRANCH   1   2
ATOM      2  C   UNL     1     134.858 139.996 136.922  1.00  0.00    -0.074 C 
ATOM      3  C   UNL     1     133.768 139.212 136.967  1.00  0.00     0.008 C 
BRANCH   2   4
ATOM      4  C   UNL     1     136.017 139.818 137.898  1.00  0.00     0.018 C 
ATOM      5  C   UNL     1     138.549 137.177 138.782  1.00  0.00     0.008 C 
ATOM      6  C   UNL     1     137.920 138.568 138.642  1.00  0.00    -0.010 C 
ATOM      7  C   UNL     1     137.084 138.968 139.888  1.00  0.00     0.004 C 
ATOM      8  C   UNL     1     136.914 138.647 137.499  1.00  0.00     0.003 CG0
ATOM      9  C   UNL     1     135.754 139.564 139.377  1.00  0.00     0.008 C 
ATOM     10  G   UNL     1     137.350 138.631 136.005  1.00  0.00     0.000 G0
ENDBRANCH   2   4
ENDBRANCH   1   2
BRANCH   1  11
ATOM     11  C   UNL     1     136.160 140.439 134.733  1.00  0.00     0.009 C 
BRANCH  11  12
ATOM     12  C   UNL     1     137.463 140.100 135.487  1.00  0.00    -0.001 C 
ATOM     13  C   UNL     1     137.358 138.627 135.988  1.00  0.00     0.002 CG0
ATOM     14  C   UNL     1     138.548 139.099 135.140  1.00  0.00    -0.029 C 
ATOM     15  G   UNL     1     136.932 138.640 137.485  1.00  0.00     0.000 G0
ATOM     16  C   UNL     1     138.586 138.613 133.686  1.00  0.00     0.011 C 
ATOM     17  C   UNL     1     139.899 139.261 135.848  1.00  0.00     0.011 C 
ENDBRANCH  11  12
ENDBRANCH   1  11
TORSDOF 0
ENDMDL
MODEL 7
REMARK VINA RESULT:    -3.481      3.604      6.175
REMARK INTER + INTRA:          -1.729
REMARK INTER:                  -4.462
REMARK INTRA:                   2.733
REMARK UNBOUND:                 2.566
REMARK SMILES C=C1CC[C@H]2[C@H]([C@H]3[C@H](C)CC[C@H]13)C2(C)C
REMARK SMILES IDX 3 1 2 2 1 3 12 4 9 5 8 6 10 7 7 8 11 9 4 11 5 12 6 13 13 14
REMARK SMILES IDX 14 16 15 17
REMARK H PARENT
REMARK Flexibility Score: 80.00
ROOT
ATOM      1  C   UNL     1     140.410 138.310 135.713  1.00  0.00     0.031 C 
ENDROOT
BRANCH   1   2
ATOM      2  C   UNL     1     139.128 138.428 134.883  1.00  0.00    -0.074 C 
ATOM      3  C   UNL     1     138.903 137.570 133.874  1.00  0.00     0.008 C 
BRANCH   2   4
ATOM      4  C   UNL     1     138.044 139.373 135.394  1.00  0.00     0.018 C 
ATOM      5  C   UNL     1     134.662 139.127 137.026  1.00  0.00     0.008 C 
ATOM      6  C   UNL     1     136.013 139.722 136.615  1.00  0.00    -0.010 C 
ATOM      7  C   UNL     1     135.927 140.525 135.289  1.00  0.00     0.004 C 
ATOM      8  C   UNL     1     137.060 138.654 136.315  1.00  0.00     0.003 CG0
ATOM      9  C   UNL     1     137.132 140.106 134.418  1.00  0.00     0.008 C 
ATOM     10  G   UNL     1     137.714 137.794 137.436  1.00  0.00     0.000 G0
ENDBRANCH   2   4
ENDBRANCH   1   2
BRANCH   1  11
ATOM     11  C   UNL     1     140.187 137.700 137.126  1.00  0.00     0.009 C 
BRANCH  11  12
ATOM     12  C   UNL     1     139.058 138.454 137.860  1.00  0.00    -0.001 C 
ATOM     13  C   UNL     1     137.702 137.799 137.455  1.00  0.00     0.002 CG0
ATOM     14  C   UNL     1     138.101 137.960 138.928  1.00  0.00    -0.029 C 
ATOM     15  G   UNL     1     137.047 138.662 136.337  1.00  0.00     0.000 G0
ATOM     16  C   UNL     1     138.510 136.681 139.669  1.00  0.00     0.011 C 
ATOM     17  C   UNL     1     137.362 139.025 139.749  1.00  0.00     0.011 C 
ENDBRANCH  11  12
ENDBRANCH   1  11
TORSDOF 0
ENDMDL
MODEL 8
REMARK VINA RESULT:    -3.399      3.243      5.454
REMARK INTER + INTRA:          -1.628
REMARK INTER:                  -4.312
REMARK INTRA:                   2.685
REMARK UNBOUND:                 2.566
REMARK SMILES C=C1CC[C@H]2[C@H]([C@H]3[C@H](C)CC[C@H]13)C2(C)C
REMARK SMILES IDX 3 1 2 2 1 3 12 4 9 5 8 6 10 7 7 8 11 9 4 11 5 12 6 13 13 14
REMARK SMILES IDX 14 16 15 17
REMARK H PARENT
REMARK Flexibility Score: 80.00
ROOT
ATOM      1  C   UNL     1     134.358 133.737 139.491  1.00  0.00     0.031 C 
ENDROOT
BRANCH   1   2
ATOM      2  C   UNL     1     133.764 134.086 138.123  1.00  0.00    -0.074 C 
ATOM      3  C   UNL     1     133.006 135.186 137.983  1.00  0.00     0.008 C 
BRANCH   2   4
ATOM      4  C   UNL     1     134.258 133.290 136.918  1.00  0.00     0.018 C 
ATOM      5  C   UNL     1     136.443 133.847 133.905  1.00  0.00     0.008 C 
ATOM      6  C   UNL     1     135.709 133.098 135.022  1.00  0.00    -0.010 C 
ATOM      7  C   UNL     1     134.288 132.642 134.594  1.00  0.00     0.004 C 
ATOM      8  C   UNL     1     135.449 133.971 136.245  1.00  0.00     0.003 CG0
ATOM      9  C   UNL     1     133.326 132.991 135.751  1.00  0.00     0.008 C 
ATOM     10  G   UNL     1     136.588 134.411 137.210  1.00  0.00     0.000 G0
ENDBRANCH   2   4
ENDBRANCH   1   2
BRANCH   1  11
ATOM     11  C   UNL     1     135.878 134.044 139.610  1.00  0.00     0.009 C 
BRANCH  11  12
ATOM     12  C   UNL     1     136.644 133.415 138.428  1.00  0.00    -0.001 C 
ATOM     13  C   UNL     1     136.590 134.416 137.234  1.00  0.00     0.002 CG0
ATOM     14  C   UNL     1     137.926 133.867 137.756  1.00  0.00    -0.029 C 
ATOM     15  G   UNL     1     135.462 133.968 136.260  1.00  0.00     0.000 G0
ATOM     16  C   UNL     1     138.802 134.845 138.550  1.00  0.00     0.011 C 
ATOM     17  C   UNL     1     138.656 132.839 136.883  1.00  0.00     0.011 C 
ENDBRANCH  11  12
ENDBRANCH   1  11
TORSDOF 0
ENDMDL
MODEL 9
REMARK VINA RESULT:    -3.248      4.753      6.314
REMARK INTER + INTRA:          -1.442
REMARK INTER:                  -4.155
REMARK INTRA:                   2.713
REMARK UNBOUND:                 2.566
REMARK SMILES C=C1CC[C@H]2[C@H]([C@H]3[C@H](C)CC[C@H]13)C2(C)C
REMARK SMILES IDX 3 1 2 2 1 3 12 4 9 5 8 6 10 7 7 8 11 9 4 11 5 12 6 13 13 14
REMARK SMILES IDX 14 16 15 17
REMARK H PARENT
REMARK Flexibility Score: 80.00
ROOT
ATOM      1  C   UNL     1     140.820 135.259 134.414  1.00  0.00     0.031 C 
ENDROOT
BRANCH   1   2
ATOM      2  C   UNL     1     140.272 136.663 134.145  1.00  0.00    -0.074 C 
ATOM      3  C   UNL     1     140.145 137.102 132.882  1.00  0.00     0.008 C 
BRANCH   2   4
ATOM      4  C   UNL     1     139.669 137.421 135.324  1.00  0.00     0.018 C 
ATOM      5  C   UNL     1     136.257 138.447 136.537  1.00  0.00     0.008 C 
ATOM      6  C   UNL     1     137.745 138.085 136.588  1.00  0.00    -0.010 C 
ATOM      7  C   UNL     1     138.662 139.326 136.410  1.00  0.00     0.004 C 
ATOM      8  C   UNL     1     138.167 137.166 135.448  1.00  0.00     0.003 CG0
ATOM      9  C   UNL     1     139.769 138.939 135.405  1.00  0.00     0.008 C 
ATOM     10  G   UNL     1     137.746 135.668 135.388  1.00  0.00     0.000 G0
ENDBRANCH   2   4
ENDBRANCH   1   2
BRANCH   1  11
ATOM     11  C   UNL     1     139.729 134.229 134.823  1.00  0.00     0.009 C 
BRANCH  11  12
ATOM     12  C   UNL     1     138.881 134.784 135.986  1.00  0.00    -0.001 C 
ATOM     13  C   UNL     1     137.747 135.664 135.376  1.00  0.00     0.002 CG0
ATOM     14  C   UNL     1     137.431 134.513 136.341  1.00  0.00    -0.029 C 
ATOM     15  G   UNL     1     138.176 137.158 135.464  1.00  0.00     0.000 G0
ATOM     16  C   UNL     1     136.803 133.257 135.723  1.00  0.00     0.011 C 
ATOM     17  C   UNL     1     136.979 134.884 137.758  1.00  0.00     0.011 C 
ENDBRANCH  11  12
ENDBRANCH   1  11
TORSDOF 0
ENDMDL
