MODEL 1
REMARK VINA RESULT:    -3.074      0.000      0.000
REMARK INTER + INTRA:          -3.648
REMARK INTER:                  -3.613
REMARK INTRA:                  -0.035
REMARK UNBOUND:                -0.035
REMARK SMILES O=C([O-])CCC(=O)[O-]
REMARK SMILES IDX 4 1 2 2 1 3 3 4 5 5 6 6 7 7 8 8
REMARK H PARENT
REMARK Flexibility Score: inf
ROOT
ATOM      1  C   UNL     1      -2.452  14.747 -18.623  1.00  0.00     0.059 C 
ENDROOT
BRANCH   1   2
ATOM      2  C   UNL     1      -3.833  15.174 -18.228  1.00  0.00     0.042 C 
ATOM      3  O   UNL     1      -4.399  16.125 -18.830  1.00  0.00    -0.550 OA
ATOM      4  O   UNL     1      -4.479  14.548 -17.169  1.00  0.00    -0.550 OA
ENDBRANCH   1   2
BRANCH   1   5
ATOM      5  C   UNL     1      -2.485  13.657 -19.699  1.00  0.00     0.059 C 
BRANCH   5   6
ATOM      6  C   UNL     1      -1.192  13.588 -20.454  1.00  0.00     0.042 C 
ATOM      7  O   UNL     1      -0.664  14.637 -20.906  1.00  0.00    -0.550 OA
ATOM      8  O   UNL     1      -0.549  12.367 -20.621  1.00  0.00    -0.550 OA
ENDBRANCH   5   6
ENDBRANCH   1   5
TORSDOF 3
ENDMDL
MODEL 2
REMARK VINA RESULT:    -3.064      7.433      8.934
REMARK INTER + INTRA:          -3.637
REMARK INTER:                  -3.599
REMARK INTRA:                  -0.037
REMARK UNBOUND:                -0.035
REMARK SMILES O=C([O-])CCC(=O)[O-]
REMARK SMILES IDX 4 1 2 2 1 3 3 4 5 5 6 6 7 7 8 8
REMARK H PARENT
REMARK Flexibility Score: inf
ROOT
ATOM      1  C   UNL     1       5.252  13.097 -22.050  1.00  0.00     0.059 C 
ENDROOT
BRANCH   1   2
ATOM      2  C   UNL     1       4.125  12.154 -21.760  1.00  0.00     0.042 C 
ATOM      3  O   UNL     1       3.530  11.568 -22.703  1.00  0.00    -0.550 OA
ATOM      4  O   UNL     1       3.705  11.953 -20.451  1.00  0.00    -0.550 OA
ENDBRANCH   1   2
BRANCH   1   5
ATOM      5  C   UNL     1       5.707  13.002 -23.509  1.00  0.00     0.059 C 
BRANCH   5   6
ATOM      6  C   UNL     1       6.537  14.184 -23.907  1.00  0.00     0.042 C 
ATOM      7  O   UNL     1       6.621  14.524 -25.116  1.00  0.00    -0.550 OA
ATOM      8  O   UNL     1       7.186  14.936 -22.935  1.00  0.00    -0.550 OA
ENDBRANCH   5   6
ENDBRANCH   1   5
TORSDOF 3
ENDMDL
MODEL 3
REMARK VINA RESULT:    -3.045     16.853     17.786
REMARK INTER + INTRA:          -3.614
REMARK INTER:                  -3.545
REMARK INTRA:                  -0.069
REMARK UNBOUND:                -0.035
REMARK SMILES O=C([O-])CCC(=O)[O-]
REMARK SMILES IDX 4 1 2 2 1 3 3 4 5 5 6 6 7 7 8 8
REMARK H PARENT
REMARK Flexibility Score: inf
ROOT
ATOM      1  C   UNL     1      -6.993  10.685 -36.433  1.00  0.00     0.059 C 
ENDROOT
BRANCH   1   2
ATOM      2  C   UNL     1      -8.319  11.321 -36.716  1.00  0.00     0.042 C 
ATOM      3  O   UNL     1      -9.359  10.614 -36.787  1.00  0.00    -0.550 OA
ATOM      4  O   UNL     1      -8.401  12.690 -36.942  1.00  0.00    -0.550 OA
ENDBRANCH   1   2
BRANCH   1   5
ATOM      5  C   UNL     1      -5.832  11.629 -36.764  1.00  0.00     0.059 C 
BRANCH   5   6
ATOM      6  C   UNL     1      -4.842  11.701 -35.641  1.00  0.00     0.042 C 
ATOM      7  O   UNL     1      -5.095  11.156 -34.535  1.00  0.00    -0.550 OA
ATOM      8  O   UNL     1      -3.621  12.336 -35.832  1.00  0.00    -0.550 OA
ENDBRANCH   5   6
ENDBRANCH   1   5
TORSDOF 3
ENDMDL
MODEL 4
REMARK VINA RESULT:    -3.024     16.560     17.632
REMARK INTER + INTRA:          -3.589
REMARK INTER:                  -3.509
REMARK INTRA:                  -0.080
REMARK UNBOUND:                -0.035
REMARK SMILES O=C([O-])CCC(=O)[O-]
REMARK SMILES IDX 4 1 2 2 1 3 3 4 5 5 6 6 7 7 8 8
REMARK H PARENT
REMARK Flexibility Score: inf
ROOT
ATOM      1  C   UNL     1      -5.731  11.615 -35.696  1.00  0.00     0.059 C 
ENDROOT
BRANCH   1   2
ATOM      2  C   UNL     1      -5.548  10.496 -34.717  1.00  0.00     0.042 C 
ATOM      3  O   UNL     1      -6.512   9.738 -34.434  1.00  0.00    -0.550 OA
ATOM      4  O   UNL     1      -4.322  10.316 -34.088  1.00  0.00    -0.550 OA
ENDBRANCH   1   2
BRANCH   1   5
ATOM      5  C   UNL     1      -6.564  11.177 -36.904  1.00  0.00     0.059 C 
BRANCH   5   6
ATOM      6  C   UNL     1      -7.963  11.711 -36.832  1.00  0.00     0.042 C 
ATOM      7  O   UNL     1      -8.175  12.949 -36.905  1.00  0.00    -0.550 OA
ATOM      8  O   UNL     1      -9.036  10.834 -36.726  1.00  0.00    -0.550 OA
ENDBRANCH   5   6
ENDBRANCH   1   5
TORSDOF 3
ENDMDL
MODEL 5
REMARK VINA RESULT:    -3.003      0.215      4.306
REMARK INTER + INTRA:          -3.565
REMARK INTER:                  -3.534
REMARK INTRA:                  -0.030
REMARK UNBOUND:                -0.035
REMARK SMILES O=C([O-])CCC(=O)[O-]
REMARK SMILES IDX 4 1 2 2 1 3 3 4 5 5 6 6 7 7 8 8
REMARK H PARENT
REMARK Flexibility Score: inf
ROOT
ATOM      1  C   UNL     1      -2.442  13.587 -19.844  1.00  0.00     0.059 C 
ENDROOT
BRANCH   1   2
ATOM      2  C   UNL     1      -1.122  13.428 -20.536  1.00  0.00     0.042 C 
ATOM      3  O   UNL     1      -0.518  14.435 -20.988  1.00  0.00    -0.550 OA
ATOM      4  O   UNL     1      -0.579  12.161 -20.715  1.00  0.00    -0.550 OA
ENDBRANCH   1   2
BRANCH   1   5
ATOM      5  C   UNL     1      -2.378  14.651 -18.745  1.00  0.00     0.059 C 
BRANCH   5   6
ATOM      6  C   UNL     1      -3.744  15.010 -18.244  1.00  0.00     0.042 C 
ATOM      7  O   UNL     1      -4.287  14.326 -17.337  1.00  0.00    -0.550 OA
ATOM      8  O   UNL     1      -4.400  16.125 -18.751  1.00  0.00    -0.550 OA
ENDBRANCH   5   6
ENDBRANCH   1   5
TORSDOF 3
ENDMDL
MODEL 6
REMARK VINA RESULT:    -2.977     20.528     21.415
REMARK INTER + INTRA:          -3.533
REMARK INTER:                  -3.432
REMARK INTRA:                  -0.101
REMARK UNBOUND:                -0.035
REMARK SMILES O=C([O-])CCC(=O)[O-]
REMARK SMILES IDX 4 1 2 2 1 3 3 4 5 5 6 6 7 7 8 8
REMARK H PARENT
REMARK Flexibility Score: inf
ROOT
ATOM      1  C   UNL     1       3.338   2.683 -37.035  1.00  0.00     0.059 C 
ENDROOT
BRANCH   1   2
ATOM      2  C   UNL     1       4.269   3.689 -36.430  1.00  0.00     0.042 C 
ATOM      3  O   UNL     1       5.464   3.761 -36.819  1.00  0.00    -0.550 OA
ATOM      4  O   UNL     1       3.826   4.520 -35.408  1.00  0.00    -0.550 OA
ENDBRANCH   1   2
BRANCH   1   5
ATOM      5  C   UNL     1       2.709   1.783 -35.967  1.00  0.00     0.059 C 
BRANCH   5   6
ATOM      6  C   UNL     1       1.217   1.923 -35.937  1.00  0.00     0.042 C 
ATOM      7  O   UNL     1       0.495   1.179 -36.652  1.00  0.00    -0.550 OA
ATOM      8  O   UNL     1       0.622   2.847 -35.087  1.00  0.00    -0.550 OA
ENDBRANCH   5   6
ENDBRANCH   1   5
TORSDOF 3
ENDMDL
MODEL 7
REMARK VINA RESULT:    -2.923     20.569     21.586
REMARK INTER + INTRA:          -3.470
REMARK INTER:                  -3.439
REMARK INTRA:                  -0.032
REMARK UNBOUND:                -0.035
REMARK SMILES O=C([O-])CCC(=O)[O-]
REMARK SMILES IDX 4 1 2 2 1 3 3 4 5 5 6 6 7 7 8 8
REMARK H PARENT
REMARK Flexibility Score: inf
ROOT
ATOM      1  C   UNL     1       2.274   2.452 -35.809  1.00  0.00     0.059 C 
ENDROOT
BRANCH   1   2
ATOM      2  C   UNL     1       1.527   1.165 -35.984  1.00  0.00     0.042 C 
ATOM      3  O   UNL     1       1.991   0.094 -35.512  1.00  0.00    -0.550 OA
ATOM      4  O   UNL     1       0.339   1.142 -36.704  1.00  0.00    -0.550 OA
ENDBRANCH   1   2
BRANCH   1   5
ATOM      5  C   UNL     1       3.362   2.623 -36.873  1.00  0.00     0.059 C 
BRANCH   5   6
ATOM      6  C   UNL     1       4.386   3.635 -36.457  1.00  0.00     0.042 C 
ATOM      7  O   UNL     1       5.485   3.714 -37.067  1.00  0.00    -0.550 OA
ATOM      8  O   UNL     1       4.109   4.519 -35.422  1.00  0.00    -0.550 OA
ENDBRANCH   5   6
ENDBRANCH   1   5
TORSDOF 3
ENDMDL
MODEL 8
REMARK VINA RESULT:    -2.903     16.015     17.102
REMARK INTER + INTRA:          -3.447
REMARK INTER:                  -3.415
REMARK INTRA:                  -0.032
REMARK UNBOUND:                -0.035
REMARK SMILES O=C([O-])CCC(=O)[O-]
REMARK SMILES IDX 4 1 2 2 1 3 3 4 5 5 6 6 7 7 8 8
REMARK H PARENT
REMARK Flexibility Score: inf
ROOT
ATOM      1  C   UNL     1      -7.408  10.211 -35.676  1.00  0.00     0.059 C 
ENDROOT
BRANCH   1   2
ATOM      2  C   UNL     1      -6.836  11.471 -36.251  1.00  0.00     0.042 C 
ATOM      3  O   UNL     1      -7.600  12.387 -36.654  1.00  0.00    -0.550 OA
ATOM      4  O   UNL     1      -5.460  11.615 -36.379  1.00  0.00    -0.550 OA
ENDBRANCH   1   2
BRANCH   1   5
ATOM      5  C   UNL     1      -6.550   9.676 -34.524  1.00  0.00     0.059 C 
BRANCH   5   6
ATOM      6  C   UNL     1      -7.383   8.965 -33.501  1.00  0.00     0.042 C 
ATOM      7  O   UNL     1      -8.409   8.325 -33.850  1.00  0.00    -0.550 OA
ATOM      8  O   UNL     1      -6.999   8.974 -32.165  1.00  0.00    -0.550 OA
ENDBRANCH   5   6
ENDBRANCH   1   5
TORSDOF 3
ENDMDL
MODEL 9
REMARK VINA RESULT:    -2.898     10.459     10.881
REMARK INTER + INTRA:          -3.441
REMARK INTER:                  -3.371
REMARK INTRA:                  -0.070
REMARK UNBOUND:                -0.035
REMARK SMILES O=C([O-])CCC(=O)[O-]
REMARK SMILES IDX 4 1 2 2 1 3 3 4 5 5 6 6 7 7 8 8
REMARK H PARENT
REMARK Flexibility Score: inf
ROOT
ATOM      1  C   UNL     1      -7.180  14.275 -29.278  1.00  0.00     0.059 C 
ENDROOT
BRANCH   1   2
ATOM      2  C   UNL     1      -7.078  15.044 -27.996  1.00  0.00     0.042 C 
ATOM      3  O   UNL     1      -7.891  15.974 -27.749  1.00  0.00    -0.550 OA
ATOM      4  O   UNL     1      -6.062  14.760 -27.093  1.00  0.00    -0.550 OA
ENDBRANCH   1   2
BRANCH   1   5
ATOM      5  C   UNL     1      -6.702  12.830 -29.108  1.00  0.00     0.059 C 
BRANCH   5   6
ATOM      6  C   UNL     1      -7.809  11.850 -29.356  1.00  0.00     0.042 C 
ATOM      7  O   UNL     1      -8.990  12.254 -29.516  1.00  0.00    -0.550 OA
ATOM      8  O   UNL     1      -7.526  10.493 -29.451  1.00  0.00    -0.550 OA
ENDBRANCH   5   6
ENDBRANCH   1   5
TORSDOF 3
ENDMDL
