MODEL 1
REMARK VINA RESULT:    -2.994      0.000      0.000
REMARK INTER + INTRA:          -4.969
REMARK INTER:                  -4.394
REMARK INTRA:                  -0.575
REMARK UNBOUND:                -0.575
REMARK SMILES O=C([O-])CCCCCCCC(=O)[O-]
REMARK SMILES IDX 7 1 6 2 5 3 4 4 2 5 1 6 3 7 8 8 9 9 10 10 11 11 12 12 13 13
REMARK H PARENT
REMARK Flexibility Score: inf
ROOT
ATOM      1  C   UNL     1      -3.460   5.101   6.932  1.00  0.00     0.000 C 
ENDROOT
BRANCH   1   2
ATOM      2  C   UNL     1      -3.377   3.838   7.802  1.00  0.00     0.000 C 
BRANCH   2   3
ATOM      3  C   UNL     1      -4.736   3.129   7.957  1.00  0.00     0.006 C 
BRANCH   3   4
ATOM      4  C   UNL     1      -5.239   3.034   9.408  1.00  0.00     0.053 C 
BRANCH   4   5
ATOM      5  C   UNL     1      -6.202   4.132   9.744  1.00  0.00     0.041 C 
ATOM      6  O   UNL     1      -7.422   3.873   9.915  1.00  0.00    -0.550 OA
ATOM      7  O   UNL     1      -5.757   5.444   9.831  1.00  0.00    -0.550 OA
ENDBRANCH   4   5
ENDBRANCH   3   4
ENDBRANCH   2   3
ENDBRANCH   1   2
BRANCH   1   8
ATOM      8  C   UNL     1      -3.090   6.350   7.744  1.00  0.00     0.000 C 
BRANCH   8   9
ATOM      9  C   UNL     1      -2.261   6.023   9.000  1.00  0.00     0.006 C 
BRANCH   9  10
ATOM     10  C   UNL     1      -2.251   7.136  10.061  1.00  0.00     0.053 C 
BRANCH  10  11
ATOM     11  C   UNL     1      -0.997   7.951  10.012  1.00  0.00     0.041 C 
ATOM     12  O   UNL     1       0.126   7.392  10.125  1.00  0.00    -0.550 OA
ATOM     13  O   UNL     1      -1.065   9.324   9.806  1.00  0.00    -0.550 OA
ENDBRANCH  10  11
ENDBRANCH   9  10
ENDBRANCH   8   9
ENDBRANCH   1   8
TORSDOF 8
ENDMDL
MODEL 2
REMARK VINA RESULT:    -2.688      1.801      5.845
REMARK INTER + INTRA:          -4.520
REMARK INTER:                  -4.475
REMARK INTRA:                  -0.045
REMARK UNBOUND:                -0.575
REMARK SMILES O=C([O-])CCCCCCCC(=O)[O-]
REMARK SMILES IDX 7 1 6 2 5 3 4 4 2 5 1 6 3 7 8 8 9 9 10 10 11 11 12 12 13 13
REMARK H PARENT
REMARK Flexibility Score: inf
ROOT
ATOM      1  C   UNL     1      -4.076   5.689   8.481  1.00  0.00     0.000 C 
ENDROOT
BRANCH   1   2
ATOM      2  C   UNL     1      -2.581   5.934   8.741  1.00  0.00     0.000 C 
BRANCH   2   3
ATOM      3  C   UNL     1      -2.325   6.789   9.997  1.00  0.00     0.006 C 
BRANCH   3   4
ATOM      4  C   UNL     1      -0.884   7.310  10.125  1.00  0.00     0.053 C 
BRANCH   4   5
ATOM      5  C   UNL     1      -0.804   8.796   9.956  1.00  0.00     0.041 C 
ATOM      6  O   UNL     1      -1.854   9.474   9.810  1.00  0.00    -0.550 OA
ATOM      7  O   UNL     1       0.433   9.427   9.924  1.00  0.00    -0.550 OA
ENDBRANCH   4   5
ENDBRANCH   3   4
ENDBRANCH   2   3
ENDBRANCH   1   2
BRANCH   1   8
ATOM      8  C   UNL     1      -4.893   5.885   9.766  1.00  0.00     0.000 C 
BRANCH   8   9
ATOM      9  C   UNL     1      -5.749   4.655  10.123  1.00  0.00     0.006 C 
BRANCH   9  10
ATOM     10  C   UNL     1      -6.010   3.700   8.947  1.00  0.00     0.053 C 
BRANCH  10  11
ATOM     11  C   UNL     1      -4.890   2.725   8.755  1.00  0.00     0.041 C 
ATOM     12  O   UNL     1      -4.348   2.179   9.752  1.00  0.00    -0.550 OA
ATOM     13  O   UNL     1      -4.468   2.391   7.474  1.00  0.00    -0.550 OA
ENDBRANCH  10  11
ENDBRANCH   9  10
ENDBRANCH   8   9
ENDBRANCH   1   8
TORSDOF 8
ENDMDL
MODEL 3
REMARK VINA RESULT:    -1.450     10.685     12.911
REMARK INTER + INTRA:          -2.704
REMARK INTER:                  -2.465
REMARK INTRA:                  -0.238
REMARK UNBOUND:                -0.575
REMARK SMILES O=C([O-])CCCCCCCC(=O)[O-]
REMARK SMILES IDX 7 1 6 2 5 3 4 4 2 5 1 6 3 7 8 8 9 9 10 10 11 11 12 12 13 13
REMARK H PARENT
REMARK Flexibility Score: inf
ROOT
ATOM      1  C   UNL     1      -0.969   7.849  -1.841  1.00  0.00     0.000 C 
ENDROOT
BRANCH   1   2
ATOM      2  C   UNL     1       0.426   7.288  -1.528  1.00  0.00     0.000 C 
BRANCH   2   3
ATOM      3  C   UNL     1       1.477   8.391  -1.299  1.00  0.00     0.006 C 
BRANCH   3   4
ATOM      4  C   UNL     1       2.887   8.037  -1.800  1.00  0.00     0.053 C 
BRANCH   4   5
ATOM      5  C   UNL     1       3.841   9.182  -1.656  1.00  0.00     0.041 C 
ATOM      6  O   UNL     1       3.584  10.124  -0.862  1.00  0.00    -0.550 OA
ATOM      7  O   UNL     1       4.996   9.227  -2.425  1.00  0.00    -0.550 OA
ENDBRANCH   4   5
ENDBRANCH   3   4
ENDBRANCH   2   3
ENDBRANCH   1   2
BRANCH   1   8
ATOM      8  C   UNL     1      -1.552   8.577  -0.621  1.00  0.00     0.000 C 
BRANCH   8   9
ATOM      9  C   UNL     1      -2.977   8.108  -0.269  1.00  0.00     0.006 C 
BRANCH   9  10
ATOM     10  C   UNL     1      -4.038   9.221  -0.307  1.00  0.00     0.053 C 
BRANCH  10  11
ATOM     11  C   UNL     1      -4.824   9.206  -1.580  1.00  0.00     0.041 C 
ATOM     12  O   UNL     1      -6.055   9.470  -1.568  1.00  0.00    -0.550 OA
ATOM     13  O   UNL     1      -4.191   8.936  -2.788  1.00  0.00    -0.550 OA
ENDBRANCH  10  11
ENDBRANCH   9  10
ENDBRANCH   8   9
ENDBRANCH   1   8
TORSDOF 8
ENDMDL
MODEL 4
REMARK VINA RESULT:    -1.258     10.642     11.686
REMARK INTER + INTRA:          -2.422
REMARK INTER:                  -2.227
REMARK INTRA:                  -0.194
REMARK UNBOUND:                -0.575
REMARK SMILES O=C([O-])CCCCCCCC(=O)[O-]
REMARK SMILES IDX 7 1 6 2 5 3 4 4 2 5 1 6 3 7 8 8 9 9 10 10 11 11 12 12 13 13
REMARK H PARENT
REMARK Flexibility Score: inf
ROOT
ATOM      1  C   UNL     1      -1.145   8.005  -1.676  1.00  0.00     0.000 C 
ENDROOT
BRANCH   1   2
ATOM      2  C   UNL     1      -1.677   8.602  -0.364  1.00  0.00     0.000 C 
BRANCH   2   3
ATOM      3  C   UNL     1      -3.152   8.246  -0.100  1.00  0.00     0.006 C 
BRANCH   3   4
ATOM      4  C   UNL     1      -4.136   9.403  -0.340  1.00  0.00     0.053 C 
BRANCH   4   5
ATOM      5  C   UNL     1      -4.858   9.268  -1.646  1.00  0.00     0.041 C 
ATOM      6  O   UNL     1      -6.109   9.402  -1.694  1.00  0.00    -0.550 OA
ATOM      7  O   UNL     1      -4.153   8.958  -2.801  1.00  0.00    -0.550 OA
ENDBRANCH   4   5
ENDBRANCH   3   4
ENDBRANCH   2   3
ENDBRANCH   1   2
BRANCH   1   8
ATOM      8  C   UNL     1       0.279   7.463  -1.493  1.00  0.00     0.000 C 
BRANCH   8   9
ATOM      9  C   UNL     1       1.345   8.575  -1.477  1.00  0.00     0.006 C 
BRANCH   9  10
ATOM     10  C   UNL     1       2.766   8.097  -1.820  1.00  0.00     0.053 C 
BRANCH  10  11
ATOM     11  C   UNL     1       3.788   9.169  -1.604  1.00  0.00     0.041 C 
ATOM     12  O   UNL     1       4.808   9.229  -2.340  1.00  0.00    -0.550 OA
ATOM     13  O   UNL     1       3.598  10.124  -0.613  1.00  0.00    -0.550 OA
ENDBRANCH  10  11
ENDBRANCH   9  10
ENDBRANCH   8   9
ENDBRANCH   1   8
TORSDOF 8
ENDMDL
MODEL 5
REMARK VINA RESULT:    -0.992     21.462     22.061
REMARK INTER + INTRA:          -2.032
REMARK INTER:                  -1.870
REMARK INTRA:                  -0.162
REMARK UNBOUND:                -0.575
REMARK SMILES O=C([O-])CCCCCCCC(=O)[O-]
REMARK SMILES IDX 7 1 6 2 5 3 4 4 2 5 1 6 3 7 8 8 9 9 10 10 11 11 12 12 13 13
REMARK H PARENT
REMARK Flexibility Score: inf
ROOT
ATOM      1  C   UNL     1       1.402  -5.654  -9.296  1.00  0.00     0.000 C 
ENDROOT
BRANCH   1   2
ATOM      2  C   UNL     1       0.199  -6.131 -10.125  1.00  0.00     0.000 C 
BRANCH   2   3
ATOM      3  C   UNL     1      -0.941  -6.693  -9.255  1.00  0.00     0.006 C 
BRANCH   3   4
ATOM      4  C   UNL     1      -1.733  -7.837  -9.910  1.00  0.00     0.053 C 
BRANCH   4   5
ATOM      5  C   UNL     1      -2.993  -8.151  -9.162  1.00  0.00     0.041 C 
ATOM      6  O   UNL     1      -4.114  -7.892  -9.672  1.00  0.00    -0.550 OA
ATOM      7  O   UNL     1      -2.926  -8.697  -7.887  1.00  0.00    -0.550 OA
ENDBRANCH   4   5
ENDBRANCH   3   4
ENDBRANCH   2   3
ENDBRANCH   1   2
BRANCH   1   8
ATOM      8  C   UNL     1       2.305  -4.729 -10.125  1.00  0.00     0.000 C 
BRANCH   8   9
ATOM      9  C   UNL     1       1.905  -3.246 -10.014  1.00  0.00     0.006 C 
BRANCH   9  10
ATOM     10  C   UNL     1       3.093  -2.275  -9.911  1.00  0.00     0.053 C 
BRANCH  10  11
ATOM     11  C   UNL     1       4.281  -2.906  -9.254  1.00  0.00     0.041 C 
ATOM     12  O   UNL     1       5.262  -3.284  -9.947  1.00  0.00    -0.550 OA
ATOM     13  O   UNL     1       4.321  -3.046  -7.872  1.00  0.00    -0.550 OA
ENDBRANCH  10  11
ENDBRANCH   9  10
ENDBRANCH   8   9
ENDBRANCH   1   8
TORSDOF 8
ENDMDL
