MODEL 1
REMARK VINA RESULT:    -9.041      0.000      0.000
REMARK INTER + INTRA:         -14.075
REMARK INTER:                 -12.741
REMARK INTRA:                  -1.334
REMARK UNBOUND:                -1.334
REMARK SMILES COc1c(O[C@H]2O[C@H](C(=O)[O-])[C@@H](O)[C@@H](O)[C@@H]2O)cc(O)c2c(=O)cc(-c3ccccc3)oc12
REMARK SMILES IDX 5 1 6 2 8 3 12 4 7 5 14 6 16 7 9 8 10 9 11 10 13 11 15 13
REMARK SMILES IDX 17 15 4 17 3 18 18 19 33 20 19 21 21 22 32 23 22 24 25 25
REMARK SMILES IDX 24 26 23 27 2 28 1 29 20 30 26 32 27 33 31 34 28 35 30 36
REMARK SMILES IDX 29 37
REMARK H PARENT 13 12 15 14 17 16 20 31
REMARK Flexibility Score: inf
ROOT
ATOM      1  O   UNL     1       8.854  49.437  23.123  1.00  0.00    -0.458 OA
ENDROOT
BRANCH   1   2
ATOM      2  C   UNL     1       8.003  49.202  24.250  1.00  0.00     0.339 C 
ATOM      3  C   UNL     1       7.444  47.034  23.542  1.00  0.00     0.199 C 
ATOM      4  C   UNL     1       8.196  46.366  24.717  1.00  0.00     0.180 C 
ATOM      5  O   UNL     1       6.949  48.307  23.923  1.00  0.00    -0.328 OA
ATOM      6  C   UNL     1       9.346  47.269  25.204  1.00  0.00     0.181 C 
ATOM      7  C   UNL     1       8.822  48.696  25.452  1.00  0.00     0.214 C 
BRANCH   3   8
ATOM      8  C   UNL     1       6.282  46.181  23.125  1.00  0.00     0.073 C 
ATOM      9  O   UNL     1       6.481  45.055  22.596  1.00  0.00    -0.547 OA
ATOM     10  O   UNL     1       4.983  46.600  23.375  1.00  0.00    -0.547 OA
ENDBRANCH   3   8
BRANCH   4  11
ATOM     11  O   UNL     1       8.675  45.087  24.375  1.00  0.00    -0.387 OA
ATOM     12  H   UNL     1       9.143  44.714  25.165  1.00  0.00     0.211 HD
ENDBRANCH   4  11
BRANCH   6  13
ATOM     13  O   UNL     1      10.377  47.313  24.248  1.00  0.00    -0.387 OA
ATOM     14  H   UNL     1      11.220  47.506  24.735  1.00  0.00     0.211 HD
ENDBRANCH   6  13
BRANCH   7  15
ATOM     15  O   UNL     1       8.009  48.716  26.598  1.00  0.00    -0.384 OA
ATOM     16  H   UNL     1       8.478  48.184  27.295  1.00  0.00     0.211 HD
ENDBRANCH   7  15
ENDBRANCH   1   2
BRANCH   1  17
ATOM     17  C   UNL     1       8.413  49.751  21.825  1.00  0.00     0.172 A 
ATOM     18  C   UNL     1       8.770  48.887  20.780  1.00  0.00     0.205 A 
ATOM     19  C   UNL     1       7.646  50.897  21.559  1.00  0.00     0.097 A 
ATOM     20  C   UNL     1       8.351  49.178  19.457  1.00  0.00     0.188 A 
ATOM     21  C   UNL     1       7.239  51.202  20.257  1.00  0.00     0.134 A 
ATOM     22  C   UNL     1       7.590  50.346  19.191  1.00  0.00     0.111 A 
ATOM     23  O   UNL     1       8.671  48.360  18.457  1.00  0.00    -0.452 OA
ATOM     24  C   UNL     1       7.215  50.603  17.856  1.00  0.00     0.197 A 
ATOM     25  C   UNL     1       8.336  48.577  17.188  1.00  0.00     0.138 A 
ATOM     26  C   UNL     1       7.593  49.714  16.852  1.00  0.00     0.100 A 
ATOM     27  O   UNL     1       6.542  51.622  17.545  1.00  0.00    -0.289 OA
BRANCH  18  28
ATOM     28  O   UNL     1       9.542  47.761  21.124  1.00  0.00    -0.490 OA
ATOM     29  C   UNL     1      10.944  47.606  20.932  1.00  0.00     0.278 C 
ENDBRANCH  18  28
BRANCH  21  30
ATOM     30  O   UNL     1       6.490  52.359  20.033  1.00  0.00    -0.507 OA
ATOM     31  H   UNL     1       5.870  52.738  20.738  1.00  0.00     0.293 HD
ENDBRANCH  21  30
BRANCH  25  32
ATOM     32  C   UNL     1       8.756  47.603  16.158  1.00  0.00     0.017 A 
ATOM     33  C   UNL     1      10.112  47.264  16.026  1.00  0.00     0.012 A 
ATOM     34  C   UNL     1       7.820  47.025  15.282  1.00  0.00     0.012 A 
ATOM     35  C   UNL     1      10.524  46.354  15.048  1.00  0.00     0.001 A 
ATOM     36  C   UNL     1       8.237  46.121  14.301  1.00  0.00     0.001 A 
ATOM     37  C   UNL     1       9.587  45.783  14.186  1.00  0.00     0.000 A 
ENDBRANCH  25  32
ENDBRANCH   1  17
TORSDOF 9
ENDMDL
MODEL 2
REMARK VINA RESULT:    -8.981      2.511      8.538
REMARK INTER + INTRA:         -13.989
REMARK INTER:                 -12.603
REMARK INTRA:                  -1.386
REMARK UNBOUND:                -1.334
REMARK SMILES COc1c(O[C@H]2O[C@H](C(=O)[O-])[C@@H](O)[C@@H](O)[C@@H]2O)cc(O)c2c(=O)cc(-c3ccccc3)oc12
REMARK SMILES IDX 5 1 6 2 8 3 12 4 7 5 14 6 16 7 9 8 10 9 11 10 13 11 15 13
REMARK SMILES IDX 17 15 4 17 3 18 18 19 33 20 19 21 21 22 32 23 22 24 25 25
REMARK SMILES IDX 24 26 23 27 2 28 1 29 20 30 26 32 27 33 31 34 28 35 30 36
REMARK SMILES IDX 29 37
REMARK H PARENT 13 12 15 14 17 16 20 31
REMARK Flexibility Score: inf
ROOT
ATOM      1  O   UNL     1       8.652  46.831  21.182  1.00  0.00    -0.458 OA
ENDROOT
BRANCH   1   2
ATOM      2  C   UNL     1       8.288  47.122  19.828  1.00  0.00     0.339 C 
ATOM      3  C   UNL     1       8.317  49.443  20.181  1.00  0.00     0.199 C 
ATOM      4  C   UNL     1       9.551  49.650  19.271  1.00  0.00     0.180 C 
ATOM      5  O   UNL     1       7.551  48.333  19.741  1.00  0.00    -0.328 OA
ATOM      6  C   UNL     1      10.416  48.376  19.240  1.00  0.00     0.181 C 
ATOM      7  C   UNL     1       9.535  47.152  18.925  1.00  0.00     0.214 C 
BRANCH   3   8
ATOM      8  C   UNL     1       7.444  50.663  20.146  1.00  0.00     0.073 C 
ATOM      9  O   UNL     1       7.724  51.663  20.859  1.00  0.00    -0.547 OA
ATOM     10  O   UNL     1       6.358  50.720  19.284  1.00  0.00    -0.547 OA
ENDBRANCH   3   8
BRANCH   4  11
ATOM     11  O   UNL     1      10.315  50.764  19.670  1.00  0.00    -0.387 OA
ATOM     12  H   UNL     1      10.945  50.981  18.935  1.00  0.00     0.211 HD
ENDBRANCH   4  11
BRANCH   6  13
ATOM     13  O   UNL     1      11.055  48.182  20.478  1.00  0.00    -0.387 OA
ATOM     14  H   UNL     1      11.186  49.078  20.883  1.00  0.00     0.211 HD
ENDBRANCH   6  13
BRANCH   7  15
ATOM     15  O   UNL     1       9.124  47.189  17.582  1.00  0.00    -0.384 OA
ATOM     16  H   UNL     1       8.136  47.078  17.578  1.00  0.00     0.211 HD
ENDBRANCH   7  15
ENDBRANCH   1   2
BRANCH   1  17
ATOM     17  C   UNL     1       7.748  46.657  22.245  1.00  0.00     0.172 A 
ATOM     18  C   UNL     1       7.869  47.502  23.358  1.00  0.00     0.205 A 
ATOM     19  C   UNL     1       6.753  45.668  22.219  1.00  0.00     0.097 A 
ATOM     20  C   UNL     1       6.982  47.349  24.453  1.00  0.00     0.188 A 
ATOM     21  C   UNL     1       5.881  45.498  23.298  1.00  0.00     0.134 A 
ATOM     22  C   UNL     1       5.988  46.336  24.429  1.00  0.00     0.111 A 
ATOM     23  O   UNL     1       7.077  48.152  25.510  1.00  0.00    -0.452 OA
ATOM     24  C   UNL     1       5.143  46.211  25.551  1.00  0.00     0.197 A 
ATOM     25  C   UNL     1       6.298  48.055  26.584  1.00  0.00     0.138 A 
ATOM     26  C   UNL     1       5.303  47.074  26.632  1.00  0.00     0.100 A 
ATOM     27  O   UNL     1       4.241  45.332  25.601  1.00  0.00    -0.289 OA
BRANCH  18  28
ATOM     28  O   UNL     1       8.894  48.468  23.312  1.00  0.00    -0.490 OA
ATOM     29  C   UNL     1      10.176  48.370  23.921  1.00  0.00     0.278 C 
ENDBRANCH  18  28
BRANCH  21  30
ATOM     30  O   UNL     1       4.914  44.492  23.239  1.00  0.00    -0.507 OA
ATOM     31  H   UNL     1       3.942  44.672  23.455  1.00  0.00     0.293 HD
ENDBRANCH  21  30
BRANCH  25  32
ATOM     32  C   UNL     1       6.502  48.998  27.706  1.00  0.00     0.017 A 
ATOM     33  C   UNL     1       7.772  49.125  28.291  1.00  0.00     0.012 A 
ATOM     34  C   UNL     1       5.434  49.754  28.220  1.00  0.00     0.012 A 
ATOM     35  C   UNL     1       7.975  50.002  29.360  1.00  0.00     0.001 A 
ATOM     36  C   UNL     1       5.640  50.625  29.294  1.00  0.00     0.001 A 
ATOM     37  C   UNL     1       6.909  50.751  29.862  1.00  0.00     0.000 A 
ENDBRANCH  25  32
ENDBRANCH   1  17
TORSDOF 9
ENDMDL
MODEL 3
REMARK VINA RESULT:    -8.743      2.385      4.948
REMARK INTER + INTRA:         -13.654
REMARK INTER:                 -12.363
REMARK INTRA:                  -1.291
REMARK UNBOUND:                -1.334
REMARK SMILES COc1c(O[C@H]2O[C@H](C(=O)[O-])[C@@H](O)[C@@H](O)[C@@H]2O)cc(O)c2c(=O)cc(-c3ccccc3)oc12
REMARK SMILES IDX 5 1 6 2 8 3 12 4 7 5 14 6 16 7 9 8 10 9 11 10 13 11 15 13
REMARK SMILES IDX 17 15 4 17 3 18 18 19 33 20 19 21 21 22 32 23 22 24 25 25
REMARK SMILES IDX 24 26 23 27 2 28 1 29 20 30 26 32 27 33 31 34 28 35 30 36
REMARK SMILES IDX 29 37
REMARK H PARENT 13 12 15 14 17 16 20 31
REMARK Flexibility Score: inf
ROOT
ATOM      1  O   UNL     1       7.971  49.095  25.325  1.00  0.00    -0.458 OA
ENDROOT
BRANCH   1   2
ATOM      2  C   UNL     1       7.475  48.142  26.272  1.00  0.00     0.339 C 
ATOM      3  C   UNL     1       6.895  49.799  27.832  1.00  0.00     0.199 C 
ATOM      4  C   UNL     1       5.378  49.542  27.667  1.00  0.00     0.180 C 
ATOM      5  O   UNL     1       7.633  48.610  27.604  1.00  0.00    -0.328 OA
ATOM      6  C   UNL     1       5.077  48.980  26.265  1.00  0.00     0.181 C 
ATOM      7  C   UNL     1       6.007  47.788  25.967  1.00  0.00     0.214 C 
BRANCH   3   8
ATOM      8  C   UNL     1       7.186  50.276  29.224  1.00  0.00     0.073 C 
ATOM      9  O   UNL     1       6.245  50.641  29.978  1.00  0.00    -0.547 OA
ATOM     10  O   UNL     1       8.486  50.262  29.710  1.00  0.00    -0.547 OA
ENDBRANCH   3   8
BRANCH   4  11
ATOM     11  O   UNL     1       4.620  50.702  27.915  1.00  0.00    -0.387 OA
ATOM     12  H   UNL     1       4.346  50.690  28.869  1.00  0.00     0.211 HD
ENDBRANCH   4  11
BRANCH   6  13
ATOM     13  O   UNL     1       5.264  49.971  25.285  1.00  0.00    -0.387 OA
ATOM     14  H   UNL     1       4.747  50.768  25.572  1.00  0.00     0.211 HD
ENDBRANCH   6  13
BRANCH   7  15
ATOM     15  O   UNL     1       5.634  46.681  26.748  1.00  0.00    -0.384 OA
ATOM     16  H   UNL     1       5.815  45.869  26.204  1.00  0.00     0.211 HD
ENDBRANCH   7  15
ENDBRANCH   1   2
BRANCH   1  17
ATOM     17  C   UNL     1       8.843  48.802  24.262  1.00  0.00     0.172 A 
ATOM     18  C   UNL     1       8.303  48.714  22.970  1.00  0.00     0.205 A 
ATOM     19  C   UNL     1      10.216  48.590  24.465  1.00  0.00     0.097 A 
ATOM     20  C   UNL     1       9.151  48.410  21.875  1.00  0.00     0.188 A 
ATOM     21  C   UNL     1      11.060  48.276  23.396  1.00  0.00     0.134 A 
ATOM     22  C   UNL     1      10.536  48.180  22.089  1.00  0.00     0.111 A 
ATOM     23  O   UNL     1       8.655  48.335  20.643  1.00  0.00    -0.452 OA
ATOM     24  C   UNL     1      11.334  47.861  20.972  1.00  0.00     0.197 A 
ATOM     25  C   UNL     1       9.381  48.032  19.571  1.00  0.00     0.138 A 
ATOM     26  C   UNL     1      10.751  47.785  19.709  1.00  0.00     0.100 A 
ATOM     27  O   UNL     1      12.570  47.641  21.085  1.00  0.00    -0.289 OA
BRANCH  18  28
ATOM     28  O   UNL     1       6.917  48.936  22.846  1.00  0.00    -0.490 OA
ATOM     29  C   UNL     1       5.936  47.971  22.485  1.00  0.00     0.278 C 
ENDBRANCH  18  28
BRANCH  21  30
ATOM     30  O   UNL     1      12.417  48.058  23.643  1.00  0.00    -0.507 OA
ATOM     31  H   UNL     1      13.138  48.484  23.074  1.00  0.00     0.293 HD
ENDBRANCH  21  30
BRANCH  25  32
ATOM     32  C   UNL     1       8.719  47.969  18.250  1.00  0.00     0.017 A 
ATOM     33  C   UNL     1       8.158  49.129  17.692  1.00  0.00     0.012 A 
ATOM     34  C   UNL     1       8.613  46.755  17.549  1.00  0.00     0.012 A 
ATOM     35  C   UNL     1       7.519  49.081  16.450  1.00  0.00     0.001 A 
ATOM     36  C   UNL     1       7.966  46.710  16.310  1.00  0.00     0.001 A 
ATOM     37  C   UNL     1       7.422  47.871  15.760  1.00  0.00     0.000 A 
ENDBRANCH  25  32
ENDBRANCH   1  17
TORSDOF 9
ENDMDL
MODEL 4
REMARK VINA RESULT:    -8.715      1.418      1.896
REMARK INTER + INTRA:         -13.614
REMARK INTER:                 -13.110
REMARK INTRA:                  -0.504
REMARK UNBOUND:                -1.334
REMARK SMILES COc1c(O[C@H]2O[C@H](C(=O)[O-])[C@@H](O)[C@@H](O)[C@@H]2O)cc(O)c2c(=O)cc(-c3ccccc3)oc12
REMARK SMILES IDX 5 1 6 2 8 3 12 4 7 5 14 6 16 7 9 8 10 9 11 10 13 11 15 13
REMARK SMILES IDX 17 15 4 17 3 18 18 19 33 20 19 21 21 22 32 23 22 24 25 25
REMARK SMILES IDX 24 26 23 27 2 28 1 29 20 30 26 32 27 33 31 34 28 35 30 36
REMARK SMILES IDX 29 37
REMARK H PARENT 13 12 15 14 17 16 20 31
REMARK Flexibility Score: inf
ROOT
ATOM      1  O   UNL     1       9.620  48.100  23.223  1.00  0.00    -0.458 OA
ENDROOT
BRANCH   1   2
ATOM      2  C   UNL     1       9.302  48.401  24.586  1.00  0.00     0.339 C 
ATOM      3  C   UNL     1       7.050  47.784  24.334  1.00  0.00     0.199 C 
ATOM      4  C   UNL     1       7.197  46.552  25.257  1.00  0.00     0.180 C 
ATOM      5  O   UNL     1       7.948  48.811  24.721  1.00  0.00    -0.328 OA
ATOM      6  C   UNL     1       8.649  46.035  25.239  1.00  0.00     0.181 C 
ATOM      7  C   UNL     1       9.623  47.201  25.496  1.00  0.00     0.214 C 
BRANCH   3   8
ATOM      8  C   UNL     1       5.652  48.323  24.416  1.00  0.00     0.073 C 
ATOM      9  O   UNL     1       5.440  49.459  24.916  1.00  0.00    -0.547 OA
ATOM     10  O   UNL     1       4.592  47.599  23.889  1.00  0.00    -0.547 OA
ENDBRANCH   3   8
BRANCH   4  11
ATOM     11  O   UNL     1       6.297  45.526  24.911  1.00  0.00    -0.387 OA
ATOM     12  H   UNL     1       5.716  45.351  25.696  1.00  0.00     0.211 HD
ENDBRANCH   4  11
BRANCH   6  13
ATOM     13  O   UNL     1       8.948  45.446  23.997  1.00  0.00    -0.387 OA
ATOM     14  H   UNL     1       8.667  44.495  24.049  1.00  0.00     0.211 HD
ENDBRANCH   6  13
BRANCH   7  15
ATOM     15  O   UNL     1       9.537  47.610  26.838  1.00  0.00    -0.384 OA
ATOM     16  H   UNL     1       9.348  48.586  26.831  1.00  0.00     0.211 HD
ENDBRANCH   7  15
ENDBRANCH   1   2
BRANCH   1  17
ATOM     17  C   UNL     1       8.993  48.667  22.100  1.00  0.00     0.172 A 
ATOM     18  C   UNL     1       8.814  47.860  20.967  1.00  0.00     0.205 A 
ATOM     19  C   UNL     1       8.560  50.003  22.087  1.00  0.00     0.097 A 
ATOM     20  C   UNL     1       8.194  48.402  19.812  1.00  0.00     0.188 A 
ATOM     21  C   UNL     1       7.960  50.552  20.950  1.00  0.00     0.134 A 
ATOM     22  C   UNL     1       7.774  49.758  19.799  1.00  0.00     0.111 A 
ATOM     23  O   UNL     1       8.006  47.644  18.735  1.00  0.00    -0.452 OA
ATOM     24  C   UNL     1       7.182  50.255  18.620  1.00  0.00     0.197 A 
ATOM     25  C   UNL     1       7.456  48.086  17.607  1.00  0.00     0.138 A 
ATOM     26  C   UNL     1       7.025  49.414  17.521  1.00  0.00     0.100 A 
ATOM     27  O   UNL     1       6.787  51.449  18.534  1.00  0.00    -0.289 OA
BRANCH  18  28
ATOM     28  O   UNL     1       9.277  46.533  21.055  1.00  0.00    -0.490 OA
ATOM     29  C   UNL     1       8.477  45.356  21.040  1.00  0.00     0.278 C 
ENDBRANCH  18  28
BRANCH  21  30
ATOM     30  O   UNL     1       7.557  51.889  20.973  1.00  0.00    -0.507 OA
ATOM     31  H   UNL     1       6.581  52.151  21.015  1.00  0.00     0.293 HD
ENDBRANCH  21  30
BRANCH  25  32
ATOM     32  C   UNL     1       7.306  47.155  16.469  1.00  0.00     0.017 A 
ATOM     33  C   UNL     1       8.408  46.870  15.647  1.00  0.00     0.012 A 
ATOM     34  C   UNL     1       6.064  46.565  16.172  1.00  0.00     0.012 A 
ATOM     35  C   UNL     1       8.277  46.002  14.560  1.00  0.00     0.001 A 
ATOM     36  C   UNL     1       5.936  45.703  15.079  1.00  0.00     0.001 A 
ATOM     37  C   UNL     1       7.041  45.419  14.276  1.00  0.00     0.000 A 
ENDBRANCH  25  32
ENDBRANCH   1  17
TORSDOF 9
ENDMDL
MODEL 5
REMARK VINA RESULT:    -8.644      2.568      8.212
REMARK INTER + INTRA:         -13.515
REMARK INTER:                 -12.221
REMARK INTRA:                  -1.294
REMARK UNBOUND:                -1.334
REMARK SMILES COc1c(O[C@H]2O[C@H](C(=O)[O-])[C@@H](O)[C@@H](O)[C@@H]2O)cc(O)c2c(=O)cc(-c3ccccc3)oc12
REMARK SMILES IDX 5 1 6 2 8 3 12 4 7 5 14 6 16 7 9 8 10 9 11 10 13 11 15 13
REMARK SMILES IDX 17 15 4 17 3 18 18 19 33 20 19 21 21 22 32 23 22 24 25 25
REMARK SMILES IDX 24 26 23 27 2 28 1 29 20 30 26 32 27 33 31 34 28 35 30 36
REMARK SMILES IDX 29 37
REMARK H PARENT 13 12 15 14 17 16 20 31
REMARK Flexibility Score: inf
ROOT
ATOM      1  O   UNL     1       9.057  48.000  17.398  1.00  0.00    -0.458 OA
ENDROOT
BRANCH   1   2
ATOM      2  C   UNL     1       9.136  46.837  16.567  1.00  0.00     0.339 C 
ATOM      3  C   UNL     1       6.935  47.084  15.787  1.00  0.00     0.199 C 
ATOM      4  C   UNL     1       7.393  47.420  14.348  1.00  0.00     0.180 C 
ATOM      5  O   UNL     1       7.865  46.221  16.420  1.00  0.00    -0.328 OA
ATOM      6  C   UNL     1       8.797  48.056  14.365  1.00  0.00     0.181 C 
ATOM      7  C   UNL     1       9.756  47.188  15.200  1.00  0.00     0.214 C 
BRANCH   3   8
ATOM      8  C   UNL     1       5.601  46.399  15.753  1.00  0.00     0.073 C 
ATOM      9  O   UNL     1       4.542  47.067  15.895  1.00  0.00    -0.547 OA
ATOM     10  O   UNL     1       5.521  45.036  15.506  1.00  0.00    -0.547 OA
ENDBRANCH   3   8
BRANCH   4  11
ATOM     11  O   UNL     1       6.473  48.255  13.686  1.00  0.00    -0.387 OA
ATOM     12  H   UNL     1       6.912  49.131  13.529  1.00  0.00     0.211 HD
ENDBRANCH   4  11
BRANCH   6  13
ATOM     13  O   UNL     1       8.746  49.350  14.913  1.00  0.00    -0.387 OA
ATOM     14  H   UNL     1       9.679  49.619  15.118  1.00  0.00     0.211 HD
ENDBRANCH   6  13
BRANCH   7  15
ATOM     15  O   UNL     1      10.047  45.997  14.513  1.00  0.00    -0.384 OA
ATOM     16  H   UNL     1       9.543  45.269  14.968  1.00  0.00     0.211 HD
ENDBRANCH   7  15
ENDBRANCH   1   2
BRANCH   1  17
ATOM     17  C   UNL     1       9.440  48.058  18.749  1.00  0.00     0.172 A 
ATOM     18  C   UNL     1       8.440  48.269  19.710  1.00  0.00     0.205 A 
ATOM     19  C   UNL     1      10.779  47.922  19.148  1.00  0.00     0.097 A 
ATOM     20  C   UNL     1       8.790  48.343  21.082  1.00  0.00     0.188 A 
ATOM     21  C   UNL     1      11.139  48.007  20.496  1.00  0.00     0.134 A 
ATOM     22  C   UNL     1      10.148  48.221  21.477  1.00  0.00     0.111 A 
ATOM     23  O   UNL     1       7.850  48.529  22.005  1.00  0.00    -0.452 OA
ATOM     24  C   UNL     1      10.448  48.323  22.852  1.00  0.00     0.197 A 
ATOM     25  C   UNL     1       8.103  48.634  23.306  1.00  0.00     0.138 A 
ATOM     26  C   UNL     1       9.420  48.532  23.767  1.00  0.00     0.100 A 
ATOM     27  O   UNL     1      11.631  48.228  23.276  1.00  0.00    -0.289 OA
BRANCH  18  28
ATOM     28  O   UNL     1       7.121  48.398  19.233  1.00  0.00    -0.490 OA
ATOM     29  C   UNL     1       6.422  49.616  19.000  1.00  0.00     0.278 C 
ENDBRANCH  18  28
BRANCH  21  30
ATOM     30  O   UNL     1      12.484  47.881  20.849  1.00  0.00    -0.507 OA
ATOM     31  H   UNL     1      13.180  48.554  20.552  1.00  0.00     0.293 HD
ENDBRANCH  21  30
BRANCH  25  32
ATOM     32  C   UNL     1       6.977  48.850  24.241  1.00  0.00     0.017 A 
ATOM     33  C   UNL     1       7.039  49.892  25.181  1.00  0.00     0.012 A 
ATOM     34  C   UNL     1       5.851  48.010  24.227  1.00  0.00     0.012 A 
ATOM     35  C   UNL     1       5.988  50.100  26.079  1.00  0.00     0.001 A 
ATOM     36  C   UNL     1       4.805  48.217  25.132  1.00  0.00     0.001 A 
ATOM     37  C   UNL     1       4.872  49.262  26.054  1.00  0.00     0.000 A 
ENDBRANCH  25  32
ENDBRANCH   1  17
TORSDOF 9
ENDMDL
MODEL 6
REMARK VINA RESULT:    -8.428      2.790      8.850
REMARK INTER + INTRA:         -13.210
REMARK INTER:                 -12.040
REMARK INTRA:                  -1.170
REMARK UNBOUND:                -1.334
REMARK SMILES COc1c(O[C@H]2O[C@H](C(=O)[O-])[C@@H](O)[C@@H](O)[C@@H]2O)cc(O)c2c(=O)cc(-c3ccccc3)oc12
REMARK SMILES IDX 5 1 6 2 8 3 12 4 7 5 14 6 16 7 9 8 10 9 11 10 13 11 15 13
REMARK SMILES IDX 17 15 4 17 3 18 18 19 33 20 19 21 21 22 32 23 22 24 25 25
REMARK SMILES IDX 24 26 23 27 2 28 1 29 20 30 26 32 27 33 31 34 28 35 30 36
REMARK SMILES IDX 29 37
REMARK H PARENT 13 12 15 14 17 16 20 31
REMARK Flexibility Score: inf
ROOT
ATOM      1  O   UNL     1       7.594  47.351  21.414  1.00  0.00    -0.458 OA
ENDROOT
BRANCH   1   2
ATOM      2  C   UNL     1       8.863  46.823  21.013  1.00  0.00     0.339 C 
ATOM      3  C   UNL     1       8.561  47.445  18.769  1.00  0.00     0.199 C 
ATOM      4  C   UNL     1       9.684  48.507  18.825  1.00  0.00     0.180 C 
ATOM      5  O   UNL     1       8.834  46.379  19.664  1.00  0.00    -0.328 OA
ATOM      6  C   UNL     1       9.852  49.038  20.261  1.00  0.00     0.181 C 
ATOM      7  C   UNL     1       9.980  47.859  21.244  1.00  0.00     0.214 C 
BRANCH   3   8
ATOM      8  C   UNL     1       8.456  46.881  17.383  1.00  0.00     0.073 C 
ATOM      9  O   UNL     1       7.341  46.498  16.937  1.00  0.00    -0.547 OA
ATOM     10  O   UNL     1       9.573  46.834  16.561  1.00  0.00    -0.547 OA
ENDBRANCH   3   8
BRANCH   4  11
ATOM     11  O   UNL     1       9.450  49.564  17.924  1.00  0.00    -0.387 OA
ATOM     12  H   UNL     1       9.723  49.261  17.020  1.00  0.00     0.211 HD
ENDBRANCH   4  11
BRANCH   6  13
ATOM     13  O   UNL     1       8.748  49.830  20.627  1.00  0.00    -0.387 OA
ATOM     14  H   UNL     1       8.008  49.211  20.860  1.00  0.00     0.211 HD
ENDBRANCH   6  13
BRANCH   7  15
ATOM     15  O   UNL     1      11.226  47.231  21.080  1.00  0.00    -0.384 OA
ATOM     16  H   UNL     1      11.904  47.814  21.515  1.00  0.00     0.211 HD
ENDBRANCH   7  15
ENDBRANCH   1   2
BRANCH   1  17
ATOM     17  C   UNL     1       6.922  47.028  22.606  1.00  0.00     0.172 A 
ATOM     18  C   UNL     1       7.173  47.815  23.740  1.00  0.00     0.205 A 
ATOM     19  C   UNL     1       6.028  45.948  22.685  1.00  0.00     0.097 A 
ATOM     20  C   UNL     1       6.521  47.512  24.961  1.00  0.00     0.188 A 
ATOM     21  C   UNL     1       5.389  45.631  23.886  1.00  0.00     0.134 A 
ATOM     22  C   UNL     1       5.631  46.408  25.039  1.00  0.00     0.111 A 
ATOM     23  O   UNL     1       6.740  48.257  26.041  1.00  0.00    -0.452 OA
ATOM     24  C   UNL     1       5.022  46.135  26.281  1.00  0.00     0.197 A 
ATOM     25  C   UNL     1       6.185  48.022  27.227  1.00  0.00     0.138 A 
ATOM     26  C   UNL     1       5.304  46.946  27.379  1.00  0.00     0.100 A 
ATOM     27  O   UNL     1       4.224  45.171  26.426  1.00  0.00    -0.289 OA
BRANCH  18  28
ATOM     28  O   UNL     1       8.084  48.878  23.583  1.00  0.00    -0.490 OA
ATOM     29  C   UNL     1       7.799  50.264  23.736  1.00  0.00     0.278 C 
ENDBRANCH  18  28
BRANCH  21  30
ATOM     30  O   UNL     1       4.519  44.540  23.926  1.00  0.00    -0.507 OA
ATOM     31  H   UNL     1       3.897  44.325  23.156  1.00  0.00     0.293 HD
ENDBRANCH  21  30
BRANCH  25  32
ATOM     32  C   UNL     1       6.510  48.913  28.362  1.00  0.00     0.017 A 
ATOM     33  C   UNL     1       7.814  49.414  28.506  1.00  0.00     0.012 A 
ATOM     34  C   UNL     1       5.540  49.248  29.322  1.00  0.00     0.012 A 
ATOM     35  C   UNL     1       8.138  50.247  29.581  1.00  0.00     0.001 A 
ATOM     36  C   UNL     1       5.871  50.075  30.400  1.00  0.00     0.001 A 
ATOM     37  C   UNL     1       7.167  50.577  30.527  1.00  0.00     0.000 A 
ENDBRANCH  25  32
ENDBRANCH   1  17
TORSDOF 9
ENDMDL
MODEL 7
REMARK VINA RESULT:    -8.285      2.525      4.610
REMARK INTER + INTRA:         -13.009
REMARK INTER:                 -12.110
REMARK INTRA:                  -0.899
REMARK UNBOUND:                -1.334
REMARK SMILES COc1c(O[C@H]2O[C@H](C(=O)[O-])[C@@H](O)[C@@H](O)[C@@H]2O)cc(O)c2c(=O)cc(-c3ccccc3)oc12
REMARK SMILES IDX 5 1 6 2 8 3 12 4 7 5 14 6 16 7 9 8 10 9 11 10 13 11 15 13
REMARK SMILES IDX 17 15 4 17 3 18 18 19 33 20 19 21 21 22 32 23 22 24 25 25
REMARK SMILES IDX 24 26 23 27 2 28 1 29 20 30 26 32 27 33 31 34 28 35 30 36
REMARK SMILES IDX 29 37
REMARK H PARENT 13 12 15 14 17 16 20 31
REMARK Flexibility Score: inf
ROOT
ATOM      1  O   UNL     1       7.309  49.452  25.450  1.00  0.00    -0.458 OA
ENDROOT
BRANCH   1   2
ATOM      2  C   UNL     1       5.980  49.815  25.842  1.00  0.00     0.339 C 
ATOM      3  C   UNL     1       5.674  47.855  27.098  1.00  0.00     0.199 C 
ATOM      4  C   UNL     1       5.646  48.621  28.442  1.00  0.00     0.180 C 
ATOM      5  O   UNL     1       5.171  48.666  26.049  1.00  0.00    -0.328 OA
ATOM      6  C   UNL     1       6.455  49.927  28.334  1.00  0.00     0.181 C 
ATOM      7  C   UNL     1       6.010  50.718  27.089  1.00  0.00     0.214 C 
BRANCH   3   8
ATOM      8  C   UNL     1       4.822  46.623  27.192  1.00  0.00     0.073 C 
ATOM      9  O   UNL     1       4.220  46.350  28.264  1.00  0.00    -0.547 OA
ATOM     10  O   UNL     1       4.646  45.809  26.082  1.00  0.00    -0.547 OA
ENDBRANCH   3   8
BRANCH   4  11
ATOM     11  O   UNL     1       6.114  47.828  29.507  1.00  0.00    -0.387 OA
ATOM     12  H   UNL     1       7.074  48.037  29.645  1.00  0.00     0.211 HD
ENDBRANCH   4  11
BRANCH   6  13
ATOM     13  O   UNL     1       7.830  49.649  28.240  1.00  0.00    -0.387 OA
ATOM     14  H   UNL     1       7.985  49.230  27.353  1.00  0.00     0.211 HD
ENDBRANCH   6  13
BRANCH   7  15
ATOM     15  O   UNL     1       4.727  51.254  27.294  1.00  0.00    -0.384 OA
ATOM     16  H   UNL     1       4.472  51.044  28.233  1.00  0.00     0.211 HD
ENDBRANCH   7  15
ENDBRANCH   1   2
BRANCH   1  17
ATOM     17  C   UNL     1       7.632  48.501  24.466  1.00  0.00     0.172 A 
ATOM     18  C   UNL     1       7.630  48.911  23.125  1.00  0.00     0.205 A 
ATOM     19  C   UNL     1       7.942  47.171  24.793  1.00  0.00     0.097 A 
ATOM     20  C   UNL     1       7.941  47.976  22.106  1.00  0.00     0.188 A 
ATOM     21  C   UNL     1       8.237  46.236  23.796  1.00  0.00     0.134 A 
ATOM     22  C   UNL     1       8.237  46.629  22.441  1.00  0.00     0.111 A 
ATOM     23  O   UNL     1       7.955  48.355  20.830  1.00  0.00    -0.452 OA
ATOM     24  C   UNL     1       8.520  45.733  21.390  1.00  0.00     0.197 A 
ATOM     25  C   UNL     1       8.213  47.533  19.818  1.00  0.00     0.138 A 
ATOM     26  C   UNL     1       8.505  46.189  20.074  1.00  0.00     0.100 A 
ATOM     27  O   UNL     1       8.788  44.521  21.611  1.00  0.00    -0.289 OA
BRANCH  18  28
ATOM     28  O   UNL     1       7.306  50.260  22.876  1.00  0.00    -0.490 OA
ATOM     29  C   UNL     1       8.221  51.307  22.577  1.00  0.00     0.278 C 
ENDBRANCH  18  28
BRANCH  21  30
ATOM     30  O   UNL     1       8.525  44.920  24.163  1.00  0.00    -0.507 OA
ATOM     31  H   UNL     1       7.795  44.235  24.310  1.00  0.00     0.293 HD
ENDBRANCH  21  30
BRANCH  25  32
ATOM     32  C   UNL     1       8.191  48.064  18.438  1.00  0.00     0.017 A 
ATOM     33  C   UNL     1       7.768  49.382  18.201  1.00  0.00     0.012 A 
ATOM     34  C   UNL     1       8.560  47.260  17.345  1.00  0.00     0.012 A 
ATOM     35  C   UNL     1       7.730  49.892  16.901  1.00  0.00     0.001 A 
ATOM     36  C   UNL     1       8.514  47.772  16.045  1.00  0.00     0.001 A 
ATOM     37  C   UNL     1       8.103  49.087  15.823  1.00  0.00     0.000 A 
ENDBRANCH  25  32
ENDBRANCH   1  17
TORSDOF 9
ENDMDL
MODEL 8
REMARK VINA RESULT:    -8.132      1.516      2.192
REMARK INTER + INTRA:         -12.793
REMARK INTER:                 -11.534
REMARK INTRA:                  -1.259
REMARK UNBOUND:                -1.334
REMARK SMILES COc1c(O[C@H]2O[C@H](C(=O)[O-])[C@@H](O)[C@@H](O)[C@@H]2O)cc(O)c2c(=O)cc(-c3ccccc3)oc12
REMARK SMILES IDX 5 1 6 2 8 3 12 4 7 5 14 6 16 7 9 8 10 9 11 10 13 11 15 13
REMARK SMILES IDX 17 15 4 17 3 18 18 19 33 20 19 21 21 22 32 23 22 24 25 25
REMARK SMILES IDX 24 26 23 27 2 28 1 29 20 30 26 32 27 33 31 34 28 35 30 36
REMARK SMILES IDX 29 37
REMARK H PARENT 13 12 15 14 17 16 20 31
REMARK Flexibility Score: inf
ROOT
ATOM      1  O   UNL     1       8.090  48.744  22.622  1.00  0.00    -0.458 OA
ENDROOT
BRANCH   1   2
ATOM      2  C   UNL     1       9.122  49.225  23.490  1.00  0.00     0.339 C 
ATOM      3  C   UNL     1       8.101  48.338  25.410  1.00  0.00     0.199 C 
ATOM      4  C   UNL     1       9.223  47.294  25.626  1.00  0.00     0.180 C 
ATOM      5  O   UNL     1       8.616  49.504  24.788  1.00  0.00    -0.328 OA
ATOM      6  C   UNL     1       9.894  46.940  24.285  1.00  0.00     0.181 C 
ATOM      7  C   UNL     1      10.295  48.228  23.543  1.00  0.00     0.214 C 
BRANCH   3   8
ATOM      8  C   UNL     1       7.506  48.730  26.730  1.00  0.00     0.073 C 
ATOM      9  O   UNL     1       6.269  48.953  26.825  1.00  0.00    -0.547 OA
ATOM     10  O   UNL     1       8.301  48.792  27.865  1.00  0.00    -0.547 OA
ENDBRANCH   3   8
BRANCH   4  11
ATOM     11  O   UNL     1       8.745  46.135  26.268  1.00  0.00    -0.387 OA
ATOM     12  H   UNL     1       8.876  45.369  25.652  1.00  0.00     0.211 HD
ENDBRANCH   4  11
BRANCH   6  13
ATOM     13  O   UNL     1       9.017  46.193  23.476  1.00  0.00    -0.387 OA
ATOM     14  H   UNL     1       8.492  45.605  24.080  1.00  0.00     0.211 HD
ENDBRANCH   6  13
BRANCH   7  15
ATOM     15  O   UNL     1      11.382  48.838  24.194  1.00  0.00    -0.384 OA
ATOM     16  H   UNL     1      11.422  49.778  23.873  1.00  0.00     0.211 HD
ENDBRANCH   7  15
ENDBRANCH   1   2
BRANCH   1  17
ATOM     17  C   UNL     1       7.869  49.183  21.305  1.00  0.00     0.172 A 
ATOM     18  C   UNL     1       8.336  48.380  20.254  1.00  0.00     0.205 A 
ATOM     19  C   UNL     1       7.211  50.392  21.026  1.00  0.00     0.097 A 
ATOM     20  C   UNL     1       8.139  48.797  18.913  1.00  0.00     0.188 A 
ATOM     21  C   UNL     1       7.024  50.821  19.709  1.00  0.00     0.134 A 
ATOM     22  C   UNL     1       7.488  50.028  18.638  1.00  0.00     0.111 A 
ATOM     23  O   UNL     1       8.566  48.039  17.906  1.00  0.00    -0.452 OA
ATOM     24  C   UNL     1       7.336  50.408  17.289  1.00  0.00     0.197 A 
ATOM     25  C   UNL     1       8.440  48.372  16.625  1.00  0.00     0.138 A 
ATOM     26  C   UNL     1       7.816  49.576  16.280  1.00  0.00     0.100 A 
ATOM     27  O   UNL     1       6.771  51.489  16.969  1.00  0.00    -0.289 OA
BRANCH  18  28
ATOM     28  O   UNL     1       8.988  47.184  20.613  1.00  0.00    -0.490 OA
ATOM     29  C   UNL     1       8.493  45.863  20.427  1.00  0.00     0.278 C 
ENDBRANCH  18  28
BRANCH  21  30
ATOM     30  O   UNL     1       6.378  52.036  19.476  1.00  0.00    -0.507 OA
ATOM     31  H   UNL     1       6.420  52.799  20.140  1.00  0.00     0.293 HD
ENDBRANCH  21  30
BRANCH  25  32
ATOM     32  C   UNL     1       8.961  47.455  15.589  1.00  0.00     0.017 A 
ATOM     33  C   UNL     1      10.288  47.000  15.660  1.00  0.00     0.012 A 
ATOM     34  C   UNL     1       8.157  47.047  14.510  1.00  0.00     0.012 A 
ATOM     35  C   UNL     1      10.796  46.142  14.681  1.00  0.00     0.001 A 
ATOM     36  C   UNL     1       8.672  46.195  13.529  1.00  0.00     0.001 A 
ATOM     37  C   UNL     1       9.989  45.740  13.616  1.00  0.00     0.000 A 
ENDBRANCH  25  32
ENDBRANCH   1  17
TORSDOF 9
ENDMDL
MODEL 9
REMARK VINA RESULT:    -8.111      2.821      5.656
REMARK INTER + INTRA:         -12.764
REMARK INTER:                 -11.248
REMARK INTRA:                  -1.516
REMARK UNBOUND:                -1.334
REMARK SMILES COc1c(O[C@H]2O[C@H](C(=O)[O-])[C@@H](O)[C@@H](O)[C@@H]2O)cc(O)c2c(=O)cc(-c3ccccc3)oc12
REMARK SMILES IDX 5 1 6 2 8 3 12 4 7 5 14 6 16 7 9 8 10 9 11 10 13 11 15 13
REMARK SMILES IDX 17 15 4 17 3 18 18 19 33 20 19 21 21 22 32 23 22 24 25 25
REMARK SMILES IDX 24 26 23 27 2 28 1 29 20 30 26 32 27 33 31 34 28 35 30 36
REMARK SMILES IDX 29 37
REMARK H PARENT 13 12 15 14 17 16 20 31
REMARK Flexibility Score: inf
ROOT
ATOM      1  O   UNL     1       6.942  48.546  26.010  1.00  0.00    -0.458 OA
ENDROOT
BRANCH   1   2
ATOM      2  C   UNL     1       6.138  48.037  27.080  1.00  0.00     0.339 C 
ATOM      3  C   UNL     1       6.462  49.946  28.408  1.00  0.00     0.199 C 
ATOM      4  C   UNL     1       4.982  50.382  28.290  1.00  0.00     0.180 C 
ATOM      5  O   UNL     1       6.576  48.534  28.336  1.00  0.00    -0.328 OA
ATOM      6  C   UNL     1       4.369  49.856  26.978  1.00  0.00     0.181 C 
ATOM      7  C   UNL     1       4.649  48.349  26.835  1.00  0.00     0.214 C 
BRANCH   3   8
ATOM      8  C   UNL     1       7.027  50.399  29.722  1.00  0.00     0.073 C 
ATOM      9  O   UNL     1       7.703  51.460  29.789  1.00  0.00    -0.547 OA
ATOM     10  O   UNL     1       6.759  49.685  30.881  1.00  0.00    -0.547 OA
ENDBRANCH   3   8
BRANCH   4  11
ATOM     11  O   UNL     1       4.838  51.779  28.386  1.00  0.00    -0.387 OA
ATOM     12  H   UNL     1       5.421  52.195  27.699  1.00  0.00     0.211 HD
ENDBRANCH   4  11
BRANCH   6  13
ATOM     13  O   UNL     1       4.913  50.536  25.873  1.00  0.00    -0.387 OA
ATOM     14  H   UNL     1       4.261  51.237  25.610  1.00  0.00     0.211 HD
ENDBRANCH   6  13
BRANCH   7  15
ATOM     15  O   UNL     1       3.875  47.628  27.760  1.00  0.00    -0.384 OA
ATOM     16  H   UNL     1       4.353  47.667  28.632  1.00  0.00     0.211 HD
ENDBRANCH   7  15
ENDBRANCH   1   2
BRANCH   1  17
ATOM     17  C   UNL     1       7.318  47.825  24.864  1.00  0.00     0.172 A 
ATOM     18  C   UNL     1       7.259  48.478  23.624  1.00  0.00     0.205 A 
ATOM     19  C   UNL     1       7.732  46.485  24.932  1.00  0.00     0.097 A 
ATOM     20  C   UNL     1       7.621  47.778  22.445  1.00  0.00     0.188 A 
ATOM     21  C   UNL     1       8.078  45.780  23.776  1.00  0.00     0.134 A 
ATOM     22  C   UNL     1       8.023  46.419  22.519  1.00  0.00     0.111 A 
ATOM     23  O   UNL     1       7.582  48.390  21.264  1.00  0.00    -0.452 OA
ATOM     24  C   UNL     1       8.353  45.760  21.317  1.00  0.00     0.197 A 
ATOM     25  C   UNL     1       7.883  47.794  20.113  1.00  0.00     0.138 A 
ATOM     26  C   UNL     1       8.280  46.453  20.110  1.00  0.00     0.100 A 
ATOM     27  O   UNL     1       8.716  44.553  21.305  1.00  0.00    -0.289 OA
BRANCH  18  28
ATOM     28  O   UNL     1       6.831  49.820  23.635  1.00  0.00    -0.490 OA
ATOM     29  C   UNL     1       7.662  50.974  23.580  1.00  0.00     0.278 C 
ENDBRANCH  18  28
BRANCH  21  30
ATOM     30  O   UNL     1       8.471  44.445  23.887  1.00  0.00    -0.507 OA
ATOM     31  H   UNL     1       8.450  43.815  23.095  1.00  0.00     0.293 HD
ENDBRANCH  21  30
BRANCH  25  32
ATOM     32  C   UNL     1       7.795  48.571  18.858  1.00  0.00     0.017 A 
ATOM     33  C   UNL     1       8.142  47.970  17.637  1.00  0.00     0.012 A 
ATOM     34  C   UNL     1       7.395  49.919  18.866  1.00  0.00     0.012 A 
ATOM     35  C   UNL     1       8.076  48.697  16.445  1.00  0.00     0.001 A 
ATOM     36  C   UNL     1       7.337  50.644  17.672  1.00  0.00     0.001 A 
ATOM     37  C   UNL     1       7.674  50.033  16.463  1.00  0.00     0.000 A 
ENDBRANCH  25  32
ENDBRANCH   1  17
TORSDOF 9
ENDMDL
