MODEL 1
REMARK VINA RESULT:    -2.360      0.000      0.000
REMARK INTER + INTRA:          -2.878
REMARK INTER:                  -2.774
REMARK INTRA:                  -0.104
REMARK UNBOUND:                -0.104
REMARK SMILES O=C([O-])CCC(=O)[O-]
REMARK SMILES IDX 4 1 2 2 1 3 3 4 5 5 6 6 7 7 8 8
REMARK H PARENT
REMARK Flexibility Score: inf
ROOT
ATOM      1  C   UNL     1      -8.778  22.712  17.805  1.00  0.00     0.059 C 
ENDROOT
BRANCH   1   2
ATOM      2  C   UNL     1      -8.520  22.775  19.278  1.00  0.00     0.042 C 
ATOM      3  O   UNL     1      -9.124  23.620  19.990  1.00  0.00    -0.550 OA
ATOM      4  O   UNL     1      -7.650  21.871  19.871  1.00  0.00    -0.550 OA
ENDBRANCH   1   2
BRANCH   1   5
ATOM      5  C   UNL     1      -8.855  21.258  17.338  1.00  0.00     0.059 C 
BRANCH   5   6
ATOM      6  C   UNL     1      -7.653  20.907  16.519  1.00  0.00     0.042 C 
ATOM      7  O   UNL     1      -7.564  21.297  15.324  1.00  0.00    -0.550 OA
ATOM      8  O   UNL     1      -6.608  20.190  17.088  1.00  0.00    -0.550 OA
ENDBRANCH   5   6
ENDBRANCH   1   5
TORSDOF 3
ENDMDL
MODEL 2
REMARK VINA RESULT:    -2.332      0.390      3.837
REMARK INTER + INTRA:          -2.845
REMARK INTER:                  -2.730
REMARK INTRA:                  -0.115
REMARK UNBOUND:                -0.104
REMARK SMILES O=C([O-])CCC(=O)[O-]
REMARK SMILES IDX 4 1 2 2 1 3 3 4 5 5 6 6 7 7 8 8
REMARK H PARENT
REMARK Flexibility Score: inf
ROOT
ATOM      1  C   UNL     1      -8.858  21.258  17.108  1.00  0.00     0.059 C 
ENDROOT
BRANCH   1   2
ATOM      2  C   UNL     1      -7.569  20.907  16.436  1.00  0.00     0.042 C 
ATOM      3  O   UNL     1      -6.695  20.239  17.051  1.00  0.00    -0.550 OA
ATOM      4  O   UNL     1      -7.350  21.274  15.116  1.00  0.00    -0.550 OA
ENDBRANCH   1   2
BRANCH   1   5
ATOM      5  C   UNL     1      -8.810  22.689  17.645  1.00  0.00     0.059 C 
BRANCH   5   6
ATOM      6  C   UNL     1      -8.717  22.685  19.138  1.00  0.00     0.042 C 
ATOM      7  O   UNL     1      -8.891  23.750  19.787  1.00  0.00    -0.550 OA
ATOM      8  O   UNL     1      -8.485  21.495  19.817  1.00  0.00    -0.550 OA
ENDBRANCH   5   6
ENDBRANCH   1   5
TORSDOF 3
ENDMDL
MODEL 3
REMARK VINA RESULT:    -2.328      0.306      1.163
REMARK INTER + INTRA:          -2.841
REMARK INTER:                  -2.735
REMARK INTRA:                  -0.106
REMARK UNBOUND:                -0.104
REMARK SMILES O=C([O-])CCC(=O)[O-]
REMARK SMILES IDX 4 1 2 2 1 3 3 4 5 5 6 6 7 7 8 8
REMARK H PARENT
REMARK Flexibility Score: inf
ROOT
ATOM      1  C   UNL     1      -8.828  22.849  17.894  1.00  0.00     0.059 C 
ENDROOT
BRANCH   1   2
ATOM      2  C   UNL     1      -8.709  22.917  19.384  1.00  0.00     0.042 C 
ATOM      3  O   UNL     1      -8.191  21.963  20.022  1.00  0.00    -0.550 OA
ATOM      4  O   UNL     1      -9.125  24.054  20.064  1.00  0.00    -0.550 OA
ENDBRANCH   1   2
BRANCH   1   5
ATOM      5  C   UNL     1      -8.942  21.396  17.432  1.00  0.00     0.059 C 
BRANCH   5   6
ATOM      6  C   UNL     1      -7.731  20.999  16.649  1.00  0.00     0.042 C 
ATOM      7  O   UNL     1      -7.598  21.373  15.453  1.00  0.00    -0.550 OA
ATOM      8  O   UNL     1      -6.725  20.256  17.253  1.00  0.00    -0.550 OA
ENDBRANCH   5   6
ENDBRANCH   1   5
TORSDOF 3
ENDMDL
MODEL 4
REMARK VINA RESULT:    -2.317      0.313      3.953
REMARK INTER + INTRA:          -2.828
REMARK INTER:                  -2.732
REMARK INTRA:                  -0.095
REMARK UNBOUND:                -0.104
REMARK SMILES O=C([O-])CCC(=O)[O-]
REMARK SMILES IDX 4 1 2 2 1 3 3 4 5 5 6 6 7 7 8 8
REMARK H PARENT
REMARK Flexibility Score: inf
ROOT
ATOM      1  C   UNL     1      -8.925  21.262  17.481  1.00  0.00     0.059 C 
ENDROOT
BRANCH   1   2
ATOM      2  C   UNL     1      -7.662  20.941  16.747  1.00  0.00     0.042 C 
ATOM      3  O   UNL     1      -6.773  20.236  17.294  1.00  0.00    -0.550 OA
ATOM      4  O   UNL     1      -7.485  21.378  15.441  1.00  0.00    -0.550 OA
ENDBRANCH   1   2
BRANCH   1   5
ATOM      5  C   UNL     1      -8.952  22.738  17.879  1.00  0.00     0.059 C 
BRANCH   5   6
ATOM      6  C   UNL     1      -8.743  22.886  19.353  1.00  0.00     0.042 C 
ATOM      7  O   UNL     1      -8.182  21.970  20.010  1.00  0.00    -0.550 OA
ATOM      8  O   UNL     1      -9.125  24.058  19.995  1.00  0.00    -0.550 OA
ENDBRANCH   5   6
ENDBRANCH   1   5
TORSDOF 3
ENDMDL
MODEL 5
REMARK VINA RESULT:    -2.161      1.762      2.362
REMARK INTER + INTRA:          -2.645
REMARK INTER:                  -2.525
REMARK INTRA:                  -0.120
REMARK UNBOUND:                -0.104
REMARK SMILES O=C([O-])CCC(=O)[O-]
REMARK SMILES IDX 4 1 2 2 1 3 3 4 5 5 6 6 7 7 8 8
REMARK H PARENT
REMARK Flexibility Score: inf
ROOT
ATOM      1  C   UNL     1      -7.348  21.211  19.574  1.00  0.00     0.059 C 
ENDROOT
BRANCH   1   2
ATOM      2  C   UNL     1      -8.079  21.521  20.842  1.00  0.00     0.042 C 
ATOM      3  O   UNL     1      -7.720  20.990  21.926  1.00  0.00    -0.550 OA
ATOM      4  O   UNL     1      -9.125  22.434  20.837  1.00  0.00    -0.550 OA
ENDBRANCH   1   2
BRANCH   1   5
ATOM      5  C   UNL     1      -8.330  20.792  18.479  1.00  0.00     0.059 C 
BRANCH   5   6
ATOM      6  C   UNL     1      -8.338  21.796  17.371  1.00  0.00     0.042 C 
ATOM      7  O   UNL     1      -8.841  22.937  17.552  1.00  0.00    -0.550 OA
ATOM      8  O   UNL     1      -7.748  21.490  16.151  1.00  0.00    -0.550 OA
ENDBRANCH   5   6
ENDBRANCH   1   5
TORSDOF 3
ENDMDL
MODEL 6
REMARK VINA RESULT:    -2.145     14.987     16.141
REMARK INTER + INTRA:          -2.625
REMARK INTER:                  -2.509
REMARK INTRA:                  -0.116
REMARK UNBOUND:                -0.104
REMARK SMILES O=C([O-])CCC(=O)[O-]
REMARK SMILES IDX 4 1 2 2 1 3 3 4 5 5 6 6 7 7 8 8
REMARK H PARENT
REMARK Flexibility Score: inf
ROOT
ATOM      1  C   UNL     1       7.307  20.584  15.867  1.00  0.00     0.059 C 
ENDROOT
BRANCH   1   2
ATOM      2  C   UNL     1       5.906  20.583  15.343  1.00  0.00     0.042 C 
ATOM      3  O   UNL     1       4.952  20.942  16.083  1.00  0.00    -0.550 OA
ATOM      4  O   UNL     1       5.657  20.231  14.023  1.00  0.00    -0.550 OA
ENDBRANCH   1   2
BRANCH   1   5
ATOM      5  C   UNL     1       8.245  19.875  14.889  1.00  0.00     0.059 C 
BRANCH   5   6
ATOM      6  C   UNL     1       9.148  20.862  14.221  1.00  0.00     0.042 C 
ATOM      7  O   UNL     1       8.860  21.316  13.082  1.00  0.00    -0.550 OA
ATOM      8  O   UNL     1      10.285  21.318  14.876  1.00  0.00    -0.550 OA
ENDBRANCH   5   6
ENDBRANCH   1   5
TORSDOF 3
ENDMDL
MODEL 7
REMARK VINA RESULT:    -2.142     14.881     16.285
REMARK INTER + INTRA:          -2.623
REMARK INTER:                  -2.502
REMARK INTRA:                  -0.121
REMARK UNBOUND:                -0.104
REMARK SMILES O=C([O-])CCC(=O)[O-]
REMARK SMILES IDX 4 1 2 2 1 3 3 4 5 5 6 6 7 7 8 8
REMARK H PARENT
REMARK Flexibility Score: inf
ROOT
ATOM      1  C   UNL     1       8.432  20.723  14.822  1.00  0.00     0.059 C 
ENDROOT
BRANCH   1   2
ATOM      2  C   UNL     1       8.732  20.982  13.379  1.00  0.00     0.042 C 
ATOM      3  O   UNL     1       9.598  21.838  13.056  1.00  0.00    -0.550 OA
ATOM      4  O   UNL     1       8.093  20.245  12.392  1.00  0.00    -0.550 OA
ENDBRANCH   1   2
BRANCH   1   5
ATOM      5  C   UNL     1       7.162  19.883  14.961  1.00  0.00     0.059 C 
BRANCH   5   6
ATOM      6  C   UNL     1       5.968  20.765  15.146  1.00  0.00     0.042 C 
ATOM      7  O   UNL     1       5.165  20.952  14.194  1.00  0.00    -0.550 OA
ATOM      8  O   UNL     1       5.716  21.343  16.384  1.00  0.00    -0.550 OA
ENDBRANCH   5   6
ENDBRANCH   1   5
TORSDOF 3
ENDMDL
MODEL 8
REMARK VINA RESULT:    -2.092      1.848      4.021
REMARK INTER + INTRA:          -2.564
REMARK INTER:                  -2.525
REMARK INTRA:                  -0.039
REMARK UNBOUND:                -0.104
REMARK SMILES O=C([O-])CCC(=O)[O-]
REMARK SMILES IDX 4 1 2 2 1 3 3 4 5 5 6 6 7 7 8 8
REMARK H PARENT
REMARK Flexibility Score: inf
ROOT
ATOM      1  C   UNL     1      -6.999  20.250  17.090  1.00  0.00     0.059 C 
ENDROOT
BRANCH   1   2
ATOM      2  C   UNL     1      -7.589  20.711  15.795  1.00  0.00     0.042 C 
ATOM      3  O   UNL     1      -8.819  20.559  15.570  1.00  0.00    -0.550 OA
ATOM      4  O   UNL     1      -6.792  21.352  14.856  1.00  0.00    -0.550 OA
ENDBRANCH   1   2
BRANCH   1   5
ATOM      5  C   UNL     1      -7.854  20.723  18.266  1.00  0.00     0.059 C 
BRANCH   5   6
ATOM      6  C   UNL     1      -6.995  20.997  19.460  1.00  0.00     0.042 C 
ATOM      7  O   UNL     1      -5.808  20.579  19.497  1.00  0.00    -0.550 OA
ATOM      8  O   UNL     1      -7.491  21.754  20.514  1.00  0.00    -0.550 OA
ENDBRANCH   5   6
ENDBRANCH   1   5
TORSDOF 3
ENDMDL
MODEL 9
REMARK VINA RESULT:    -2.080     15.041     16.431
REMARK INTER + INTRA:          -2.549
REMARK INTER:                  -2.481
REMARK INTRA:                  -0.067
REMARK UNBOUND:                -0.104
REMARK SMILES O=C([O-])CCC(=O)[O-]
REMARK SMILES IDX 4 1 2 2 1 3 3 4 5 5 6 6 7 7 8 8
REMARK H PARENT
REMARK Flexibility Score: inf
ROOT
ATOM      1  C   UNL     1       7.933  20.121  14.029  1.00  0.00     0.059 C 
ENDROOT
BRANCH   1   2
ATOM      2  C   UNL     1       9.146  20.983  13.873  1.00  0.00     0.042 C 
ATOM      3  O   UNL     1       9.800  21.344  14.886  1.00  0.00    -0.550 OA
ATOM      4  O   UNL     1       9.583  21.346  12.606  1.00  0.00    -0.550 OA
ENDBRANCH   1   2
BRANCH   1   5
ATOM      5  C   UNL     1       7.367  20.245  15.443  1.00  0.00     0.059 C 
BRANCH   5   6
ATOM      6  C   UNL     1       5.984  20.813  15.406  1.00  0.00     0.042 C 
ATOM      7  O   UNL     1       5.518  21.414  16.410  1.00  0.00    -0.550 OA
ATOM      8  O   UNL     1       5.225  20.720  14.246  1.00  0.00    -0.550 OA
ENDBRANCH   5   6
ENDBRANCH   1   5
TORSDOF 3
ENDMDL
