MODEL 1
REMARK VINA RESULT:    -3.880      0.000      0.000
REMARK INTER + INTRA:          -4.597
REMARK INTER:                  -4.560
REMARK INTRA:                  -0.037
REMARK UNBOUND:                -0.037
REMARK SMILES O=C([O-])CCC(=O)[O-]
REMARK SMILES IDX 4 1 2 2 1 3 3 4 5 5 6 6 7 7 8 8
REMARK H PARENT
REMARK Flexibility Score: inf
ROOT
ATOM      1  C   UNL     1      76.419  20.428  30.721  1.00  0.00     0.059 C 
ENDROOT
BRANCH   1   2
ATOM      2  C   UNL     1      77.191  20.967  29.555  1.00  0.00     0.042 C 
ATOM      3  O   UNL     1      78.054  21.867  29.726  1.00  0.00    -0.550 OA
ATOM      4  O   UNL     1      76.983  20.444  28.284  1.00  0.00    -0.550 OA
ENDBRANCH   1   2
BRANCH   1   5
ATOM      5  C   UNL     1      77.055  20.836  32.054  1.00  0.00     0.059 C 
BRANCH   5   6
ATOM      6  C   UNL     1      76.191  20.458  33.218  1.00  0.00     0.042 C 
ATOM      7  O   UNL     1      75.430  19.458  33.143  1.00  0.00    -0.550 OA
ATOM      8  O   UNL     1      76.195  21.236  34.369  1.00  0.00    -0.550 OA
ENDBRANCH   5   6
ENDBRANCH   1   5
TORSDOF 3
ENDMDL
MODEL 2
REMARK VINA RESULT:    -3.874      0.093      4.468
REMARK INTER + INTRA:          -4.590
REMARK INTER:                  -4.553
REMARK INTRA:                  -0.037
REMARK UNBOUND:                -0.037
REMARK SMILES O=C([O-])CCC(=O)[O-]
REMARK SMILES IDX 4 1 2 2 1 3 3 4 5 5 6 6 7 7 8 8
REMARK H PARENT
REMARK Flexibility Score: inf
ROOT
ATOM      1  C   UNL     1      77.040  20.861  31.977  1.00  0.00     0.059 C 
ENDROOT
BRANCH   1   2
ATOM      2  C   UNL     1      76.187  20.438  33.135  1.00  0.00     0.042 C 
ATOM      3  O   UNL     1      75.447  19.424  33.040  1.00  0.00    -0.550 OA
ATOM      4  O   UNL     1      76.241  21.143  34.331  1.00  0.00    -0.550 OA
ENDBRANCH   1   2
BRANCH   1   5
ATOM      5  C   UNL     1      76.439  20.413  30.641  1.00  0.00     0.059 C 
BRANCH   5   6
ATOM      6  C   UNL     1      77.231  20.929  29.478  1.00  0.00     0.042 C 
ATOM      7  O   UNL     1      78.083  21.840  29.647  1.00  0.00    -0.550 OA
ATOM      8  O   UNL     1      76.996  20.432  28.202  1.00  0.00    -0.550 OA
ENDBRANCH   5   6
ENDBRANCH   1   5
TORSDOF 3
ENDMDL
MODEL 3
REMARK VINA RESULT:    -3.848      0.495      1.670
REMARK INTER + INTRA:          -4.560
REMARK INTER:                  -4.530
REMARK INTRA:                  -0.030
REMARK UNBOUND:                -0.037
REMARK SMILES O=C([O-])CCC(=O)[O-]
REMARK SMILES IDX 4 1 2 2 1 3 3 4 5 5 6 6 7 7 8 8
REMARK H PARENT
REMARK Flexibility Score: inf
ROOT
ATOM      1  C   UNL     1      76.348  20.708  30.341  1.00  0.00     0.059 C 
ENDROOT
BRANCH   1   2
ATOM      2  C   UNL     1      77.145  21.084  29.128  1.00  0.00     0.042 C 
ATOM      3  O   UNL     1      77.122  20.354  28.103  1.00  0.00    -0.550 OA
ATOM      4  O   UNL     1      77.879  22.263  29.119  1.00  0.00    -0.550 OA
ENDBRANCH   1   2
BRANCH   1   5
ATOM      5  C   UNL     1      77.156  20.898  31.628  1.00  0.00     0.059 C 
BRANCH   5   6
ATOM      6  C   UNL     1      76.386  20.455  32.835  1.00  0.00     0.042 C 
ATOM      7  O   UNL     1      76.572  21.018  33.946  1.00  0.00    -0.550 OA
ATOM      8  O   UNL     1      75.495  19.394  32.741  1.00  0.00    -0.550 OA
ENDBRANCH   5   6
ENDBRANCH   1   5
TORSDOF 3
ENDMDL
MODEL 4
REMARK VINA RESULT:    -3.730     11.352     12.804
REMARK INTER + INTRA:          -4.421
REMARK INTER:                  -4.386
REMARK INTRA:                  -0.035
REMARK UNBOUND:                -0.037
REMARK SMILES O=C([O-])CCC(=O)[O-]
REMARK SMILES IDX 4 1 2 2 1 3 3 4 5 5 6 6 7 7 8 8
REMARK H PARENT
REMARK Flexibility Score: inf
ROOT
ATOM      1  C   UNL     1      70.009  10.098  33.339  1.00  0.00     0.059 C 
ENDROOT
BRANCH   1   2
ATOM      2  C   UNL     1      71.035   9.046  33.632  1.00  0.00     0.042 C 
ATOM      3  O   UNL     1      70.761   7.829  33.465  1.00  0.00    -0.550 OA
ATOM      4  O   UNL     1      72.308   9.415  34.051  1.00  0.00    -0.550 OA
ENDBRANCH   1   2
BRANCH   1   5
ATOM      5  C   UNL     1      70.433  10.988  32.167  1.00  0.00     0.059 C 
BRANCH   5   6
ATOM      6  C   UNL     1      69.260  11.693  31.555  1.00  0.00     0.042 C 
ATOM      7  O   UNL     1      68.147  11.112  31.468  1.00  0.00    -0.550 OA
ATOM      8  O   UNL     1      69.409  12.976  31.045  1.00  0.00    -0.550 OA
ENDBRANCH   5   6
ENDBRANCH   1   5
TORSDOF 3
ENDMDL
MODEL 5
REMARK VINA RESULT:    -3.728     11.876     13.028
REMARK INTER + INTRA:          -4.419
REMARK INTER:                  -4.308
REMARK INTRA:                  -0.111
REMARK UNBOUND:                -0.037
REMARK SMILES O=C([O-])CCC(=O)[O-]
REMARK SMILES IDX 4 1 2 2 1 3 3 4 5 5 6 6 7 7 8 8
REMARK H PARENT
REMARK Flexibility Score: inf
ROOT
ATOM      1  C   UNL     1      68.384  10.953  31.914  1.00  0.00     0.059 C 
ENDROOT
BRANCH   1   2
ATOM      2  C   UNL     1      69.533  11.879  31.651  1.00  0.00     0.042 C 
ATOM      3  O   UNL     1      69.346  12.962  31.037  1.00  0.00    -0.550 OA
ATOM      4  O   UNL     1      70.802  11.562  32.121  1.00  0.00    -0.550 OA
ENDBRANCH   1   2
BRANCH   1   5
ATOM      5  C   UNL     1      68.434  10.382  33.335  1.00  0.00     0.059 C 
BRANCH   5   6
ATOM      6  C   UNL     1      68.810   8.932  33.335  1.00  0.00     0.042 C 
ATOM      7  O   UNL     1      70.015   8.590  33.466  1.00  0.00    -0.550 OA
ATOM      8  O   UNL     1      67.835   7.960  33.150  1.00  0.00    -0.550 OA
ENDBRANCH   5   6
ENDBRANCH   1   5
TORSDOF 3
ENDMDL
MODEL 6
REMARK VINA RESULT:    -3.726     11.339     12.500
REMARK INTER + INTRA:          -4.416
REMARK INTER:                  -4.382
REMARK INTRA:                  -0.034
REMARK UNBOUND:                -0.037
REMARK SMILES O=C([O-])CCC(=O)[O-]
REMARK SMILES IDX 4 1 2 2 1 3 3 4 5 5 6 6 7 7 8 8
REMARK H PARENT
REMARK Flexibility Score: inf
ROOT
ATOM      1  C   UNL     1      70.449  10.966  32.099  1.00  0.00     0.059 C 
ENDROOT
BRANCH   1   2
ATOM      2  C   UNL     1      69.267  11.680  31.518  1.00  0.00     0.042 C 
ATOM      3  O   UNL     1      68.143  11.114  31.473  1.00  0.00    -0.550 OA
ATOM      4  O   UNL     1      69.399  12.987  31.064  1.00  0.00    -0.550 OA
ENDBRANCH   1   2
BRANCH   1   5
ATOM      5  C   UNL     1      70.056  10.126  33.320  1.00  0.00     0.059 C 
BRANCH   5   6
ATOM      6  C   UNL     1      71.076   9.069  33.614  1.00  0.00     0.042 C 
ATOM      7  O   UNL     1      70.754   7.852  33.579  1.00  0.00    -0.550 OA
ATOM      8  O   UNL     1      72.370   9.429  33.969  1.00  0.00    -0.550 OA
ENDBRANCH   5   6
ENDBRANCH   1   5
TORSDOF 3
ENDMDL
MODEL 7
REMARK VINA RESULT:    -3.636      0.892      4.167
REMARK INTER + INTRA:          -4.310
REMARK INTER:                  -4.275
REMARK INTRA:                  -0.035
REMARK UNBOUND:                -0.037
REMARK SMILES O=C([O-])CCC(=O)[O-]
REMARK SMILES IDX 4 1 2 2 1 3 3 4 5 5 6 6 7 7 8 8
REMARK H PARENT
REMARK Flexibility Score: inf
ROOT
ATOM      1  C   UNL     1      76.377  20.369  31.238  1.00  0.00     0.059 C 
ENDROOT
BRANCH   1   2
ATOM      2  C   UNL     1      76.381  20.293  32.734  1.00  0.00     0.042 C 
ATOM      3  O   UNL     1      77.301  20.843  33.395  1.00  0.00    -0.550 OA
ATOM      4  O   UNL     1      75.345  19.649  33.400  1.00  0.00    -0.550 OA
ENDBRANCH   1   2
BRANCH   1   5
ATOM      5  C   UNL     1      77.661  21.012  30.703  1.00  0.00     0.059 C 
BRANCH   5   6
ATOM      6  C   UNL     1      77.546  21.347  29.247  1.00  0.00     0.042 C 
ATOM      7  O   UNL     1      77.100  20.495  28.435  1.00  0.00    -0.550 OA
ATOM      8  O   UNL     1      77.972  22.585  28.782  1.00  0.00    -0.550 OA
ENDBRANCH   5   6
ENDBRANCH   1   5
TORSDOF 3
ENDMDL
MODEL 8
REMARK VINA RESULT:    -3.616     12.419     13.885
REMARK INTER + INTRA:          -4.287
REMARK INTER:                  -4.199
REMARK INTRA:                  -0.089
REMARK UNBOUND:                -0.037
REMARK SMILES O=C([O-])CCC(=O)[O-]
REMARK SMILES IDX 4 1 2 2 1 3 3 4 5 5 6 6 7 7 8 8
REMARK H PARENT
REMARK Flexibility Score: inf
ROOT
ATOM      1  C   UNL     1      68.092   9.577  32.939  1.00  0.00     0.059 C 
ENDROOT
BRANCH   1   2
ATOM      2  C   UNL     1      68.558   8.189  33.256  1.00  0.00     0.042 C 
ATOM      3  O   UNL     1      69.761   7.978  33.560  1.00  0.00    -0.550 OA
ATOM      4  O   UNL     1      67.652   7.135  33.255  1.00  0.00    -0.550 OA
ENDBRANCH   1   2
BRANCH   1   5
ATOM      5  C   UNL     1      69.129  10.627  33.351  1.00  0.00     0.059 C 
BRANCH   5   6
ATOM      6  C   UNL     1      69.827  11.211  32.161  1.00  0.00     0.042 C 
ATOM      7  O   UNL     1      71.083  11.167  32.079  1.00  0.00    -0.550 OA
ATOM      8  O   UNL     1      69.094  11.841  31.164  1.00  0.00    -0.550 OA
ENDBRANCH   5   6
ENDBRANCH   1   5
TORSDOF 3
ENDMDL
MODEL 9
REMARK VINA RESULT:    -3.585     11.874     12.500
REMARK INTER + INTRA:          -4.251
REMARK INTER:                  -4.131
REMARK INTRA:                  -0.120
REMARK UNBOUND:                -0.037
REMARK SMILES O=C([O-])CCC(=O)[O-]
REMARK SMILES IDX 4 1 2 2 1 3 3 4 5 5 6 6 7 7 8 8
REMARK H PARENT
REMARK Flexibility Score: inf
ROOT
ATOM      1  C   UNL     1      71.798   9.652  31.952  1.00  0.00     0.059 C 
ENDROOT
BRANCH   1   2
ATOM      2  C   UNL     1      72.602   9.065  33.072  1.00  0.00     0.042 C 
ATOM      3  O   UNL     1      73.629   8.381  32.825  1.00  0.00    -0.550 OA
ATOM      4  O   UNL     1      72.236   9.308  34.391  1.00  0.00    -0.550 OA
ENDBRANCH   1   2
BRANCH   1   5
ATOM      5  C   UNL     1      71.217  11.018  32.331  1.00  0.00     0.059 C 
BRANCH   5   6
ATOM      6  C   UNL     1      69.722  10.974  32.431  1.00  0.00     0.042 C 
ATOM      7  O   UNL     1      69.170  10.562  33.485  1.00  0.00    -0.550 OA
ATOM      8  O   UNL     1      68.941  11.349  31.346  1.00  0.00    -0.550 OA
ENDBRANCH   5   6
ENDBRANCH   1   5
TORSDOF 3
ENDMDL
