MODEL 1
REMARK VINA RESULT:    -6.041      0.000      0.000
REMARK INTER + INTRA:          -8.029
REMARK INTER:                  -7.807
REMARK INTRA:                  -0.222
REMARK UNBOUND:                -0.222
REMARK SMILES CCO[C@H]1O[C@@H](CO)[C@H](O)[C@@H](O)[C@H]1O
REMARK SMILES IDX 4 1 13 2 11 3 9 4 6 5 5 6 3 7 2 8 1 9 14 10 12 12 7 14 8 15
REMARK SMILES IDX 10 17
REMARK H PARENT 14 11 12 13 8 16 10 18
REMARK Flexibility Score: inf
ROOT
ATOM      1  C   UNL     1      16.054  -1.217 -11.733  1.00  0.00     0.281 C 
ATOM      2  C   UNL     1      16.579  -0.997 -10.298  1.00  0.00     0.202 C 
ATOM      3  C   UNL     1      16.028   0.300  -9.684  1.00  0.00     0.179 C 
ATOM      4  C   UNL     1      16.251   1.476 -10.651  1.00  0.00     0.177 C 
ATOM      5  C   UNL     1      15.847   1.139 -12.115  1.00  0.00     0.178 C 
ATOM      6  O   UNL     1      16.348  -0.113 -12.578  1.00  0.00    -0.341 OA
ENDROOT
BRANCH   1   7
ATOM      7  O   UNL     1      14.658  -1.487 -11.728  1.00  0.00    -0.350 OA
BRANCH   7   8
ATOM      8  C   UNL     1      14.333  -2.656 -12.454  1.00  0.00     0.160 C 
ATOM      9  C   UNL     1      13.135  -2.423 -13.372  1.00  0.00     0.035 C 
ENDBRANCH   7   8
ENDBRANCH   1   7
BRANCH   2  10
ATOM     10  O   UNL     1      16.327  -2.109  -9.473  1.00  0.00    -0.385 OA
ATOM     11  H   UNL     1      15.850  -1.795  -8.662  1.00  0.00     0.211 HD
ENDBRANCH   2  10
BRANCH   3  12
ATOM     12  O   UNL     1      14.657   0.179  -9.400  1.00  0.00    -0.387 OA
ATOM     13  H   UNL     1      14.572  -0.008  -8.428  1.00  0.00     0.211 HD
ENDBRANCH   3  12
BRANCH   5  14
ATOM     14  C   UNL     1      14.340   1.326 -12.392  1.00  0.00     0.191 C 
BRANCH  14  15
ATOM     15  O   UNL     1      14.139   2.246 -13.431  1.00  0.00    -0.394 OA
ATOM     16  H   UNL     1      14.861   2.923 -13.356  1.00  0.00     0.210 HD
ENDBRANCH  14  15
ENDBRANCH   5  14
BRANCH   4  17
ATOM     17  O   UNL     1      17.588   1.915 -10.588  1.00  0.00    -0.387 OA
ATOM     18  H   UNL     1      17.782   2.185  -9.653  1.00  0.00     0.211 HD
ENDBRANCH   4  17
TORSDOF 7
ENDMDL
MODEL 2
REMARK VINA RESULT:    -5.938      4.464      6.485
REMARK INTER + INTRA:          -7.896
REMARK INTER:                  -7.657
REMARK INTRA:                  -0.239
REMARK UNBOUND:                -0.222
REMARK SMILES CCO[C@H]1O[C@@H](CO)[C@H](O)[C@@H](O)[C@H]1O
REMARK SMILES IDX 4 1 13 2 11 3 9 4 6 5 5 6 3 7 2 8 1 9 14 10 12 12 7 14 8 15
REMARK SMILES IDX 10 17
REMARK H PARENT 14 11 12 13 8 16 10 18
REMARK Flexibility Score: inf
ROOT
ATOM      1  C   UNL     1      19.948   1.304 -11.494  1.00  0.00     0.281 C 
ATOM      2  C   UNL     1      19.458   0.954 -10.073  1.00  0.00     0.202 C 
ATOM      3  C   UNL     1      20.024  -0.392  -9.592  1.00  0.00     0.179 C 
ATOM      4  C   UNL     1      19.778  -1.477 -10.655  1.00  0.00     0.177 C 
ATOM      5  C   UNL     1      20.148  -1.008 -12.092  1.00  0.00     0.178 C 
ATOM      6  O   UNL     1      19.635   0.280 -12.429  1.00  0.00    -0.341 OA
ENDROOT
BRANCH   1   7
ATOM      7  O   UNL     1      21.345   1.576 -11.498  1.00  0.00    -0.350 OA
BRANCH   7   8
ATOM      8  C   UNL     1      21.683   2.645 -12.360  1.00  0.00     0.160 C 
ATOM      9  C   UNL     1      22.907   2.307 -13.206  1.00  0.00     0.035 C 
ENDBRANCH   7   8
ENDBRANCH   1   7
BRANCH   2  10
ATOM     10  O   UNL     1      19.729   1.988  -9.157  1.00  0.00    -0.385 OA
ATOM     11  H   UNL     1      18.962   2.616  -9.158  1.00  0.00     0.211 HD
ENDBRANCH   2  10
BRANCH   3  12
ATOM     12  O   UNL     1      21.402  -0.294  -9.330  1.00  0.00    -0.387 OA
ATOM     13  H   UNL     1      21.725   0.538  -9.764  1.00  0.00     0.211 HD
ENDBRANCH   3  12
BRANCH   5  14
ATOM     14  C   UNL     1      21.647  -1.165 -12.421  1.00  0.00     0.191 C 
BRANCH  14  15
ATOM     15  O   UNL     1      21.855  -2.261 -13.271  1.00  0.00    -0.394 OA
ATOM     16  H   UNL     1      21.820  -1.912 -14.200  1.00  0.00     0.210 HD
ENDBRANCH  14  15
ENDBRANCH   5  14
BRANCH   4  17
ATOM     17  O   UNL     1      18.443  -1.922 -10.601  1.00  0.00    -0.387 OA
ATOM     18  H   UNL     1      17.871  -1.156 -10.338  1.00  0.00     0.211 HD
ENDBRANCH   4  17
TORSDOF 7
ENDMDL
MODEL 3
REMARK VINA RESULT:    -5.704      4.158      6.158
REMARK INTER + INTRA:          -7.594
REMARK INTER:                  -7.156
REMARK INTRA:                  -0.438
REMARK UNBOUND:                -0.222
REMARK SMILES CCO[C@H]1O[C@@H](CO)[C@H](O)[C@@H](O)[C@H]1O
REMARK SMILES IDX 4 1 13 2 11 3 9 4 6 5 5 6 3 7 2 8 1 9 14 10 12 12 7 14 8 15
REMARK SMILES IDX 10 17
REMARK H PARENT 14 11 12 13 8 16 10 18
REMARK Flexibility Score: inf
ROOT
ATOM      1  C   UNL     1      19.516   1.499 -10.158  1.00  0.00     0.281 C 
ATOM      2  C   UNL     1      19.839   1.501  -8.649  1.00  0.00     0.202 C 
ATOM      3  C   UNL     1      20.243   0.102  -8.153  1.00  0.00     0.179 C 
ATOM      4  C   UNL     1      19.199  -0.936  -8.598  1.00  0.00     0.177 C 
ATOM      5  C   UNL     1      18.798  -0.786 -10.094  1.00  0.00     0.178 C 
ATOM      6  O   UNL     1      18.504   0.555 -10.481  1.00  0.00    -0.341 OA
ENDROOT
BRANCH   1   7
ATOM      7  O   UNL     1      20.687   1.262 -10.929  1.00  0.00    -0.350 OA
BRANCH   7   8
ATOM      8  C   UNL     1      20.750   2.083 -12.080  1.00  0.00     0.160 C 
ATOM      9  C   UNL     1      22.088   1.928 -12.798  1.00  0.00     0.035 C 
ENDBRANCH   7   8
ENDBRANCH   1   7
BRANCH   2  10
ATOM     10  O   UNL     1      20.809   2.467  -8.324  1.00  0.00    -0.385 OA
ATOM     11  H   UNL     1      20.772   2.630  -7.346  1.00  0.00     0.211 HD
ENDBRANCH   2  10
BRANCH   3  12
ATOM     12  O   UNL     1      21.508  -0.261  -8.648  1.00  0.00    -0.387 OA
ATOM     13  H   UNL     1      21.707   0.338  -9.415  1.00  0.00     0.211 HD
ENDBRANCH   3  12
BRANCH   5  14
ATOM     14  C   UNL     1      19.769  -1.494 -11.062  1.00  0.00     0.191 C 
BRANCH  14  15
ATOM     15  O   UNL     1      20.421  -2.556 -10.420  1.00  0.00    -0.394 OA
ATOM     16  H   UNL     1      19.800  -3.330 -10.447  1.00  0.00     0.210 HD
ENDBRANCH  14  15
ENDBRANCH   5  14
BRANCH   4  17
ATOM     17  O   UNL     1      18.063  -0.876  -7.766  1.00  0.00    -0.387 OA
ATOM     18  H   UNL     1      17.547  -0.063  -8.004  1.00  0.00     0.211 HD
ENDBRANCH   4  17
TORSDOF 7
ENDMDL
MODEL 4
REMARK VINA RESULT:    -5.701      3.388      5.492
REMARK INTER + INTRA:          -7.589
REMARK INTER:                  -7.082
REMARK INTRA:                  -0.507
REMARK UNBOUND:                -0.222
REMARK SMILES CCO[C@H]1O[C@@H](CO)[C@H](O)[C@@H](O)[C@H]1O
REMARK SMILES IDX 4 1 13 2 11 3 9 4 6 5 5 6 3 7 2 8 1 9 14 10 12 12 7 14 8 15
REMARK SMILES IDX 10 17
REMARK H PARENT 14 11 12 13 8 16 10 18
REMARK Flexibility Score: inf
ROOT
ATOM      1  C   UNL     1      17.110  -0.040  -8.455  1.00  0.00     0.281 C 
ATOM      2  C   UNL     1      16.701   0.289  -7.004  1.00  0.00     0.202 C 
ATOM      3  C   UNL     1      17.914   0.694  -6.149  1.00  0.00     0.179 C 
ATOM      4  C   UNL     1      19.032  -0.354  -6.293  1.00  0.00     0.177 C 
ATOM      5  C   UNL     1      19.292  -0.760  -7.773  1.00  0.00     0.178 C 
ATOM      6  O   UNL     1      18.105  -1.054  -8.508  1.00  0.00    -0.341 OA
ENDROOT
BRANCH   1   7
ATOM      7  O   UNL     1      17.550   1.128  -9.137  1.00  0.00    -0.350 OA
BRANCH   7   8
ATOM      8  C   UNL     1      17.137   1.150 -10.490  1.00  0.00     0.160 C 
ATOM      9  C   UNL     1      15.677   1.578 -10.616  1.00  0.00     0.035 C 
ENDBRANCH   7   8
ENDBRANCH   1   7
BRANCH   2  10
ATOM     10  O   UNL     1      15.685   1.261  -6.955  1.00  0.00    -0.385 OA
ATOM     11  H   UNL     1      15.560   1.536  -6.010  1.00  0.00     0.211 HD
ENDBRANCH   2  10
BRANCH   3  12
ATOM     12  O   UNL     1      18.400   1.955  -6.532  1.00  0.00    -0.387 OA
ATOM     13  H   UNL     1      19.392   1.905  -6.519  1.00  0.00     0.211 HD
ENDBRANCH   3  12
BRANCH   5  14
ATOM     14  C   UNL     1      20.237   0.207  -8.516  1.00  0.00     0.191 C 
BRANCH  14  15
ATOM     15  O   UNL     1      21.078   0.870  -7.611  1.00  0.00    -0.394 OA
ATOM     16  H   UNL     1      21.615   1.516  -8.140  1.00  0.00     0.210 HD
ENDBRANCH  14  15
ENDBRANCH   5  14
BRANCH   4  17
ATOM     17  O   UNL     1      18.747  -1.486  -5.505  1.00  0.00    -0.387 OA
ATOM     18  H   UNL     1      17.829  -1.389  -5.143  1.00  0.00     0.211 HD
ENDBRANCH   4  17
TORSDOF 7
ENDMDL
MODEL 5
REMARK VINA RESULT:    -5.647      2.036      4.669
REMARK INTER + INTRA:          -7.520
REMARK INTER:                  -7.016
REMARK INTRA:                  -0.504
REMARK UNBOUND:                -0.222
REMARK SMILES CCO[C@H]1O[C@@H](CO)[C@H](O)[C@@H](O)[C@H]1O
REMARK SMILES IDX 4 1 13 2 11 3 9 4 6 5 5 6 3 7 2 8 1 9 14 10 12 12 7 14 8 15
REMARK SMILES IDX 10 17
REMARK H PARENT 14 11 12 13 8 16 10 18
REMARK Flexibility Score: inf
ROOT
ATOM      1  C   UNL     1      18.141   0.667 -10.663  1.00  0.00     0.281 C 
ATOM      2  C   UNL     1      17.399   1.416 -11.791  1.00  0.00     0.202 C 
ATOM      3  C   UNL     1      15.903   1.581 -11.474  1.00  0.00     0.179 C 
ATOM      4  C   UNL     1      15.295   0.224 -11.080  1.00  0.00     0.177 C 
ATOM      5  C   UNL     1      16.171  -0.554 -10.055  1.00  0.00     0.178 C 
ATOM      6  O   UNL     1      17.555  -0.600 -10.395  1.00  0.00    -0.341 OA
ENDROOT
BRANCH   1   7
ATOM      7  O   UNL     1      18.195   1.454  -9.480  1.00  0.00    -0.350 OA
BRANCH   7   8
ATOM      8  C   UNL     1      19.470   1.420  -8.868  1.00  0.00     0.160 C 
ATOM      9  C   UNL     1      19.481   0.484  -7.663  1.00  0.00     0.035 C 
ENDBRANCH   7   8
ENDBRANCH   1   7
BRANCH   2  10
ATOM     10  O   UNL     1      18.006   2.651 -12.085  1.00  0.00    -0.385 OA
ATOM     11  H   UNL     1      18.922   2.477 -12.422  1.00  0.00     0.211 HD
ENDBRANCH   2  10
BRANCH   3  12
ATOM     12  O   UNL     1      15.708   2.504 -10.432  1.00  0.00    -0.387 OA
ATOM     13  H   UNL     1      14.815   2.917 -10.568  1.00  0.00     0.211 HD
ENDBRANCH   3  12
BRANCH   5  14
ATOM     14  C   UNL     1      15.924  -0.129  -8.592  1.00  0.00     0.191 C 
BRANCH  14  15
ATOM     15  O   UNL     1      14.631   0.392  -8.440  1.00  0.00    -0.394 OA
ATOM     16  H   UNL     1      14.687   1.361  -8.651  1.00  0.00     0.210 HD
ENDBRANCH  14  15
ENDBRANCH   5  14
BRANCH   4  17
ATOM     17  O   UNL     1      15.054  -0.557 -12.227  1.00  0.00    -0.387 OA
ATOM     18  H   UNL     1      15.065  -1.512 -11.960  1.00  0.00     0.211 HD
ENDBRANCH   4  17
TORSDOF 7
ENDMDL
MODEL 6
REMARK VINA RESULT:    -5.615      1.582      3.008
REMARK INTER + INTRA:          -7.479
REMARK INTER:                  -7.019
REMARK INTRA:                  -0.460
REMARK UNBOUND:                -0.222
REMARK SMILES CCO[C@H]1O[C@@H](CO)[C@H](O)[C@@H](O)[C@H]1O
REMARK SMILES IDX 4 1 13 2 11 3 9 4 6 5 5 6 3 7 2 8 1 9 14 10 12 12 7 14 8 15
REMARK SMILES IDX 10 17
REMARK H PARENT 14 11 12 13 8 16 10 18
REMARK Flexibility Score: inf
ROOT
ATOM      1  C   UNL     1      15.749  -1.216 -10.848  1.00  0.00     0.281 C 
ATOM      2  C   UNL     1      15.338   0.268 -10.741  1.00  0.00     0.202 C 
ATOM      3  C   UNL     1      16.324   1.186 -11.484  1.00  0.00     0.179 C 
ATOM      4  C   UNL     1      17.766   0.872 -11.047  1.00  0.00     0.177 C 
ATOM      5  C   UNL     1      18.072  -0.654 -11.026  1.00  0.00     0.178 C 
ATOM      6  O   UNL     1      17.072  -1.434 -10.375  1.00  0.00    -0.341 OA
ENDROOT
BRANCH   1   7
ATOM      7  O   UNL     1      15.611  -1.687 -12.183  1.00  0.00    -0.350 OA
BRANCH   7   8
ATOM      8  C   UNL     1      14.713  -2.776 -12.280  1.00  0.00     0.160 C 
ATOM      9  C   UNL     1      13.519  -2.431 -13.165  1.00  0.00     0.035 C 
ENDBRANCH   7   8
ENDBRANCH   1   7
BRANCH   2  10
ATOM     10  O   UNL     1      14.014   0.476 -11.169  1.00  0.00    -0.385 OA
ATOM     11  H   UNL     1      14.035   0.803 -12.105  1.00  0.00     0.211 HD
ENDBRANCH   2  10
BRANCH   3  12
ATOM     12  O   UNL     1      16.209   1.026 -12.876  1.00  0.00    -0.387 OA
ATOM     13  H   UNL     1      15.509   0.341 -13.037  1.00  0.00     0.211 HD
ENDBRANCH   3  12
BRANCH   5  14
ATOM     14  C   UNL     1      18.472  -1.217 -12.406  1.00  0.00     0.191 C 
BRANCH  14  15
ATOM     15  O   UNL     1      18.395  -2.617 -12.410  1.00  0.00    -0.394 OA
ATOM     16  H   UNL     1      17.913  -2.879 -11.582  1.00  0.00     0.210 HD
ENDBRANCH  14  15
ENDBRANCH   5  14
BRANCH   4  17
ATOM     17  O   UNL     1      18.036   1.455  -9.794  1.00  0.00    -0.387 OA
ATOM     18  H   UNL     1      19.019   1.547  -9.700  1.00  0.00     0.211 HD
ENDBRANCH   4  17
TORSDOF 7
ENDMDL
MODEL 7
REMARK VINA RESULT:    -5.585      3.499      5.148
REMARK INTER + INTRA:          -7.440
REMARK INTER:                  -6.939
REMARK INTRA:                  -0.501
REMARK UNBOUND:                -0.222
REMARK SMILES CCO[C@H]1O[C@@H](CO)[C@H](O)[C@@H](O)[C@H]1O
REMARK SMILES IDX 4 1 13 2 11 3 9 4 6 5 5 6 3 7 2 8 1 9 14 10 12 12 7 14 8 15
REMARK SMILES IDX 10 17
REMARK H PARENT 14 11 12 13 8 16 10 18
REMARK Flexibility Score: inf
ROOT
ATOM      1  C   UNL     1      17.884  -0.676 -10.607  1.00  0.00     0.281 C 
ATOM      2  C   UNL     1      18.623  -1.398 -11.753  1.00  0.00     0.202 C 
ATOM      3  C   UNL     1      20.121  -1.564 -11.448  1.00  0.00     0.179 C 
ATOM      4  C   UNL     1      20.725  -0.212 -11.028  1.00  0.00     0.177 C 
ATOM      5  C   UNL     1      19.852   0.540  -9.982  1.00  0.00     0.178 C 
ATOM      6  O   UNL     1      18.466   0.587 -10.315  1.00  0.00    -0.341 OA
ENDROOT
BRANCH   1   7
ATOM      7  O   UNL     1      17.839  -1.488  -9.440  1.00  0.00    -0.350 OA
BRANCH   7   8
ATOM      8  C   UNL     1      16.551  -1.521  -8.856  1.00  0.00     0.160 C 
ATOM      9  C   UNL     1      16.449  -0.546  -7.686  1.00  0.00     0.035 C 
ENDBRANCH   7   8
ENDBRANCH   1   7
BRANCH   2  10
ATOM     10  O   UNL     1      18.019  -2.629 -12.071  1.00  0.00    -0.385 OA
ATOM     11  H   UNL     1      17.047  -2.557 -11.887  1.00  0.00     0.211 HD
ENDBRANCH   2  10
BRANCH   3  12
ATOM     12  O   UNL     1      20.325  -2.508 -10.428  1.00  0.00    -0.387 OA
ATOM     13  H   UNL     1      20.904  -3.223 -10.799  1.00  0.00     0.211 HD
ENDBRANCH   3  12
BRANCH   5  14
ATOM     14  C   UNL     1      20.109   0.085  -8.530  1.00  0.00     0.191 C 
BRANCH  14  15
ATOM     15  O   UNL     1      21.410  -0.420  -8.393  1.00  0.00    -0.394 OA
ATOM     16  H   UNL     1      21.339  -1.248  -7.851  1.00  0.00     0.210 HD
ENDBRANCH  14  15
ENDBRANCH   5  14
BRANCH   4  17
ATOM     17  O   UNL     1      20.958   0.593 -12.160  1.00  0.00    -0.387 OA
ATOM     18  H   UNL     1      21.930   0.783 -12.211  1.00  0.00     0.211 HD
ENDBRANCH   4  17
TORSDOF 7
ENDMDL
MODEL 8
REMARK VINA RESULT:    -5.571      2.022      3.178
REMARK INTER + INTRA:          -7.421
REMARK INTER:                  -6.906
REMARK INTRA:                  -0.515
REMARK UNBOUND:                -0.222
REMARK SMILES CCO[C@H]1O[C@@H](CO)[C@H](O)[C@@H](O)[C@H]1O
REMARK SMILES IDX 4 1 13 2 11 3 9 4 6 5 5 6 3 7 2 8 1 9 14 10 12 12 7 14 8 15
REMARK SMILES IDX 10 17
REMARK H PARENT 14 11 12 13 8 16 10 18
REMARK Flexibility Score: inf
ROOT
ATOM      1  C   UNL     1      17.865   0.607 -10.692  1.00  0.00     0.281 C 
ATOM      2  C   UNL     1      17.589  -0.272  -9.454  1.00  0.00     0.202 C 
ATOM      3  C   UNL     1      16.094  -0.611  -9.320  1.00  0.00     0.179 C 
ATOM      4  C   UNL     1      15.253   0.674  -9.413  1.00  0.00     0.177 C 
ATOM      5  C   UNL     1      15.684   1.594 -10.592  1.00  0.00     0.178 C 
ATOM      6  O   UNL     1      17.092   1.800 -10.678  1.00  0.00    -0.341 OA
ENDROOT
BRANCH   1   7
ATOM      7  O   UNL     1      17.639  -0.121 -11.893  1.00  0.00    -0.350 OA
BRANCH   7   8
ATOM      8  C   UNL     1      18.613   0.156 -12.882  1.00  0.00     0.160 C 
ATOM      9  C   UNL     1      20.003   0.288 -12.267  1.00  0.00     0.035 C 
ENDBRANCH   7   8
ENDBRANCH   1   7
BRANCH   2  10
ATOM     10  O   UNL     1      18.386  -1.431  -9.447  1.00  0.00    -0.385 OA
ATOM     11  H   UNL     1      19.196  -1.250  -8.904  1.00  0.00     0.211 HD
ENDBRANCH   2  10
BRANCH   3  12
ATOM     12  O   UNL     1      15.691  -1.510 -10.321  1.00  0.00    -0.387 OA
ATOM     13  H   UNL     1      16.101  -2.389 -10.111  1.00  0.00     0.211 HD
ENDBRANCH   3  12
BRANCH   5  14
ATOM     14  C   UNL     1      15.048   1.198 -11.941  1.00  0.00     0.191 C 
BRANCH  14  15
ATOM     15  O   UNL     1      15.614   1.937 -12.990  1.00  0.00    -0.394 OA
ATOM     16  H   UNL     1      15.708   2.870 -12.663  1.00  0.00     0.210 HD
ENDBRANCH  14  15
ENDBRANCH   5  14
BRANCH   4  17
ATOM     17  O   UNL     1      15.290   1.374  -8.191  1.00  0.00    -0.387 OA
ATOM     18  H   UNL     1      14.754   0.868  -7.527  1.00  0.00     0.211 HD
ENDBRANCH   4  17
TORSDOF 7
ENDMDL
MODEL 9
REMARK VINA RESULT:    -5.479      1.793      3.976
REMARK INTER + INTRA:          -7.303
REMARK INTER:                  -6.860
REMARK INTRA:                  -0.443
REMARK UNBOUND:                -0.222
REMARK SMILES CCO[C@H]1O[C@@H](CO)[C@H](O)[C@@H](O)[C@H]1O
REMARK SMILES IDX 4 1 13 2 11 3 9 4 6 5 5 6 3 7 2 8 1 9 14 10 12 12 7 14 8 15
REMARK SMILES IDX 10 17
REMARK H PARENT 14 11 12 13 8 16 10 18
REMARK Flexibility Score: inf
ROOT
ATOM      1  C   UNL     1      16.357  -0.876 -11.452  1.00  0.00     0.281 C 
ATOM      2  C   UNL     1      15.185   0.125 -11.527  1.00  0.00     0.202 C 
ATOM      3  C   UNL     1      15.364   1.286 -10.534  1.00  0.00     0.179 C 
ATOM      4  C   UNL     1      15.665   0.735  -9.130  1.00  0.00     0.177 C 
ATOM      5  C   UNL     1      16.747  -0.383  -9.139  1.00  0.00     0.178 C 
ATOM      6  O   UNL     1      16.536  -1.382 -10.136  1.00  0.00    -0.341 OA
ENDROOT
BRANCH   1   7
ATOM      7  O   UNL     1      17.560  -0.287 -11.930  1.00  0.00    -0.350 OA
BRANCH   7   8
ATOM      8  C   UNL     1      18.463  -1.249 -12.443  1.00  0.00     0.160 C 
ATOM      9  C   UNL     1      19.902  -0.747 -12.377  1.00  0.00     0.035 C 
ENDBRANCH   7   8
ENDBRANCH   1   7
BRANCH   2  10
ATOM     10  O   UNL     1      14.980   0.592 -12.839  1.00  0.00    -0.385 OA
ATOM     11  H   UNL     1      15.613   0.123 -13.441  1.00  0.00     0.211 HD
ENDBRANCH   2  10
BRANCH   3  12
ATOM     12  O   UNL     1      16.406   2.138 -10.939  1.00  0.00    -0.387 OA
ATOM     13  H   UNL     1      16.029   2.770 -11.604  1.00  0.00     0.211 HD
ENDBRANCH   3  12
BRANCH   5  14
ATOM     14  C   UNL     1      18.191   0.162  -9.128  1.00  0.00     0.191 C 
BRANCH  14  15
ATOM     15  O   UNL     1      18.214   1.492  -8.686  1.00  0.00    -0.394 OA
ATOM     16  H   UNL     1      17.421   1.939  -9.083  1.00  0.00     0.210 HD
ENDBRANCH  14  15
ENDBRANCH   5  14
BRANCH   4  17
ATOM     17  O   UNL     1      14.481   0.282  -8.517  1.00  0.00    -0.387 OA
ATOM     18  H   UNL     1      14.487  -0.710  -8.526  1.00  0.00     0.211 HD
ENDBRANCH   4  17
TORSDOF 7
ENDMDL
