MODEL 1
REMARK VINA RESULT:    -1.077      0.000      0.000
REMARK INTER + INTRA:          -1.403
REMARK INTER:                  -1.329
REMARK INTRA:                  -0.074
REMARK UNBOUND:                -0.074
REMARK SMILES CCCCCC(=O)[O-]
REMARK SMILES IDX 4 1 5 2 6 3 7 4 8 5 3 6 2 7 1 8
REMARK H PARENT
REMARK Flexibility Score: inf
ROOT
ATOM      1  C   UNL     1     -19.044  17.526  12.276  1.00  0.00     0.006 C 
ENDROOT
BRANCH   1   2
ATOM      2  C   UNL     1     -17.733  16.828  11.894  1.00  0.00     0.053 C 
BRANCH   2   3
ATOM      3  C   UNL     1     -17.649  16.652  10.411  1.00  0.00     0.041 C 
ATOM      4  O   UNL     1     -17.976  17.593   9.642  1.00  0.00    -0.550 OA
ATOM      5  O   UNL     1     -17.257  15.431   9.877  1.00  0.00    -0.550 OA
ENDBRANCH   2   3
ENDBRANCH   1   2
BRANCH   1   6
ATOM      6  C   UNL     1     -19.107  17.892  13.769  1.00  0.00     0.000 C 
BRANCH   6   7
ATOM      7  C   UNL     1     -18.941  16.669  14.683  1.00  0.00    -0.003 C 
ATOM      8  C   UNL     1     -19.105  17.054  16.151  1.00  0.00     0.004 C 
ENDBRANCH   6   7
ENDBRANCH   1   6
TORSDOF 4
ENDMDL
MODEL 2
REMARK VINA RESULT:    -0.438      6.644      8.142
REMARK INTER + INTRA:          -0.614
REMARK INTER:                  -0.523
REMARK INTRA:                  -0.091
REMARK UNBOUND:                -0.074
REMARK SMILES CCCCCC(=O)[O-]
REMARK SMILES IDX 4 1 5 2 6 3 7 4 8 5 3 6 2 7 1 8
REMARK H PARENT
REMARK Flexibility Score: inf
ROOT
ATOM      1  C   UNL     1     -18.799  18.708  20.338  1.00  0.00     0.006 C 
ENDROOT
BRANCH   1   2
ATOM      2  C   UNL     1     -19.124  17.215  20.202  1.00  0.00     0.053 C 
BRANCH   2   3
ATOM      3  C   UNL     1     -19.018  16.787  18.772  1.00  0.00     0.041 C 
ATOM      4  O   UNL     1     -18.876  17.646  17.863  1.00  0.00    -0.550 OA
ATOM      5  O   UNL     1     -19.125  15.443  18.438  1.00  0.00    -0.550 OA
ENDBRANCH   2   3
ENDBRANCH   1   2
BRANCH   1   6
ATOM      6  C   UNL     1     -18.183  19.057  21.703  1.00  0.00     0.000 C 
BRANCH   6   7
ATOM      7  C   UNL     1     -18.178  20.568  21.979  1.00  0.00    -0.003 C 
ATOM      8  C   UNL     1     -19.078  21.309  20.995  1.00  0.00     0.004 C 
ENDBRANCH   6   7
ENDBRANCH   1   6
TORSDOF 4
ENDMDL
MODEL 3
REMARK VINA RESULT:    -0.164      7.478      9.221
REMARK INTER + INTRA:          -0.276
REMARK INTER:                  -0.231
REMARK INTRA:                  -0.045
REMARK UNBOUND:                -0.074
REMARK SMILES CCCCCC(=O)[O-]
REMARK SMILES IDX 4 1 5 2 6 3 7 4 8 5 3 6 2 7 1 8
REMARK H PARENT
REMARK Flexibility Score: inf
ROOT
ATOM      1  C   UNL     1     -18.671  18.021  20.358  1.00  0.00     0.006 C 
ENDROOT
BRANCH   1   2
ATOM      2  C   UNL     1     -19.076  19.350  21.008  1.00  0.00     0.053 C 
BRANCH   2   3
ATOM      3  C   UNL     1     -17.998  19.831  21.927  1.00  0.00     0.041 C 
ATOM      4  O   UNL     1     -17.836  21.065  22.121  1.00  0.00    -0.550 OA
ATOM      5  O   UNL     1     -17.141  18.920  22.531  1.00  0.00    -0.550 OA
ENDBRANCH   2   3
ENDBRANCH   1   2
BRANCH   1   6
ATOM      6  C   UNL     1     -19.125  17.916  18.893  1.00  0.00     0.000 C 
BRANCH   6   7
ATOM      7  C   UNL     1     -18.954  16.500  18.323  1.00  0.00    -0.003 C 
ATOM      8  C   UNL     1     -19.112  16.496  16.805  1.00  0.00     0.004 C 
ENDBRANCH   6   7
ENDBRANCH   1   6
TORSDOF 4
ENDMDL
MODEL 4
REMARK VINA RESULT:     0.091      4.613      6.051
REMARK INTER + INTRA:           0.039
REMARK INTER:                   0.104
REMARK INTRA:                  -0.065
REMARK UNBOUND:                -0.074
REMARK SMILES CCCCCC(=O)[O-]
REMARK SMILES IDX 4 1 5 2 6 3 7 4 8 5 3 6 2 7 1 8
REMARK H PARENT
REMARK Flexibility Score: inf
ROOT
ATOM      1  C   UNL     1     -18.516  16.263  15.635  1.00  0.00     0.006 C 
ENDROOT
BRANCH   1   2
ATOM      2  C   UNL     1     -19.122  17.243  16.647  1.00  0.00     0.053 C 
BRANCH   2   3
ATOM      3  C   UNL     1     -19.040  16.682  18.031  1.00  0.00     0.041 C 
ATOM      4  O   UNL     1     -19.114  15.439  18.216  1.00  0.00    -0.550 OA
ATOM      5  O   UNL     1     -18.930  17.535  19.122  1.00  0.00    -0.550 OA
ENDBRANCH   2   3
ENDBRANCH   1   2
BRANCH   1   6
ATOM      6  C   UNL     1     -19.119  16.415  14.229  1.00  0.00     0.000 C 
BRANCH   6   7
ATOM      7  C   UNL     1     -18.525  17.604  13.458  1.00  0.00    -0.003 C 
ATOM      8  C   UNL     1     -18.512  17.334  11.957  1.00  0.00     0.004 C 
ENDBRANCH   6   7
ENDBRANCH   1   6
TORSDOF 4
ENDMDL
MODEL 5
REMARK VINA RESULT:     0.162      3.745      5.159
REMARK INTER + INTRA:           0.126
REMARK INTER:                   0.185
REMARK INTRA:                  -0.059
REMARK UNBOUND:                -0.074
REMARK SMILES CCCCCC(=O)[O-]
REMARK SMILES IDX 4 1 5 2 6 3 7 4 8 5 3 6 2 7 1 8
REMARK H PARENT
REMARK Flexibility Score: inf
ROOT
ATOM      1  C   UNL     1     -18.296  17.208  14.043  1.00  0.00     0.006 C 
ENDROOT
BRANCH   1   2
ATOM      2  C   UNL     1     -19.125  16.271  14.930  1.00  0.00     0.053 C 
BRANCH   2   3
ATOM      3  C   UNL     1     -19.112  16.749  16.347  1.00  0.00     0.041 C 
ATOM      4  O   UNL     1     -19.045  17.981  16.600  1.00  0.00    -0.550 OA
ATOM      5  O   UNL     1     -19.124  15.832  17.391  1.00  0.00    -0.550 OA
ENDBRANCH   2   3
ENDBRANCH   1   2
BRANCH   1   6
ATOM      6  C   UNL     1     -18.772  17.214  12.581  1.00  0.00     0.000 C 
BRANCH   6   7
ATOM      7  C   UNL     1     -17.611  17.332  11.582  1.00  0.00    -0.003 C 
ATOM      8  C   UNL     1     -18.023  16.836  10.199  1.00  0.00     0.004 C 
ENDBRANCH   6   7
ENDBRANCH   1   6
TORSDOF 4
ENDMDL
