MODEL 1
REMARK VINA RESULT:    -7.800      0.000      0.000
REMARK INTER + INTRA:         -11.703
REMARK INTER:                 -10.764
REMARK INTRA:                  -0.939
REMARK UNBOUND:                -0.939
REMARK SMILES O=C([O-])[C@H]1O[C@@H](Oc2cc3oc(-c4ccccc4)cc(=O)c3c(O)c2O)[C@@H](O)[C@@H](O)[C@@H]1O
REMARK SMILES IDX 7 1 6 2 4 3 31 4 5 5 29 6 27 7 2 8 1 9 3 10 32 11 30 13
REMARK SMILES IDX 28 15 8 17 25 18 9 19 23 20 10 21 22 22 11 23 20 24 12 25
REMARK SMILES IDX 19 26 21 27 26 28 24 30 13 32 14 33 18 34 15 35 17 36 16 37
REMARK H PARENT 32 12 30 14 28 16 26 29 24 31
REMARK Flexibility Score: inf
ROOT
ATOM      1  O   UNL     1     -37.554  -6.814  23.046  1.00  0.00    -0.458 OA
ENDROOT
BRANCH   1   2
ATOM      2  C   UNL     1     -38.197  -7.778  22.205  1.00  0.00     0.339 C 
ATOM      3  C   UNL     1     -38.867  -8.186  20.005  1.00  0.00     0.199 C 
ATOM      4  C   UNL     1     -39.907  -9.230  20.532  1.00  0.00     0.180 C 
ATOM      5  O   UNL     1     -38.543  -7.190  20.963  1.00  0.00    -0.328 OA
ATOM      6  C   UNL     1     -40.529  -8.766  21.865  1.00  0.00     0.181 C 
ATOM      7  C   UNL     1     -39.422  -8.442  22.894  1.00  0.00     0.214 C 
BRANCH   3   8
ATOM      8  C   UNL     1     -39.385  -7.507  18.765  1.00  0.00     0.073 C 
ATOM      9  O   UNL     1     -40.454  -7.909  18.232  1.00  0.00    -0.547 OA
ATOM     10  O   UNL     1     -38.730  -6.399  18.236  1.00  0.00    -0.547 OA
ENDBRANCH   3   8
BRANCH   4  11
ATOM     11  O   UNL     1     -39.262 -10.468  20.715  1.00  0.00    -0.387 OA
ATOM     12  H   UNL     1     -38.644 -10.362  21.485  1.00  0.00     0.211 HD
ENDBRANCH   4  11
BRANCH   6  13
ATOM     13  O   UNL     1     -41.327  -7.630  21.634  1.00  0.00    -0.387 OA
ATOM     14  H   UNL     1     -41.527  -7.610  20.658  1.00  0.00     0.211 HD
ENDBRANCH   6  13
BRANCH   7  15
ATOM     15  O   UNL     1     -39.954  -7.642  23.922  1.00  0.00    -0.384 OA
ATOM     16  H   UNL     1     -40.942  -7.747  23.897  1.00  0.00     0.211 HD
ENDBRANCH   7  15
ENDBRANCH   1   2
BRANCH   1  17
ATOM     17  C   UNL     1     -36.190  -6.465  23.065  1.00  0.00     0.172 A 
ATOM     18  C   UNL     1     -35.853  -5.102  22.963  1.00  0.00     0.201 A 
ATOM     19  C   UNL     1     -35.163  -7.419  23.183  1.00  0.00     0.098 A 
ATOM     20  C   UNL     1     -34.507  -4.697  22.982  1.00  0.00     0.176 A 
ATOM     21  C   UNL     1     -33.825  -7.025  23.202  1.00  0.00     0.146 A 
ATOM     22  C   UNL     1     -33.482  -5.660  23.106  1.00  0.00     0.111 A 
ATOM     23  O   UNL     1     -32.880  -7.954  23.318  1.00  0.00    -0.456 OA
ATOM     24  C   UNL     1     -32.110  -5.327  23.139  1.00  0.00     0.197 A 
ATOM     25  C   UNL     1     -31.579  -7.674  23.357  1.00  0.00     0.138 A 
ATOM     26  C   UNL     1     -31.157  -6.338  23.260  1.00  0.00     0.100 A 
ATOM     27  O   UNL     1     -31.722  -4.130  23.059  1.00  0.00    -0.289 OA
BRANCH  18  28
ATOM     28  O   UNL     1     -36.853  -4.136  22.846  1.00  0.00    -0.502 OA
ATOM     29  H   UNL     1     -36.658  -3.144  22.888  1.00  0.00     0.293 HD
ENDBRANCH  18  28
BRANCH  20  30
ATOM     30  O   UNL     1     -34.193  -3.340  22.874  1.00  0.00    -0.504 OA
ATOM     31  H   UNL     1     -33.515  -2.989  22.209  1.00  0.00     0.293 HD
ENDBRANCH  20  30
BRANCH  25  32
ATOM     32  C   UNL     1     -30.617  -8.796  23.498  1.00  0.00     0.017 A 
ATOM     33  C   UNL     1     -31.038 -10.108  23.210  1.00  0.00     0.012 A 
ATOM     34  C   UNL     1     -29.302  -8.593  23.966  1.00  0.00     0.012 A 
ATOM     35  C   UNL     1     -30.165 -11.188  23.374  1.00  0.00     0.001 A 
ATOM     36  C   UNL     1     -28.436  -9.678  24.131  1.00  0.00     0.001 A 
ATOM     37  C   UNL     1     -28.866 -10.974  23.836  1.00  0.00     0.000 A 
ENDBRANCH  25  32
ENDBRANCH   1  17
TORSDOF 9
ENDMDL
MODEL 2
REMARK VINA RESULT:    -7.432      1.302      2.735
REMARK INTER + INTRA:         -11.195
REMARK INTER:                 -10.144
REMARK INTRA:                  -1.051
REMARK UNBOUND:                -0.939
REMARK SMILES O=C([O-])[C@H]1O[C@@H](Oc2cc3oc(-c4ccccc4)cc(=O)c3c(O)c2O)[C@@H](O)[C@@H](O)[C@@H]1O
REMARK SMILES IDX 7 1 6 2 4 3 31 4 5 5 29 6 27 7 2 8 1 9 3 10 32 11 30 13
REMARK SMILES IDX 28 15 8 17 25 18 9 19 23 20 10 21 22 22 11 23 20 24 12 25
REMARK SMILES IDX 19 26 21 27 26 28 24 30 13 32 14 33 18 34 15 35 17 36 16 37
REMARK H PARENT 32 12 30 14 28 16 26 29 24 31
REMARK Flexibility Score: inf
ROOT
ATOM      1  O   UNL     1     -37.009  -7.005  19.987  1.00  0.00    -0.458 OA
ENDROOT
BRANCH   1   2
ATOM      2  C   UNL     1     -38.265  -7.440  20.519  1.00  0.00     0.339 C 
ATOM      3  C   UNL     1     -39.462  -7.699  22.509  1.00  0.00     0.199 C 
ATOM      4  C   UNL     1     -40.376  -8.756  21.802  1.00  0.00     0.180 C 
ATOM      5  O   UNL     1     -38.172  -7.600  21.923  1.00  0.00    -0.328 OA
ATOM      6  C   UNL     1     -39.563  -9.621  20.818  1.00  0.00     0.181 C 
ATOM      7  C   UNL     1     -38.791  -8.727  19.822  1.00  0.00     0.214 C 
BRANCH   3   8
ATOM      8  C   UNL     1     -39.302  -8.035  23.968  1.00  0.00     0.073 C 
ATOM      9  O   UNL     1     -38.157  -8.007  24.494  1.00  0.00    -0.547 OA
ATOM     10  O   UNL     1     -40.413  -8.314  24.757  1.00  0.00    -0.547 OA
ENDBRANCH   3   8
BRANCH   4  11
ATOM     11  O   UNL     1     -41.400  -8.084  21.108  1.00  0.00    -0.387 OA
ATOM     12  H   UNL     1     -41.773  -8.726  20.447  1.00  0.00     0.211 HD
ENDBRANCH   4  11
BRANCH   6  13
ATOM     13  O   UNL     1     -38.667 -10.429  21.543  1.00  0.00    -0.387 OA
ATOM     14  H   UNL     1     -38.822 -10.240  22.509  1.00  0.00     0.211 HD
ENDBRANCH   6  13
BRANCH   7  15
ATOM     15  O   UNL     1     -37.756  -9.470  19.225  1.00  0.00    -0.384 OA
ATOM     16  H   UNL     1     -37.172  -8.828  18.741  1.00  0.00     0.211 HD
ENDBRANCH   7  15
ENDBRANCH   1   2
BRANCH   1  17
ATOM     17  C   UNL     1     -35.844  -6.666  20.703  1.00  0.00     0.172 A 
ATOM     18  C   UNL     1     -35.667  -5.323  21.084  1.00  0.00     0.201 A 
ATOM     19  C   UNL     1     -34.862  -7.613  21.048  1.00  0.00     0.098 A 
ATOM     20  C   UNL     1     -34.527  -4.930  21.804  1.00  0.00     0.176 A 
ATOM     21  C   UNL     1     -33.726  -7.231  21.763  1.00  0.00     0.146 A 
ATOM     22  C   UNL     1     -33.548  -5.887  22.152  1.00  0.00     0.111 A 
ATOM     23  O   UNL     1     -32.820  -8.152  22.075  1.00  0.00    -0.456 OA
ATOM     24  C   UNL     1     -32.380  -5.567  22.879  1.00  0.00     0.197 A 
ATOM     25  C   UNL     1     -31.712  -7.887  22.763  1.00  0.00     0.138 A 
ATOM     26  C   UNL     1     -31.459  -6.569  23.181  1.00  0.00     0.100 A 
ATOM     27  O   UNL     1     -32.147  -4.390  23.264  1.00  0.00    -0.289 OA
BRANCH  18  28
ATOM     28  O   UNL     1     -36.628  -4.365  20.754  1.00  0.00    -0.502 OA
ATOM     29  H   UNL     1     -37.619  -4.525  20.877  1.00  0.00     0.293 HD
ENDBRANCH  18  28
BRANCH  20  30
ATOM     30  O   UNL     1     -34.367  -3.591  22.168  1.00  0.00    -0.504 OA
ATOM     31  H   UNL     1     -33.670  -3.287  22.836  1.00  0.00     0.293 HD
ENDBRANCH  20  30
BRANCH  25  32
ATOM     32  C   UNL     1     -30.777  -9.001  23.060  1.00  0.00     0.017 A 
ATOM     33  C   UNL     1     -31.267 -10.319  23.109  1.00  0.00     0.012 A 
ATOM     34  C   UNL     1     -29.416  -8.772  23.349  1.00  0.00     0.012 A 
ATOM     35  C   UNL     1     -30.417 -11.383  23.428  1.00  0.00     0.001 A 
ATOM     36  C   UNL     1     -28.573  -9.840  23.670  1.00  0.00     0.001 A 
ATOM     37  C   UNL     1     -29.072 -11.144  23.710  1.00  0.00     0.000 A 
ENDBRANCH  25  32
ENDBRANCH   1  17
TORSDOF 9
ENDMDL
MODEL 3
REMARK VINA RESULT:    -7.186      2.694      8.339
REMARK INTER + INTRA:         -10.856
REMARK INTER:                 -10.154
REMARK INTRA:                  -0.702
REMARK UNBOUND:                -0.939
REMARK SMILES O=C([O-])[C@H]1O[C@@H](Oc2cc3oc(-c4ccccc4)cc(=O)c3c(O)c2O)[C@@H](O)[C@@H](O)[C@@H]1O
REMARK SMILES IDX 7 1 6 2 4 3 31 4 5 5 29 6 27 7 2 8 1 9 3 10 32 11 30 13
REMARK SMILES IDX 28 15 8 17 25 18 9 19 23 20 10 21 22 22 11 23 20 24 12 25
REMARK SMILES IDX 19 26 21 27 26 28 24 30 13 32 14 33 18 34 15 35 17 36 16 37
REMARK H PARENT 32 12 30 14 28 16 26 29 24 31
REMARK Flexibility Score: inf
ROOT
ATOM      1  O   UNL     1     -32.280  -7.481  24.012  1.00  0.00    -0.458 OA
ENDROOT
BRANCH   1   2
ATOM      2  C   UNL     1     -32.331  -6.050  24.019  1.00  0.00     0.339 C 
ATOM      3  C   UNL     1     -33.296  -4.210  22.951  1.00  0.00     0.199 C 
ATOM      4  C   UNL     1     -32.132  -3.310  23.484  1.00  0.00     0.180 C 
ATOM      5  O   UNL     1     -32.931  -5.577  22.826  1.00  0.00    -0.328 OA
ATOM      6  C   UNL     1     -30.795  -4.079  23.486  1.00  0.00     0.181 C 
ATOM      7  C   UNL     1     -30.936  -5.408  24.262  1.00  0.00     0.214 C 
BRANCH   3   8
ATOM      8  C   UNL     1     -33.771  -3.717  21.610  1.00  0.00     0.073 C 
ATOM      9  O   UNL     1     -33.033  -2.957  20.926  1.00  0.00    -0.547 OA
ATOM     10  O   UNL     1     -34.990  -4.141  21.089  1.00  0.00    -0.547 OA
ENDBRANCH   3   8
BRANCH   4  11
ATOM     11  O   UNL     1     -32.439  -2.891  24.793  1.00  0.00    -0.387 OA
ATOM     12  H   UNL     1     -33.156  -2.207  24.718  1.00  0.00     0.211 HD
ENDBRANCH   4  11
BRANCH   6  13
ATOM     13  O   UNL     1     -30.403  -4.329  22.157  1.00  0.00    -0.387 OA
ATOM     14  H   UNL     1     -29.435  -4.567  22.179  1.00  0.00     0.211 HD
ENDBRANCH   6  13
BRANCH   7  15
ATOM     15  O   UNL     1     -29.883  -6.272  23.911  1.00  0.00    -0.384 OA
ATOM     16  H   UNL     1     -30.243  -6.926  23.254  1.00  0.00     0.211 HD
ENDBRANCH   7  15
ENDBRANCH   1   2
BRANCH   1  17
ATOM     17  C   UNL     1     -33.160  -8.368  23.364  1.00  0.00     0.172 A 
ATOM     18  C   UNL     1     -32.706  -9.672  23.092  1.00  0.00     0.201 A 
ATOM     19  C   UNL     1     -34.464  -8.002  22.983  1.00  0.00     0.098 A 
ATOM     20  C   UNL     1     -33.544 -10.602  22.452  1.00  0.00     0.176 A 
ATOM     21  C   UNL     1     -35.302  -8.918  22.346  1.00  0.00     0.146 A 
ATOM     22  C   UNL     1     -34.853 -10.229  22.078  1.00  0.00     0.111 A 
ATOM     23  O   UNL     1     -36.529  -8.540  22.002  1.00  0.00    -0.456 OA
ATOM     24  C   UNL     1     -35.752 -11.109  21.437  1.00  0.00     0.197 A 
ATOM     25  C   UNL     1     -37.404  -9.345  21.403  1.00  0.00     0.138 A 
ATOM     26  C   UNL     1     -37.029 -10.663  21.096  1.00  0.00     0.100 A 
ATOM     27  O   UNL     1     -35.429 -12.296  21.164  1.00  0.00    -0.289 OA
BRANCH  18  28
ATOM     28  O   UNL     1     -31.417 -10.061  23.462  1.00  0.00    -0.502 OA
ATOM     29  H   UNL     1     -30.612  -9.459  23.341  1.00  0.00     0.293 HD
ENDBRANCH  18  28
BRANCH  20  30
ATOM     30  O   UNL     1     -33.072 -11.889  22.187  1.00  0.00    -0.504 OA
ATOM     31  H   UNL     1     -33.101 -12.633  22.873  1.00  0.00     0.293 HD
ENDBRANCH  20  30
BRANCH  25  32
ATOM     32  C   UNL     1     -38.750  -8.811  21.075  1.00  0.00     0.017 A 
ATOM     33  C   UNL     1     -38.987  -8.271  19.798  1.00  0.00     0.012 A 
ATOM     34  C   UNL     1     -39.789  -8.781  22.028  1.00  0.00     0.012 A 
ATOM     35  C   UNL     1     -40.233  -7.724  19.476  1.00  0.00     0.001 A 
ATOM     36  C   UNL     1     -41.031  -8.229  21.700  1.00  0.00     0.001 A 
ATOM     37  C   UNL     1     -41.254  -7.701  20.427  1.00  0.00     0.000 A 
ENDBRANCH  25  32
ENDBRANCH   1  17
TORSDOF 9
ENDMDL
MODEL 4
REMARK VINA RESULT:    -7.044      2.726      5.096
REMARK INTER + INTRA:         -10.659
REMARK INTER:                  -9.595
REMARK INTRA:                  -1.064
REMARK UNBOUND:                -0.939
REMARK SMILES O=C([O-])[C@H]1O[C@@H](Oc2cc3oc(-c4ccccc4)cc(=O)c3c(O)c2O)[C@@H](O)[C@@H](O)[C@@H]1O
REMARK SMILES IDX 7 1 6 2 4 3 31 4 5 5 29 6 27 7 2 8 1 9 3 10 32 11 30 13
REMARK SMILES IDX 28 15 8 17 25 18 9 19 23 20 10 21 22 22 11 23 20 24 12 25
REMARK SMILES IDX 19 26 21 27 26 28 24 30 13 32 14 33 18 34 15 35 17 36 16 37
REMARK H PARENT 32 12 30 14 28 16 26 29 24 31
REMARK Flexibility Score: inf
ROOT
ATOM      1  O   UNL     1     -34.197  -8.990  21.203  1.00  0.00    -0.458 OA
ENDROOT
BRANCH   1   2
ATOM      2  C   UNL     1     -35.422  -8.329  21.537  1.00  0.00     0.339 C 
ATOM      3  C   UNL     1     -37.732  -8.643  21.698  1.00  0.00     0.199 C 
ATOM      4  C   UNL     1     -37.934  -7.096  21.577  1.00  0.00     0.180 C 
ATOM      5  O   UNL     1     -36.528  -9.095  21.095  1.00  0.00    -0.328 OA
ATOM      6  C   UNL     1     -36.914  -6.479  20.598  1.00  0.00     0.181 C 
ATOM      7  C   UNL     1     -35.475  -6.871  21.000  1.00  0.00     0.214 C 
BRANCH   3   8
ATOM      8  C   UNL     1     -38.887  -9.376  21.070  1.00  0.00     0.073 C 
ATOM      9  O   UNL     1     -39.782  -9.878  21.802  1.00  0.00    -0.547 OA
ATOM     10  O   UNL     1     -39.012  -9.450  19.686  1.00  0.00    -0.547 OA
ENDBRANCH   3   8
BRANCH   4  11
ATOM     11  O   UNL     1     -37.782  -6.512  22.850  1.00  0.00    -0.387 OA
ATOM     12  H   UNL     1     -36.871  -6.118  22.882  1.00  0.00     0.211 HD
ENDBRANCH   4  11
BRANCH   6  13
ATOM     13  O   UNL     1     -37.196  -6.926  19.294  1.00  0.00    -0.387 OA
ATOM     14  H   UNL     1     -37.108  -6.138  18.691  1.00  0.00     0.211 HD
ENDBRANCH   6  13
BRANCH   7  15
ATOM     15  O   UNL     1     -34.611  -6.674  19.907  1.00  0.00    -0.384 OA
ATOM     16  H   UNL     1     -33.686  -6.625  20.266  1.00  0.00     0.211 HD
ENDBRANCH   7  15
ENDBRANCH   1   2
BRANCH   1  17
ATOM     17  C   UNL     1     -33.008  -9.028  21.956  1.00  0.00     0.172 A 
ATOM     18  C   UNL     1     -32.574 -10.273  22.447  1.00  0.00     0.201 A 
ATOM     19  C   UNL     1     -32.246  -7.878  22.231  1.00  0.00     0.098 A 
ATOM     20  C   UNL     1     -31.391 -10.370  23.200  1.00  0.00     0.176 A 
ATOM     21  C   UNL     1     -31.071  -7.965  22.978  1.00  0.00     0.146 A 
ATOM     22  C   UNL     1     -30.628  -9.212  23.467  1.00  0.00     0.111 A 
ATOM     23  O   UNL     1     -30.374  -6.858  23.216  1.00  0.00    -0.456 OA
ATOM     24  C   UNL     1     -29.428  -9.234  24.211  1.00  0.00     0.197 A 
ATOM     25  C   UNL     1     -29.236  -6.843  23.908  1.00  0.00     0.138 A 
ATOM     26  C   UNL     1     -28.734  -8.045  24.435  1.00  0.00     0.100 A 
ATOM     27  O   UNL     1     -28.965 -10.307  24.682  1.00  0.00    -0.289 OA
BRANCH  18  28
ATOM     28  O   UNL     1     -33.312 -11.429  22.187  1.00  0.00    -0.502 OA
ATOM     29  H   UNL     1     -33.888 -11.532  21.363  1.00  0.00     0.293 HD
ENDBRANCH  18  28
BRANCH  20  30
ATOM     30  O   UNL     1     -30.981 -11.614  23.684  1.00  0.00    -0.504 OA
ATOM     31  H   UNL     1     -31.626 -12.377  23.846  1.00  0.00     0.293 HD
ENDBRANCH  20  30
BRANCH  25  32
ATOM     32  C   UNL     1     -28.541  -5.546  24.102  1.00  0.00     0.017 A 
ATOM     33  C   UNL     1     -28.951  -4.425  23.356  1.00  0.00     0.012 A 
ATOM     34  C   UNL     1     -27.442  -5.415  24.976  1.00  0.00     0.012 A 
ATOM     35  C   UNL     1     -28.286  -3.201  23.488  1.00  0.00     0.001 A 
ATOM     36  C   UNL     1     -26.781  -4.190  25.099  1.00  0.00     0.001 A 
ATOM     37  C   UNL     1     -27.201  -3.084  24.357  1.00  0.00     0.000 A 
ENDBRANCH  25  32
ENDBRANCH   1  17
TORSDOF 9
ENDMDL
MODEL 5
REMARK VINA RESULT:    -7.033      1.594      2.655
REMARK INTER + INTRA:         -10.644
REMARK INTER:                 -10.088
REMARK INTRA:                  -0.556
REMARK UNBOUND:                -0.939
REMARK SMILES O=C([O-])[C@H]1O[C@@H](Oc2cc3oc(-c4ccccc4)cc(=O)c3c(O)c2O)[C@@H](O)[C@@H](O)[C@@H]1O
REMARK SMILES IDX 7 1 6 2 4 3 31 4 5 5 29 6 27 7 2 8 1 9 3 10 32 11 30 13
REMARK SMILES IDX 28 15 8 17 25 18 9 19 23 20 10 21 22 22 11 23 20 24 12 25
REMARK SMILES IDX 19 26 21 27 26 28 24 30 13 32 14 33 18 34 15 35 17 36 16 37
REMARK H PARENT 32 12 30 14 28 16 26 29 24 31
REMARK Flexibility Score: inf
ROOT
ATOM      1  O   UNL     1     -37.013  -6.438  21.485  1.00  0.00    -0.458 OA
ENDROOT
BRANCH   1   2
ATOM      2  C   UNL     1     -37.779  -7.648  21.472  1.00  0.00     0.339 C 
ATOM      3  C   UNL     1     -37.637  -9.951  21.836  1.00  0.00     0.199 C 
ATOM      4  C   UNL     1     -38.913 -10.152  20.952  1.00  0.00     0.180 C 
ATOM      5  O   UNL     1     -36.916  -8.771  21.512  1.00  0.00    -0.328 OA
ATOM      6  C   UNL     1     -38.927  -9.165  19.766  1.00  0.00     0.181 C 
ATOM      7  C   UNL     1     -38.763  -7.714  20.270  1.00  0.00     0.214 C 
BRANCH   3   8
ATOM      8  C   UNL     1     -36.712 -11.131  21.700  1.00  0.00     0.073 C 
ATOM      9  O   UNL     1     -35.464 -10.955  21.742  1.00  0.00    -0.547 OA
ATOM     10  O   UNL     1     -37.220 -12.422  21.591  1.00  0.00    -0.547 OA
ENDBRANCH   3   8
BRANCH   4  11
ATOM     11  O   UNL     1     -40.058  -9.954  21.747  1.00  0.00    -0.387 OA
ATOM     12  H   UNL     1     -40.648  -9.323  21.254  1.00  0.00     0.211 HD
ENDBRANCH   4  11
BRANCH   6  13
ATOM     13  O   UNL     1     -37.885  -9.494  18.879  1.00  0.00    -0.387 OA
ATOM     14  H   UNL     1     -38.259 -10.141  18.219  1.00  0.00     0.211 HD
ENDBRANCH   6  13
BRANCH   7  15
ATOM     15  O   UNL     1     -38.359  -6.888  19.205  1.00  0.00    -0.384 OA
ATOM     16  H   UNL     1     -38.486  -7.405  18.366  1.00  0.00     0.211 HD
ENDBRANCH   7  15
ENDBRANCH   1   2
BRANCH   1  17
ATOM     17  C   UNL     1     -35.825  -6.181  22.196  1.00  0.00     0.172 A 
ATOM     18  C   UNL     1     -35.726  -4.971  22.908  1.00  0.00     0.201 A 
ATOM     19  C   UNL     1     -34.745  -7.082  22.221  1.00  0.00     0.098 A 
ATOM     20  C   UNL     1     -34.566  -4.665  23.639  1.00  0.00     0.176 A 
ATOM     21  C   UNL     1     -33.588  -6.786  22.944  1.00  0.00     0.146 A 
ATOM     22  C   UNL     1     -33.488  -5.577  23.664  1.00  0.00     0.111 A 
ATOM     23  O   UNL     1     -32.588  -7.662  22.948  1.00  0.00    -0.456 OA
ATOM     24  C   UNL     1     -32.294  -5.341  24.380  1.00  0.00     0.197 A 
ATOM     25  C   UNL     1     -31.452  -7.474  23.616  1.00  0.00     0.138 A 
ATOM     26  C   UNL     1     -31.273  -6.291  24.352  1.00  0.00     0.100 A 
ATOM     27  O   UNL     1     -32.125  -4.286  25.049  1.00  0.00    -0.289 OA
BRANCH  18  28
ATOM     28  O   UNL     1     -36.785  -4.061  22.900  1.00  0.00    -0.502 OA
ATOM     29  H   UNL     1     -37.239  -3.749  23.748  1.00  0.00     0.293 HD
ENDBRANCH  18  28
BRANCH  20  30
ATOM     30  O   UNL     1     -34.485  -3.457  24.334  1.00  0.00    -0.504 OA
ATOM     31  H   UNL     1     -35.192  -3.160  24.995  1.00  0.00     0.293 HD
ENDBRANCH  20  30
BRANCH  25  32
ATOM     32  C   UNL     1     -30.409  -8.528  23.553  1.00  0.00     0.017 A 
ATOM     33  C   UNL     1     -30.513  -9.546  22.586  1.00  0.00     0.012 A 
ATOM     34  C   UNL     1     -29.339  -8.571  24.471  1.00  0.00     0.012 A 
ATOM     35  C   UNL     1     -29.567 -10.575  22.531  1.00  0.00     0.001 A 
ATOM     36  C   UNL     1     -28.400  -9.605  24.412  1.00  0.00     0.001 A 
ATOM     37  C   UNL     1     -28.513 -10.606  23.444  1.00  0.00     0.000 A 
ENDBRANCH  25  32
ENDBRANCH   1  17
TORSDOF 9
ENDMDL
MODEL 6
REMARK VINA RESULT:    -6.885      2.419      4.657
REMARK INTER + INTRA:         -10.440
REMARK INTER:                 -10.106
REMARK INTRA:                  -0.335
REMARK UNBOUND:                -0.939
REMARK SMILES O=C([O-])[C@H]1O[C@@H](Oc2cc3oc(-c4ccccc4)cc(=O)c3c(O)c2O)[C@@H](O)[C@@H](O)[C@@H]1O
REMARK SMILES IDX 7 1 6 2 4 3 31 4 5 5 29 6 27 7 2 8 1 9 3 10 32 11 30 13
REMARK SMILES IDX 28 15 8 17 25 18 9 19 23 20 10 21 22 22 11 23 20 24 12 25
REMARK SMILES IDX 19 26 21 27 26 28 24 30 13 32 14 33 18 34 15 35 17 36 16 37
REMARK H PARENT 32 12 30 14 28 16 26 29 24 31
REMARK Flexibility Score: inf
ROOT
ATOM      1  O   UNL     1     -37.531 -10.278  20.643  1.00  0.00    -0.458 OA
ENDROOT
BRANCH   1   2
ATOM      2  C   UNL     1     -38.403  -9.396  19.927  1.00  0.00     0.339 C 
ATOM      3  C   UNL     1     -38.483  -7.336  18.828  1.00  0.00     0.199 C 
ATOM      4  C   UNL     1     -40.034  -7.305  19.034  1.00  0.00     0.180 C 
ATOM      5  O   UNL     1     -37.808  -8.116  19.804  1.00  0.00    -0.328 OA
ATOM      6  C   UNL     1     -40.423  -7.905  20.401  1.00  0.00     0.181 C 
ATOM      7  C   UNL     1     -39.820  -9.318  20.562  1.00  0.00     0.214 C 
BRANCH   3   8
ATOM      8  C   UNL     1     -37.920  -5.940  18.858  1.00  0.00     0.073 C 
ATOM      9  O   UNL     1     -38.316  -5.088  18.017  1.00  0.00    -0.547 OA
ATOM     10  O   UNL     1     -37.014  -5.561  19.844  1.00  0.00    -0.547 OA
ENDBRANCH   3   8
BRANCH   4  11
ATOM     11  O   UNL     1     -40.649  -8.039  18.002  1.00  0.00    -0.387 OA
ATOM     12  H   UNL     1     -41.045  -8.850  18.418  1.00  0.00     0.211 HD
ENDBRANCH   4  11
BRANCH   6  13
ATOM     13  O   UNL     1     -39.962  -7.058  21.426  1.00  0.00    -0.387 OA
ATOM     14  H   UNL     1     -39.251  -6.483  21.031  1.00  0.00     0.211 HD
ENDBRANCH   6  13
BRANCH   7  15
ATOM     15  O   UNL     1     -39.814  -9.676  21.923  1.00  0.00    -0.384 OA
ATOM     16  H   UNL     1     -39.125  -9.118  22.372  1.00  0.00     0.211 HD
ENDBRANCH   7  15
ENDBRANCH   1   2
BRANCH   1  17
ATOM     17  C   UNL     1     -36.212 -10.026  21.066  1.00  0.00     0.172 A 
ATOM     18  C   UNL     1     -35.409 -11.125  21.424  1.00  0.00     0.201 A 
ATOM     19  C   UNL     1     -35.673  -8.728  21.141  1.00  0.00     0.098 A 
ATOM     20  C   UNL     1     -34.083 -10.932  21.849  1.00  0.00     0.176 A 
ATOM     21  C   UNL     1     -34.358  -8.528  21.562  1.00  0.00     0.146 A 
ATOM     22  C   UNL     1     -33.547  -9.627  21.916  1.00  0.00     0.111 A 
ATOM     23  O   UNL     1     -33.880  -7.288  21.618  1.00  0.00    -0.456 OA
ATOM     24  C   UNL     1     -32.224  -9.357  22.327  1.00  0.00     0.197 A 
ATOM     25  C   UNL     1     -32.636  -6.998  21.995  1.00  0.00     0.138 A 
ATOM     26  C   UNL     1     -31.770  -8.039  22.370  1.00  0.00     0.100 A 
ATOM     27  O   UNL     1     -31.436 -10.283  22.659  1.00  0.00    -0.289 OA
BRANCH  18  28
ATOM     28  O   UNL     1     -35.920 -12.422  21.357  1.00  0.00    -0.502 OA
ATOM     29  H   UNL     1     -35.334 -13.229  21.187  1.00  0.00     0.293 HD
ENDBRANCH  18  28
BRANCH  20  30
ATOM     30  O   UNL     1     -33.305 -12.035  22.205  1.00  0.00    -0.504 OA
ATOM     31  H   UNL     1     -32.998 -12.727  21.533  1.00  0.00     0.293 HD
ENDBRANCH  20  30
BRANCH  25  32
ATOM     32  C   UNL     1     -32.213  -5.576  22.009  1.00  0.00     0.017 A 
ATOM     33  C   UNL     1     -33.063  -4.597  21.461  1.00  0.00     0.012 A 
ATOM     34  C   UNL     1     -30.956  -5.180  22.509  1.00  0.00     0.012 A 
ATOM     35  C   UNL     1     -32.671  -3.255  21.424  1.00  0.00     0.001 A 
ATOM     36  C   UNL     1     -30.569  -3.837  22.465  1.00  0.00     0.001 A 
ATOM     37  C   UNL     1     -31.425  -2.875  21.923  1.00  0.00     0.000 A 
ENDBRANCH  25  32
ENDBRANCH   1  17
TORSDOF 9
ENDMDL
MODEL 7
REMARK VINA RESULT:    -6.810      2.908      8.958
REMARK INTER + INTRA:         -10.336
REMARK INTER:                  -9.364
REMARK INTRA:                  -0.972
REMARK UNBOUND:                -0.939
REMARK SMILES O=C([O-])[C@H]1O[C@@H](Oc2cc3oc(-c4ccccc4)cc(=O)c3c(O)c2O)[C@@H](O)[C@@H](O)[C@@H]1O
REMARK SMILES IDX 7 1 6 2 4 3 31 4 5 5 29 6 27 7 2 8 1 9 3 10 32 11 30 13
REMARK SMILES IDX 28 15 8 17 25 18 9 19 23 20 10 21 22 22 11 23 20 24 12 25
REMARK SMILES IDX 19 26 21 27 26 28 24 30 13 32 14 33 18 34 15 35 17 36 16 37
REMARK H PARENT 32 12 30 14 28 16 26 29 24 31
REMARK Flexibility Score: inf
ROOT
ATOM      1  O   UNL     1     -31.882  -7.257  21.960  1.00  0.00    -0.458 OA
ENDROOT
BRANCH   1   2
ATOM      2  C   UNL     1     -31.868  -6.041  22.716  1.00  0.00     0.339 C 
ATOM      3  C   UNL     1     -30.861  -3.938  22.851  1.00  0.00     0.199 C 
ATOM      4  C   UNL     1     -31.267  -3.858  24.360  1.00  0.00     0.180 C 
ATOM      5  O   UNL     1     -30.727  -5.271  22.380  1.00  0.00    -0.328 OA
ATOM      6  C   UNL     1     -31.158  -5.240  25.036  1.00  0.00     0.181 C 
ATOM      7  C   UNL     1     -31.968  -6.293  24.247  1.00  0.00     0.214 C 
BRANCH   3   8
ATOM      8  C   UNL     1     -29.561  -3.215  22.617  1.00  0.00     0.073 C 
ATOM      9  O   UNL     1     -28.800  -2.964  23.590  1.00  0.00    -0.547 OA
ATOM     10  O   UNL     1     -29.160  -2.876  21.328  1.00  0.00    -0.547 OA
ENDBRANCH   3   8
BRANCH   4  11
ATOM     11  O   UNL     1     -32.590  -3.387  24.455  1.00  0.00    -0.387 OA
ATOM     12  H   UNL     1     -32.920  -3.259  23.526  1.00  0.00     0.211 HD
ENDBRANCH   4  11
BRANCH   6  13
ATOM     13  O   UNL     1     -29.804  -5.617  25.104  1.00  0.00    -0.387 OA
ATOM     14  H   UNL     1     -29.382  -5.344  24.243  1.00  0.00     0.211 HD
ENDBRANCH   6  13
BRANCH   7  15
ATOM     15  O   UNL     1     -31.536  -7.584  24.604  1.00  0.00    -0.384 OA
ATOM     16  H   UNL     1     -30.609  -7.500  24.952  1.00  0.00     0.211 HD
ENDBRANCH   7  15
ENDBRANCH   1   2
BRANCH   1  17
ATOM     17  C   UNL     1     -32.938  -8.181  21.840  1.00  0.00     0.172 A 
ATOM     18  C   UNL     1     -32.655  -9.543  22.054  1.00  0.00     0.201 A 
ATOM     19  C   UNL     1     -34.252  -7.796  21.518  1.00  0.00     0.098 A 
ATOM     20  C   UNL     1     -33.671 -10.508  21.953  1.00  0.00     0.176 A 
ATOM     21  C   UNL     1     -35.268  -8.747  21.414  1.00  0.00     0.146 A 
ATOM     22  C   UNL     1     -34.989 -10.113  21.635  1.00  0.00     0.111 A 
ATOM     23  O   UNL     1     -36.499  -8.347  21.112  1.00  0.00    -0.456 OA
ATOM     24  C   UNL     1     -36.062 -11.024  21.522  1.00  0.00     0.197 A 
ATOM     25  C   UNL     1     -37.533  -9.178  21.003  1.00  0.00     0.138 A 
ATOM     26  C   UNL     1     -37.336 -10.555  21.200  1.00  0.00     0.100 A 
ATOM     27  O   UNL     1     -35.897 -12.261  21.704  1.00  0.00    -0.289 OA
BRANCH  18  28
ATOM     28  O   UNL     1     -31.359  -9.951  22.376  1.00  0.00    -0.502 OA
ATOM     29  H   UNL     1     -30.932 -10.773  21.970  1.00  0.00     0.293 HD
ENDBRANCH  18  28
BRANCH  20  30
ATOM     30  O   UNL     1     -33.369 -11.855  22.163  1.00  0.00    -0.504 OA
ATOM     31  H   UNL     1     -34.082 -12.572  22.220  1.00  0.00     0.293 HD
ENDBRANCH  20  30
BRANCH  25  32
ATOM     32  C   UNL     1     -38.865  -8.613  20.668  1.00  0.00     0.017 A 
ATOM     33  C   UNL     1     -39.858  -8.550  21.664  1.00  0.00     0.012 A 
ATOM     34  C   UNL     1     -39.183  -8.185  19.363  1.00  0.00     0.012 A 
ATOM     35  C   UNL     1     -41.134  -8.061  21.365  1.00  0.00     0.001 A 
ATOM     36  C   UNL     1     -40.462  -7.700  19.072  1.00  0.00     0.001 A 
ATOM     37  C   UNL     1     -41.436  -7.638  20.071  1.00  0.00     0.000 A 
ENDBRANCH  25  32
ENDBRANCH   1  17
TORSDOF 9
ENDMDL
MODEL 8
REMARK VINA RESULT:    -6.780      2.688      8.580
REMARK INTER + INTRA:         -10.296
REMARK INTER:                  -9.856
REMARK INTRA:                  -0.439
REMARK UNBOUND:                -0.939
REMARK SMILES O=C([O-])[C@H]1O[C@@H](Oc2cc3oc(-c4ccccc4)cc(=O)c3c(O)c2O)[C@@H](O)[C@@H](O)[C@@H]1O
REMARK SMILES IDX 7 1 6 2 4 3 31 4 5 5 29 6 27 7 2 8 1 9 3 10 32 11 30 13
REMARK SMILES IDX 28 15 8 17 25 18 9 19 23 20 10 21 22 22 11 23 20 24 12 25
REMARK SMILES IDX 19 26 21 27 26 28 24 30 13 32 14 33 18 34 15 35 17 36 16 37
REMARK H PARENT 32 12 30 14 28 16 26 29 24 31
REMARK Flexibility Score: inf
ROOT
ATOM      1  O   UNL     1     -34.431 -10.736  22.370  1.00  0.00    -0.458 OA
ENDROOT
BRANCH   1   2
ATOM      2  C   UNL     1     -33.406  -9.972  23.013  1.00  0.00     0.339 C 
ATOM      3  C   UNL     1     -32.406  -7.861  23.069  1.00  0.00     0.199 C 
ATOM      4  C   UNL     1     -31.128  -8.502  23.706  1.00  0.00     0.180 C 
ATOM      5  O   UNL     1     -33.159  -8.779  22.290  1.00  0.00    -0.328 OA
ATOM      6  C   UNL     1     -30.853  -9.898  23.111  1.00  0.00     0.181 C 
ATOM      7  C   UNL     1     -32.105 -10.794  23.237  1.00  0.00     0.214 C 
BRANCH   3   8
ATOM      8  C   UNL     1     -32.031  -6.690  22.201  1.00  0.00     0.073 C 
ATOM      9  O   UNL     1     -31.318  -5.764  22.673  1.00  0.00    -0.547 OA
ATOM     10  O   UNL     1     -32.412  -6.649  20.863  1.00  0.00    -0.547 OA
ENDBRANCH   3   8
BRANCH   4  11
ATOM     11  O   UNL     1     -31.312  -8.607  25.098  1.00  0.00    -0.387 OA
ATOM     12  H   UNL     1     -31.948  -9.355  25.251  1.00  0.00     0.211 HD
ENDBRANCH   4  11
BRANCH   6  13
ATOM     13  O   UNL     1     -30.485  -9.761  21.759  1.00  0.00    -0.387 OA
ATOM     14  H   UNL     1     -31.025 -10.421  21.243  1.00  0.00     0.211 HD
ENDBRANCH   6  13
BRANCH   7  15
ATOM     15  O   UNL     1     -32.000 -11.878  22.345  1.00  0.00    -0.384 OA
ATOM     16  H   UNL     1     -32.226 -12.702  22.854  1.00  0.00     0.211 HD
ENDBRANCH   7  15
ENDBRANCH   1   2
BRANCH   1  17
ATOM     17  C   UNL     1     -35.584 -10.252  21.722  1.00  0.00     0.172 A 
ATOM     18  C   UNL     1     -36.713 -11.090  21.664  1.00  0.00     0.201 A 
ATOM     19  C   UNL     1     -35.648  -8.974  21.138  1.00  0.00     0.098 A 
ATOM     20  C   UNL     1     -37.893 -10.657  21.035  1.00  0.00     0.176 A 
ATOM     21  C   UNL     1     -36.814  -8.535  20.510  1.00  0.00     0.146 A 
ATOM     22  C   UNL     1     -37.951  -9.370  20.456  1.00  0.00     0.111 A 
ATOM     23  O   UNL     1     -36.840  -7.320  19.972  1.00  0.00    -0.456 OA
ATOM     24  C   UNL     1     -39.102  -8.864  19.813  1.00  0.00     0.197 A 
ATOM     25  C   UNL     1     -37.909  -6.811  19.364  1.00  0.00     0.138 A 
ATOM     26  C   UNL     1     -39.078  -7.583  19.262  1.00  0.00     0.100 A 
ATOM     27  O   UNL     1     -40.158  -9.546  19.722  1.00  0.00    -0.289 OA
BRANCH  18  28
ATOM     28  O   UNL     1     -36.677 -12.363  22.237  1.00  0.00    -0.502 OA
ATOM     29  H   UNL     1     -36.587 -12.507  23.234  1.00  0.00     0.293 HD
ENDBRANCH  18  28
BRANCH  20  30
ATOM     30  O   UNL     1     -39.000 -11.506  20.983  1.00  0.00    -0.504 OA
ATOM     31  H   UNL     1     -39.909 -11.197  20.660  1.00  0.00     0.293 HD
ENDBRANCH  20  30
BRANCH  25  32
ATOM     32  C   UNL     1     -37.821  -5.437  18.808  1.00  0.00     0.017 A 
ATOM     33  C   UNL     1     -38.516  -5.125  17.624  1.00  0.00     0.012 A 
ATOM     34  C   UNL     1     -37.016  -4.445  19.404  1.00  0.00     0.012 A 
ATOM     35  C   UNL     1     -38.417  -3.851  17.056  1.00  0.00     0.001 A 
ATOM     36  C   UNL     1     -36.920  -3.174  18.827  1.00  0.00     0.001 A 
ATOM     37  C   UNL     1     -37.619  -2.877  17.656  1.00  0.00     0.000 A 
ENDBRANCH  25  32
ENDBRANCH   1  17
TORSDOF 9
ENDMDL
MODEL 9
REMARK VINA RESULT:    -6.215      2.388      4.876
REMARK INTER + INTRA:          -9.516
REMARK INTER:                  -8.840
REMARK INTRA:                  -0.676
REMARK UNBOUND:                -0.939
REMARK SMILES O=C([O-])[C@H]1O[C@@H](Oc2cc3oc(-c4ccccc4)cc(=O)c3c(O)c2O)[C@@H](O)[C@@H](O)[C@@H]1O
REMARK SMILES IDX 7 1 6 2 4 3 31 4 5 5 29 6 27 7 2 8 1 9 3 10 32 11 30 13
REMARK SMILES IDX 28 15 8 17 25 18 9 19 23 20 10 21 22 22 11 23 20 24 12 25
REMARK SMILES IDX 19 26 21 27 26 28 24 30 13 32 14 33 18 34 15 35 17 36 16 37
REMARK H PARENT 32 12 30 14 28 16 26 29 24 31
REMARK Flexibility Score: inf
ROOT
ATOM      1  O   UNL     1     -35.356  -9.625  21.268  1.00  0.00    -0.458 OA
ENDROOT
BRANCH   1   2
ATOM      2  C   UNL     1     -36.088  -8.596  20.593  1.00  0.00     0.339 C 
ATOM      3  C   UNL     1     -36.535  -6.303  20.611  1.00  0.00     0.199 C 
ATOM      4  C   UNL     1     -37.852  -6.570  19.807  1.00  0.00     0.180 C 
ATOM      5  O   UNL     1     -36.118  -7.420  21.383  1.00  0.00    -0.328 OA
ATOM      6  C   UNL     1     -38.520  -7.884  20.261  1.00  0.00     0.181 C 
ATOM      7  C   UNL     1     -37.515  -9.056  20.183  1.00  0.00     0.214 C 
BRANCH   3   8
ATOM      8  C   UNL     1     -36.711  -5.124  21.531  1.00  0.00     0.073 C 
ATOM      9  O   UNL     1     -37.128  -5.304  22.706  1.00  0.00    -0.547 OA
ATOM     10  O   UNL     1     -36.356  -3.843  21.118  1.00  0.00    -0.547 OA
ENDBRANCH   3   8
BRANCH   4  11
ATOM     11  O   UNL     1     -37.545  -6.643  18.435  1.00  0.00    -0.387 OA
ATOM     12  H   UNL     1     -36.971  -5.859  18.224  1.00  0.00     0.211 HD
ENDBRANCH   4  11
BRANCH   6  13
ATOM     13  O   UNL     1     -38.992  -7.733  21.578  1.00  0.00    -0.387 OA
ATOM     14  H   UNL     1     -38.540  -6.931  21.959  1.00  0.00     0.211 HD
ENDBRANCH   6  13
BRANCH   7  15
ATOM     15  O   UNL     1     -37.978 -10.126  20.971  1.00  0.00    -0.384 OA
ATOM     16  H   UNL     1     -37.981 -10.937  20.396  1.00  0.00     0.211 HD
ENDBRANCH   7  15
ENDBRANCH   1   2
BRANCH   1  17
ATOM     17  C   UNL     1     -34.087  -9.522  21.869  1.00  0.00     0.172 A 
ATOM     18  C   UNL     1     -33.393 -10.711  22.161  1.00  0.00     0.201 A 
ATOM     19  C   UNL     1     -33.492  -8.286  22.182  1.00  0.00     0.098 A 
ATOM     20  C   UNL     1     -32.120 -10.668  22.755  1.00  0.00     0.176 A 
ATOM     21  C   UNL     1     -32.229  -8.234  22.774  1.00  0.00     0.146 A 
ATOM     22  C   UNL     1     -31.528  -9.424  23.062  1.00  0.00     0.111 A 
ATOM     23  O   UNL     1     -31.696  -7.049  23.054  1.00  0.00    -0.456 OA
ATOM     24  C   UNL     1     -30.251  -9.302  23.654  1.00  0.00     0.197 A 
ATOM     25  C   UNL     1     -30.493  -6.898  23.606  1.00  0.00     0.138 A 
ATOM     26  C   UNL     1     -29.736  -8.036  23.930  1.00  0.00     0.100 A 
ATOM     27  O   UNL     1     -29.560 -10.316  23.942  1.00  0.00    -0.289 OA
BRANCH  18  28
ATOM     28  O   UNL     1     -33.961 -11.950  21.858  1.00  0.00    -0.502 OA
ATOM     29  H   UNL     1     -34.529 -12.101  21.035  1.00  0.00     0.293 HD
ENDBRANCH  18  28
BRANCH  20  30
ATOM     30  O   UNL     1     -31.451 -11.860  23.043  1.00  0.00    -0.504 OA
ATOM     31  H   UNL     1     -31.932 -12.746  23.134  1.00  0.00     0.293 HD
ENDBRANCH  20  30
BRANCH  25  32
ATOM     32  C   UNL     1     -29.999  -5.522  23.864  1.00  0.00     0.017 A 
ATOM     33  C   UNL     1     -30.916  -4.513  24.213  1.00  0.00     0.012 A 
ATOM     34  C   UNL     1     -28.639  -5.182  23.717  1.00  0.00     0.012 A 
ATOM     35  C   UNL     1     -30.483  -3.199  24.421  1.00  0.00     0.001 A 
ATOM     36  C   UNL     1     -28.215  -3.865  23.923  1.00  0.00     0.001 A 
ATOM     37  C   UNL     1     -29.134  -2.875  24.274  1.00  0.00     0.000 A 
ENDBRANCH  25  32
ENDBRANCH   1  17
TORSDOF 9
ENDMDL
