MODEL 1
REMARK VINA RESULT:    -5.862      0.000      0.000
REMARK INTER + INTRA:          -8.835
REMARK INTER:                  -8.604
REMARK INTRA:                  -0.231
REMARK UNBOUND:                -0.231
REMARK SMILES O=C([O-])CCCCCCCC(=O)[O-]
REMARK SMILES IDX 7 1 6 2 5 3 4 4 2 5 1 6 3 7 8 8 9 9 10 10 11 11 12 12 13 13
REMARK H PARENT
REMARK Flexibility Score: inf
ROOT
ATOM      1  C   UNL     1      93.876 121.245 120.917  1.00  0.00     0.000 C 
ENDROOT
BRANCH   1   2
ATOM      2  C   UNL     1      94.906 121.085 119.794  1.00  0.00     0.000 C 
BRANCH   2   3
ATOM      3  C   UNL     1      94.220 121.016 118.422  1.00  0.00     0.006 C 
BRANCH   3   4
ATOM      4  C   UNL     1      92.852 121.711 118.420  1.00  0.00     0.053 C 
BRANCH   4   5
ATOM      5  C   UNL     1      92.576 122.389 117.113  1.00  0.00     0.041 C 
ATOM      6  O   UNL     1      92.176 121.720 116.124  1.00  0.00    -0.550 OA
ATOM      7  O   UNL     1      92.729 123.765 116.998  1.00  0.00    -0.550 OA
ENDBRANCH   4   5
ENDBRANCH   3   4
ENDBRANCH   2   3
ENDBRANCH   1   2
BRANCH   1   8
ATOM      8  C   UNL     1      94.568 121.419 122.277  1.00  0.00     0.000 C 
BRANCH   8   9
ATOM      9  C   UNL     1      95.847 122.267 122.187  1.00  0.00     0.006 C 
BRANCH   9  10
ATOM     10  C   UNL     1      96.409 122.638 123.565  1.00  0.00     0.053 C 
BRANCH  10  11
ATOM     11  C   UNL     1      95.770 123.893 124.069  1.00  0.00     0.041 C 
ATOM     12  O   UNL     1      94.543 123.911 124.351  1.00  0.00    -0.550 OA
ATOM     13  O   UNL     1      96.540 125.031 124.276  1.00  0.00    -0.550 OA
ENDBRANCH  10  11
ENDBRANCH   9  10
ENDBRANCH   8   9
ENDBRANCH   1   8
TORSDOF 8
ENDMDL
MODEL 2
REMARK VINA RESULT:    -5.742      0.628      6.708
REMARK INTER + INTRA:          -8.658
REMARK INTER:                  -8.373
REMARK INTRA:                  -0.285
REMARK UNBOUND:                -0.231
REMARK SMILES O=C([O-])CCCCCCCC(=O)[O-]
REMARK SMILES IDX 7 1 6 2 5 3 4 4 2 5 1 6 3 7 8 8 9 9 10 10 11 11 12 12 13 13
REMARK H PARENT
REMARK Flexibility Score: inf
ROOT
ATOM      1  C   UNL     1      93.866 121.252 120.896  1.00  0.00     0.000 C 
ENDROOT
BRANCH   1   2
ATOM      2  C   UNL     1      94.437 121.514 122.294  1.00  0.00     0.000 C 
BRANCH   2   3
ATOM      3  C   UNL     1      95.744 122.317 122.215  1.00  0.00     0.006 C 
BRANCH   3   4
ATOM      4  C   UNL     1      96.541 122.261 123.524  1.00  0.00     0.053 C 
BRANCH   4   5
ATOM      5  C   UNL     1      96.239 123.432 124.409  1.00  0.00     0.041 C 
ATOM      6  O   UNL     1      97.047 123.768 125.314  1.00  0.00    -0.550 OA
ATOM      7  O   UNL     1      95.079 124.171 124.211  1.00  0.00    -0.550 OA
ENDBRANCH   4   5
ENDBRANCH   3   4
ENDBRANCH   2   3
ENDBRANCH   1   2
BRANCH   1   8
ATOM      8  C   UNL     1      94.992 121.034 119.875  1.00  0.00     0.000 C 
BRANCH   8   9
ATOM      9  C   UNL     1      94.478 120.996 118.427  1.00  0.00     0.006 C 
BRANCH   9  10
ATOM     10  C   UNL     1      92.986 121.340 118.320  1.00  0.00     0.053 C 
BRANCH  10  11
ATOM     11  C   UNL     1      92.692 121.984 117.002  1.00  0.00     0.041 C 
ATOM     12  O   UNL     1      92.602 121.284 115.960  1.00  0.00    -0.550 OA
ATOM     13  O   UNL     1      92.467 123.353 116.933  1.00  0.00    -0.550 OA
ENDBRANCH  10  11
ENDBRANCH   9  10
ENDBRANCH   8   9
ENDBRANCH   1   8
TORSDOF 8
ENDMDL
MODEL 3
REMARK VINA RESULT:    -5.311      1.888      7.354
REMARK INTER + INTRA:          -8.026
REMARK INTER:                  -7.808
REMARK INTRA:                  -0.218
REMARK UNBOUND:                -0.231
REMARK SMILES O=C([O-])CCCCCCCC(=O)[O-]
REMARK SMILES IDX 7 1 6 2 5 3 4 4 2 5 1 6 3 7 8 8 9 9 10 10 11 11 12 12 13 13
REMARK H PARENT
REMARK Flexibility Score: inf
ROOT
ATOM      1  C   UNL     1      96.147 122.176 123.142  1.00  0.00     0.000 C 
ENDROOT
BRANCH   1   2
ATOM      2  C   UNL     1      95.275 123.317 123.678  1.00  0.00     0.000 C 
BRANCH   2   3
ATOM      3  C   UNL     1      96.139 124.476 124.197  1.00  0.00     0.006 C 
BRANCH   3   4
ATOM      4  C   UNL     1      96.791 124.155 125.548  1.00  0.00     0.053 C 
BRANCH   4   5
ATOM      5  C   UNL     1      97.710 125.250 125.995  1.00  0.00     0.041 C 
ATOM      6  O   UNL     1      98.431 125.095 127.015  1.00  0.00    -0.550 OA
ATOM      7  O   UNL     1      97.793 126.429 125.264  1.00  0.00    -0.550 OA
ENDBRANCH   4   5
ENDBRANCH   3   4
ENDBRANCH   2   3
ENDBRANCH   1   2
BRANCH   1   8
ATOM      8  C   UNL     1      96.084 122.111 121.609  1.00  0.00     0.000 C 
BRANCH   8   9
ATOM      9  C   UNL     1      94.786 121.467 121.097  1.00  0.00     0.006 C 
BRANCH   9  10
ATOM     10  C   UNL     1      94.899 120.984 119.645  1.00  0.00     0.053 C 
BRANCH  10  11
ATOM     11  C   UNL     1      93.635 121.272 118.899  1.00  0.00     0.041 C 
ATOM     12  O   UNL     1      92.663 121.818 119.485  1.00  0.00    -0.550 OA
ATOM     13  O   UNL     1      93.547 120.984 117.542  1.00  0.00    -0.550 OA
ENDBRANCH  10  11
ENDBRANCH   9  10
ENDBRANCH   8   9
ENDBRANCH   1   8
TORSDOF 8
ENDMDL
MODEL 4
REMARK VINA RESULT:    -5.100      3.178      4.902
REMARK INTER + INTRA:          -7.716
REMARK INTER:                  -7.500
REMARK INTRA:                  -0.215
REMARK UNBOUND:                -0.231
REMARK SMILES O=C([O-])CCCCCCCC(=O)[O-]
REMARK SMILES IDX 7 1 6 2 5 3 4 4 2 5 1 6 3 7 8 8 9 9 10 10 11 11 12 12 13 13
REMARK H PARENT
REMARK Flexibility Score: inf
ROOT
ATOM      1  C   UNL     1      96.200 124.443 124.303  1.00  0.00     0.000 C 
ENDROOT
BRANCH   1   2
ATOM      2  C   UNL     1      95.026 123.498 124.025  1.00  0.00     0.000 C 
BRANCH   2   3
ATOM      3  C   UNL     1      95.343 122.553 122.857  1.00  0.00     0.006 C 
BRANCH   3   4
ATOM      4  C   UNL     1      94.180 121.602 122.546  1.00  0.00     0.053 C 
BRANCH   4   5
ATOM      5  C   UNL     1      93.969 121.447 121.071  1.00  0.00     0.041 C 
ATOM      6  O   UNL     1      92.834 121.658 120.568  1.00  0.00    -0.550 OA
ATOM      7  O   UNL     1      95.034 121.101 120.249  1.00  0.00    -0.550 OA
ENDBRANCH   4   5
ENDBRANCH   3   4
ENDBRANCH   2   3
ENDBRANCH   1   2
BRANCH   1   8
ATOM      8  C   UNL     1      96.915 124.062 125.608  1.00  0.00     0.000 C 
BRANCH   8   9
ATOM      9  C   UNL     1      97.787 125.201 126.160  1.00  0.00     0.006 C 
BRANCH   9  10
ATOM     10  C   UNL     1      97.862 126.402 125.207  1.00  0.00     0.053 C 
BRANCH  10  11
ATOM     11  C   UNL     1      99.035 127.266 125.548  1.00  0.00     0.041 C 
ATOM     12  O   UNL     1     100.139 127.094 124.966  1.00  0.00    -0.550 OA
ATOM     13  O   UNL     1      98.897 128.293 126.472  1.00  0.00    -0.550 OA
ENDBRANCH  10  11
ENDBRANCH   9  10
ENDBRANCH   8   9
ENDBRANCH   1   8
TORSDOF 8
ENDMDL
MODEL 5
REMARK VINA RESULT:    -5.058      3.146      7.937
REMARK INTER + INTRA:          -7.655
REMARK INTER:                  -7.420
REMARK INTRA:                  -0.234
REMARK UNBOUND:                -0.231
REMARK SMILES O=C([O-])CCCCCCCC(=O)[O-]
REMARK SMILES IDX 7 1 6 2 5 3 4 4 2 5 1 6 3 7 8 8 9 9 10 10 11 11 12 12 13 13
REMARK H PARENT
REMARK Flexibility Score: inf
ROOT
ATOM      1  C   UNL     1      96.195 124.428 124.341  1.00  0.00     0.000 C 
ENDROOT
BRANCH   1   2
ATOM      2  C   UNL     1      96.875 123.898 125.608  1.00  0.00     0.000 C 
BRANCH   2   3
ATOM      3  C   UNL     1      97.627 125.020 126.340  1.00  0.00     0.006 C 
BRANCH   3   4
ATOM      4  C   UNL     1      97.994 126.180 125.405  1.00  0.00     0.053 C 
BRANCH   4   5
ATOM      5  C   UNL     1      98.412 127.398 126.171  1.00  0.00     0.041 C 
ATOM      6  O   UNL     1      99.461 128.018 125.852  1.00  0.00    -0.550 OA
ATOM      7  O   UNL     1      97.625 127.866 127.215  1.00  0.00    -0.550 OA
ENDBRANCH   4   5
ENDBRANCH   3   4
ENDBRANCH   2   3
ENDBRANCH   1   2
BRANCH   1   8
ATOM      8  C   UNL     1      95.077 123.480 123.879  1.00  0.00     0.000 C 
BRANCH   8   9
ATOM      9  C   UNL     1      95.533 122.528 122.762  1.00  0.00     0.006 C 
BRANCH   9  10
ATOM     10  C   UNL     1      94.530 121.396 122.504  1.00  0.00     0.053 C 
BRANCH  10  11
ATOM     11  C   UNL     1      94.077 121.415 121.079  1.00  0.00     0.041 C 
ATOM     12  O   UNL     1      92.866 121.625 120.801  1.00  0.00    -0.550 OA
ATOM     13  O   UNL     1      95.000 121.250 120.054  1.00  0.00    -0.550 OA
ENDBRANCH  10  11
ENDBRANCH   9  10
ENDBRANCH   8   9
ENDBRANCH   1   8
TORSDOF 8
ENDMDL
MODEL 6
REMARK VINA RESULT:    -4.918      3.613      5.893
REMARK INTER + INTRA:          -7.449
REMARK INTER:                  -7.180
REMARK INTRA:                  -0.269
REMARK UNBOUND:                -0.231
REMARK SMILES O=C([O-])CCCCCCCC(=O)[O-]
REMARK SMILES IDX 7 1 6 2 5 3 4 4 2 5 1 6 3 7 8 8 9 9 10 10 11 11 12 12 13 13
REMARK H PARENT
REMARK Flexibility Score: inf
ROOT
ATOM      1  C   UNL     1      97.004 123.946 125.514  1.00  0.00     0.000 C 
ENDROOT
BRANCH   1   2
ATOM      2  C   UNL     1      96.162 124.466 124.344  1.00  0.00     0.000 C 
BRANCH   2   3
ATOM      3  C   UNL     1      95.095 123.441 123.933  1.00  0.00     0.006 C 
BRANCH   3   4
ATOM      4  C   UNL     1      95.595 122.489 122.839  1.00  0.00     0.053 C 
BRANCH   4   5
ATOM      5  C   UNL     1      94.460 121.849 122.099  1.00  0.00     0.041 C 
ATOM      6  O   UNL     1      94.675 121.216 121.032  1.00  0.00    -0.550 OA
ATOM      7  O   UNL     1      93.169 121.924 122.608  1.00  0.00    -0.550 OA
ENDBRANCH   4   5
ENDBRANCH   3   4
ENDBRANCH   2   3
ENDBRANCH   1   2
BRANCH   1   8
ATOM      8  C   UNL     1      97.716 125.101 126.235  1.00  0.00     0.000 C 
BRANCH   8   9
ATOM      9  C   UNL     1      97.940 126.318 125.324  1.00  0.00     0.006 C 
BRANCH   9  10
ATOM     10  C   UNL     1      98.336 127.577 126.106  1.00  0.00     0.053 C 
BRANCH  10  11
ATOM     11  C   UNL     1      99.685 128.058 125.674  1.00  0.00     0.041 C 
ATOM     12  O   UNL     1     100.291 127.485 124.730  1.00  0.00    -0.550 OA
ATOM     13  O   UNL     1     100.254 129.171 126.281  1.00  0.00    -0.550 OA
ENDBRANCH  10  11
ENDBRANCH   9  10
ENDBRANCH   8   9
ENDBRANCH   1   8
TORSDOF 8
ENDMDL
MODEL 7
REMARK VINA RESULT:    -4.910      3.537      8.154
REMARK INTER + INTRA:          -7.437
REMARK INTER:                  -7.143
REMARK INTRA:                  -0.294
REMARK UNBOUND:                -0.231
REMARK SMILES O=C([O-])CCCCCCCC(=O)[O-]
REMARK SMILES IDX 7 1 6 2 5 3 4 4 2 5 1 6 3 7 8 8 9 9 10 10 11 11 12 12 13 13
REMARK H PARENT
REMARK Flexibility Score: inf
ROOT
ATOM      1  C   UNL     1      96.829 123.855 125.490  1.00  0.00     0.000 C 
ENDROOT
BRANCH   1   2
ATOM      2  C   UNL     1      97.636 124.990 126.131  1.00  0.00     0.000 C 
BRANCH   2   3
ATOM      3  C   UNL     1      97.742 126.194 125.183  1.00  0.00     0.006 C 
BRANCH   3   4
ATOM      4  C   UNL     1      98.124 127.483 125.923  1.00  0.00     0.053 C 
BRANCH   4   5
ATOM      5  C   UNL     1      99.543 127.879 125.650  1.00  0.00     0.041 C 
ATOM      6  O   UNL     1     100.246 127.210 124.848  1.00  0.00    -0.550 OA
ATOM      7  O   UNL     1     100.078 129.009 126.258  1.00  0.00    -0.550 OA
ENDBRANCH   4   5
ENDBRANCH   3   4
ENDBRANCH   2   3
ENDBRANCH   1   2
BRANCH   1   8
ATOM      8  C   UNL     1      96.137 124.332 124.204  1.00  0.00     0.000 C 
BRANCH   8   9
ATOM      9  C   UNL     1      95.138 123.301 123.653  1.00  0.00     0.006 C 
BRANCH   9  10
ATOM     10  C   UNL     1      95.760 122.384 122.592  1.00  0.00     0.053 C 
BRANCH  10  11
ATOM     11  C   UNL     1      94.691 121.730 121.775  1.00  0.00     0.041 C 
ATOM     12  O   UNL     1      93.516 121.645 122.220  1.00  0.00    -0.550 OA
ATOM     13  O   UNL     1      94.981 121.258 120.501  1.00  0.00    -0.550 OA
ENDBRANCH  10  11
ENDBRANCH   9  10
ENDBRANCH   8   9
ENDBRANCH   1   8
TORSDOF 8
ENDMDL
MODEL 8
REMARK VINA RESULT:    -4.897      2.416      3.548
REMARK INTER + INTRA:          -7.418
REMARK INTER:                  -7.216
REMARK INTRA:                  -0.202
REMARK UNBOUND:                -0.231
REMARK SMILES O=C([O-])CCCCCCCC(=O)[O-]
REMARK SMILES IDX 7 1 6 2 5 3 4 4 2 5 1 6 3 7 8 8 9 9 10 10 11 11 12 12 13 13
REMARK H PARENT
REMARK Flexibility Score: inf
ROOT
ATOM      1  C   UNL     1      96.349 122.480 123.502  1.00  0.00     0.000 C 
ENDROOT
BRANCH   1   2
ATOM      2  C   UNL     1      95.777 122.220 122.104  1.00  0.00     0.000 C 
BRANCH   2   3
ATOM      3  C   UNL     1      94.532 121.324 122.176  1.00  0.00     0.006 C 
BRANCH   3   4
ATOM      4  C   UNL     1      93.313 121.970 121.504  1.00  0.00     0.053 C 
BRANCH   4   5
ATOM      5  C   UNL     1      93.205 121.583 120.061  1.00  0.00     0.041 C 
ATOM      6  O   UNL     1      92.195 121.920 119.388  1.00  0.00    -0.550 OA
ATOM      7  O   UNL     1      94.235 120.879 119.451  1.00  0.00    -0.550 OA
ENDBRANCH   4   5
ENDBRANCH   3   4
ENDBRANCH   2   3
ENDBRANCH   1   2
BRANCH   1   8
ATOM      8  C   UNL     1      95.599 123.626 124.198  1.00  0.00     0.000 C 
BRANCH   8   9
ATOM      9  C   UNL     1      96.533 124.766 124.633  1.00  0.00     0.006 C 
BRANCH   9  10
ATOM     10  C   UNL     1      97.345 124.420 125.888  1.00  0.00     0.053 C 
BRANCH  10  11
ATOM     11  C   UNL     1      98.039 125.636 126.414  1.00  0.00     0.041 C 
ATOM     12  O   UNL     1      97.973 125.924 127.638  1.00  0.00    -0.550 OA
ATOM     13  O   UNL     1      98.801 126.424 125.561  1.00  0.00    -0.550 OA
ENDBRANCH  10  11
ENDBRANCH   9  10
ENDBRANCH   8   9
ENDBRANCH   1   8
TORSDOF 8
ENDMDL
MODEL 9
REMARK VINA RESULT:    -4.767      4.113      6.678
REMARK INTER + INTRA:          -7.227
REMARK INTER:                  -6.866
REMARK INTRA:                  -0.362
REMARK UNBOUND:                -0.231
REMARK SMILES O=C([O-])CCCCCCCC(=O)[O-]
REMARK SMILES IDX 7 1 6 2 5 3 4 4 2 5 1 6 3 7 8 8 9 9 10 10 11 11 12 12 13 13
REMARK H PARENT
REMARK Flexibility Score: inf
ROOT
ATOM      1  C   UNL     1      97.767 124.942 126.015  1.00  0.00     0.000 C 
ENDROOT
BRANCH   1   2
ATOM      2  C   UNL     1      96.849 123.816 125.526  1.00  0.00     0.000 C 
BRANCH   2   3
ATOM      3  C   UNL     1      95.981 124.284 124.349  1.00  0.00     0.006 C 
BRANCH   3   4
ATOM      4  C   UNL     1      95.572 123.125 123.431  1.00  0.00     0.053 C 
BRANCH   4   5
ATOM      5  C   UNL     1      94.093 122.892 123.457  1.00  0.00     0.041 C 
ATOM      6  O   UNL     1      93.438 123.089 124.515  1.00  0.00    -0.550 OA
ATOM      7  O   UNL     1      93.433 122.487 122.304  1.00  0.00    -0.550 OA
ENDBRANCH   4   5
ENDBRANCH   3   4
ENDBRANCH   2   3
ENDBRANCH   1   2
BRANCH   1   8
ATOM      8  C   UNL     1      97.649 126.179 125.112  1.00  0.00     0.000 C 
BRANCH   8   9
ATOM      9  C   UNL     1      98.631 127.294 125.505  1.00  0.00     0.006 C 
BRANCH   9  10
ATOM     10  C   UNL     1     100.044 126.765 125.786  1.00  0.00     0.053 C 
BRANCH  10  11
ATOM     11  C   UNL     1     100.996 127.236 124.733  1.00  0.00     0.041 C 
ATOM     12  O   UNL     1     100.816 128.345 124.164  1.00  0.00    -0.550 OA
ATOM     13  O   UNL     1     102.112 126.472 124.414  1.00  0.00    -0.550 OA
ENDBRANCH  10  11
ENDBRANCH   9  10
ENDBRANCH   8   9
ENDBRANCH   1   8
TORSDOF 8
ENDMDL
