MODEL 1
REMARK VINA RESULT:    -3.459      0.000      0.000
REMARK INTER + INTRA:          -4.795
REMARK INTER:                  -4.470
REMARK INTRA:                  -0.324
REMARK UNBOUND:                -0.324
REMARK SMILES CCCCCCC(=O)[O-]
REMARK SMILES IDX 5 1 6 2 7 3 8 4 9 5 4 6 3 7 2 8 1 9
REMARK H PARENT
REMARK Flexibility Score: inf
ROOT
ATOM      1  C   UNL     1      12.321  73.643  46.193  1.00  0.00     0.006 C 
ENDROOT
BRANCH   1   2
ATOM      2  C   UNL     1      11.635  74.912  46.728  1.00  0.00     0.053 C 
BRANCH   2   3
ATOM      3  C   UNL     1      10.923  75.676  45.653  1.00  0.00     0.041 C 
ATOM      4  O   UNL     1      11.046  75.335  44.446  1.00  0.00    -0.550 OA
ATOM      5  O   UNL     1      10.153  76.786  45.977  1.00  0.00    -0.550 OA
ENDBRANCH   2   3
ENDBRANCH   1   2
BRANCH   1   6
ATOM      6  C   UNL     1      11.606  72.336  46.582  1.00  0.00     0.000 C 
BRANCH   6   7
ATOM      7  C   UNL     1      10.786  71.731  45.430  1.00  0.00    -0.000 C 
BRANCH   7   8
ATOM      8  C   UNL     1      11.640  71.452  44.184  1.00  0.00    -0.003 C 
ATOM      9  C   UNL     1      11.113  72.160  42.936  1.00  0.00     0.004 C 
ENDBRANCH   7   8
ENDBRANCH   6   7
ENDBRANCH   1   6
TORSDOF 5
ENDMDL
MODEL 2
REMARK VINA RESULT:    -3.427      2.303      4.028
REMARK INTER + INTRA:          -4.753
REMARK INTER:                  -4.402
REMARK INTRA:                  -0.350
REMARK UNBOUND:                -0.324
REMARK SMILES CCCCCCC(=O)[O-]
REMARK SMILES IDX 5 1 6 2 7 3 8 4 9 5 4 6 3 7 2 8 1 9
REMARK H PARENT
REMARK Flexibility Score: inf
ROOT
ATOM      1  C   UNL     1      11.335  71.915  46.357  1.00  0.00     0.006 C 
ENDROOT
BRANCH   1   2
ATOM      2  C   UNL     1      10.482  71.486  45.151  1.00  0.00     0.053 C 
BRANCH   2   3
ATOM      3  C   UNL     1      11.299  71.297  43.908  1.00  0.00     0.041 C 
ATOM      4  O   UNL     1      12.116  70.342  43.826  1.00  0.00    -0.550 OA
ATOM      5  O   UNL     1      11.186  72.196  42.855  1.00  0.00    -0.550 OA
ENDBRANCH   2   3
ENDBRANCH   1   2
BRANCH   1   6
ATOM      6  C   UNL     1      12.133  73.212  46.127  1.00  0.00     0.000 C 
BRANCH   6   7
ATOM      7  C   UNL     1      11.657  74.378  47.010  1.00  0.00    -0.000 C 
BRANCH   7   8
ATOM      8  C   UNL     1      11.199  75.592  46.188  1.00  0.00    -0.003 C 
ATOM      9  C   UNL     1      11.135  75.298  44.689  1.00  0.00     0.004 C 
ENDBRANCH   7   8
ENDBRANCH   6   7
ENDBRANCH   1   6
TORSDOF 5
ENDMDL
MODEL 3
REMARK VINA RESULT:    -3.258      7.630      8.610
REMARK INTER + INTRA:          -4.535
REMARK INTER:                  -4.441
REMARK INTRA:                  -0.093
REMARK UNBOUND:                -0.324
REMARK SMILES CCCCCCC(=O)[O-]
REMARK SMILES IDX 5 1 6 2 7 3 8 4 9 5 4 6 3 7 2 8 1 9
REMARK H PARENT
REMARK Flexibility Score: inf
ROOT
ATOM      1  C   UNL     1      10.274  80.355  39.775  1.00  0.00     0.006 C 
ENDROOT
BRANCH   1   2
ATOM      2  C   UNL     1      11.647  80.761  40.338  1.00  0.00     0.053 C 
BRANCH   2   3
ATOM      3  C   UNL     1      11.858  80.279  41.741  1.00  0.00     0.041 C 
ATOM      4  O   UNL     1      11.385  79.171  42.108  1.00  0.00    -0.550 OA
ATOM      5  O   UNL     1      12.545  81.068  42.655  1.00  0.00    -0.550 OA
ENDBRANCH   2   3
ENDBRANCH   1   2
BRANCH   1   6
ATOM      6  C   UNL     1      10.308  79.917  38.300  1.00  0.00     0.000 C 
BRANCH   6   7
ATOM      7  C   UNL     1       9.527  78.618  38.038  1.00  0.00    -0.000 C 
BRANCH   7   8
ATOM      8  C   UNL     1       9.516  78.226  36.553  1.00  0.00    -0.003 C 
ATOM      9  C   UNL     1      10.433  77.041  36.249  1.00  0.00     0.004 C 
ENDBRANCH   7   8
ENDBRANCH   6   7
ENDBRANCH   1   6
TORSDOF 5
ENDMDL
MODEL 4
REMARK VINA RESULT:    -3.194      7.528      8.522
REMARK INTER + INTRA:          -4.451
REMARK INTER:                  -4.264
REMARK INTRA:                  -0.188
REMARK UNBOUND:                -0.324
REMARK SMILES CCCCCCC(=O)[O-]
REMARK SMILES IDX 5 1 6 2 7 3 8 4 9 5 4 6 3 7 2 8 1 9
REMARK H PARENT
REMARK Flexibility Score: inf
ROOT
ATOM      1  C   UNL     1       7.613  80.907  45.029  1.00  0.00     0.006 C 
ENDROOT
BRANCH   1   2
ATOM      2  C   UNL     1       7.192  80.892  46.508  1.00  0.00     0.053 C 
BRANCH   2   3
ATOM      3  C   UNL     1       6.956  79.504  47.024  1.00  0.00     0.041 C 
ATOM      4  O   UNL     1       5.783  79.052  47.112  1.00  0.00    -0.550 OA
ATOM      5  O   UNL     1       8.025  78.723  47.442  1.00  0.00    -0.550 OA
ENDBRANCH   2   3
ENDBRANCH   1   2
BRANCH   1   6
ATOM      6  C   UNL     1       7.950  82.310  44.491  1.00  0.00     0.000 C 
BRANCH   6   7
ATOM      7  C   UNL     1       9.279  82.356  43.719  1.00  0.00    -0.000 C 
BRANCH   7   8
ATOM      8  C   UNL     1      10.262  81.267  44.173  1.00  0.00    -0.003 C 
ATOM      9  C   UNL     1      11.581  81.840  44.690  1.00  0.00     0.004 C 
ENDBRANCH   7   8
ENDBRANCH   6   7
ENDBRANCH   1   6
TORSDOF 5
ENDMDL
MODEL 5
REMARK VINA RESULT:    -3.191      7.833      9.487
REMARK INTER + INTRA:          -4.448
REMARK INTER:                  -4.353
REMARK INTRA:                  -0.095
REMARK UNBOUND:                -0.324
REMARK SMILES CCCCCCC(=O)[O-]
REMARK SMILES IDX 5 1 6 2 7 3 8 4 9 5 4 6 3 7 2 8 1 9
REMARK H PARENT
REMARK Flexibility Score: inf
ROOT
ATOM      1  C   UNL     1       5.417  75.449  39.032  1.00  0.00     0.006 C 
ENDROOT
BRANCH   1   2
ATOM      2  C   UNL     1       4.605  74.303  39.660  1.00  0.00     0.053 C 
BRANCH   2   3
ATOM      3  C   UNL     1       5.476  73.202  40.184  1.00  0.00     0.041 C 
ATOM      4  O   UNL     1       6.490  73.474  40.879  1.00  0.00    -0.550 OA
ATOM      5  O   UNL     1       5.190  71.878  39.876  1.00  0.00    -0.550 OA
ENDBRANCH   2   3
ENDBRANCH   1   2
BRANCH   1   6
ATOM      6  C   UNL     1       4.854  76.850  39.334  1.00  0.00     0.000 C 
BRANCH   6   7
ATOM      7  C   UNL     1       5.922  77.831  39.848  1.00  0.00    -0.000 C 
BRANCH   7   8
ATOM      8  C   UNL     1       5.353  79.231  40.122  1.00  0.00    -0.003 C 
ATOM      9  C   UNL     1       4.972  79.436  41.588  1.00  0.00     0.004 C 
ENDBRANCH   7   8
ENDBRANCH   6   7
ENDBRANCH   1   6
TORSDOF 5
ENDMDL
MODEL 6
REMARK VINA RESULT:    -3.173      7.180      7.904
REMARK INTER + INTRA:          -4.425
REMARK INTER:                  -4.266
REMARK INTRA:                  -0.159
REMARK UNBOUND:                -0.324
REMARK SMILES CCCCCCC(=O)[O-]
REMARK SMILES IDX 5 1 6 2 7 3 8 4 9 5 4 6 3 7 2 8 1 9
REMARK H PARENT
REMARK Flexibility Score: inf
ROOT
ATOM      1  C   UNL     1       9.600  80.476  44.897  1.00  0.00     0.006 C 
ENDROOT
BRANCH   1   2
ATOM      2  C   UNL     1      10.833  81.316  44.522  1.00  0.00     0.053 C 
BRANCH   2   3
ATOM      3  C   UNL     1      11.586  80.743  43.361  1.00  0.00     0.041 C 
ATOM      4  O   UNL     1      11.251  79.630  42.875  1.00  0.00    -0.550 OA
ATOM      5  O   UNL     1      12.682  81.418  42.837  1.00  0.00    -0.550 OA
ENDBRANCH   2   3
ENDBRANCH   1   2
BRANCH   1   6
ATOM      6  C   UNL     1       8.272  81.253  44.831  1.00  0.00     0.000 C 
BRANCH   6   7
ATOM      7  C   UNL     1       7.384  81.036  46.068  1.00  0.00    -0.000 C 
BRANCH   7   8
ATOM      8  C   UNL     1       7.446  79.593  46.592  1.00  0.00    -0.003 C 
ATOM      9  C   UNL     1       6.063  79.012  46.887  1.00  0.00     0.004 C 
ENDBRANCH   7   8
ENDBRANCH   6   7
ENDBRANCH   1   6
TORSDOF 5
ENDMDL
MODEL 7
REMARK VINA RESULT:    -3.142      1.693      2.505
REMARK INTER + INTRA:          -4.384
REMARK INTER:                  -4.025
REMARK INTRA:                  -0.360
REMARK UNBOUND:                -0.324
REMARK SMILES CCCCCCC(=O)[O-]
REMARK SMILES IDX 5 1 6 2 7 3 8 4 9 5 4 6 3 7 2 8 1 9
REMARK H PARENT
REMARK Flexibility Score: inf
ROOT
ATOM      1  C   UNL     1      11.254  75.000  44.442  1.00  0.00     0.006 C 
ENDROOT
BRANCH   1   2
ATOM      2  C   UNL     1      10.945  75.678  45.788  1.00  0.00     0.053 C 
BRANCH   2   3
ATOM      3  C   UNL     1      12.034  75.475  46.797  1.00  0.00     0.041 C 
ATOM      4  O   UNL     1      13.187  75.130  46.424  1.00  0.00    -0.550 OA
ATOM      5  O   UNL     1      11.770  75.632  48.152  1.00  0.00    -0.550 OA
ENDBRANCH   2   3
ENDBRANCH   1   2
BRANCH   1   6
ATOM      6  C   UNL     1      10.407  73.744  44.168  1.00  0.00     0.000 C 
BRANCH   6   7
ATOM      7  C   UNL     1      11.206  72.437  44.300  1.00  0.00    -0.000 C 
BRANCH   7   8
ATOM      8  C   UNL     1      10.694  71.546  45.441  1.00  0.00    -0.003 C 
ATOM      9  C   UNL     1      11.264  71.945  46.802  1.00  0.00     0.004 C 
ENDBRANCH   7   8
ENDBRANCH   6   7
ENDBRANCH   1   6
TORSDOF 5
ENDMDL
MODEL 8
REMARK VINA RESULT:    -2.998      9.422     10.470
REMARK INTER + INTRA:          -4.198
REMARK INTER:                  -4.097
REMARK INTRA:                  -0.101
REMARK UNBOUND:                -0.324
REMARK SMILES CCCCCCC(=O)[O-]
REMARK SMILES IDX 5 1 6 2 7 3 8 4 9 5 4 6 3 7 2 8 1 9
REMARK H PARENT
REMARK Flexibility Score: inf
ROOT
ATOM      1  C   UNL     1       7.393  79.515  37.240  1.00  0.00     0.006 C 
ENDROOT
BRANCH   1   2
ATOM      2  C   UNL     1       8.195  78.638  36.263  1.00  0.00     0.053 C 
BRANCH   2   3
ATOM      3  C   UNL     1       9.572  78.327  36.767  1.00  0.00     0.041 C 
ATOM      4  O   UNL     1      10.256  77.421  36.222  1.00  0.00    -0.550 OA
ATOM      5  O   UNL     1      10.087  79.011  37.861  1.00  0.00    -0.550 OA
ENDBRANCH   2   3
ENDBRANCH   1   2
BRANCH   1   6
ATOM      6  C   UNL     1       6.073  78.877  37.710  1.00  0.00     0.000 C 
BRANCH   6   7
ATOM      7  C   UNL     1       5.474  79.572  38.945  1.00  0.00    -0.000 C 
BRANCH   7   8
ATOM      8  C   UNL     1       5.558  78.703  40.208  1.00  0.00    -0.003 C 
ATOM      9  C   UNL     1       5.017  79.412  41.449  1.00  0.00     0.004 C 
ENDBRANCH   7   8
ENDBRANCH   6   7
ENDBRANCH   1   6
TORSDOF 5
ENDMDL
