MODEL 1
REMARK VINA RESULT:     0.978      0.000      0.000
REMARK INTER + INTRA:           1.128
REMARK INTER:                   1.149
REMARK INTRA:                  -0.022
REMARK UNBOUND:                -0.022
REMARK SMILES CCCCC(=O)[O-]
REMARK SMILES IDX 4 1 5 2 6 3 7 4 3 5 2 6 1 7
REMARK H PARENT
REMARK Flexibility Score: inf
ROOT
ATOM      1  C   UNL     1     -36.904  17.036  18.197  1.00  0.00     0.053 C 
ENDROOT
BRANCH   1   2
ATOM      2  C   UNL     1     -35.451  17.013  17.843  1.00  0.00     0.041 C 
ATOM      3  O   UNL     1     -34.990  16.094  17.114  1.00  0.00    -0.550 OA
ATOM      4  O   UNL     1     -34.613  18.034  18.275  1.00  0.00    -0.550 OA
ENDBRANCH   1   2
BRANCH   1   5
ATOM      5  C   UNL     1     -37.478  15.612  18.194  1.00  0.00     0.006 C 
BRANCH   5   6
ATOM      6  C   UNL     1     -38.891  15.546  18.793  1.00  0.00    -0.003 C 
ATOM      7  C   UNL     1     -39.937  16.237  17.918  1.00  0.00     0.004 C 
ENDBRANCH   5   6
ENDBRANCH   1   5
TORSDOF 3
ENDMDL
MODEL 2
REMARK VINA RESULT:     1.072      2.713      3.987
REMARK INTER + INTRA:           1.238
REMARK INTER:                   1.266
REMARK INTRA:                  -0.028
REMARK UNBOUND:                -0.022
REMARK SMILES CCCCC(=O)[O-]
REMARK SMILES IDX 4 1 5 2 6 3 7 4 3 5 2 6 1 7
REMARK H PARENT
REMARK Flexibility Score: inf
ROOT
ATOM      1  C   UNL     1     -37.505  16.702  18.180  1.00  0.00     0.053 C 
ENDROOT
BRANCH   1   2
ATOM      2  C   UNL     1     -38.746  15.923  18.483  1.00  0.00     0.041 C 
ATOM      3  O   UNL     1     -38.711  14.970  19.307  1.00  0.00    -0.550 OA
ATOM      4  O   UNL     1     -39.953  16.280  17.894  1.00  0.00    -0.550 OA
ENDBRANCH   1   2
BRANCH   1   5
ATOM      5  C   UNL     1     -36.373  15.758  17.750  1.00  0.00     0.006 C 
BRANCH   5   6
ATOM      6  C   UNL     1     -35.090  16.514  17.371  1.00  0.00    -0.003 C 
ATOM      7  C   UNL     1     -34.905  17.804  18.170  1.00  0.00     0.004 C 
ENDBRANCH   5   6
ENDBRANCH   1   5
TORSDOF 3
ENDMDL
MODEL 3
REMARK VINA RESULT:     1.218      2.890      4.044
REMARK INTER + INTRA:           1.410
REMARK INTER:                   1.426
REMARK INTRA:                  -0.016
REMARK UNBOUND:                -0.022
REMARK SMILES CCCCC(=O)[O-]
REMARK SMILES IDX 4 1 5 2 6 3 7 4 3 5 2 6 1 7
REMARK H PARENT
REMARK Flexibility Score: inf
ROOT
ATOM      1  C   UNL     1     -35.144  15.562  17.113  1.00  0.00     0.053 C 
ENDROOT
BRANCH   1   2
ATOM      2  C   UNL     1     -35.714  16.712  17.881  1.00  0.00     0.041 C 
ATOM      3  O   UNL     1     -36.927  16.708  18.222  1.00  0.00    -0.550 OA
ATOM      4  O   UNL     1     -34.895  17.766  18.266  1.00  0.00    -0.550 OA
ENDBRANCH   1   2
BRANCH   1   5
ATOM      5  C   UNL     1     -34.526  14.533  18.070  1.00  0.00     0.006 C 
BRANCH   5   6
ATOM      6  C   UNL     1     -33.918  13.332  17.331  1.00  0.00    -0.003 C 
ATOM      7  C   UNL     1     -33.177  12.375  18.265  1.00  0.00     0.004 C 
ENDBRANCH   5   6
ENDBRANCH   1   5
TORSDOF 3
ENDMDL
MODEL 4
REMARK VINA RESULT:     1.257      2.755      4.000
REMARK INTER + INTRA:           1.455
REMARK INTER:                   1.481
REMARK INTRA:                  -0.026
REMARK UNBOUND:                -0.022
REMARK SMILES CCCCC(=O)[O-]
REMARK SMILES IDX 4 1 5 2 6 3 7 4 3 5 2 6 1 7
REMARK H PARENT
REMARK Flexibility Score: inf
ROOT
ATOM      1  C   UNL     1     -37.507  16.743  18.207  1.00  0.00     0.053 C 
ENDROOT
BRANCH   1   2
ATOM      2  C   UNL     1     -38.771  15.983  18.456  1.00  0.00     0.041 C 
ATOM      3  O   UNL     1     -39.830  16.299  17.852  1.00  0.00    -0.550 OA
ATOM      4  O   UNL     1     -38.769  14.891  19.316  1.00  0.00    -0.550 OA
ENDBRANCH   1   2
BRANCH   1   5
ATOM      5  C   UNL     1     -36.385  15.789  17.773  1.00  0.00     0.006 C 
BRANCH   5   6
ATOM      6  C   UNL     1     -35.099  16.532  17.381  1.00  0.00    -0.003 C 
ATOM      7  C   UNL     1     -34.879  17.804  18.200  1.00  0.00     0.004 C 
ENDBRANCH   5   6
ENDBRANCH   1   5
TORSDOF 3
ENDMDL
MODEL 5
REMARK VINA RESULT:     2.083      3.802      4.589
REMARK INTER + INTRA:           2.427
REMARK INTER:                   2.443
REMARK INTRA:                  -0.016
REMARK UNBOUND:                -0.022
REMARK SMILES CCCCC(=O)[O-]
REMARK SMILES IDX 4 1 5 2 6 3 7 4 3 5 2 6 1 7
REMARK H PARENT
REMARK Flexibility Score: inf
ROOT
ATOM      1  C   UNL     1     -34.339  13.510  17.229  1.00  0.00     0.053 C 
ENDROOT
BRANCH   1   2
ATOM      2  C   UNL     1     -33.207  12.706  17.787  1.00  0.00     0.041 C 
ATOM      3  O   UNL     1     -32.128  12.602  17.145  1.00  0.00    -0.550 OA
ATOM      4  O   UNL     1     -33.324  12.114  19.038  1.00  0.00    -0.550 OA
ENDBRANCH   1   2
BRANCH   1   5
ATOM      5  C   UNL     1     -34.604  14.741  18.108  1.00  0.00     0.006 C 
BRANCH   5   6
ATOM      6  C   UNL     1     -35.372  15.842  17.362  1.00  0.00    -0.003 C 
ATOM      7  C   UNL     1     -35.275  17.202  18.052  1.00  0.00     0.004 C 
ENDBRANCH   5   6
ENDBRANCH   1   5
TORSDOF 3
ENDMDL
MODEL 6
REMARK VINA RESULT:     2.786      5.826      6.318
REMARK INTER + INTRA:           3.253
REMARK INTER:                   3.283
REMARK INTRA:                  -0.030
REMARK UNBOUND:                -0.022
REMARK SMILES CCCCC(=O)[O-]
REMARK SMILES IDX 4 1 5 2 6 3 7 4 3 5 2 6 1 7
REMARK H PARENT
REMARK Flexibility Score: inf
ROOT
ATOM      1  C   UNL     1     -33.228  12.313  19.194  1.00  0.00     0.053 C 
ENDROOT
BRANCH   1   2
ATOM      2  C   UNL     1     -33.112  12.506  17.715  1.00  0.00     0.041 C 
ATOM      3  O   UNL     1     -34.148  12.589  17.003  1.00  0.00    -0.550 OA
ATOM      4  O   UNL     1     -31.860  12.644  17.127  1.00  0.00    -0.550 OA
ENDBRANCH   1   2
BRANCH   1   5
ATOM      5  C   UNL     1     -33.166  10.821  19.546  1.00  0.00     0.006 C 
BRANCH   5   6
ATOM      6  C   UNL     1     -34.025  10.469  20.770  1.00  0.00    -0.003 C 
ATOM      7  C   UNL     1     -34.168  11.636  21.747  1.00  0.00     0.004 C 
ENDBRANCH   5   6
ENDBRANCH   1   5
TORSDOF 3
ENDMDL
MODEL 7
REMARK VINA RESULT:     2.944      5.987      6.802
REMARK INTER + INTRA:           3.439
REMARK INTER:                   3.474
REMARK INTRA:                  -0.036
REMARK UNBOUND:                -0.022
REMARK SMILES CCCCC(=O)[O-]
REMARK SMILES IDX 4 1 5 2 6 3 7 4 3 5 2 6 1 7
REMARK H PARENT
REMARK Flexibility Score: inf
ROOT
ATOM      1  C   UNL     1     -33.640  12.275  19.953  1.00  0.00     0.053 C 
ENDROOT
BRANCH   1   2
ATOM      2  C   UNL     1     -34.054  11.335  21.041  1.00  0.00     0.041 C 
ATOM      3  O   UNL     1     -34.116  10.097  20.820  1.00  0.00    -0.550 OA
ATOM      4  O   UNL     1     -34.323  11.822  22.315  1.00  0.00    -0.550 OA
ENDBRANCH   1   2
BRANCH   1   5
ATOM      5  C   UNL     1     -32.788  11.540  18.908  1.00  0.00     0.006 C 
BRANCH   5   6
ATOM      6  C   UNL     1     -32.623  12.347  17.611  1.00  0.00    -0.003 C 
ATOM      7  C   UNL     1     -33.946  12.918  17.098  1.00  0.00     0.004 C 
ENDBRANCH   5   6
ENDBRANCH   1   5
TORSDOF 3
ENDMDL
