MODEL 1
REMARK VINA RESULT:    -4.670      0.000      0.000
REMARK INTER + INTRA:         -13.872
REMARK INTER:                 -10.131
REMARK INTRA:                  -3.741
REMARK UNBOUND:                -3.741
REMARK SMILES CCCCCCCCCCCCCCCCCCCCCC(=O)[O-]
REMARK SMILES IDX 12 1 11 2 10 3 9 4 8 5 7 6 6 7 5 8 4 9 3 10 2 11 1 12 13 13
REMARK SMILES IDX 14 14 15 15 16 16 17 17 18 18 19 19 20 20 21 21 22 22 23 23
REMARK SMILES IDX 24 24
REMARK H PARENT
REMARK Flexibility Score: inf
ROOT
ATOM      1  C   UNL     1      17.787 -34.572  19.042  1.00  0.00     0.000 C 
ENDROOT
BRANCH   1   2
ATOM      2  C   UNL     1      19.268 -34.543  19.461  1.00  0.00     0.000 C 
BRANCH   2   3
ATOM      3  C   UNL     1      19.553 -33.529  20.585  1.00  0.00     0.000 C 
BRANCH   3   4
ATOM      4  C   UNL     1      18.307 -32.848  21.183  1.00  0.00    -0.000 C 
BRANCH   4   5
ATOM      5  C   UNL     1      18.222 -31.351  20.840  1.00  0.00    -0.000 C 
BRANCH   5   6
ATOM      6  C   UNL     1      17.120 -30.626  21.631  1.00  0.00    -0.000 C 
BRANCH   6   7
ATOM      7  C   UNL     1      17.271 -30.811  23.151  1.00  0.00    -0.000 C 
BRANCH   7   8
ATOM      8  C   UNL     1      15.982 -31.328  23.814  1.00  0.00    -0.000 C 
BRANCH   8   9
ATOM      9  C   UNL     1      16.073 -32.813  24.203  1.00  0.00    -0.000 C 
BRANCH   9  10
ATOM     10  C   UNL     1      14.932 -33.661  23.609  1.00  0.00    -0.000 C 
BRANCH  10  11
ATOM     11  C   UNL     1      15.230 -34.279  22.232  1.00  0.00    -0.003 C 
ATOM     12  C   UNL     1      14.576 -33.519  21.079  1.00  0.00     0.004 C 
ENDBRANCH  10  11
ENDBRANCH   9  10
ENDBRANCH   8   9
ENDBRANCH   7   8
ENDBRANCH   6   7
ENDBRANCH   5   6
ENDBRANCH   4   5
ENDBRANCH   3   4
ENDBRANCH   2   3
ENDBRANCH   1   2
BRANCH   1  13
ATOM     13  C   UNL     1      17.092 -35.886  19.432  1.00  0.00     0.000 C 
BRANCH  13  14
ATOM     14  C   UNL     1      18.040 -37.096  19.363  1.00  0.00     0.000 C 
BRANCH  14  15
ATOM     15  C   UNL     1      17.968 -37.984  20.619  1.00  0.00     0.000 C 
BRANCH  15  16
ATOM     16  C   UNL     1      18.796 -37.483  21.820  1.00  0.00     0.000 C 
BRANCH  16  17
ATOM     17  C   UNL     1      18.098 -36.427  22.700  1.00  0.00     0.000 C 
BRANCH  17  18
ATOM     18  C   UNL     1      19.012 -35.731  23.728  1.00  0.00     0.000 C 
BRANCH  18  19
ATOM     19  C   UNL     1      18.373 -35.495  25.112  1.00  0.00     0.000 C 
BRANCH  19  20
ATOM     20  C   UNL     1      17.052 -36.251  25.360  1.00  0.00     0.006 C 
BRANCH  20  21
ATOM     21  C   UNL     1      17.098 -37.241  26.534  1.00  0.00     0.053 C 
BRANCH  21  22
ATOM     22  C   UNL     1      18.335 -38.084  26.512  1.00  0.00     0.041 C 
ATOM     23  O   UNL     1      18.552 -38.863  25.547  1.00  0.00    -0.550 OA
ATOM     24  O   UNL     1      19.230 -38.035  27.573  1.00  0.00    -0.550 OA
ENDBRANCH  21  22
ENDBRANCH  20  21
ENDBRANCH  19  20
ENDBRANCH  18  19
ENDBRANCH  17  18
ENDBRANCH  16  17
ENDBRANCH  15  16
ENDBRANCH  14  15
ENDBRANCH  13  14
ENDBRANCH   1  13
TORSDOF 20
ENDMDL
MODEL 2
REMARK VINA RESULT:    -4.468      2.796      5.706
REMARK INTER + INTRA:         -13.433
REMARK INTER:                 -10.302
REMARK INTRA:                  -3.132
REMARK UNBOUND:                -3.741
REMARK SMILES CCCCCCCCCCCCCCCCCCCCCC(=O)[O-]
REMARK SMILES IDX 12 1 11 2 10 3 9 4 8 5 7 6 6 7 5 8 4 9 3 10 2 11 1 12 13 13
REMARK SMILES IDX 14 14 15 15 16 16 17 17 18 18 19 19 20 20 21 21 22 22 23 23
REMARK SMILES IDX 24 24
REMARK H PARENT
REMARK Flexibility Score: inf
ROOT
ATOM      1  C   UNL     1      17.190 -36.048  19.496  1.00  0.00     0.000 C 
ENDROOT
BRANCH   1   2
ATOM      2  C   UNL     1      16.382 -34.746  19.359  1.00  0.00     0.000 C 
BRANCH   2   3
ATOM      3  C   UNL     1      15.183 -34.680  20.323  1.00  0.00     0.000 C 
BRANCH   3   4
ATOM      4  C   UNL     1      15.459 -33.972  21.663  1.00  0.00    -0.000 C 
BRANCH   4   5
ATOM      5  C   UNL     1      16.028 -34.920  22.734  1.00  0.00    -0.000 C 
BRANCH   5   6
ATOM      6  C   UNL     1      17.101 -34.249  23.606  1.00  0.00    -0.000 C 
BRANCH   6   7
ATOM      7  C   UNL     1      18.240 -35.214  23.982  1.00  0.00    -0.000 C 
BRANCH   7   8
ATOM      8  C   UNL     1      17.739 -36.448  24.752  1.00  0.00    -0.000 C 
BRANCH   8   9
ATOM      9  C   UNL     1      17.077 -36.080  26.091  1.00  0.00    -0.000 C 
BRANCH   9  10
ATOM     10  C   UNL     1      17.338 -37.121  27.196  1.00  0.00    -0.000 C 
BRANCH  10  11
ATOM     11  C   UNL     1      16.599 -38.459  27.016  1.00  0.00    -0.003 C 
ATOM     12  C   UNL     1      15.784 -38.863  28.244  1.00  0.00     0.004 C 
ENDBRANCH  10  11
ENDBRANCH   9  10
ENDBRANCH   8   9
ENDBRANCH   7   8
ENDBRANCH   6   7
ENDBRANCH   5   6
ENDBRANCH   4   5
ENDBRANCH   3   4
ENDBRANCH   2   3
ENDBRANCH   1   2
BRANCH   1  13
ATOM     13  C   UNL     1      18.588 -35.813  20.090  1.00  0.00     0.000 C 
BRANCH  13  14
ATOM     14  C   UNL     1      19.148 -34.422  19.743  1.00  0.00     0.000 C 
BRANCH  14  15
ATOM     15  C   UNL     1      19.839 -33.741  20.939  1.00  0.00     0.000 C 
BRANCH  15  16
ATOM     16  C   UNL     1      19.490 -32.252  21.134  1.00  0.00     0.000 C 
BRANCH  16  17
ATOM     17  C   UNL     1      18.074 -31.848  20.678  1.00  0.00     0.000 C 
BRANCH  17  18
ATOM     18  C   UNL     1      17.546 -30.533  21.287  1.00  0.00     0.000 C 
BRANCH  18  19
ATOM     19  C   UNL     1      16.848 -30.683  22.654  1.00  0.00     0.000 C 
BRANCH  19  20
ATOM     20  C   UNL     1      15.400 -30.154  22.711  1.00  0.00     0.006 C 
BRANCH  20  21
ATOM     21  C   UNL     1      14.630 -30.547  23.981  1.00  0.00     0.053 C 
BRANCH  21  22
ATOM     22  C   UNL     1      13.744 -31.734  23.758  1.00  0.00     0.041 C 
ATOM     23  O   UNL     1      12.940 -31.751  22.789  1.00  0.00    -0.550 OA
ATOM     24  O   UNL     1      13.783 -32.807  24.640  1.00  0.00    -0.550 OA
ENDBRANCH  21  22
ENDBRANCH  20  21
ENDBRANCH  19  20
ENDBRANCH  18  19
ENDBRANCH  17  18
ENDBRANCH  16  17
ENDBRANCH  15  16
ENDBRANCH  14  15
ENDBRANCH  13  14
ENDBRANCH   1  13
TORSDOF 20
ENDMDL
MODEL 3
REMARK VINA RESULT:    -4.466      3.539      5.900
REMARK INTER + INTRA:         -13.428
REMARK INTER:                  -9.853
REMARK INTRA:                  -3.574
REMARK UNBOUND:                -3.741
REMARK SMILES CCCCCCCCCCCCCCCCCCCCCC(=O)[O-]
REMARK SMILES IDX 12 1 11 2 10 3 9 4 8 5 7 6 6 7 5 8 4 9 3 10 2 11 1 12 13 13
REMARK SMILES IDX 14 14 15 15 16 16 17 17 18 18 19 19 20 20 21 21 22 22 23 23
REMARK SMILES IDX 24 24
REMARK H PARENT
REMARK Flexibility Score: inf
ROOT
ATOM      1  C   UNL     1      13.882 -32.929  20.561  1.00  0.00     0.000 C 
ENDROOT
BRANCH   1   2
ATOM      2  C   UNL     1      13.796 -31.482  21.077  1.00  0.00     0.000 C 
BRANCH   2   3
ATOM      3  C   UNL     1      12.895 -31.340  22.318  1.00  0.00     0.000 C 
BRANCH   3   4
ATOM      4  C   UNL     1      13.610 -30.856  23.593  1.00  0.00    -0.000 C 
BRANCH   4   5
ATOM      5  C   UNL     1      14.854 -31.695  23.935  1.00  0.00    -0.000 C 
BRANCH   5   6
ATOM      6  C   UNL     1      14.500 -33.009  24.652  1.00  0.00    -0.000 C 
BRANCH   6   7
ATOM      7  C   UNL     1      15.020 -34.247  23.898  1.00  0.00    -0.000 C 
BRANCH   7   8
ATOM      8  C   UNL     1      16.516 -34.504  24.144  1.00  0.00    -0.000 C 
BRANCH   8   9
ATOM      9  C   UNL     1      16.943 -34.176  25.585  1.00  0.00    -0.000 C 
BRANCH   9  10
ATOM     10  C   UNL     1      18.467 -34.016  25.737  1.00  0.00    -0.000 C 
BRANCH  10  11
ATOM     11  C   UNL     1      18.919 -32.708  26.412  1.00  0.00    -0.003 C 
ATOM     12  C   UNL     1      18.606 -31.465  25.581  1.00  0.00     0.004 C 
ENDBRANCH  10  11
ENDBRANCH   9  10
ENDBRANCH   8   9
ENDBRANCH   7   8
ENDBRANCH   6   7
ENDBRANCH   5   6
ENDBRANCH   4   5
ENDBRANCH   3   4
ENDBRANCH   2   3
ENDBRANCH   1   2
BRANCH   1  13
ATOM     13  C   UNL     1      15.328 -33.449  20.508  1.00  0.00     0.000 C 
BRANCH  13  14
ATOM     14  C   UNL     1      15.397 -34.973  20.302  1.00  0.00     0.000 C 
BRANCH  14  15
ATOM     15  C   UNL     1      16.731 -35.432  19.687  1.00  0.00     0.000 C 
BRANCH  15  16
ATOM     16  C   UNL     1      17.649 -34.295  19.195  1.00  0.00     0.000 C 
BRANCH  16  17
ATOM     17  C   UNL     1      19.144 -34.473  19.524  1.00  0.00     0.000 C 
BRANCH  17  18
ATOM     18  C   UNL     1      19.754 -33.363  20.403  1.00  0.00     0.000 C 
BRANCH  18  19
ATOM     19  C   UNL     1      19.158 -33.254  21.821  1.00  0.00     0.000 C 
BRANCH  19  20
ATOM     20  C   UNL     1      18.191 -32.072  22.035  1.00  0.00     0.006 C 
BRANCH  20  21
ATOM     21  C   UNL     1      18.195 -31.034  20.902  1.00  0.00     0.053 C 
BRANCH  21  22
ATOM     22  C   UNL     1      18.961 -29.800  21.270  1.00  0.00     0.041 C 
ATOM     23  O   UNL     1      18.357 -28.708  21.439  1.00  0.00    -0.550 OA
ATOM     24  O   UNL     1      20.343 -29.849  21.393  1.00  0.00    -0.550 OA
ENDBRANCH  21  22
ENDBRANCH  20  21
ENDBRANCH  19  20
ENDBRANCH  18  19
ENDBRANCH  17  18
ENDBRANCH  16  17
ENDBRANCH  15  16
ENDBRANCH  14  15
ENDBRANCH  13  14
ENDBRANCH   1  13
TORSDOF 20
ENDMDL
MODEL 4
REMARK VINA RESULT:    -4.465      4.548      7.673
REMARK INTER + INTRA:         -13.427
REMARK INTER:                 -10.304
REMARK INTRA:                  -3.123
REMARK UNBOUND:                -3.741
REMARK SMILES CCCCCCCCCCCCCCCCCCCCCC(=O)[O-]
REMARK SMILES IDX 12 1 11 2 10 3 9 4 8 5 7 6 6 7 5 8 4 9 3 10 2 11 1 12 13 13
REMARK SMILES IDX 14 14 15 15 16 16 17 17 18 18 19 19 20 20 21 21 22 22 23 23
REMARK SMILES IDX 24 24
REMARK H PARENT
REMARK Flexibility Score: inf
ROOT
ATOM      1  C   UNL     1      15.033 -29.671  23.496  1.00  0.00     0.000 C 
ENDROOT
BRANCH   1   2
ATOM      2  C   UNL     1      13.812 -30.502  23.931  1.00  0.00     0.000 C 
BRANCH   2   3
ATOM      3  C   UNL     1      13.668 -31.815  23.140  1.00  0.00     0.000 C 
BRANCH   3   4
ATOM      4  C   UNL     1      13.128 -31.659  21.706  1.00  0.00    -0.000 C 
BRANCH   4   5
ATOM      5  C   UNL     1      13.829 -32.588  20.699  1.00  0.00    -0.000 C 
BRANCH   5   6
ATOM      6  C   UNL     1      14.739 -33.621  21.383  1.00  0.00    -0.000 C 
BRANCH   6   7
ATOM      7  C   UNL     1      15.087 -34.801  20.458  1.00  0.00    -0.000 C 
BRANCH   7   8
ATOM      8  C   UNL     1      16.364 -34.552  19.638  1.00  0.00    -0.000 C 
BRANCH   8   9
ATOM      9  C   UNL     1      17.238 -35.812  19.507  1.00  0.00    -0.000 C 
BRANCH   9  10
ATOM     10  C   UNL     1      18.528 -35.737  20.345  1.00  0.00    -0.000 C 
BRANCH  10  11
ATOM     11  C   UNL     1      18.537 -36.621  21.605  1.00  0.00    -0.003 C 
ATOM     12  C   UNL     1      17.748 -36.018  22.767  1.00  0.00     0.004 C 
ENDBRANCH  10  11
ENDBRANCH   9  10
ENDBRANCH   8   9
ENDBRANCH   7   8
ENDBRANCH   6   7
ENDBRANCH   5   6
ENDBRANCH   4   5
ENDBRANCH   3   4
ENDBRANCH   2   3
ENDBRANCH   1   2
BRANCH   1  13
ATOM     13  C   UNL     1      16.228 -30.549  23.094  1.00  0.00     0.000 C 
BRANCH  13  14
ATOM     14  C   UNL     1      16.795 -30.173  21.713  1.00  0.00     0.000 C 
BRANCH  14  15
ATOM     15  C   UNL     1      17.548 -31.335  21.040  1.00  0.00     0.000 C 
BRANCH  15  16
ATOM     16  C   UNL     1      18.135 -32.382  22.010  1.00  0.00     0.000 C 
BRANCH  16  17
ATOM     17  C   UNL     1      19.674 -32.440  22.055  1.00  0.00     0.000 C 
BRANCH  17  18
ATOM     18  C   UNL     1      20.389 -31.528  21.038  1.00  0.00     0.000 C 
BRANCH  18  19
ATOM     19  C   UNL     1      20.979 -30.232  21.628  1.00  0.00     0.000 C 
BRANCH  19  20
ATOM     20  C   UNL     1      20.411 -28.926  21.035  1.00  0.00     0.006 C 
BRANCH  20  21
ATOM     21  C   UNL     1      21.356 -27.718  21.136  1.00  0.00     0.053 C 
BRANCH  21  22
ATOM     22  C   UNL     1      20.615 -26.418  21.092  1.00  0.00     0.041 C 
ATOM     23  O   UNL     1      20.352 -25.876  19.986  1.00  0.00    -0.550 OA
ATOM     24  O   UNL     1      20.245 -25.787  22.273  1.00  0.00    -0.550 OA
ENDBRANCH  21  22
ENDBRANCH  20  21
ENDBRANCH  19  20
ENDBRANCH  18  19
ENDBRANCH  17  18
ENDBRANCH  16  17
ENDBRANCH  15  16
ENDBRANCH  14  15
ENDBRANCH  13  14
ENDBRANCH   1  13
TORSDOF 20
ENDMDL
MODEL 5
REMARK VINA RESULT:    -4.423      1.935      4.821
REMARK INTER + INTRA:         -13.334
REMARK INTER:                  -9.253
REMARK INTRA:                  -4.081
REMARK UNBOUND:                -3.741
REMARK SMILES CCCCCCCCCCCCCCCCCCCCCC(=O)[O-]
REMARK SMILES IDX 12 1 11 2 10 3 9 4 8 5 7 6 6 7 5 8 4 9 3 10 2 11 1 12 13 13
REMARK SMILES IDX 14 14 15 15 16 16 17 17 18 18 19 19 20 20 21 21 22 22 23 23
REMARK SMILES IDX 24 24
REMARK H PARENT
REMARK Flexibility Score: inf
ROOT
ATOM      1  C   UNL     1      16.012 -33.158  23.768  1.00  0.00     0.000 C 
ENDROOT
BRANCH   1   2
ATOM      2  C   UNL     1      15.272 -31.817  23.909  1.00  0.00     0.000 C 
BRANCH   2   3
ATOM      3  C   UNL     1      16.145 -30.606  23.529  1.00  0.00     0.000 C 
BRANCH   3   4
ATOM      4  C   UNL     1      17.487 -30.954  22.858  1.00  0.00    -0.000 C 
BRANCH   4   5
ATOM      5  C   UNL     1      17.460 -30.756  21.332  1.00  0.00    -0.000 C 
BRANCH   5   6
ATOM      6  C   UNL     1      17.897 -32.016  20.566  1.00  0.00    -0.000 C 
BRANCH   6   7
ATOM      7  C   UNL     1      18.981 -32.811  21.315  1.00  0.00    -0.000 C 
BRANCH   7   8
ATOM      8  C   UNL     1      20.405 -32.436  20.868  1.00  0.00    -0.000 C 
BRANCH   8   9
ATOM      9  C   UNL     1      21.262 -31.892  22.024  1.00  0.00    -0.000 C 
BRANCH   9  10
ATOM     10  C   UNL     1      21.143 -30.366  22.193  1.00  0.00    -0.000 C 
BRANCH  10  11
ATOM     11  C   UNL     1      21.033 -29.573  20.879  1.00  0.00    -0.003 C 
ATOM     12  C   UNL     1      20.107 -28.361  20.985  1.00  0.00     0.004 C 
ENDBRANCH  10  11
ENDBRANCH   9  10
ENDBRANCH   8   9
ENDBRANCH   7   8
ENDBRANCH   6   7
ENDBRANCH   5   6
ENDBRANCH   4   5
ENDBRANCH   3   4
ENDBRANCH   2   3
ENDBRANCH   1   2
BRANCH   1  13
ATOM     13  C   UNL     1      15.273 -34.143  22.848  1.00  0.00     0.000 C 
BRANCH  13  14
ATOM     14  C   UNL     1      14.637 -33.448  21.631  1.00  0.00     0.000 C 
BRANCH  14  15
ATOM     15  C   UNL     1      14.912 -34.188  20.310  1.00  0.00     0.000 C 
BRANCH  15  16
ATOM     16  C   UNL     1      15.884 -35.380  20.419  1.00  0.00     0.000 C 
BRANCH  16  17
ATOM     17  C   UNL     1      17.017 -35.396  19.374  1.00  0.00     0.000 C 
BRANCH  17  18
ATOM     18  C   UNL     1      18.188 -36.346  19.700  1.00  0.00     0.000 C 
BRANCH  18  19
ATOM     19  C   UNL     1      18.065 -37.094  21.042  1.00  0.00     0.000 C 
BRANCH  19  20
ATOM     20  C   UNL     1      18.963 -36.557  22.176  1.00  0.00     0.006 C 
BRANCH  20  21
ATOM     21  C   UNL     1      18.217 -36.243  23.482  1.00  0.00     0.053 C 
BRANCH  21  22
ATOM     22  C   UNL     1      19.013 -35.353  24.386  1.00  0.00     0.041 C 
ATOM     23  O   UNL     1      20.060 -34.795  23.962  1.00  0.00    -0.550 OA
ATOM     24  O   UNL     1      18.619 -35.167  25.704  1.00  0.00    -0.550 OA
ENDBRANCH  21  22
ENDBRANCH  20  21
ENDBRANCH  19  20
ENDBRANCH  18  19
ENDBRANCH  17  18
ENDBRANCH  16  17
ENDBRANCH  15  16
ENDBRANCH  14  15
ENDBRANCH  13  14
ENDBRANCH   1  13
TORSDOF 20
ENDMDL
MODEL 6
REMARK VINA RESULT:    -4.398      5.221      7.572
REMARK INTER + INTRA:         -13.281
REMARK INTER:                 -10.395
REMARK INTRA:                  -2.886
REMARK UNBOUND:                -3.741
REMARK SMILES CCCCCCCCCCCCCCCCCCCCCC(=O)[O-]
REMARK SMILES IDX 12 1 11 2 10 3 9 4 8 5 7 6 6 7 5 8 4 9 3 10 2 11 1 12 13 13
REMARK SMILES IDX 14 14 15 15 16 16 17 17 18 18 19 19 20 20 21 21 22 22 23 23
REMARK SMILES IDX 24 24
REMARK H PARENT
REMARK Flexibility Score: inf
ROOT
ATOM      1  C   UNL     1      17.987 -34.212  19.215  1.00  0.00     0.000 C 
ENDROOT
BRANCH   1   2
ATOM      2  C   UNL     1      17.047 -35.417  19.394  1.00  0.00     0.000 C 
BRANCH   2   3
ATOM      3  C   UNL     1      15.741 -35.056  20.126  1.00  0.00     0.000 C 
BRANCH   3   4
ATOM      4  C   UNL     1      15.622 -33.583  20.562  1.00  0.00    -0.000 C 
BRANCH   4   5
ATOM      5  C   UNL     1      14.162 -33.123  20.719  1.00  0.00    -0.000 C 
BRANCH   5   6
ATOM      6  C   UNL     1      14.050 -31.670  21.208  1.00  0.00    -0.000 C 
BRANCH   6   7
ATOM      7  C   UNL     1      15.404 -31.100  21.669  1.00  0.00    -0.000 C 
BRANCH   7   8
ATOM      8  C   UNL     1      15.503 -30.976  23.199  1.00  0.00    -0.000 C 
BRANCH   8   9
ATOM      9  C   UNL     1      16.387 -32.068  23.825  1.00  0.00    -0.000 C 
BRANCH   9  10
ATOM     10  C   UNL     1      15.599 -33.338  24.199  1.00  0.00    -0.000 C 
BRANCH  10  11
ATOM     11  C   UNL     1      16.376 -34.656  24.040  1.00  0.00    -0.003 C 
ATOM     12  C   UNL     1      17.769 -34.463  23.441  1.00  0.00     0.004 C 
ENDBRANCH  10  11
ENDBRANCH   9  10
ENDBRANCH   8   9
ENDBRANCH   7   8
ENDBRANCH   6   7
ENDBRANCH   5   6
ENDBRANCH   4   5
ENDBRANCH   3   4
ENDBRANCH   2   3
ENDBRANCH   1   2
BRANCH   1  13
ATOM     13  C   UNL     1      19.397 -34.481  19.764  1.00  0.00     0.000 C 
BRANCH  13  14
ATOM     14  C   UNL     1      19.950 -33.294  20.572  1.00  0.00     0.000 C 
BRANCH  14  15
ATOM     15  C   UNL     1      18.932 -32.150  20.725  1.00  0.00     0.000 C 
BRANCH  15  16
ATOM     16  C   UNL     1      19.437 -30.928  21.520  1.00  0.00     0.000 C 
BRANCH  16  17
ATOM     17  C   UNL     1      20.874 -30.481  21.188  1.00  0.00     0.000 C 
BRANCH  17  18
ATOM     18  C   UNL     1      21.146 -28.975  21.375  1.00  0.00     0.000 C 
BRANCH  18  19
ATOM     19  C   UNL     1      20.006 -28.045  20.913  1.00  0.00     0.000 C 
BRANCH  19  20
ATOM     20  C   UNL     1      20.454 -26.646  20.442  1.00  0.00     0.006 C 
BRANCH  20  21
ATOM     21  C   UNL     1      21.971 -26.496  20.247  1.00  0.00     0.053 C 
BRANCH  21  22
ATOM     22  C   UNL     1      22.488 -25.212  20.818  1.00  0.00     0.041 C 
ATOM     23  O   UNL     1      21.964 -24.723  21.854  1.00  0.00    -0.550 OA
ATOM     24  O   UNL     1      23.525 -24.537  20.187  1.00  0.00    -0.550 OA
ENDBRANCH  21  22
ENDBRANCH  20  21
ENDBRANCH  19  20
ENDBRANCH  18  19
ENDBRANCH  17  18
ENDBRANCH  16  17
ENDBRANCH  15  16
ENDBRANCH  14  15
ENDBRANCH  13  14
ENDBRANCH   1  13
TORSDOF 20
ENDMDL
MODEL 7
REMARK VINA RESULT:    -4.379      3.161      6.051
REMARK INTER + INTRA:         -13.239
REMARK INTER:                  -9.238
REMARK INTRA:                  -4.001
REMARK UNBOUND:                -3.741
REMARK SMILES CCCCCCCCCCCCCCCCCCCCCC(=O)[O-]
REMARK SMILES IDX 12 1 11 2 10 3 9 4 8 5 7 6 6 7 5 8 4 9 3 10 2 11 1 12 13 13
REMARK SMILES IDX 14 14 15 15 16 16 17 17 18 18 19 19 20 20 21 21 22 22 23 23
REMARK SMILES IDX 24 24
REMARK H PARENT
REMARK Flexibility Score: inf
ROOT
ATOM      1  C   UNL     1      18.866 -33.709  20.088  1.00  0.00     0.000 C 
ENDROOT
BRANCH   1   2
ATOM      2  C   UNL     1      18.002 -34.395  19.015  1.00  0.00     0.000 C 
BRANCH   2   3
ATOM      3  C   UNL     1      16.549 -34.624  19.470  1.00  0.00     0.000 C 
BRANCH   3   4
ATOM      4  C   UNL     1      16.284 -35.978  20.154  1.00  0.00    -0.000 C 
BRANCH   4   5
ATOM      5  C   UNL     1      17.121 -37.123  19.558  1.00  0.00    -0.000 C 
BRANCH   5   6
ATOM      6  C   UNL     1      17.989 -37.831  20.611  1.00  0.00    -0.000 C 
BRANCH   6   7
ATOM      7  C   UNL     1      18.234 -36.956  21.854  1.00  0.00    -0.000 C 
BRANCH   7   8
ATOM      8  C   UNL     1      19.698 -36.993  22.324  1.00  0.00    -0.000 C 
BRANCH   8   9
ATOM      9  C   UNL     1      19.829 -36.894  23.854  1.00  0.00    -0.000 C 
BRANCH   9  10
ATOM     10  C   UNL     1      18.544 -37.308  24.595  1.00  0.00    -0.000 C 
BRANCH  10  11
ATOM     11  C   UNL     1      18.633 -37.250  26.131  1.00  0.00    -0.003 C 
ATOM     12  C   UNL     1      17.879 -38.388  26.818  1.00  0.00     0.004 C 
ENDBRANCH  10  11
ENDBRANCH   9  10
ENDBRANCH   8   9
ENDBRANCH   7   8
ENDBRANCH   6   7
ENDBRANCH   5   6
ENDBRANCH   4   5
ENDBRANCH   3   4
ENDBRANCH   2   3
ENDBRANCH   1   2
BRANCH   1  13
ATOM     13  C   UNL     1      18.195 -32.453  20.668  1.00  0.00     0.000 C 
BRANCH  13  14
ATOM     14  C   UNL     1      18.611 -32.183  22.125  1.00  0.00     0.000 C 
BRANCH  14  15
ATOM     15  C   UNL     1      18.641 -33.461  22.983  1.00  0.00     0.000 C 
BRANCH  15  16
ATOM     16  C   UNL     1      18.336 -33.248  24.480  1.00  0.00     0.000 C 
BRANCH  16  17
ATOM     17  C   UNL     1      17.043 -33.917  24.985  1.00  0.00     0.000 C 
BRANCH  17  18
ATOM     18  C   UNL     1      16.217 -34.638  23.901  1.00  0.00     0.000 C 
BRANCH  18  19
ATOM     19  C   UNL     1      14.879 -33.961  23.543  1.00  0.00     0.000 C 
BRANCH  19  20
ATOM     20  C   UNL     1      14.951 -32.938  22.392  1.00  0.00     0.006 C 
BRANCH  20  21
ATOM     21  C   UNL     1      14.948 -31.469  22.845  1.00  0.00     0.053 C 
BRANCH  21  22
ATOM     22  C   UNL     1      13.606 -31.039  23.352  1.00  0.00     0.041 C 
ATOM     23  O   UNL     1      13.508 -30.439  24.455  1.00  0.00    -0.550 OA
ATOM     24  O   UNL     1      12.460 -31.331  22.622  1.00  0.00    -0.550 OA
ENDBRANCH  21  22
ENDBRANCH  20  21
ENDBRANCH  19  20
ENDBRANCH  18  19
ENDBRANCH  17  18
ENDBRANCH  16  17
ENDBRANCH  15  16
ENDBRANCH  14  15
ENDBRANCH  13  14
ENDBRANCH   1  13
TORSDOF 20
ENDMDL
MODEL 8
REMARK VINA RESULT:    -4.375      5.096      7.664
REMARK INTER + INTRA:         -13.231
REMARK INTER:                  -9.733
REMARK INTRA:                  -3.498
REMARK UNBOUND:                -3.741
REMARK SMILES CCCCCCCCCCCCCCCCCCCCCC(=O)[O-]
REMARK SMILES IDX 12 1 11 2 10 3 9 4 8 5 7 6 6 7 5 8 4 9 3 10 2 11 1 12 13 13
REMARK SMILES IDX 14 14 15 15 16 16 17 17 18 18 19 19 20 20 21 21 22 22 23 23
REMARK SMILES IDX 24 24
REMARK H PARENT
REMARK Flexibility Score: inf
ROOT
ATOM      1  C   UNL     1      16.606 -31.169  21.479  1.00  0.00     0.000 C 
ENDROOT
BRANCH   1   2
ATOM      2  C   UNL     1      17.366 -30.335  22.526  1.00  0.00     0.000 C 
BRANCH   2   3
ATOM      3  C   UNL     1      17.220 -30.889  23.956  1.00  0.00     0.000 C 
BRANCH   3   4
ATOM      4  C   UNL     1      18.451 -31.642  24.494  1.00  0.00    -0.000 C 
BRANCH   4   5
ATOM      5  C   UNL     1      18.079 -32.926  25.257  1.00  0.00    -0.000 C 
BRANCH   5   6
ATOM      6  C   UNL     1      17.884 -34.132  24.324  1.00  0.00    -0.000 C 
BRANCH   6   7
ATOM      7  C   UNL     1      16.521 -34.818  24.528  1.00  0.00    -0.000 C 
BRANCH   7   8
ATOM      8  C   UNL     1      15.413 -34.203  23.658  1.00  0.00    -0.000 C 
BRANCH   8   9
ATOM      9  C   UNL     1      14.449 -33.318  24.467  1.00  0.00    -0.000 C 
BRANCH   9  10
ATOM     10  C   UNL     1      13.832 -32.181  23.630  1.00  0.00    -0.000 C 
BRANCH  10  11
ATOM     11  C   UNL     1      13.577 -30.873  24.400  1.00  0.00    -0.003 C 
ATOM     12  C   UNL     1      13.785 -29.623  23.545  1.00  0.00     0.004 C 
ENDBRANCH  10  11
ENDBRANCH   9  10
ENDBRANCH   8   9
ENDBRANCH   7   8
ENDBRANCH   6   7
ENDBRANCH   5   6
ENDBRANCH   4   5
ENDBRANCH   3   4
ENDBRANCH   2   3
ENDBRANCH   1   2
BRANCH   1  13
ATOM     13  C   UNL     1      17.326 -32.484  21.140  1.00  0.00     0.000 C 
BRANCH  13  14
ATOM     14  C   UNL     1      18.696 -32.251  20.480  1.00  0.00     0.000 C 
BRANCH  14  15
ATOM     15  C   UNL     1      19.859 -32.854  21.289  1.00  0.00     0.000 C 
BRANCH  15  16
ATOM     16  C   UNL     1      21.126 -31.978  21.363  1.00  0.00     0.000 C 
BRANCH  16  17
ATOM     17  C   UNL     1      20.898 -30.540  21.869  1.00  0.00     0.000 C 
BRANCH  17  18
ATOM     18  C   UNL     1      20.839 -29.464  20.767  1.00  0.00     0.000 C 
BRANCH  18  19
ATOM     19  C   UNL     1      20.028 -28.203  21.129  1.00  0.00     0.000 C 
BRANCH  19  20
ATOM     20  C   UNL     1      20.494 -26.905  20.438  1.00  0.00     0.006 C 
BRANCH  20  21
ATOM     21  C   UNL     1      21.792 -26.313  21.008  1.00  0.00     0.053 C 
BRANCH  21  22
ATOM     22  C   UNL     1      22.895 -26.294  19.995  1.00  0.00     0.041 C 
ATOM     23  O   UNL     1      23.069 -25.280  19.268  1.00  0.00    -0.550 OA
ATOM     24  O   UNL     1      23.707 -27.408  19.829  1.00  0.00    -0.550 OA
ENDBRANCH  21  22
ENDBRANCH  20  21
ENDBRANCH  19  20
ENDBRANCH  18  19
ENDBRANCH  17  18
ENDBRANCH  16  17
ENDBRANCH  15  16
ENDBRANCH  14  15
ENDBRANCH  13  14
ENDBRANCH   1  13
TORSDOF 20
ENDMDL
MODEL 9
REMARK VINA RESULT:    -4.351      1.322      3.285
REMARK INTER + INTRA:         -13.179
REMARK INTER:                  -9.232
REMARK INTRA:                  -3.947
REMARK UNBOUND:                -3.741
REMARK SMILES CCCCCCCCCCCCCCCCCCCCCC(=O)[O-]
REMARK SMILES IDX 12 1 11 2 10 3 9 4 8 5 7 6 6 7 5 8 4 9 3 10 2 11 1 12 13 13
REMARK SMILES IDX 14 14 15 15 16 16 17 17 18 18 19 19 20 20 21 21 22 22 23 23
REMARK SMILES IDX 24 24
REMARK H PARENT
REMARK Flexibility Score: inf
ROOT
ATOM      1  C   UNL     1      16.590 -35.403  19.494  1.00  0.00     0.000 C 
ENDROOT
BRANCH   1   2
ATOM      2  C   UNL     1      17.830 -36.256  19.811  1.00  0.00     0.000 C 
BRANCH   2   3
ATOM      3  C   UNL     1      18.190 -36.258  21.309  1.00  0.00     0.000 C 
BRANCH   3   4
ATOM      4  C   UNL     1      19.457 -35.465  21.678  1.00  0.00    -0.000 C 
BRANCH   4   5
ATOM      5  C   UNL     1      19.152 -34.019  22.107  1.00  0.00    -0.000 C 
BRANCH   5   6
ATOM      6  C   UNL     1      19.316 -33.014  20.955  1.00  0.00    -0.000 C 
BRANCH   6   7
ATOM      7  C   UNL     1      18.069 -32.132  20.764  1.00  0.00    -0.000 C 
BRANCH   7   8
ATOM      8  C   UNL     1      17.705 -31.340  22.031  1.00  0.00    -0.000 C 
BRANCH   8   9
ATOM      9  C   UNL     1      17.153 -29.939  21.714  1.00  0.00    -0.000 C 
BRANCH   9  10
ATOM     10  C   UNL     1      15.636 -29.824  21.952  1.00  0.00    -0.000 C 
BRANCH  10  11
ATOM     11  C   UNL     1      15.204 -29.862  23.429  1.00  0.00    -0.003 C 
ATOM     12  C   UNL     1      13.744 -30.272  23.617  1.00  0.00     0.004 C 
ENDBRANCH  10  11
ENDBRANCH   9  10
ENDBRANCH   8   9
ENDBRANCH   7   8
ENDBRANCH   6   7
ENDBRANCH   5   6
ENDBRANCH   4   5
ENDBRANCH   3   4
ENDBRANCH   2   3
ENDBRANCH   1   2
BRANCH   1  13
ATOM     13  C   UNL     1      15.619 -35.313  20.681  1.00  0.00     0.000 C 
BRANCH  13  14
ATOM     14  C   UNL     1      14.951 -33.930  20.792  1.00  0.00     0.000 C 
BRANCH  14  15
ATOM     15  C   UNL     1      14.752 -33.479  22.250  1.00  0.00     0.000 C 
BRANCH  15  16
ATOM     16  C   UNL     1      15.536 -34.293  23.299  1.00  0.00     0.000 C 
BRANCH  16  17
ATOM     17  C   UNL     1      15.944 -33.510  24.562  1.00  0.00     0.000 C 
BRANCH  17  18
ATOM     18  C   UNL     1      17.246 -33.991  25.234  1.00  0.00     0.000 C 
BRANCH  18  19
ATOM     19  C   UNL     1      17.287 -35.495  25.572  1.00  0.00     0.000 C 
BRANCH  19  20
ATOM     20  C   UNL     1      18.594 -36.217  25.186  1.00  0.00     0.006 C 
BRANCH  20  21
ATOM     21  C   UNL     1      18.545 -37.745  25.338  1.00  0.00     0.053 C 
BRANCH  21  22
ATOM     22  C   UNL     1      18.155 -38.161  26.723  1.00  0.00     0.041 C 
ATOM     23  O   UNL     1      18.960 -38.010  27.680  1.00  0.00    -0.550 OA
ATOM     24  O   UNL     1      16.916 -38.746  26.951  1.00  0.00    -0.550 OA
ENDBRANCH  21  22
ENDBRANCH  20  21
ENDBRANCH  19  20
ENDBRANCH  18  19
ENDBRANCH  17  18
ENDBRANCH  16  17
ENDBRANCH  15  16
ENDBRANCH  14  15
ENDBRANCH  13  14
ENDBRANCH   1  13
TORSDOF 20
ENDMDL
