MODEL 1
REMARK VINA RESULT:    -4.978      0.000      0.000
REMARK INTER + INTRA:          -7.730
REMARK INTER:                  -7.016
REMARK INTRA:                  -0.714
REMARK UNBOUND:                -0.714
REMARK SMILES CC(=O)OCC[C@H](C)CCC=C(C)C
REMARK SMILES IDX 8 1 7 2 9 3 10 4 11 5 12 6 13 7 14 8 6 9 5 10 4 11 2 12 3 13
REMARK SMILES IDX 1 14
REMARK H PARENT
REMARK Flexibility Score: inf
ROOT
ATOM      1  C   UNL     1      -5.824  63.325   6.605  1.00  0.00     0.008 C 
ATOM      2  C   UNL     1      -5.238  63.913   5.308  1.00  0.00    -0.011 C 
ENDROOT
BRANCH   2   3
ATOM      3  C   UNL     1      -5.968  65.218   4.908  1.00  0.00     0.007 C 
BRANCH   3   4
ATOM      4  C   UNL     1      -7.489  65.040   4.773  1.00  0.00     0.027 C 
BRANCH   4   5
ATOM      5  C   UNL     1      -7.980  65.609   3.465  1.00  0.00    -0.028 C 
ATOM      6  C   UNL     1      -8.710  64.921   2.559  1.00  0.00    -0.080 C 
ATOM      7  C   UNL     1      -9.065  63.466   2.758  1.00  0.00     0.039 C 
ATOM      8  C   UNL     1      -9.165  65.634   1.312  1.00  0.00     0.039 C 
ENDBRANCH   4   5
ENDBRANCH   3   4
ENDBRANCH   2   3
BRANCH   2   9
ATOM      9  C   UNL     1      -5.324  62.896   4.143  1.00  0.00     0.045 C 
BRANCH   9  10
ATOM     10  C   UNL     1      -5.079  61.442   4.562  1.00  0.00     0.233 C 
BRANCH  10  11
ATOM     11  O   UNL     1      -6.183  60.625   4.184  1.00  0.00    -0.466 OA
BRANCH  11  12
ATOM     12  C   UNL     1      -6.172  59.829   3.035  1.00  0.00     0.302 C 
ATOM     13  O   UNL     1      -5.207  59.055   2.794  1.00  0.00    -0.253 OA
ATOM     14  C   UNL     1      -7.294  59.937   2.058  1.00  0.00     0.139 C 
ENDBRANCH  11  12
ENDBRANCH  10  11
ENDBRANCH   9  10
ENDBRANCH   2   9
TORSDOF 7
ENDMDL
MODEL 2
REMARK VINA RESULT:    -4.881      1.953      3.842
REMARK INTER + INTRA:          -7.593
REMARK INTER:                  -6.731
REMARK INTRA:                  -0.862
REMARK UNBOUND:                -0.714
REMARK SMILES CC(=O)OCC[C@H](C)CCC=C(C)C
REMARK SMILES IDX 8 1 7 2 9 3 10 4 11 5 12 6 13 7 14 8 6 9 5 10 4 11 2 12 3 13
REMARK SMILES IDX 1 14
REMARK H PARENT
REMARK Flexibility Score: inf
ROOT
ATOM      1  C   UNL     1      -6.751  60.010   2.516  1.00  0.00     0.008 C 
ATOM      2  C   UNL     1      -6.361  60.904   3.708  1.00  0.00    -0.011 C 
ENDROOT
BRANCH   2   3
ATOM      3  C   UNL     1      -7.558  61.771   4.169  1.00  0.00     0.007 C 
BRANCH   3   4
ATOM      4  C   UNL     1      -8.204  62.565   3.022  1.00  0.00     0.027 C 
BRANCH   4   5
ATOM      5  C   UNL     1      -9.345  63.409   3.533  1.00  0.00    -0.028 C 
ATOM      6  C   UNL     1      -9.715  64.595   2.999  1.00  0.00    -0.080 C 
ATOM      7  C   UNL     1      -8.966  65.222   1.847  1.00  0.00     0.039 C 
ATOM      8  C   UNL     1     -10.903  65.309   3.591  1.00  0.00     0.039 C 
ENDBRANCH   4   5
ENDBRANCH   3   4
ENDBRANCH   2   3
BRANCH   2   9
ATOM      9  C   UNL     1      -5.166  61.823   3.351  1.00  0.00     0.045 C 
BRANCH   9  10
ATOM     10  C   UNL     1      -4.457  62.427   4.569  1.00  0.00     0.233 C 
BRANCH  10  11
ATOM     11  O   UNL     1      -4.658  63.837   4.608  1.00  0.00    -0.466 OA
BRANCH  11  12
ATOM     12  C   UNL     1      -5.698  64.430   5.330  1.00  0.00     0.302 C 
ATOM     13  O   UNL     1      -5.981  64.037   6.494  1.00  0.00    -0.253 OA
ATOM     14  C   UNL     1      -6.512  65.505   4.695  1.00  0.00     0.139 C 
ENDBRANCH  11  12
ENDBRANCH  10  11
ENDBRANCH   9  10
ENDBRANCH   2   9
TORSDOF 7
ENDMDL
MODEL 3
REMARK VINA RESULT:    -4.819      2.054      3.238
REMARK INTER + INTRA:          -7.505
REMARK INTER:                  -6.538
REMARK INTRA:                  -0.966
REMARK UNBOUND:                -0.714
REMARK SMILES CC(=O)OCC[C@H](C)CCC=C(C)C
REMARK SMILES IDX 8 1 7 2 9 3 10 4 11 5 12 6 13 7 14 8 6 9 5 10 4 11 2 12 3 13
REMARK SMILES IDX 1 14
REMARK H PARENT
REMARK Flexibility Score: inf
ROOT
ATOM      1  C   UNL     1      -6.849  64.491   5.688  1.00  0.00     0.008 C 
ATOM      2  C   UNL     1      -6.493  63.807   4.355  1.00  0.00    -0.011 C 
ENDROOT
BRANCH   2   3
ATOM      3  C   UNL     1      -7.378  62.559   4.115  1.00  0.00     0.007 C 
BRANCH   3   4
ATOM      4  C   UNL     1      -8.423  62.766   3.006  1.00  0.00     0.027 C 
BRANCH   4   5
ATOM      5  C   UNL     1      -9.562  63.624   3.498  1.00  0.00    -0.028 C 
ATOM      6  C   UNL     1      -9.833  64.867   3.042  1.00  0.00    -0.080 C 
ATOM      7  C   UNL     1      -8.964  65.547   2.010  1.00  0.00     0.039 C 
ATOM      8  C   UNL     1     -11.031  65.592   3.600  1.00  0.00     0.039 C 
ENDBRANCH   4   5
ENDBRANCH   3   4
ENDBRANCH   2   3
BRANCH   2   9
ATOM      9  C   UNL     1      -5.000  63.395   4.317  1.00  0.00     0.045 C 
BRANCH   9  10
ATOM     10  C   UNL     1      -4.771  61.880   4.273  1.00  0.00     0.233 C 
BRANCH  10  11
ATOM     11  O   UNL     1      -3.859  61.488   5.295  1.00  0.00    -0.466 OA
BRANCH  11  12
ATOM     12  C   UNL     1      -4.018  61.866   6.631  1.00  0.00     0.302 C 
ATOM     13  O   UNL     1      -3.119  62.517   7.229  1.00  0.00    -0.253 OA
ATOM     14  C   UNL     1      -5.244  61.449   7.371  1.00  0.00     0.139 C 
ENDBRANCH  11  12
ENDBRANCH  10  11
ENDBRANCH   9  10
ENDBRANCH   2   9
TORSDOF 7
ENDMDL
MODEL 4
REMARK VINA RESULT:    -4.802     13.912     15.435
REMARK INTER + INTRA:          -7.481
REMARK INTER:                  -6.995
REMARK INTRA:                  -0.487
REMARK UNBOUND:                -0.714
REMARK SMILES CC(=O)OCC[C@H](C)CCC=C(C)C
REMARK SMILES IDX 8 1 7 2 9 3 10 4 11 5 12 6 13 7 14 8 6 9 5 10 4 11 2 12 3 13
REMARK SMILES IDX 1 14
REMARK H PARENT
REMARK Flexibility Score: inf
ROOT
ATOM      1  C   UNL     1       2.891  52.066   7.051  1.00  0.00     0.008 C 
ATOM      2  C   UNL     1       4.135  52.945   6.821  1.00  0.00    -0.011 C 
ENDROOT
BRANCH   2   3
ATOM      3  C   UNL     1       4.926  53.146   8.138  1.00  0.00     0.007 C 
BRANCH   3   4
ATOM      4  C   UNL     1       4.200  54.055   9.143  1.00  0.00     0.027 C 
BRANCH   4   5
ATOM      5  C   UNL     1       5.190  54.771  10.028  1.00  0.00    -0.028 C 
ATOM      6  C   UNL     1       5.143  56.092  10.312  1.00  0.00    -0.080 C 
ATOM      7  C   UNL     1       4.099  57.003   9.711  1.00  0.00     0.039 C 
ATOM      8  C   UNL     1       6.179  56.663  11.247  1.00  0.00     0.039 C 
ENDBRANCH   4   5
ENDBRANCH   3   4
ENDBRANCH   2   3
BRANCH   2   9
ATOM      9  C   UNL     1       3.745  54.326   6.238  1.00  0.00     0.045 C 
BRANCH   9  10
ATOM     10  C   UNL     1       4.063  54.487   4.747  1.00  0.00     0.233 C 
BRANCH  10  11
ATOM     11  O   UNL     1       5.439  54.214   4.503  1.00  0.00    -0.466 OA
BRANCH  11  12
ATOM     12  C   UNL     1       6.060  54.504   3.284  1.00  0.00     0.302 C 
ATOM     13  O   UNL     1       5.380  54.832   2.275  1.00  0.00    -0.253 OA
ATOM     14  C   UNL     1       7.541  54.375   3.166  1.00  0.00     0.139 C 
ENDBRANCH  11  12
ENDBRANCH  10  11
ENDBRANCH   9  10
ENDBRANCH   2   9
TORSDOF 7
ENDMDL
MODEL 5
REMARK VINA RESULT:    -4.770      2.169      3.723
REMARK INTER + INTRA:          -7.437
REMARK INTER:                  -6.898
REMARK INTRA:                  -0.539
REMARK UNBOUND:                -0.714
REMARK SMILES CC(=O)OCC[C@H](C)CCC=C(C)C
REMARK SMILES IDX 8 1 7 2 9 3 10 4 11 5 12 6 13 7 14 8 6 9 5 10 4 11 2 12 3 13
REMARK SMILES IDX 1 14
REMARK H PARENT
REMARK Flexibility Score: inf
ROOT
ATOM      1  C   UNL     1      -7.099  60.380   2.702  1.00  0.00     0.008 C 
ATOM      2  C   UNL     1      -6.560  61.285   3.826  1.00  0.00    -0.011 C 
ENDROOT
BRANCH   2   3
ATOM      3  C   UNL     1      -7.507  62.484   4.079  1.00  0.00     0.007 C 
BRANCH   3   4
ATOM      4  C   UNL     1      -8.486  62.733   2.920  1.00  0.00     0.027 C 
BRANCH   4   5
ATOM      5  C   UNL     1      -9.646  63.585   3.374  1.00  0.00    -0.028 C 
ATOM      6  C   UNL     1      -9.774  64.903   3.106  1.00  0.00    -0.080 C 
ATOM      7  C   UNL     1      -8.715  65.673   2.352  1.00  0.00     0.039 C 
ATOM      8  C   UNL     1     -11.010  65.618   3.591  1.00  0.00     0.039 C 
ENDBRANCH   4   5
ENDBRANCH   3   4
ENDBRANCH   2   3
BRANCH   2   9
ATOM      9  C   UNL     1      -5.142  61.811   3.490  1.00  0.00     0.045 C 
BRANCH   9  10
ATOM     10  C   UNL     1      -4.498  62.632   4.612  1.00  0.00     0.233 C 
BRANCH  10  11
ATOM     11  O   UNL     1      -3.843  61.773   5.541  1.00  0.00    -0.466 OA
BRANCH  11  12
ATOM     12  C   UNL     1      -3.910  61.968   6.924  1.00  0.00     0.302 C 
ATOM     13  O   UNL     1      -2.973  62.542   7.541  1.00  0.00    -0.253 OA
ATOM     14  C   UNL     1      -5.083  61.445   7.682  1.00  0.00     0.139 C 
ENDBRANCH  11  12
ENDBRANCH  10  11
ENDBRANCH   9  10
ENDBRANCH   2   9
TORSDOF 7
ENDMDL
MODEL 6
REMARK VINA RESULT:    -4.627     13.856     15.618
REMARK INTER + INTRA:          -7.235
REMARK INTER:                  -6.380
REMARK INTRA:                  -0.855
REMARK UNBOUND:                -0.714
REMARK SMILES CC(=O)OCC[C@H](C)CCC=C(C)C
REMARK SMILES IDX 8 1 7 2 9 3 10 4 11 5 12 6 13 7 14 8 6 9 5 10 4 11 2 12 3 13
REMARK SMILES IDX 1 14
REMARK H PARENT
REMARK Flexibility Score: inf
ROOT
ATOM      1  C   UNL     1       4.030  52.735  10.056  1.00  0.00     0.008 C 
ATOM      2  C   UNL     1       4.909  53.539   9.079  1.00  0.00    -0.011 C 
ENDROOT
BRANCH   2   3
ATOM      3  C   UNL     1       4.124  54.728   8.473  1.00  0.00     0.007 C 
BRANCH   3   4
ATOM      4  C   UNL     1       3.945  55.896   9.457  1.00  0.00     0.027 C 
BRANCH   4   5
ATOM      5  C   UNL     1       5.267  56.287  10.069  1.00  0.00    -0.028 C 
ATOM      6  C   UNL     1       5.532  56.260  11.394  1.00  0.00    -0.080 C 
ATOM      7  C   UNL     1       4.484  55.877  12.412  1.00  0.00     0.039 C 
ATOM      8  C   UNL     1       6.915  56.641  11.858  1.00  0.00     0.039 C 
ENDBRANCH   4   5
ENDBRANCH   3   4
ENDBRANCH   2   3
BRANCH   2   9
ATOM      9  C   UNL     1       5.444  52.639   7.937  1.00  0.00     0.045 C 
BRANCH   9  10
ATOM     10  C   UNL     1       4.614  52.703   6.650  1.00  0.00     0.233 C 
BRANCH  10  11
ATOM     11  O   UNL     1       5.427  53.126   5.559  1.00  0.00    -0.466 OA
BRANCH  11  12
ATOM     12  C   UNL     1       5.014  54.103   4.647  1.00  0.00     0.302 C 
ATOM     13  O   UNL     1       5.787  54.502   3.735  1.00  0.00    -0.253 OA
ATOM     14  C   UNL     1       3.662  54.714   4.790  1.00  0.00     0.139 C 
ENDBRANCH  11  12
ENDBRANCH  10  11
ENDBRANCH   9  10
ENDBRANCH   2   9
TORSDOF 7
ENDMDL
MODEL 7
REMARK VINA RESULT:    -4.627     13.614     15.708
REMARK INTER + INTRA:          -7.235
REMARK INTER:                  -6.237
REMARK INTRA:                  -0.997
REMARK UNBOUND:                -0.714
REMARK SMILES CC(=O)OCC[C@H](C)CCC=C(C)C
REMARK SMILES IDX 8 1 7 2 9 3 10 4 11 5 12 6 13 7 14 8 6 9 5 10 4 11 2 12 3 13
REMARK SMILES IDX 1 14
REMARK H PARENT
REMARK Flexibility Score: inf
ROOT
ATOM      1  C   UNL     1       2.618  51.997   7.332  1.00  0.00     0.008 C 
ATOM      2  C   UNL     1       3.833  51.176   7.801  1.00  0.00    -0.011 C 
ENDROOT
BRANCH   2   3
ATOM      3  C   UNL     1       4.050  51.325   9.327  1.00  0.00     0.007 C 
BRANCH   3   4
ATOM      4  C   UNL     1       3.435  52.612   9.900  1.00  0.00     0.027 C 
BRANCH   4   5
ATOM      5  C   UNL     1       4.514  53.580  10.319  1.00  0.00    -0.028 C 
ATOM      6  C   UNL     1       4.566  54.875   9.938  1.00  0.00    -0.080 C 
ATOM      7  C   UNL     1       3.550  55.472   8.991  1.00  0.00     0.039 C 
ATOM      8  C   UNL     1       5.683  55.736  10.469  1.00  0.00     0.039 C 
ENDBRANCH   4   5
ENDBRANCH   3   4
ENDBRANCH   2   3
BRANCH   2   9
ATOM      9  C   UNL     1       5.121  51.603   7.053  1.00  0.00     0.045 C 
BRANCH   9  10
ATOM     10  C   UNL     1       5.148  53.082   6.650  1.00  0.00     0.233 C 
BRANCH  10  11
ATOM     11  O   UNL     1       5.324  53.207   5.242  1.00  0.00    -0.466 OA
BRANCH  11  12
ATOM     12  C   UNL     1       4.770  54.257   4.504  1.00  0.00     0.302 C 
ATOM     13  O   UNL     1       5.350  54.700   3.476  1.00  0.00    -0.253 OA
ATOM     14  C   UNL     1       3.504  54.893   4.969  1.00  0.00     0.139 C 
ENDBRANCH  11  12
ENDBRANCH  10  11
ENDBRANCH   9  10
ENDBRANCH   2   9
TORSDOF 7
ENDMDL
MODEL 8
REMARK VINA RESULT:    -4.620      2.394      4.058
REMARK INTER + INTRA:          -7.225
REMARK INTER:                  -6.420
REMARK INTRA:                  -0.805
REMARK UNBOUND:                -0.714
REMARK SMILES CC(=O)OCC[C@H](C)CCC=C(C)C
REMARK SMILES IDX 8 1 7 2 9 3 10 4 11 5 12 6 13 7 14 8 6 9 5 10 4 11 2 12 3 13
REMARK SMILES IDX 1 14
REMARK H PARENT
REMARK Flexibility Score: inf
ROOT
ATOM      1  C   UNL     1      -8.826  65.672   1.919  1.00  0.00     0.008 C 
ATOM      2  C   UNL     1      -8.812  64.584   3.009  1.00  0.00    -0.011 C 
ENDROOT
BRANCH   2   3
ATOM      3  C   UNL     1     -10.202  64.449   3.679  1.00  0.00     0.007 C 
BRANCH   3   4
ATOM      4  C   UNL     1     -10.985  65.772   3.714  1.00  0.00     0.027 C 
BRANCH   4   5
ATOM      5  C   UNL     1     -11.122  66.274   5.131  1.00  0.00    -0.028 C 
ATOM      6  C   UNL     1     -10.393  67.284   5.656  1.00  0.00    -0.080 C 
ATOM      7  C   UNL     1      -9.311  67.984   4.867  1.00  0.00     0.039 C 
ATOM      8  C   UNL     1     -10.668  67.705   7.077  1.00  0.00     0.039 C 
ENDBRANCH   4   5
ENDBRANCH   3   4
ENDBRANCH   2   3
BRANCH   2   9
ATOM      9  C   UNL     1      -7.746  64.889   4.091  1.00  0.00     0.045 C 
BRANCH   9  10
ATOM     10  C   UNL     1      -6.576  63.899   4.112  1.00  0.00     0.233 C 
BRANCH  10  11
ATOM     11  O   UNL     1      -7.022  62.599   3.737  1.00  0.00    -0.466 OA
BRANCH  11  12
ATOM     12  C   UNL     1      -6.284  61.443   4.006  1.00  0.00     0.302 C 
ATOM     13  O   UNL     1      -6.861  60.366   4.316  1.00  0.00    -0.253 OA
ATOM     14  C   UNL     1      -4.794  61.500   3.974  1.00  0.00     0.139 C 
ENDBRANCH  11  12
ENDBRANCH  10  11
ENDBRANCH   9  10
ENDBRANCH   2   9
TORSDOF 7
ENDMDL
MODEL 9
REMARK VINA RESULT:    -4.570      1.574      3.921
REMARK INTER + INTRA:          -7.155
REMARK INTER:                  -6.251
REMARK INTRA:                  -0.904
REMARK UNBOUND:                -0.714
REMARK SMILES CC(=O)OCC[C@H](C)CCC=C(C)C
REMARK SMILES IDX 8 1 7 2 9 3 10 4 11 5 12 6 13 7 14 8 6 9 5 10 4 11 2 12 3 13
REMARK SMILES IDX 1 14
REMARK H PARENT
REMARK Flexibility Score: inf
ROOT
ATOM      1  C   UNL     1      -9.084  65.402   2.051  1.00  0.00     0.008 C 
ATOM      2  C   UNL     1     -10.087  64.864   3.088  1.00  0.00    -0.011 C 
ENDROOT
BRANCH   2   3
ATOM      3  C   UNL     1     -10.343  65.904   4.207  1.00  0.00     0.007 C 
BRANCH   3   4
ATOM      4  C   UNL     1      -9.102  66.747   4.541  1.00  0.00     0.027 C 
BRANCH   4   5
ATOM      5  C   UNL     1      -8.494  66.308   5.850  1.00  0.00    -0.028 C 
ATOM      6  C   UNL     1      -7.300  65.684   5.965  1.00  0.00    -0.080 C 
ATOM      7  C   UNL     1      -6.471  65.313   4.757  1.00  0.00     0.039 C 
ATOM      8  C   UNL     1      -6.799  65.340   7.344  1.00  0.00     0.039 C 
ENDBRANCH   4   5
ENDBRANCH   3   4
ENDBRANCH   2   3
BRANCH   2   9
ATOM      9  C   UNL     1      -9.585  63.541   3.719  1.00  0.00     0.045 C 
BRANCH   9  10
ATOM     10  C   UNL     1      -8.539  62.804   2.876  1.00  0.00     0.233 C 
BRANCH  10  11
ATOM     11  O   UNL     1      -7.623  62.111   3.718  1.00  0.00    -0.466 OA
BRANCH  11  12
ATOM     12  C   UNL     1      -6.693  61.192   3.225  1.00  0.00     0.302 C 
ATOM     13  O   UNL     1      -5.472  61.284   3.525  1.00  0.00    -0.253 OA
ATOM     14  C   UNL     1      -7.145  60.119   2.293  1.00  0.00     0.139 C 
ENDBRANCH  11  12
ENDBRANCH  10  11
ENDBRANCH   9  10
ENDBRANCH   2   9
TORSDOF 7
ENDMDL
