MODEL 1
REMARK VINA RESULT:    -3.688      0.000      0.000
REMARK INTER + INTRA:          -8.287
REMARK INTER:                  -6.275
REMARK INTRA:                  -2.011
REMARK UNBOUND:                -2.011
REMARK SMILES CCCCCCCCCCCCCC(=O)[O-]
REMARK SMILES IDX 8 1 9 2 10 3 11 4 12 5 13 6 14 7 15 8 16 9 7 10 6 11 5 12
REMARK SMILES IDX 4 13 3 14 2 15 1 16
REMARK H PARENT
REMARK Flexibility Score: inf
ROOT
ATOM      1  C   UNL     1       7.444  -5.961  36.799  1.00  0.00     0.000 C 
ENDROOT
BRANCH   1   2
ATOM      2  C   UNL     1       8.358  -4.777  37.161  1.00  0.00     0.000 C 
BRANCH   2   3
ATOM      3  C   UNL     1       9.642  -5.151  37.930  1.00  0.00     0.000 C 
BRANCH   3   4
ATOM      4  C   UNL     1      10.908  -4.390  37.498  1.00  0.00     0.000 C 
BRANCH   4   5
ATOM      5  C   UNL     1      10.898  -4.014  36.006  1.00  0.00     0.006 C 
BRANCH   5   6
ATOM      6  C   UNL     1      12.288  -4.141  35.368  1.00  0.00     0.053 C 
BRANCH   6   7
ATOM      7  C   UNL     1      13.301  -3.282  36.060  1.00  0.00     0.041 C 
ATOM      8  O   UNL     1      14.366  -3.789  36.502  1.00  0.00    -0.550 OA
ATOM      9  O   UNL     1      13.085  -1.916  36.190  1.00  0.00    -0.550 OA
ENDBRANCH   6   7
ENDBRANCH   5   6
ENDBRANCH   4   5
ENDBRANCH   3   4
ENDBRANCH   2   3
ENDBRANCH   1   2
BRANCH   1  10
ATOM     10  C   UNL     1       7.129  -6.035  35.298  1.00  0.00     0.000 C 
BRANCH  10  11
ATOM     11  C   UNL     1       7.964  -5.017  34.511  1.00  0.00    -0.000 C 
BRANCH  11  12
ATOM     12  C   UNL     1       8.816  -5.717  33.441  1.00  0.00    -0.000 C 
BRANCH  12  13
ATOM     13  C   UNL     1       8.502  -7.217  33.319  1.00  0.00    -0.000 C 
BRANCH  13  14
ATOM     14  C   UNL     1       9.741  -8.101  33.545  1.00  0.00    -0.000 C 
BRANCH  14  15
ATOM     15  C   UNL     1      10.727  -7.485  34.551  1.00  0.00    -0.003 C 
ATOM     16  C   UNL     1      10.541  -8.024  35.970  1.00  0.00     0.004 C 
ENDBRANCH  14  15
ENDBRANCH  13  14
ENDBRANCH  12  13
ENDBRANCH  11  12
ENDBRANCH  10  11
ENDBRANCH   1  10
TORSDOF 12
ENDMDL
MODEL 2
REMARK VINA RESULT:    -3.499      1.231      3.127
REMARK INTER + INTRA:          -7.966
REMARK INTER:                  -6.206
REMARK INTRA:                  -1.760
REMARK UNBOUND:                -2.011
REMARK SMILES CCCCCCCCCCCCCC(=O)[O-]
REMARK SMILES IDX 8 1 9 2 10 3 11 4 12 5 13 6 14 7 15 8 16 9 7 10 6 11 5 12
REMARK SMILES IDX 4 13 3 14 2 15 1 16
REMARK H PARENT
REMARK Flexibility Score: inf
ROOT
ATOM      1  C   UNL     1      10.338  -9.266  35.143  1.00  0.00     0.000 C 
ENDROOT
BRANCH   1   2
ATOM      2  C   UNL     1      10.337  -8.523  36.490  1.00  0.00     0.000 C 
BRANCH   2   3
ATOM      3  C   UNL     1      10.897  -7.086  36.445  1.00  0.00     0.000 C 
BRANCH   3   4
ATOM      4  C   UNL     1      11.647  -6.637  37.713  1.00  0.00     0.000 C 
BRANCH   4   5
ATOM      5  C   UNL     1      12.147  -5.184  37.627  1.00  0.00     0.006 C 
BRANCH   5   6
ATOM      6  C   UNL     1      11.278  -4.328  36.696  1.00  0.00     0.053 C 
BRANCH   6   7
ATOM      7  C   UNL     1      12.093  -3.657  35.632  1.00  0.00     0.041 C 
ATOM      8  O   UNL     1      12.163  -4.158  34.478  1.00  0.00    -0.550 OA
ATOM      9  O   UNL     1      12.749  -2.464  35.904  1.00  0.00    -0.550 OA
ENDBRANCH   6   7
ENDBRANCH   5   6
ENDBRANCH   4   5
ENDBRANCH   3   4
ENDBRANCH   2   3
ENDBRANCH   1   2
BRANCH   1  10
ATOM     10  C   UNL     1      10.592  -8.336  33.948  1.00  0.00     0.000 C 
BRANCH  10  11
ATOM     11  C   UNL     1       9.385  -8.316  33.002  1.00  0.00    -0.000 C 
BRANCH  11  12
ATOM     12  C   UNL     1       8.371  -7.242  33.427  1.00  0.00    -0.000 C 
BRANCH  12  13
ATOM     13  C   UNL     1       8.952  -5.820  33.365  1.00  0.00    -0.000 C 
BRANCH  13  14
ATOM     14  C   UNL     1       8.385  -4.902  34.461  1.00  0.00    -0.000 C 
BRANCH  14  15
ATOM     15  C   UNL     1       7.236  -5.558  35.242  1.00  0.00    -0.003 C 
ATOM     16  C   UNL     1       7.544  -5.713  36.732  1.00  0.00     0.004 C 
ENDBRANCH  14  15
ENDBRANCH  13  14
ENDBRANCH  12  13
ENDBRANCH  11  12
ENDBRANCH  10  11
ENDBRANCH   1  10
TORSDOF 12
ENDMDL
MODEL 3
REMARK VINA RESULT:    -3.497      3.829      5.990
REMARK INTER + INTRA:          -7.961
REMARK INTER:                  -6.899
REMARK INTRA:                  -1.063
REMARK UNBOUND:                -2.011
REMARK SMILES CCCCCCCCCCCCCC(=O)[O-]
REMARK SMILES IDX 8 1 9 2 10 3 11 4 12 5 13 6 14 7 15 8 16 9 7 10 6 11 5 12
REMARK SMILES IDX 4 13 3 14 2 15 1 16
REMARK H PARENT
REMARK Flexibility Score: inf
ROOT
ATOM      1  C   UNL     1      14.429  -4.093  36.965  1.00  0.00     0.000 C 
ENDROOT
BRANCH   1   2
ATOM      2  C   UNL     1      12.997  -3.713  36.549  1.00  0.00     0.000 C 
BRANCH   2   3
ATOM      3  C   UNL     1      12.662  -3.951  35.062  1.00  0.00     0.000 C 
BRANCH   3   4
ATOM      4  C   UNL     1      11.203  -4.351  34.776  1.00  0.00     0.000 C 
BRANCH   4   5
ATOM      5  C   UNL     1      10.805  -5.676  35.450  1.00  0.00     0.006 C 
BRANCH   5   6
ATOM      6  C   UNL     1      10.059  -6.612  34.490  1.00  0.00     0.053 C 
BRANCH   6   7
ATOM      7  C   UNL     1       8.827  -5.970  33.928  1.00  0.00     0.041 C 
ATOM      8  O   UNL     1       7.883  -5.635  34.692  1.00  0.00    -0.550 OA
ATOM      9  O   UNL     1       8.734  -5.713  32.566  1.00  0.00    -0.550 OA
ENDBRANCH   6   7
ENDBRANCH   5   6
ENDBRANCH   4   5
ENDBRANCH   3   4
ENDBRANCH   2   3
ENDBRANCH   1   2
BRANCH   1  10
ATOM     10  C   UNL     1      14.469  -5.214  38.014  1.00  0.00     0.000 C 
BRANCH  10  11
ATOM     11  C   UNL     1      13.063  -5.521  38.542  1.00  0.00    -0.000 C 
BRANCH  11  12
ATOM     12  C   UNL     1      12.767  -7.028  38.471  1.00  0.00    -0.000 C 
BRANCH  12  13
ATOM     13  C   UNL     1      14.006  -7.890  38.764  1.00  0.00    -0.000 C 
BRANCH  13  14
ATOM     14  C   UNL     1      13.698  -9.397  38.732  1.00  0.00    -0.000 C 
BRANCH  14  15
ATOM     15  C   UNL     1      14.952 -10.248  38.478  1.00  0.00    -0.003 C 
ATOM     16  C   UNL     1      16.167  -9.411  38.077  1.00  0.00     0.004 C 
ENDBRANCH  14  15
ENDBRANCH  13  14
ENDBRANCH  12  13
ENDBRANCH  11  12
ENDBRANCH  10  11
ENDBRANCH   1  10
TORSDOF 12
ENDMDL
MODEL 4
REMARK VINA RESULT:    -3.438      1.720      3.461
REMARK INTER + INTRA:          -7.860
REMARK INTER:                  -5.907
REMARK INTRA:                  -1.954
REMARK UNBOUND:                -2.011
REMARK SMILES CCCCCCCCCCCCCC(=O)[O-]
REMARK SMILES IDX 8 1 9 2 10 3 11 4 12 5 13 6 14 7 15 8 16 9 7 10 6 11 5 12
REMARK SMILES IDX 4 13 3 14 2 15 1 16
REMARK H PARENT
REMARK Flexibility Score: inf
ROOT
ATOM      1  C   UNL     1       8.168  -7.877  33.634  1.00  0.00     0.000 C 
ENDROOT
BRANCH   1   2
ATOM      2  C   UNL     1       8.283  -6.542  34.389  1.00  0.00     0.000 C 
BRANCH   2   3
ATOM      3  C   UNL     1       8.795  -5.355  33.548  1.00  0.00     0.000 C 
BRANCH   3   4
ATOM      4  C   UNL     1       9.725  -4.379  34.291  1.00  0.00     0.000 C 
BRANCH   4   5
ATOM      5  C   UNL     1      11.065  -5.019  34.691  1.00  0.00     0.006 C 
BRANCH   5   6
ATOM      6  C   UNL     1      11.976  -4.036  35.438  1.00  0.00     0.053 C 
BRANCH   6   7
ATOM      7  C   UNL     1      11.853  -4.181  36.925  1.00  0.00     0.041 C 
ATOM      8  O   UNL     1      10.939  -3.578  37.547  1.00  0.00    -0.550 OA
ATOM      9  O   UNL     1      12.728  -5.007  37.619  1.00  0.00    -0.550 OA
ENDBRANCH   6   7
ENDBRANCH   5   6
ENDBRANCH   4   5
ENDBRANCH   3   4
ENDBRANCH   2   3
ENDBRANCH   1   2
BRANCH   1  10
ATOM     10  C   UNL     1       9.491  -8.312  32.987  1.00  0.00     0.000 C 
BRANCH  10  11
ATOM     11  C   UNL     1      10.551  -8.613  34.053  1.00  0.00    -0.000 C 
BRANCH  11  12
ATOM     12  C   UNL     1      10.095  -9.757  34.972  1.00  0.00    -0.000 C 
BRANCH  12  13
ATOM     13  C   UNL     1      10.378  -9.473  36.457  1.00  0.00    -0.000 C 
BRANCH  13  14
ATOM     14  C   UNL     1      10.855  -8.031  36.703  1.00  0.00    -0.000 C 
BRANCH  14  15
ATOM     15  C   UNL     1       9.973  -7.284  37.715  1.00  0.00    -0.003 C 
ATOM     16  C   UNL     1       8.548  -7.834  37.781  1.00  0.00     0.004 C 
ENDBRANCH  14  15
ENDBRANCH  13  14
ENDBRANCH  12  13
ENDBRANCH  11  12
ENDBRANCH  10  11
ENDBRANCH   1  10
TORSDOF 12
ENDMDL
MODEL 5
REMARK VINA RESULT:    -3.428      2.437      4.318
REMARK INTER + INTRA:          -7.844
REMARK INTER:                  -6.120
REMARK INTRA:                  -1.724
REMARK UNBOUND:                -2.011
REMARK SMILES CCCCCCCCCCCCCC(=O)[O-]
REMARK SMILES IDX 8 1 9 2 10 3 11 4 12 5 13 6 14 7 15 8 16 9 7 10 6 11 5 12
REMARK SMILES IDX 4 13 3 14 2 15 1 16
REMARK H PARENT
REMARK Flexibility Score: inf
ROOT
ATOM      1  C   UNL     1      10.632  -8.322  34.006  1.00  0.00     0.000 C 
ENDROOT
BRANCH   1   2
ATOM      2  C   UNL     1      10.405  -9.389  35.092  1.00  0.00     0.000 C 
BRANCH   2   3
ATOM      3  C   UNL     1      10.349  -8.852  36.537  1.00  0.00     0.000 C 
BRANCH   3   4
ATOM      4  C   UNL     1      11.201  -7.598  36.802  1.00  0.00     0.000 C 
BRANCH   4   5
ATOM      5  C   UNL     1      11.700  -7.512  38.255  1.00  0.00     0.006 C 
BRANCH   5   6
ATOM      6  C   UNL     1      12.797  -8.544  38.552  1.00  0.00     0.053 C 
BRANCH   6   7
ATOM      7  C   UNL     1      14.151  -7.910  38.643  1.00  0.00     0.041 C 
ATOM      8  O   UNL     1      14.262  -6.696  38.961  1.00  0.00    -0.550 OA
ATOM      9  O   UNL     1      15.292  -8.666  38.409  1.00  0.00    -0.550 OA
ENDBRANCH   6   7
ENDBRANCH   5   6
ENDBRANCH   4   5
ENDBRANCH   3   4
ENDBRANCH   2   3
ENDBRANCH   1   2
BRANCH   1  10
ATOM     10  C   UNL     1       9.412  -8.129  33.095  1.00  0.00     0.000 C 
BRANCH  10  11
ATOM     11  C   UNL     1       8.819  -6.724  33.262  1.00  0.00    -0.000 C 
BRANCH  11  12
ATOM     12  C   UNL     1       7.916  -6.653  34.503  1.00  0.00    -0.000 C 
BRANCH  12  13
ATOM     13  C   UNL     1       8.361  -5.570  35.499  1.00  0.00    -0.000 C 
BRANCH  13  14
ATOM     14  C   UNL     1       9.188  -4.457  34.832  1.00  0.00    -0.000 C 
BRANCH  14  15
ATOM     15  C   UNL     1      10.550  -4.250  35.511  1.00  0.00    -0.003 C 
ATOM     16  C   UNL     1      11.728  -4.592  34.598  1.00  0.00     0.004 C 
ENDBRANCH  14  15
ENDBRANCH  13  14
ENDBRANCH  12  13
ENDBRANCH  11  12
ENDBRANCH  10  11
ENDBRANCH   1  10
TORSDOF 12
ENDMDL
MODEL 6
REMARK VINA RESULT:    -3.418      1.103      2.808
REMARK INTER + INTRA:          -7.828
REMARK INTER:                  -5.984
REMARK INTRA:                  -1.843
REMARK UNBOUND:                -2.011
REMARK SMILES CCCCCCCCCCCCCC(=O)[O-]
REMARK SMILES IDX 8 1 9 2 10 3 11 4 12 5 13 6 14 7 15 8 16 9 7 10 6 11 5 12
REMARK SMILES IDX 4 13 3 14 2 15 1 16
REMARK H PARENT
REMARK Flexibility Score: inf
ROOT
ATOM      1  C   UNL     1       9.993  -8.667  36.865  1.00  0.00     0.000 C 
ENDROOT
BRANCH   1   2
ATOM      2  C   UNL     1      11.089  -7.590  36.776  1.00  0.00     0.000 C 
BRANCH   2   3
ATOM      3  C   UNL     1      10.862  -6.349  37.663  1.00  0.00     0.000 C 
BRANCH   3   4
ATOM      4  C   UNL     1      10.980  -4.996  36.938  1.00  0.00     0.000 C 
BRANCH   4   5
ATOM      5  C   UNL     1      11.522  -5.134  35.505  1.00  0.00     0.006 C 
BRANCH   5   6
ATOM      6  C   UNL     1      12.025  -3.796  34.946  1.00  0.00     0.053 C 
BRANCH   6   7
ATOM      7  C   UNL     1      12.995  -3.131  35.875  1.00  0.00     0.041 C 
ATOM      8  O   UNL     1      12.754  -1.980  36.325  1.00  0.00    -0.550 OA
ATOM      9  O   UNL     1      14.150  -3.796  36.269  1.00  0.00    -0.550 OA
ENDBRANCH   6   7
ENDBRANCH   5   6
ENDBRANCH   4   5
ENDBRANCH   3   4
ENDBRANCH   2   3
ENDBRANCH   1   2
BRANCH   1  10
ATOM     10  C   UNL     1       9.633  -9.265  35.497  1.00  0.00     0.000 C 
BRANCH  10  11
ATOM     11  C   UNL     1      10.579  -8.751  34.406  1.00  0.00    -0.000 C 
BRANCH  11  12
ATOM     12  C   UNL     1       9.796  -8.330  33.153  1.00  0.00    -0.000 C 
BRANCH  12  13
ATOM     13  C   UNL     1       8.390  -7.801  33.482  1.00  0.00    -0.000 C 
BRANCH  13  14
ATOM     14  C   UNL     1       8.365  -6.277  33.691  1.00  0.00    -0.000 C 
BRANCH  14  15
ATOM     15  C   UNL     1       8.018  -5.887  35.136  1.00  0.00    -0.003 C 
ATOM     16  C   UNL     1       6.588  -6.263  35.526  1.00  0.00     0.004 C 
ENDBRANCH  14  15
ENDBRANCH  13  14
ENDBRANCH  12  13
ENDBRANCH  11  12
ENDBRANCH  10  11
ENDBRANCH   1  10
TORSDOF 12
ENDMDL
MODEL 7
REMARK VINA RESULT:    -3.372      1.529      3.508
REMARK INTER + INTRA:          -7.748
REMARK INTER:                  -5.661
REMARK INTRA:                  -2.087
REMARK UNBOUND:                -2.011
REMARK SMILES CCCCCCCCCCCCCC(=O)[O-]
REMARK SMILES IDX 8 1 9 2 10 3 11 4 12 5 13 6 14 7 15 8 16 9 7 10 6 11 5 12
REMARK SMILES IDX 4 13 3 14 2 15 1 16
REMARK H PARENT
REMARK Flexibility Score: inf
ROOT
ATOM      1  C   UNL     1       8.934  -7.024  33.629  1.00  0.00     0.000 C 
ENDROOT
BRANCH   1   2
ATOM      2  C   UNL     1      10.294  -7.190  34.331  1.00  0.00     0.000 C 
BRANCH   2   3
ATOM      3  C   UNL     1      10.279  -8.091  35.583  1.00  0.00     0.000 C 
BRANCH   3   4
ATOM      4  C   UNL     1      10.552  -7.366  36.913  1.00  0.00     0.000 C 
BRANCH   4   5
ATOM      5  C   UNL     1      11.215  -5.991  36.719  1.00  0.00     0.006 C 
BRANCH   5   6
ATOM      6  C   UNL     1      10.720  -4.960  37.742  1.00  0.00     0.053 C 
BRANCH   6   7
ATOM      7  C   UNL     1      10.864  -3.557  37.236  1.00  0.00     0.041 C 
ATOM      8  O   UNL     1      11.816  -3.255  36.469  1.00  0.00    -0.550 OA
ATOM      9  O   UNL     1       9.930  -2.591  37.587  1.00  0.00    -0.550 OA
ENDBRANCH   6   7
ENDBRANCH   5   6
ENDBRANCH   4   5
ENDBRANCH   3   4
ENDBRANCH   2   3
ENDBRANCH   1   2
BRANCH   1  10
ATOM     10  C   UNL     1       8.709  -5.603  33.093  1.00  0.00     0.000 C 
BRANCH  10  11
ATOM     11  C   UNL     1       9.132  -4.553  34.127  1.00  0.00    -0.000 C 
BRANCH  11  12
ATOM     12  C   UNL     1       7.919  -3.751  34.623  1.00  0.00    -0.000 C 
BRANCH  12  13
ATOM     13  C   UNL     1       7.329  -4.314  35.927  1.00  0.00    -0.000 C 
BRANCH  13  14
ATOM     14  C   UNL     1       5.922  -4.905  35.733  1.00  0.00    -0.000 C 
BRANCH  14  15
ATOM     15  C   UNL     1       5.930  -6.441  35.700  1.00  0.00    -0.003 C 
ATOM     16  C   UNL     1       6.837  -7.054  36.767  1.00  0.00     0.004 C 
ENDBRANCH  14  15
ENDBRANCH  13  14
ENDBRANCH  12  13
ENDBRANCH  11  12
ENDBRANCH  10  11
ENDBRANCH   1  10
TORSDOF 12
ENDMDL
MODEL 8
REMARK VINA RESULT:    -3.326      1.500      3.913
REMARK INTER + INTRA:          -7.671
REMARK INTER:                  -5.613
REMARK INTRA:                  -2.057
REMARK UNBOUND:                -2.011
REMARK SMILES CCCCCCCCCCCCCC(=O)[O-]
REMARK SMILES IDX 8 1 9 2 10 3 11 4 12 5 13 6 14 7 15 8 16 9 7 10 6 11 5 12
REMARK SMILES IDX 4 13 3 14 2 15 1 16
REMARK H PARENT
REMARK Flexibility Score: inf
ROOT
ATOM      1  C   UNL     1       9.684  -8.291  33.138  1.00  0.00     0.000 C 
ENDROOT
BRANCH   1   2
ATOM      2  C   UNL     1       8.507  -7.299  33.154  1.00  0.00     0.000 C 
BRANCH   2   3
ATOM      3  C   UNL     1       8.906  -5.809  33.152  1.00  0.00     0.000 C 
BRANCH   3   4
ATOM      4  C   UNL     1       8.276  -4.961  34.271  1.00  0.00     0.000 C 
BRANCH   4   5
ATOM      5  C   UNL     1       9.321  -4.191  35.097  1.00  0.00     0.006 C 
BRANCH   5   6
ATOM      6  C   UNL     1      10.744  -4.386  34.555  1.00  0.00     0.053 C 
BRANCH   6   7
ATOM      7  C   UNL     1      11.782  -4.106  35.599  1.00  0.00     0.041 C 
ATOM      8  O   UNL     1      12.951  -3.784  35.260  1.00  0.00    -0.550 OA
ATOM      9  O   UNL     1      11.450  -4.169  36.947  1.00  0.00    -0.550 OA
ENDBRANCH   6   7
ENDBRANCH   5   6
ENDBRANCH   4   5
ENDBRANCH   3   4
ENDBRANCH   2   3
ENDBRANCH   1   2
BRANCH   1  10
ATOM     10  C   UNL     1      10.742  -7.978  34.206  1.00  0.00     0.000 C 
BRANCH  10  11
ATOM     11  C   UNL     1      10.343  -8.567  35.564  1.00  0.00    -0.000 C 
BRANCH  11  12
ATOM     12  C   UNL     1      10.013  -7.453  36.570  1.00  0.00    -0.000 C 
BRANCH  12  13
ATOM     13  C   UNL     1       8.769  -7.767  37.417  1.00  0.00    -0.000 C 
BRANCH  13  14
ATOM     14  C   UNL     1       7.486  -7.858  36.573  1.00  0.00    -0.000 C 
BRANCH  14  15
ATOM     15  C   UNL     1       6.486  -6.739  36.902  1.00  0.00    -0.003 C 
ATOM     16  C   UNL     1       5.389  -6.594  35.847  1.00  0.00     0.004 C 
ENDBRANCH  14  15
ENDBRANCH  13  14
ENDBRANCH  12  13
ENDBRANCH  11  12
ENDBRANCH  10  11
ENDBRANCH   1  10
TORSDOF 12
ENDMDL
MODEL 9
REMARK VINA RESULT:    -3.279      1.944      3.897
REMARK INTER + INTRA:          -7.591
REMARK INTER:                  -5.985
REMARK INTRA:                  -1.606
REMARK UNBOUND:                -2.011
REMARK SMILES CCCCCCCCCCCCCC(=O)[O-]
REMARK SMILES IDX 8 1 9 2 10 3 11 4 12 5 13 6 14 7 15 8 16 9 7 10 6 11 5 12
REMARK SMILES IDX 4 13 3 14 2 15 1 16
REMARK H PARENT
REMARK Flexibility Score: inf
ROOT
ATOM      1  C   UNL     1       9.450  -7.907  33.134  1.00  0.00     0.000 C 
ENDROOT
BRANCH   1   2
ATOM      2  C   UNL     1       8.143  -7.747  33.930  1.00  0.00     0.000 C 
BRANCH   2   3
ATOM      3  C   UNL     1       7.918  -6.352  34.547  1.00  0.00     0.000 C 
BRANCH   3   4
ATOM      4  C   UNL     1       8.790  -5.228  33.958  1.00  0.00     0.000 C 
BRANCH   4   5
ATOM      5  C   UNL     1       9.692  -4.559  35.009  1.00  0.00     0.006 C 
BRANCH   5   6
ATOM      6  C   UNL     1      11.182  -4.795  34.727  1.00  0.00     0.053 C 
BRANCH   6   7
ATOM      7  C   UNL     1      12.051  -4.249  35.819  1.00  0.00     0.041 C 
ATOM      8  O   UNL     1      12.939  -3.395  35.555  1.00  0.00    -0.550 OA
ATOM      9  O   UNL     1      11.860  -4.659  37.132  1.00  0.00    -0.550 OA
ENDBRANCH   6   7
ENDBRANCH   5   6
ENDBRANCH   4   5
ENDBRANCH   3   4
ENDBRANCH   2   3
ENDBRANCH   1   2
BRANCH   1  10
ATOM     10  C   UNL     1      10.511  -8.724  33.887  1.00  0.00     0.000 C 
BRANCH  10  11
ATOM     11  C   UNL     1      10.099  -8.947  35.347  1.00  0.00    -0.000 C 
BRANCH  11  12
ATOM     12  C   UNL     1      10.924  -8.059  36.292  1.00  0.00    -0.000 C 
BRANCH  12  13
ATOM     13  C   UNL     1      10.180  -7.729  37.596  1.00  0.00    -0.000 C 
BRANCH  13  14
ATOM     14  C   UNL     1      11.080  -7.854  38.838  1.00  0.00    -0.000 C 
BRANCH  14  15
ATOM     15  C   UNL     1      12.495  -8.341  38.492  1.00  0.00    -0.003 C 
ATOM     16  C   UNL     1      13.584  -7.357  38.921  1.00  0.00     0.004 C 
ENDBRANCH  14  15
ENDBRANCH  13  14
ENDBRANCH  12  13
ENDBRANCH  11  12
ENDBRANCH  10  11
ENDBRANCH   1  10
TORSDOF 12
ENDMDL
