MODEL 1
REMARK VINA RESULT:    -3.906      0.000      0.000
REMARK INTER + INTRA:          -6.417
REMARK INTER:                  -5.733
REMARK INTRA:                  -0.683
REMARK UNBOUND:                -0.683
REMARK SMILES O=C([O-])CCCCCCCC(=O)[O-]
REMARK SMILES IDX 7 1 6 2 5 3 4 4 2 5 1 6 3 7 8 8 9 9 10 10 11 11 12 12 13 13
REMARK H PARENT
REMARK Flexibility Score: inf
ROOT
ATOM      1  C   UNL     1     -44.675 -34.988  36.698  1.00  0.00     0.000 C 
ENDROOT
BRANCH   1   2
ATOM      2  C   UNL     1     -44.471 -36.511  36.740  1.00  0.00     0.000 C 
BRANCH   2   3
ATOM      3  C   UNL     1     -45.813 -37.240  36.879  1.00  0.00     0.006 C 
BRANCH   3   4
ATOM      4  C   UNL     1     -46.119 -37.553  38.347  1.00  0.00     0.053 C 
BRANCH   4   5
ATOM      5  C   UNL     1     -47.370 -36.858  38.781  1.00  0.00     0.041 C 
ATOM      6  O   UNL     1     -48.412 -37.522  39.027  1.00  0.00    -0.550 OA
ATOM      7  O   UNL     1     -47.373 -35.481  38.963  1.00  0.00    -0.550 OA
ENDBRANCH   4   5
ENDBRANCH   3   4
ENDBRANCH   2   3
ENDBRANCH   1   2
BRANCH   1   8
ATOM      8  C   UNL     1     -44.155 -34.285  37.962  1.00  0.00     0.000 C 
BRANCH   8   9
ATOM      9  C   UNL     1     -42.942 -34.997  38.580  1.00  0.00     0.006 C 
BRANCH   9  10
ATOM     10  C   UNL     1     -41.649 -34.232  38.284  1.00  0.00     0.053 C 
BRANCH  10  11
ATOM     11  C   UNL     1     -40.721 -35.068  37.462  1.00  0.00     0.041 C 
ATOM     12  O   UNL     1     -39.658 -35.517  37.965  1.00  0.00    -0.550 OA
ATOM     13  O   UNL     1     -41.055 -35.394  36.153  1.00  0.00    -0.550 OA
ENDBRANCH  10  11
ENDBRANCH   9  10
ENDBRANCH   8   9
ENDBRANCH   1   8
TORSDOF 8
ENDMDL
MODEL 2
REMARK VINA RESULT:    -3.831      0.459      5.990
REMARK INTER + INTRA:          -6.305
REMARK INTER:                  -5.670
REMARK INTRA:                  -0.636
REMARK UNBOUND:                -0.683
REMARK SMILES O=C([O-])CCCCCCCC(=O)[O-]
REMARK SMILES IDX 7 1 6 2 5 3 4 4 2 5 1 6 3 7 8 8 9 9 10 10 11 11 12 12 13 13
REMARK H PARENT
REMARK Flexibility Score: inf
ROOT
ATOM      1  C   UNL     1     -44.513 -34.884  36.829  1.00  0.00     0.000 C 
ENDROOT
BRANCH   1   2
ATOM      2  C   UNL     1     -43.761 -34.239  38.003  1.00  0.00     0.000 C 
BRANCH   2   3
ATOM      3  C   UNL     1     -42.563 -35.098  38.425  1.00  0.00     0.006 C 
BRANCH   3   4
ATOM      4  C   UNL     1     -41.245 -34.468  37.965  1.00  0.00     0.053 C 
BRANCH   4   5
ATOM      5  C   UNL     1     -40.565 -35.348  36.966  1.00  0.00     0.041 C 
ATOM      6  O   UNL     1     -41.115 -35.595  35.860  1.00  0.00    -0.550 OA
ATOM      7  O   UNL     1     -39.300 -35.857  37.233  1.00  0.00    -0.550 OA
ENDBRANCH   4   5
ENDBRANCH   3   4
ENDBRANCH   2   3
ENDBRANCH   1   2
BRANCH   1   8
ATOM      8  C   UNL     1     -44.397 -36.417  36.821  1.00  0.00     0.000 C 
BRANCH   8   9
ATOM      9  C   UNL     1     -45.765 -37.115  36.801  1.00  0.00     0.006 C 
BRANCH   9  10
ATOM     10  C   UNL     1     -46.086 -37.730  38.166  1.00  0.00     0.053 C 
BRANCH  10  11
ATOM     11  C   UNL     1     -47.157 -36.944  38.856  1.00  0.00     0.041 C 
ATOM     12  O   UNL     1     -46.884 -35.842  39.399  1.00  0.00    -0.550 OA
ATOM     13  O   UNL     1     -48.467 -37.407  38.856  1.00  0.00    -0.550 OA
ENDBRANCH  10  11
ENDBRANCH   9  10
ENDBRANCH   8   9
ENDBRANCH   1   8
TORSDOF 8
ENDMDL
MODEL 3
REMARK VINA RESULT:    -3.819      2.461      3.721
REMARK INTER + INTRA:          -6.288
REMARK INTER:                  -5.881
REMARK INTRA:                  -0.407
REMARK UNBOUND:                -0.683
REMARK SMILES O=C([O-])CCCCCCCC(=O)[O-]
REMARK SMILES IDX 7 1 6 2 5 3 4 4 2 5 1 6 3 7 8 8 9 9 10 10 11 11 12 12 13 13
REMARK H PARENT
REMARK Flexibility Score: inf
ROOT
ATOM      1  C   UNL     1     -41.474 -35.514  36.715  1.00  0.00     0.000 C 
ENDROOT
BRANCH   1   2
ATOM      2  C   UNL     1     -42.255 -34.708  37.764  1.00  0.00     0.000 C 
BRANCH   2   3
ATOM      3  C   UNL     1     -43.614 -35.356  38.053  1.00  0.00     0.006 C 
BRANCH   3   4
ATOM      4  C   UNL     1     -44.431 -35.518  36.768  1.00  0.00     0.053 C 
BRANCH   4   5
ATOM      5  C   UNL     1     -45.072 -36.869  36.721  1.00  0.00     0.041 C 
ATOM      6  O   UNL     1     -44.400 -37.878  36.380  1.00  0.00    -0.550 OA
ATOM      7  O   UNL     1     -46.399 -37.023  37.103  1.00  0.00    -0.550 OA
ENDBRANCH   4   5
ENDBRANCH   3   4
ENDBRANCH   2   3
ENDBRANCH   1   2
BRANCH   1   8
ATOM      8  C   UNL     1     -39.960 -35.519  36.979  1.00  0.00     0.000 C 
BRANCH   8   9
ATOM      9  C   UNL     1     -39.611 -35.182  38.437  1.00  0.00     0.006 C 
BRANCH   9  10
ATOM     10  C   UNL     1     -38.892 -36.354  39.113  1.00  0.00     0.053 C 
BRANCH  10  11
ATOM     11  C   UNL     1     -39.101 -36.312  40.594  1.00  0.00     0.041 C 
ATOM     12  O   UNL     1     -38.988 -37.362  41.279  1.00  0.00    -0.550 OA
ATOM     13  O   UNL     1     -39.370 -35.104  41.224  1.00  0.00    -0.550 OA
ENDBRANCH  10  11
ENDBRANCH   9  10
ENDBRANCH   8   9
ENDBRANCH   1   8
TORSDOF 8
ENDMDL
MODEL 4
REMARK VINA RESULT:    -3.800      2.695      5.813
REMARK INTER + INTRA:          -6.260
REMARK INTER:                  -5.847
REMARK INTRA:                  -0.413
REMARK UNBOUND:                -0.683
REMARK SMILES O=C([O-])CCCCCCCC(=O)[O-]
REMARK SMILES IDX 7 1 6 2 5 3 4 4 2 5 1 6 3 7 8 8 9 9 10 10 11 11 12 12 13 13
REMARK H PARENT
REMARK Flexibility Score: inf
ROOT
ATOM      1  C   UNL     1     -42.670 -35.459  36.976  1.00  0.00     0.000 C 
ENDROOT
BRANCH   1   2
ATOM      2  C   UNL     1     -41.379 -35.717  36.184  1.00  0.00     0.000 C 
BRANCH   2   3
ATOM      3  C   UNL     1     -40.199 -34.953  36.796  1.00  0.00     0.006 C 
BRANCH   3   4
ATOM      4  C   UNL     1     -39.291 -35.892  37.597  1.00  0.00     0.053 C 
BRANCH   4   5
ATOM      5  C   UNL     1     -39.453 -35.652  39.063  1.00  0.00     0.041 C 
ATOM      6  O   UNL     1     -39.971 -34.581  39.477  1.00  0.00    -0.550 OA
ATOM      7  O   UNL     1     -39.078 -36.631  39.974  1.00  0.00    -0.550 OA
ENDBRANCH   4   5
ENDBRANCH   3   4
ENDBRANCH   2   3
ENDBRANCH   1   2
BRANCH   1   8
ATOM      8  C   UNL     1     -43.911 -35.369  36.073  1.00  0.00     0.000 C 
BRANCH   8   9
ATOM      9  C   UNL     1     -45.225 -35.391  36.867  1.00  0.00     0.006 C 
BRANCH   9  10
ATOM     10  C   UNL     1     -45.152 -34.450  38.074  1.00  0.00     0.053 C 
BRANCH  10  11
ATOM     11  C   UNL     1     -45.339 -33.030  37.643  1.00  0.00     0.041 C 
ATOM     12  O   UNL     1     -44.486 -32.157  37.951  1.00  0.00    -0.550 OA
ATOM     13  O   UNL     1     -46.430 -32.680  36.858  1.00  0.00    -0.550 OA
ENDBRANCH  10  11
ENDBRANCH   9  10
ENDBRANCH   8   9
ENDBRANCH   1   8
TORSDOF 8
ENDMDL
MODEL 5
REMARK VINA RESULT:    -3.788      2.813      3.670
REMARK INTER + INTRA:          -6.243
REMARK INTER:                  -5.829
REMARK INTRA:                  -0.414
REMARK UNBOUND:                -0.683
REMARK SMILES O=C([O-])CCCCCCCC(=O)[O-]
REMARK SMILES IDX 7 1 6 2 5 3 4 4 2 5 1 6 3 7 8 8 9 9 10 10 11 11 12 12 13 13
REMARK H PARENT
REMARK Flexibility Score: inf
ROOT
ATOM      1  C   UNL     1     -42.686 -35.313  36.949  1.00  0.00     0.000 C 
ENDROOT
BRANCH   1   2
ATOM      2  C   UNL     1     -44.036 -35.548  36.253  1.00  0.00     0.000 C 
BRANCH   2   3
ATOM      3  C   UNL     1     -45.053 -34.473  36.653  1.00  0.00     0.006 C 
BRANCH   3   4
ATOM      4  C   UNL     1     -44.564 -33.677  37.867  1.00  0.00     0.053 C 
BRANCH   4   5
ATOM      5  C   UNL     1     -45.227 -32.338  37.916  1.00  0.00     0.041 C 
ATOM      6  O   UNL     1     -44.544 -31.287  37.788  1.00  0.00    -0.550 OA
ATOM      7  O   UNL     1     -46.606 -32.249  38.054  1.00  0.00    -0.550 OA
ENDBRANCH   4   5
ENDBRANCH   3   4
ENDBRANCH   2   3
ENDBRANCH   1   2
BRANCH   1   8
ATOM      8  C   UNL     1     -41.495 -35.820  36.119  1.00  0.00     0.000 C 
BRANCH   8   9
ATOM      9  C   UNL     1     -40.142 -35.512  36.776  1.00  0.00     0.006 C 
BRANCH   9  10
ATOM     10  C   UNL     1     -40.308 -34.527  37.938  1.00  0.00     0.053 C 
BRANCH  10  11
ATOM     11  C   UNL     1     -39.773 -35.117  39.205  1.00  0.00     0.041 C 
ATOM     12  O   UNL     1     -40.033 -34.579  40.313  1.00  0.00    -0.550 OA
ATOM     13  O   UNL     1     -39.028 -36.289  39.165  1.00  0.00    -0.550 OA
ENDBRANCH  10  11
ENDBRANCH   9  10
ENDBRANCH   8   9
ENDBRANCH   1   8
TORSDOF 8
ENDMDL
MODEL 6
REMARK VINA RESULT:    -3.782      1.252      5.471
REMARK INTER + INTRA:          -6.234
REMARK INTER:                  -5.442
REMARK INTRA:                  -0.793
REMARK UNBOUND:                -0.683
REMARK SMILES O=C([O-])CCCCCCCC(=O)[O-]
REMARK SMILES IDX 7 1 6 2 5 3 4 4 2 5 1 6 3 7 8 8 9 9 10 10 11 11 12 12 13 13
REMARK H PARENT
REMARK Flexibility Score: inf
ROOT
ATOM      1  C   UNL     1     -44.440 -36.603  36.685  1.00  0.00     0.000 C 
ENDROOT
BRANCH   1   2
ATOM      2  C   UNL     1     -44.870 -35.140  36.502  1.00  0.00     0.000 C 
BRANCH   2   3
ATOM      3  C   UNL     1     -44.390 -34.276  37.674  1.00  0.00     0.006 C 
BRANCH   3   4
ATOM      4  C   UNL     1     -43.380 -35.036  38.539  1.00  0.00     0.053 C 
BRANCH   4   5
ATOM      5  C   UNL     1     -42.027 -34.408  38.439  1.00  0.00     0.041 C 
ATOM      6  O   UNL     1     -41.072 -35.040  37.913  1.00  0.00    -0.550 OA
ATOM      7  O   UNL     1     -41.829 -33.107  38.882  1.00  0.00    -0.550 OA
ENDBRANCH   4   5
ENDBRANCH   3   4
ENDBRANCH   2   3
ENDBRANCH   1   2
BRANCH   1   8
ATOM      8  C   UNL     1     -45.636 -37.563  36.800  1.00  0.00     0.000 C 
BRANCH   8   9
ATOM      9  C   UNL     1     -46.086 -37.778  38.253  1.00  0.00     0.006 C 
BRANCH   9  10
ATOM     10  C   UNL     1     -47.401 -37.045  38.532  1.00  0.00     0.053 C 
BRANCH  10  11
ATOM     11  C   UNL     1     -47.177 -35.909  39.481  1.00  0.00     0.041 C 
ATOM     12  O   UNL     1     -46.562 -36.099  40.562  1.00  0.00    -0.550 OA
ATOM     13  O   UNL     1     -47.605 -34.630  39.146  1.00  0.00    -0.550 OA
ENDBRANCH  10  11
ENDBRANCH   9  10
ENDBRANCH   8   9
ENDBRANCH   1   8
TORSDOF 8
ENDMDL
MODEL 7
REMARK VINA RESULT:    -3.721      3.192      4.833
REMARK INTER + INTRA:          -6.145
REMARK INTER:                  -5.767
REMARK INTRA:                  -0.378
REMARK UNBOUND:                -0.683
REMARK SMILES O=C([O-])CCCCCCCC(=O)[O-]
REMARK SMILES IDX 7 1 6 2 5 3 4 4 2 5 1 6 3 7 8 8 9 9 10 10 11 11 12 12 13 13
REMARK H PARENT
REMARK Flexibility Score: inf
ROOT
ATOM      1  C   UNL     1     -40.280 -34.478  37.747  1.00  0.00     0.000 C 
ENDROOT
BRANCH   1   2
ATOM      2  C   UNL     1     -39.887 -35.610  36.786  1.00  0.00     0.000 C 
BRANCH   2   3
ATOM      3  C   UNL     1     -41.123 -36.193  36.090  1.00  0.00     0.006 C 
BRANCH   3   4
ATOM      4  C   UNL     1     -42.320 -35.245  36.211  1.00  0.00     0.053 C 
BRANCH   4   5
ATOM      5  C   UNL     1     -43.429 -35.896  36.975  1.00  0.00     0.041 C 
ATOM      6  O   UNL     1     -43.717 -35.499  38.135  1.00  0.00    -0.550 OA
ATOM      7  O   UNL     1     -44.178 -36.908  36.388  1.00  0.00    -0.550 OA
ENDBRANCH   4   5
ENDBRANCH   3   4
ENDBRANCH   2   3
ENDBRANCH   1   2
BRANCH   1   8
ATOM      8  C   UNL     1     -39.619 -34.617  39.128  1.00  0.00     0.000 C 
BRANCH   8   9
ATOM      9  C   UNL     1     -39.281 -36.073  39.479  1.00  0.00     0.006 C 
BRANCH   9  10
ATOM     10  C   UNL     1     -38.450 -36.147  40.764  1.00  0.00     0.053 C 
BRANCH  10  11
ATOM     11  C   UNL     1     -37.914 -37.530  40.962  1.00  0.00     0.041 C 
ATOM     12  O   UNL     1     -36.676 -37.747  40.884  1.00  0.00    -0.550 OA
ATOM     13  O   UNL     1     -38.777 -38.570  41.282  1.00  0.00    -0.550 OA
ENDBRANCH  10  11
ENDBRANCH   9  10
ENDBRANCH   8   9
ENDBRANCH   1   8
TORSDOF 8
ENDMDL
MODEL 8
REMARK VINA RESULT:    -3.672      2.729      5.507
REMARK INTER + INTRA:          -6.073
REMARK INTER:                  -5.636
REMARK INTRA:                  -0.437
REMARK UNBOUND:                -0.683
REMARK SMILES O=C([O-])CCCCCCCC(=O)[O-]
REMARK SMILES IDX 7 1 6 2 5 3 4 4 2 5 1 6 3 7 8 8 9 9 10 10 11 11 12 12 13 13
REMARK H PARENT
REMARK Flexibility Score: inf
ROOT
ATOM      1  C   UNL     1     -42.778 -35.633  36.980  1.00  0.00     0.000 C 
ENDROOT
BRANCH   1   2
ATOM      2  C   UNL     1     -41.485 -35.660  36.152  1.00  0.00     0.000 C 
BRANCH   2   3
ATOM      3  C   UNL     1     -40.303 -35.112  36.961  1.00  0.00     0.006 C 
BRANCH   3   4
ATOM      4  C   UNL     1     -40.723 -34.795  38.400  1.00  0.00     0.053 C 
BRANCH   4   5
ATOM      5  C   UNL     1     -40.739 -33.317  38.627  1.00  0.00     0.041 C 
ATOM      6  O   UNL     1     -41.595 -32.802  39.395  1.00  0.00    -0.550 OA
ATOM      7  O   UNL     1     -39.778 -32.511  38.030  1.00  0.00    -0.550 OA
ENDBRANCH   4   5
ENDBRANCH   3   4
ENDBRANCH   2   3
ENDBRANCH   1   2
BRANCH   1   8
ATOM      8  C   UNL     1     -44.030 -35.403  36.118  1.00  0.00     0.000 C 
BRANCH   8   9
ATOM      9  C   UNL     1     -45.271 -35.060  36.955  1.00  0.00     0.006 C 
BRANCH   9  10
ATOM     10  C   UNL     1     -45.559 -33.557  36.918  1.00  0.00     0.053 C 
BRANCH  10  11
ATOM     11  C   UNL     1     -44.961 -32.879  38.110  1.00  0.00     0.041 C 
ATOM     12  O   UNL     1     -44.772 -33.522  39.176  1.00  0.00    -0.550 OA
ATOM     13  O   UNL     1     -44.566 -31.550  38.029  1.00  0.00    -0.550 OA
ENDBRANCH  10  11
ENDBRANCH   9  10
ENDBRANCH   8   9
ENDBRANCH   1   8
TORSDOF 8
ENDMDL
MODEL 9
REMARK VINA RESULT:    -3.643      2.295      3.354
REMARK INTER + INTRA:          -6.029
REMARK INTER:                  -5.317
REMARK INTRA:                  -0.713
REMARK UNBOUND:                -0.683
REMARK SMILES O=C([O-])CCCCCCCC(=O)[O-]
REMARK SMILES IDX 7 1 6 2 5 3 4 4 2 5 1 6 3 7 8 8 9 9 10 10 11 11 12 12 13 13
REMARK H PARENT
REMARK Flexibility Score: inf
ROOT
ATOM      1  C   UNL     1     -46.315 -37.054  37.216  1.00  0.00     0.000 C 
ENDROOT
BRANCH   1   2
ATOM      2  C   UNL     1     -46.665 -37.713  38.559  1.00  0.00     0.000 C 
BRANCH   2   3
ATOM      3  C   UNL     1     -47.877 -37.031  39.205  1.00  0.00     0.006 C 
BRANCH   3   4
ATOM      4  C   UNL     1     -47.461 -36.225  40.440  1.00  0.00     0.053 C 
BRANCH   4   5
ATOM      5  C   UNL     1     -47.086 -34.830  40.053  1.00  0.00     0.041 C 
ATOM      6  O   UNL     1     -47.656 -34.267  39.080  1.00  0.00    -0.550 OA
ATOM      7  O   UNL     1     -46.144 -34.130  40.796  1.00  0.00    -0.550 OA
ENDBRANCH   4   5
ENDBRANCH   3   4
ENDBRANCH   2   3
ENDBRANCH   1   2
BRANCH   1   8
ATOM      8  C   UNL     1     -44.893 -37.393  36.743  1.00  0.00     0.000 C 
BRANCH   8   9
ATOM      9  C   UNL     1     -44.030 -36.143  36.514  1.00  0.00     0.006 C 
BRANCH   9  10
ATOM     10  C   UNL     1     -44.880 -34.871  36.588  1.00  0.00     0.053 C 
BRANCH  10  11
ATOM     11  C   UNL     1     -44.397 -33.980  37.688  1.00  0.00     0.041 C 
ATOM     12  O   UNL     1     -43.510 -34.383  38.486  1.00  0.00    -0.550 OA
ATOM     13  O   UNL     1     -44.890 -32.687  37.803  1.00  0.00    -0.550 OA
ENDBRANCH  10  11
ENDBRANCH   9  10
ENDBRANCH   8   9
ENDBRANCH   1   8
TORSDOF 8
ENDMDL
