MODEL 1
REMARK VINA RESULT:    -4.046      0.000      0.000
REMARK INTER + INTRA:          -4.165
REMARK INTER:                  -4.165
REMARK INTRA:                   0.000
REMARK UNBOUND:                 0.000
REMARK SMILES Oc1ccc2[nH]ccc2c1
REMARK SMILES IDX 3 1 4 2 5 3 9 4 8 5 7 6 6 7 10 8 2 9 1 11
REMARK H PARENT 6 10 1 12
REMARK Flexibility Score: inf
ROOT
ATOM      1  C   UNL     1      40.644 184.964 171.968  1.00  0.00     0.048 A 
ATOM      2  C   UNL     1      40.887 183.584 171.832  1.00  0.00     0.030 A 
ATOM      3  C   UNL     1      41.900 183.023 172.607  1.00  0.00     0.046 A 
ATOM      4  C   UNL     1      42.641 183.776 173.477  1.00  0.00     0.003 A 
ATOM      5  C   UNL     1      43.548 182.933 174.083  1.00  0.00     0.028 A 
ATOM      6  C   UNL     1      43.301 181.679 173.533  1.00  0.00     0.083 A 
ATOM      7  N   UNL     1      42.293 181.739 172.632  1.00  0.00    -0.361 N 
ATOM      8  C   UNL     1      42.426 185.143 173.637  1.00  0.00     0.056 A 
ATOM      9  C   UNL     1      41.408 185.744 172.867  1.00  0.00     0.116 A 
ATOM     10  H   UNL     1      41.904 180.948 172.073  1.00  0.00     0.166 HD
ENDROOT
BRANCH   9  11
ATOM     11  O   UNL     1      41.146 187.107 172.983  1.00  0.00    -0.508 OA
ATOM     12  H   UNL     1      41.187 187.579 173.879  1.00  0.00     0.293 HD
ENDBRANCH   9  11
TORSDOF 1
ENDMDL
MODEL 2
REMARK VINA RESULT:    -3.930      2.664      4.278
REMARK INTER + INTRA:          -4.045
REMARK INTER:                  -4.045
REMARK INTRA:                   0.000
REMARK UNBOUND:                 0.000
REMARK SMILES Oc1ccc2[nH]ccc2c1
REMARK SMILES IDX 3 1 4 2 5 3 9 4 8 5 7 6 6 7 10 8 2 9 1 11
REMARK H PARENT 6 10 1 12
REMARK Flexibility Score: inf
ROOT
ATOM      1  C   UNL     1      42.471 183.698 173.013  1.00  0.00     0.048 A 
ATOM      2  C   UNL     1      42.387 185.042 173.423  1.00  0.00     0.030 A 
ATOM      3  C   UNL     1      41.208 185.733 173.149  1.00  0.00     0.046 A 
ATOM      4  C   UNL     1      40.158 185.137 172.506  1.00  0.00     0.003 A 
ATOM      5  C   UNL     1      39.157 186.078 172.391  1.00  0.00     0.028 A 
ATOM      6  C   UNL     1      39.668 187.226 172.989  1.00  0.00     0.083 A 
ATOM      7  N   UNL     1      40.922 187.010 173.451  1.00  0.00    -0.361 N 
ATOM      8  C   UNL     1      40.208 183.809 172.087  1.00  0.00     0.056 A 
ATOM      9  C   UNL     1      41.387 183.080 172.347  1.00  0.00     0.116 A 
ATOM     10  H   UNL     1      41.536 187.698 173.940  1.00  0.00     0.166 HD
ENDROOT
BRANCH   9  11
ATOM     11  O   UNL     1      41.496 181.749 171.953  1.00  0.00    -0.508 OA
ATOM     12  H   UNL     1      41.121 180.997 172.520  1.00  0.00     0.293 HD
ENDBRANCH   9  11
TORSDOF 1
ENDMDL
MODEL 3
REMARK VINA RESULT:    -3.902      1.278      1.524
REMARK INTER + INTRA:          -4.016
REMARK INTER:                  -4.016
REMARK INTRA:                   0.000
REMARK UNBOUND:                 0.000
REMARK SMILES Oc1ccc2[nH]ccc2c1
REMARK SMILES IDX 3 1 4 2 5 3 9 4 8 5 7 6 6 7 10 8 2 9 1 11
REMARK H PARENT 6 10 1 12
REMARK Flexibility Score: inf
ROOT
ATOM      1  C   UNL     1      39.510 185.888 172.849  1.00  0.00     0.048 A 
ATOM      2  C   UNL     1      39.408 184.486 172.786  1.00  0.00     0.030 A 
ATOM      3  C   UNL     1      40.587 183.752 172.673  1.00  0.00     0.046 A 
ATOM      4  C   UNL     1      41.811 184.361 172.625  1.00  0.00     0.003 A 
ATOM      5  C   UNL     1      42.762 183.369 172.514  1.00  0.00     0.028 A 
ATOM      6  C   UNL     1      42.043 182.178 172.500  1.00  0.00     0.083 A 
ATOM      7  N   UNL     1      40.714 182.417 172.597  1.00  0.00    -0.361 N 
ATOM      8  C   UNL     1      41.949 185.746 172.687  1.00  0.00     0.056 A 
ATOM      9  C   UNL     1      40.774 186.520 172.801  1.00  0.00     0.116 A 
ATOM     10  H   UNL     1      39.949 181.707 172.610  1.00  0.00     0.166 HD
ENDROOT
BRANCH   9  11
ATOM     11  O   UNL     1      40.848 187.909 172.867  1.00  0.00    -0.508 OA
ATOM     12  H   UNL     1      40.022 188.488 172.767  1.00  0.00     0.293 HD
ENDBRANCH   9  11
TORSDOF 1
ENDMDL
MODEL 4
REMARK VINA RESULT:    -3.869     24.701     25.434
REMARK INTER + INTRA:          -3.982
REMARK INTER:                  -3.982
REMARK INTRA:                   0.000
REMARK UNBOUND:                 0.000
REMARK SMILES Oc1ccc2[nH]ccc2c1
REMARK SMILES IDX 3 1 4 2 5 3 9 4 8 5 7 6 6 7 10 8 2 9 1 11
REMARK H PARENT 6 10 1 12
REMARK Flexibility Score: inf
ROOT
ATOM      1  C   UNL     1      31.519 172.409 154.172  1.00  0.00     0.048 A 
ATOM      2  C   UNL     1      30.745 173.550 153.891  1.00  0.00     0.030 A 
ATOM      3  C   UNL     1      29.367 173.464 154.081  1.00  0.00     0.046 A 
ATOM      4  C   UNL     1      28.773 172.315 154.528  1.00  0.00     0.003 A 
ATOM      5  C   UNL     1      27.418 172.556 154.610  1.00  0.00     0.028 A 
ATOM      6  C   UNL     1      27.259 173.875 154.197  1.00  0.00     0.083 A 
ATOM      7  N   UNL     1      28.452 174.426 153.875  1.00  0.00    -0.361 N 
ATOM      8  C   UNL     1      29.509 171.168 154.816  1.00  0.00     0.056 A 
ATOM      9  C   UNL     1      30.907 171.220 154.634  1.00  0.00     0.116 A 
ATOM     10  H   UNL     1      28.623 175.399 153.537  1.00  0.00     0.166 HD
ENDROOT
BRANCH   9  11
ATOM     11  O   UNL     1      31.697 170.106 154.905  1.00  0.00    -0.508 OA
ATOM     12  H   UNL     1      32.642 170.028 154.549  1.00  0.00     0.293 HD
ENDBRANCH   9  11
TORSDOF 1
ENDMDL
MODEL 5
REMARK VINA RESULT:    -3.845     24.704     25.109
REMARK INTER + INTRA:          -3.957
REMARK INTER:                  -3.957
REMARK INTRA:                   0.000
REMARK UNBOUND:                 0.000
REMARK SMILES Oc1ccc2[nH]ccc2c1
REMARK SMILES IDX 3 1 4 2 5 3 9 4 8 5 7 6 6 7 10 8 2 9 1 11
REMARK H PARENT 6 10 1 12
REMARK Flexibility Score: inf
ROOT
ATOM      1  C   UNL     1      28.926 172.375 154.580  1.00  0.00     0.048 A 
ATOM      2  C   UNL     1      29.282 171.023 154.740  1.00  0.00     0.030 A 
ATOM      3  C   UNL     1      30.601 170.661 154.467  1.00  0.00     0.046 A 
ATOM      4  C   UNL     1      31.529 171.580 154.059  1.00  0.00     0.003 A 
ATOM      5  C   UNL     1      32.720 170.911 153.876  1.00  0.00     0.028 A 
ATOM      6  C   UNL     1      32.442 169.584 154.193  1.00  0.00     0.083 A 
ATOM      7  N   UNL     1      31.146 169.437 154.553  1.00  0.00    -0.361 N 
ATOM      8  C   UNL     1      31.210 172.926 153.892  1.00  0.00     0.056 A 
ATOM      9  C   UNL     1      29.884 173.327 154.159  1.00  0.00     0.116 A 
ATOM     10  H   UNL     1      30.672 168.552 154.839  1.00  0.00     0.166 HD
ENDROOT
BRANCH   9  11
ATOM     11  O   UNL     1      29.505 174.658 154.010  1.00  0.00    -0.508 OA
ATOM     12  H   UNL     1      29.966 175.268 153.345  1.00  0.00     0.293 HD
ENDBRANCH   9  11
TORSDOF 1
ENDMDL
MODEL 6
REMARK VINA RESULT:    -3.819     23.081     23.987
REMARK INTER + INTRA:          -3.930
REMARK INTER:                  -3.930
REMARK INTRA:                   0.000
REMARK UNBOUND:                 0.000
REMARK SMILES Oc1ccc2[nH]ccc2c1
REMARK SMILES IDX 3 1 4 2 5 3 9 4 8 5 7 6 6 7 10 8 2 9 1 11
REMARK H PARENT 6 10 1 12
REMARK Flexibility Score: inf
ROOT
ATOM      1  C   UNL     1      33.102 169.357 157.780  1.00  0.00     0.048 A 
ATOM      2  C   UNL     1      31.923 169.761 157.127  1.00  0.00     0.030 A 
ATOM      3  C   UNL     1      32.035 170.254 155.828  1.00  0.00     0.046 A 
ATOM      4  C   UNL     1      33.245 170.347 155.196  1.00  0.00     0.003 A 
ATOM      5  C   UNL     1      33.016 170.867 153.940  1.00  0.00     0.028 A 
ATOM      6  C   UNL     1      31.640 171.067 153.876  1.00  0.00     0.083 A 
ATOM      7  N   UNL     1      31.045 170.691 155.032  1.00  0.00    -0.361 N 
ATOM      8  C   UNL     1      34.431 169.955 155.813  1.00  0.00     0.056 A 
ATOM      9  C   UNL     1      34.354 169.451 157.129  1.00  0.00     0.116 A 
ATOM     10  H   UNL     1      30.026 170.733 155.255  1.00  0.00     0.166 HD
ENDROOT
BRANCH   9  11
ATOM     11  O   UNL     1      35.505 169.044 157.797  1.00  0.00    -0.508 OA
ATOM     12  H   UNL     1      35.877 168.107 157.687  1.00  0.00     0.293 HD
ENDBRANCH   9  11
TORSDOF 1
ENDMDL
MODEL 7
REMARK VINA RESULT:    -3.802     22.958     24.203
REMARK INTER + INTRA:          -3.913
REMARK INTER:                  -3.913
REMARK INTRA:                   0.000
REMARK UNBOUND:                 0.000
REMARK SMILES Oc1ccc2[nH]ccc2c1
REMARK SMILES IDX 3 1 4 2 5 3 9 4 8 5 7 6 6 7 10 8 2 9 1 11
REMARK H PARENT 6 10 1 12
REMARK Flexibility Score: inf
ROOT
ATOM      1  C   UNL     1      35.004 169.405 157.249  1.00  0.00     0.048 A 
ATOM      2  C   UNL     1      34.864 170.119 156.044  1.00  0.00     0.030 A 
ATOM      3  C   UNL     1      33.674 169.970 155.334  1.00  0.00     0.046 A 
ATOM      4  C   UNL     1      32.665 169.161 155.782  1.00  0.00     0.003 A 
ATOM      5  C   UNL     1      31.640 169.233 154.864  1.00  0.00     0.028 A 
ATOM      6  C   UNL     1      32.095 170.106 153.880  1.00  0.00     0.083 A 
ATOM      7  N   UNL     1      33.338 170.554 154.172  1.00  0.00    -0.361 N 
ATOM      8  C   UNL     1      32.770 168.442 156.971  1.00  0.00     0.056 A 
ATOM      9  C   UNL     1      33.962 168.569 157.715  1.00  0.00     0.116 A 
ATOM     10  H   UNL     1      33.914 171.216 153.607  1.00  0.00     0.166 HD
ENDROOT
BRANCH   9  11
ATOM     11  O   UNL     1      34.126 167.875 158.911  1.00  0.00    -0.508 OA
ATOM     12  H   UNL     1      34.119 166.862 158.939  1.00  0.00     0.293 HD
ENDBRANCH   9  11
TORSDOF 1
ENDMDL
MODEL 8
REMARK VINA RESULT:    -3.760      2.281      3.526
REMARK INTER + INTRA:          -3.870
REMARK INTER:                  -3.870
REMARK INTRA:                   0.000
REMARK UNBOUND:                 0.000
REMARK SMILES Oc1ccc2[nH]ccc2c1
REMARK SMILES IDX 3 1 4 2 5 3 9 4 8 5 7 6 6 7 10 8 2 9 1 11
REMARK H PARENT 6 10 1 12
REMARK Flexibility Score: inf
ROOT
ATOM      1  C   UNL     1      42.527 182.606 172.587  1.00  0.00     0.048 A 
ATOM      2  C   UNL     1      41.344 183.041 171.961  1.00  0.00     0.030 A 
ATOM      3  C   UNL     1      40.858 184.304 172.294  1.00  0.00     0.046 A 
ATOM      4  C   UNL     1      41.501 185.107 173.197  1.00  0.00     0.003 A 
ATOM      5  C   UNL     1      40.774 186.274 173.302  1.00  0.00     0.028 A 
ATOM      6  C   UNL     1      39.700 186.112 172.433  1.00  0.00     0.083 A 
ATOM      7  N   UNL     1      39.755 184.907 171.819  1.00  0.00    -0.361 N 
ATOM      8  C   UNL     1      42.674 184.708 173.834  1.00  0.00     0.056 A 
ATOM      9  C   UNL     1      43.194 183.434 173.520  1.00  0.00     0.116 A 
ATOM     10  H   UNL     1      39.079 184.527 171.121  1.00  0.00     0.166 HD
ENDROOT
BRANCH   9  11
ATOM     11  O   UNL     1      44.363 182.981 174.124  1.00  0.00    -0.508 OA
ATOM     12  H   UNL     1      44.944 182.274 173.687  1.00  0.00     0.293 HD
ENDBRANCH   9  11
TORSDOF 1
ENDMDL
MODEL 9
REMARK VINA RESULT:    -3.735      1.726      2.375
REMARK INTER + INTRA:          -3.844
REMARK INTER:                  -3.844
REMARK INTRA:                   0.000
REMARK UNBOUND:                 0.000
REMARK SMILES Oc1ccc2[nH]ccc2c1
REMARK SMILES IDX 3 1 4 2 5 3 9 4 8 5 7 6 6 7 10 8 2 9 1 11
REMARK H PARENT 6 10 1 12
REMARK Flexibility Score: inf
ROOT
ATOM      1  C   UNL     1      40.228 185.690 172.433  1.00  0.00     0.048 A 
ATOM      2  C   UNL     1      41.283 185.619 173.362  1.00  0.00     0.030 A 
ATOM      3  C   UNL     1      42.100 184.490 173.334  1.00  0.00     0.046 A 
ATOM      4  C   UNL     1      41.896 183.477 172.437  1.00  0.00     0.003 A 
ATOM      5  C   UNL     1      42.862 182.521 172.668  1.00  0.00     0.028 A 
ATOM      6  C   UNL     1      43.621 183.020 173.721  1.00  0.00     0.083 A 
ATOM      7  N   UNL     1      43.152 184.223 174.125  1.00  0.00    -0.361 N 
ATOM      8  C   UNL     1      40.862 183.516 171.504  1.00  0.00     0.056 A 
ATOM      9  C   UNL     1      40.016 184.644 171.505  1.00  0.00     0.116 A 
ATOM     10  H   UNL     1      43.532 184.819 174.893  1.00  0.00     0.166 HD
ENDROOT
BRANCH   9  11
ATOM     11  O   UNL     1      38.965 184.740 170.595  1.00  0.00    -0.508 OA
ATOM     12  H   UNL     1      39.089 184.501 169.618  1.00  0.00     0.293 HD
ENDBRANCH   9  11
TORSDOF 1
ENDMDL
