MODEL 1
REMARK VINA RESULT:    -2.682      0.000      0.000
REMARK INTER + INTRA:          -6.869
REMARK INTER:                  -4.955
REMARK INTRA:                  -1.914
REMARK UNBOUND:                -1.914
REMARK SMILES CCCCCCCCCCCCCCCCO
REMARK SMILES IDX 9 1 8 2 7 3 6 4 5 5 4 6 3 7 2 8 1 9 10 10 11 11 12 12 13 13
REMARK SMILES IDX 14 14 15 15 16 16 17 17
REMARK H PARENT 17 18
REMARK Flexibility Score: inf
ROOT
ATOM      1  C   UNL     1     125.661 116.904 107.295  1.00  0.00     0.000 C 
ENDROOT
BRANCH   1   2
ATOM      2  C   UNL     1     125.220 116.873 105.814  1.00  0.00    -0.000 C 
BRANCH   2   3
ATOM      3  C   UNL     1     123.883 117.592 105.553  1.00  0.00    -0.000 C 
BRANCH   3   4
ATOM      4  C   UNL     1     124.003 119.114 105.360  1.00  0.00    -0.000 C 
BRANCH   4   5
ATOM      5  C   UNL     1     123.101 119.934 106.312  1.00  0.00    -0.000 C 
BRANCH   5   6
ATOM      6  C   UNL     1     123.909 120.753 107.333  1.00  0.00    -0.000 C 
BRANCH   6   7
ATOM      7  C   UNL     1     124.120 120.003 108.658  1.00  0.00    -0.000 C 
BRANCH   7   8
ATOM      8  C   UNL     1     123.645 120.811 109.876  1.00  0.00    -0.003 C 
ATOM      9  C   UNL     1     124.354 122.160 109.951  1.00  0.00     0.004 C 
ENDBRANCH   7   8
ENDBRANCH   6   7
ENDBRANCH   5   6
ENDBRANCH   4   5
ENDBRANCH   3   4
ENDBRANCH   2   3
ENDBRANCH   1   2
BRANCH   1  10
ATOM     10  C   UNL     1     125.684 115.509 107.937  1.00  0.00     0.000 C 
BRANCH  10  11
ATOM     11  C   UNL     1     124.413 114.694 107.643  1.00  0.00     0.000 C 
BRANCH  11  12
ATOM     12  C   UNL     1     123.294 114.900 108.687  1.00  0.00     0.000 C 
BRANCH  12  13
ATOM     13  C   UNL     1     122.159 115.787 108.152  1.00  0.00     0.000 C 
BRANCH  13  14
ATOM     14  C   UNL     1     121.905 116.977 109.084  1.00  0.00     0.002 C 
BRANCH  14  15
ATOM     15  C   UNL     1     120.838 117.914 108.502  1.00  0.00     0.028 C 
BRANCH  15  16
ATOM     16  C   UNL     1     120.346 118.926 109.538  1.00  0.00     0.156 C 
BRANCH  16  17
ATOM     17  O   UNL     1     119.763 118.260 110.624  1.00  0.00    -0.396 OA
ATOM     18  H   UNL     1     119.920 117.292 110.470  1.00  0.00     0.210 HD
ENDBRANCH  16  17
ENDBRANCH  15  16
ENDBRANCH  14  15
ENDBRANCH  13  14
ENDBRANCH  12  13
ENDBRANCH  11  12
ENDBRANCH  10  11
ENDBRANCH   1  10
TORSDOF 15
ENDMDL
MODEL 2
REMARK VINA RESULT:    -2.615      1.369      4.361
REMARK INTER + INTRA:          -6.746
REMARK INTER:                  -4.475
REMARK INTRA:                  -2.271
REMARK UNBOUND:                -1.914
REMARK SMILES CCCCCCCCCCCCCCCCO
REMARK SMILES IDX 9 1 8 2 7 3 6 4 5 5 4 6 3 7 2 8 1 9 10 10 11 11 12 12 13 13
REMARK SMILES IDX 14 14 15 15 16 16 17 17
REMARK H PARENT 17 18
REMARK Flexibility Score: inf
ROOT
ATOM      1  C   UNL     1     125.350 116.450 105.777  1.00  0.00     0.000 C 
ENDROOT
BRANCH   1   2
ATOM      2  C   UNL     1     125.150 114.965 105.401  1.00  0.00    -0.000 C 
BRANCH   2   3
ATOM      3  C   UNL     1     124.684 114.088 106.579  1.00  0.00    -0.000 C 
BRANCH   3   4
ATOM      4  C   UNL     1     124.738 114.781 107.952  1.00  0.00    -0.000 C 
BRANCH   4   5
ATOM      5  C   UNL     1     123.362 114.882 108.650  1.00  0.00    -0.000 C 
BRANCH   5   6
ATOM      6  C   UNL     1     122.351 115.720 107.849  1.00  0.00    -0.000 C 
BRANCH   6   7
ATOM      7  C   UNL     1     121.045 114.961 107.568  1.00  0.00    -0.000 C 
BRANCH   7   8
ATOM      8  C   UNL     1     120.308 115.493 106.329  1.00  0.00    -0.003 C 
ATOM      9  C   UNL     1     120.518 116.995 106.167  1.00  0.00     0.004 C 
ENDBRANCH   7   8
ENDBRANCH   6   7
ENDBRANCH   5   6
ENDBRANCH   4   5
ENDBRANCH   3   4
ENDBRANCH   2   3
ENDBRANCH   1   2
BRANCH   1  10
ATOM     10  C   UNL     1     124.220 117.352 105.257  1.00  0.00     0.000 C 
BRANCH  10  11
ATOM     11  C   UNL     1     124.020 118.615 106.111  1.00  0.00     0.000 C 
BRANCH  11  12
ATOM     12  C   UNL     1     124.765 118.568 107.463  1.00  0.00     0.000 C 
BRANCH  12  13
ATOM     13  C   UNL     1     124.034 119.364 108.555  1.00  0.00     0.000 C 
BRANCH  13  14
ATOM     14  C   UNL     1     122.515 119.291 108.365  1.00  0.00     0.002 C 
BRANCH  14  15
ATOM     15  C   UNL     1     121.806 119.014 109.698  1.00  0.00     0.028 C 
BRANCH  15  16
ATOM     16  C   UNL     1     120.287 118.963 109.532  1.00  0.00     0.156 C 
BRANCH  16  17
ATOM     17  O   UNL     1     119.711 118.235 110.582  1.00  0.00    -0.396 OA
ATOM     18  H   UNL     1     118.747 118.469 110.582  1.00  0.00     0.210 HD
ENDBRANCH  16  17
ENDBRANCH  15  16
ENDBRANCH  14  15
ENDBRANCH  13  14
ENDBRANCH  12  13
ENDBRANCH  11  12
ENDBRANCH  10  11
ENDBRANCH   1  10
TORSDOF 15
ENDMDL
MODEL 3
REMARK VINA RESULT:    -2.572     13.157     16.081
REMARK INTER + INTRA:          -6.667
REMARK INTER:                  -4.205
REMARK INTRA:                  -2.462
REMARK UNBOUND:                -1.914
REMARK SMILES CCCCCCCCCCCCCCCCO
REMARK SMILES IDX 9 1 8 2 7 3 6 4 5 5 4 6 3 7 2 8 1 9 10 10 11 11 12 12 13 13
REMARK SMILES IDX 14 14 15 15 16 16 17 17
REMARK H PARENT 17 18
REMARK Flexibility Score: inf
ROOT
ATOM      1  C   UNL     1     107.137 117.513 108.221  1.00  0.00     0.000 C 
ENDROOT
BRANCH   1   2
ATOM      2  C   UNL     1     108.505 117.230 107.559  1.00  0.00    -0.000 C 
BRANCH   2   3
ATOM      3  C   UNL     1     109.607 116.840 108.563  1.00  0.00    -0.000 C 
BRANCH   3   4
ATOM      4  C   UNL     1     109.898 115.331 108.638  1.00  0.00    -0.000 C 
BRANCH   4   5
ATOM      5  C   UNL     1     111.242 114.926 107.990  1.00  0.00    -0.000 C 
BRANCH   5   6
ATOM      6  C   UNL     1     111.071 113.882 106.873  1.00  0.00    -0.000 C 
BRANCH   6   7
ATOM      7  C   UNL     1     109.939 114.240 105.897  1.00  0.00    -0.000 C 
BRANCH   7   8
ATOM      8  C   UNL     1     109.505 113.047 105.032  1.00  0.00    -0.003 C 
ATOM      9  C   UNL     1     110.164 111.755 105.508  1.00  0.00     0.004 C 
ENDBRANCH   7   8
ENDBRANCH   6   7
ENDBRANCH   5   6
ENDBRANCH   4   5
ENDBRANCH   3   4
ENDBRANCH   2   3
ENDBRANCH   1   2
BRANCH   1  10
ATOM     10  C   UNL     1     106.077 116.459 107.866  1.00  0.00     0.000 C 
BRANCH  10  11
ATOM     11  C   UNL     1     106.348 115.767 106.520  1.00  0.00     0.000 C 
BRANCH  11  12
ATOM     12  C   UNL     1     106.285 114.226 106.596  1.00  0.00     0.000 C 
BRANCH  12  13
ATOM     13  C   UNL     1     106.747 113.693 107.961  1.00  0.00     0.000 C 
BRANCH  13  14
ATOM     14  C   UNL     1     107.213 112.237 107.854  1.00  0.00     0.002 C 
BRANCH  14  15
ATOM     15  C   UNL     1     108.378 111.960 108.813  1.00  0.00     0.028 C 
BRANCH  15  16
ATOM     16  C   UNL     1     107.958 111.048 109.967  1.00  0.00     0.156 C 
BRANCH  16  17
ATOM     17  O   UNL     1     107.220 111.774 110.912  1.00  0.00    -0.396 OA
ATOM     18  H   UNL     1     107.829 112.478 111.254  1.00  0.00     0.210 HD
ENDBRANCH  16  17
ENDBRANCH  15  16
ENDBRANCH  14  15
ENDBRANCH  13  14
ENDBRANCH  12  13
ENDBRANCH  11  12
ENDBRANCH  10  11
ENDBRANCH   1  10
TORSDOF 15
ENDMDL
MODEL 4
REMARK VINA RESULT:    -2.524     12.451     15.217
REMARK INTER + INTRA:          -6.579
REMARK INTER:                  -4.272
REMARK INTRA:                  -2.307
REMARK UNBOUND:                -1.914
REMARK SMILES CCCCCCCCCCCCCCCCO
REMARK SMILES IDX 9 1 8 2 7 3 6 4 5 5 4 6 3 7 2 8 1 9 10 10 11 11 12 12 13 13
REMARK SMILES IDX 14 14 15 15 16 16 17 17
REMARK H PARENT 17 18
REMARK Flexibility Score: inf
ROOT
ATOM      1  C   UNL     1     106.642 115.953 106.689  1.00  0.00     0.000 C 
ENDROOT
BRANCH   1   2
ATOM      2  C   UNL     1     106.464 116.931 107.872  1.00  0.00    -0.000 C 
BRANCH   2   3
ATOM      3  C   UNL     1     107.788 117.533 108.379  1.00  0.00    -0.000 C 
BRANCH   3   4
ATOM      4  C   UNL     1     108.976 116.554 108.380  1.00  0.00    -0.000 C 
BRANCH   4   5
ATOM      5  C   UNL     1     110.332 117.224 108.058  1.00  0.00    -0.000 C 
BRANCH   5   6
ATOM      6  C   UNL     1     111.107 116.490 106.951  1.00  0.00    -0.000 C 
BRANCH   6   7
ATOM      7  C   UNL     1     110.300 115.343 106.323  1.00  0.00    -0.000 C 
BRANCH   7   8
ATOM      8  C   UNL     1     109.879 115.639 104.876  1.00  0.00    -0.003 C 
ATOM      9  C   UNL     1     109.488 114.359 104.144  1.00  0.00     0.004 C 
ENDBRANCH   7   8
ENDBRANCH   6   7
ENDBRANCH   5   6
ENDBRANCH   4   5
ENDBRANCH   3   4
ENDBRANCH   2   3
ENDBRANCH   1   2
BRANCH   1  10
ATOM     10  C   UNL     1     106.055 114.562 106.975  1.00  0.00     0.000 C 
BRANCH  10  11
ATOM     11  C   UNL     1     107.095 113.437 106.851  1.00  0.00     0.000 C 
BRANCH  11  12
ATOM     12  C   UNL     1     107.547 112.862 108.211  1.00  0.00     0.000 C 
BRANCH  12  13
ATOM     13  C   UNL     1     109.071 112.685 108.288  1.00  0.00     0.000 C 
BRANCH  13  14
ATOM     14  C   UNL     1     109.569 112.826 109.731  1.00  0.00     0.002 C 
BRANCH  14  15
ATOM     15  C   UNL     1     110.737 113.818 109.816  1.00  0.00     0.028 C 
BRANCH  15  16
ATOM     16  C   UNL     1     111.979 113.294 109.093  1.00  0.00     0.156 C 
BRANCH  16  17
ATOM     17  O   UNL     1     113.047 114.187 109.259  1.00  0.00    -0.396 OA
ATOM     18  H   UNL     1     113.187 114.267 110.238  1.00  0.00     0.210 HD
ENDBRANCH  16  17
ENDBRANCH  15  16
ENDBRANCH  14  15
ENDBRANCH  13  14
ENDBRANCH  12  13
ENDBRANCH  11  12
ENDBRANCH  10  11
ENDBRANCH   1  10
TORSDOF 15
ENDMDL
MODEL 5
REMARK VINA RESULT:    -2.461      9.978     12.056
REMARK INTER + INTRA:          -6.462
REMARK INTER:                  -4.031
REMARK INTRA:                  -2.431
REMARK UNBOUND:                -1.914
REMARK SMILES CCCCCCCCCCCCCCCCO
REMARK SMILES IDX 9 1 8 2 7 3 6 4 5 5 4 6 3 7 2 8 1 9 10 10 11 11 12 12 13 13
REMARK SMILES IDX 14 14 15 15 16 16 17 17
REMARK H PARENT 17 18
REMARK Flexibility Score: inf
ROOT
ATOM      1  C   UNL     1     115.466 108.598 104.468  1.00  0.00     0.000 C 
ENDROOT
BRANCH   1   2
ATOM      2  C   UNL     1     114.988 107.451 105.387  1.00  0.00    -0.000 C 
BRANCH   2   3
ATOM      3  C   UNL     1     114.049 107.915 106.516  1.00  0.00    -0.000 C 
BRANCH   3   4
ATOM      4  C   UNL     1     114.584 107.660 107.936  1.00  0.00    -0.000 C 
BRANCH   4   5
ATOM      5  C   UNL     1     115.024 108.946 108.673  1.00  0.00    -0.000 C 
BRANCH   5   6
ATOM      6  C   UNL     1     114.813 110.214 107.830  1.00  0.00    -0.000 C 
BRANCH   6   7
ATOM      7  C   UNL     1     116.121 110.980 107.573  1.00  0.00    -0.000 C 
BRANCH   7   8
ATOM      8  C   UNL     1     115.938 112.149 106.593  1.00  0.00    -0.003 C 
ATOM      9  C   UNL     1     114.691 111.958 105.736  1.00  0.00     0.004 C 
ENDBRANCH   7   8
ENDBRANCH   6   7
ENDBRANCH   5   6
ENDBRANCH   4   5
ENDBRANCH   3   4
ENDBRANCH   2   3
ENDBRANCH   1   2
BRANCH   1  10
ATOM     10  C   UNL     1     116.968 108.889 104.613  1.00  0.00     0.000 C 
BRANCH  10  11
ATOM     11  C   UNL     1     117.691 107.866 105.506  1.00  0.00     0.000 C 
BRANCH  11  12
ATOM     12  C   UNL     1     118.781 108.493 106.402  1.00  0.00     0.000 C 
BRANCH  12  13
ATOM     13  C   UNL     1     118.570 108.164 107.888  1.00  0.00     0.000 C 
BRANCH  13  14
ATOM     14  C   UNL     1     119.127 109.277 108.783  1.00  0.00     0.002 C 
BRANCH  14  15
ATOM     15  C   UNL     1     120.220 108.738 109.715  1.00  0.00     0.028 C 
BRANCH  15  16
ATOM     16  C   UNL     1     120.112 107.223 109.899  1.00  0.00     0.156 C 
BRANCH  16  17
ATOM     17  O   UNL     1     120.477 106.868 111.204  1.00  0.00    -0.396 OA
ATOM     18  H   UNL     1     119.911 106.089 111.446  1.00  0.00     0.210 HD
ENDBRANCH  16  17
ENDBRANCH  15  16
ENDBRANCH  14  15
ENDBRANCH  13  14
ENDBRANCH  12  13
ENDBRANCH  11  12
ENDBRANCH  10  11
ENDBRANCH   1  10
TORSDOF 15
ENDMDL
MODEL 6
REMARK VINA RESULT:    -2.456      9.069     12.008
REMARK INTER + INTRA:          -6.451
REMARK INTER:                  -4.385
REMARK INTRA:                  -2.066
REMARK UNBOUND:                -1.914
REMARK SMILES CCCCCCCCCCCCCCCCO
REMARK SMILES IDX 9 1 8 2 7 3 6 4 5 5 4 6 3 7 2 8 1 9 10 10 11 11 12 12 13 13
REMARK SMILES IDX 14 14 15 15 16 16 17 17
REMARK H PARENT 17 18
REMARK Flexibility Score: inf
ROOT
ATOM      1  C   UNL     1     115.417 106.795 107.715  1.00  0.00     0.000 C 
ENDROOT
BRANCH   1   2
ATOM      2  C   UNL     1     114.892 106.289 106.352  1.00  0.00    -0.000 C 
BRANCH   2   3
ATOM      3  C   UNL     1     115.498 107.028 105.144  1.00  0.00    -0.000 C 
BRANCH   3   4
ATOM      4  C   UNL     1     116.826 107.748 105.437  1.00  0.00    -0.000 C 
BRANCH   4   5
ATOM      5  C   UNL     1     118.064 106.825 105.353  1.00  0.00    -0.000 C 
BRANCH   5   6
ATOM      6  C   UNL     1     118.905 106.843 106.641  1.00  0.00    -0.000 C 
BRANCH   6   7
ATOM      7  C   UNL     1     119.973 107.948 106.634  1.00  0.00    -0.000 C 
BRANCH   7   8
ATOM      8  C   UNL     1     120.524 108.246 108.037  1.00  0.00    -0.003 C 
ATOM      9  C   UNL     1     119.692 107.552 109.112  1.00  0.00     0.004 C 
ENDBRANCH   7   8
ENDBRANCH   6   7
ENDBRANCH   5   6
ENDBRANCH   4   5
ENDBRANCH   3   4
ENDBRANCH   2   3
ENDBRANCH   1   2
BRANCH   1  10
ATOM     10  C   UNL     1     114.460 107.790 108.388  1.00  0.00     0.000 C 
BRANCH  10  11
ATOM     11  C   UNL     1     115.136 109.126 108.741  1.00  0.00     0.000 C 
BRANCH  11  12
ATOM     12  C   UNL     1     114.866 110.244 107.711  1.00  0.00     0.000 C 
BRANCH  12  13
ATOM     13  C   UNL     1     116.155 110.961 107.283  1.00  0.00     0.000 C 
BRANCH  13  14
ATOM     14  C   UNL     1     117.385 110.315 107.930  1.00  0.00     0.002 C 
BRANCH  14  15
ATOM     15  C   UNL     1     118.426 111.375 108.314  1.00  0.00     0.028 C 
BRANCH  15  16
ATOM     16  C   UNL     1     118.843 111.254 109.781  1.00  0.00     0.156 C 
BRANCH  16  17
ATOM     17  O   UNL     1     118.275 112.292 110.532  1.00  0.00    -0.396 OA
ATOM     18  H   UNL     1     118.385 112.034 111.483  1.00  0.00     0.210 HD
ENDBRANCH  16  17
ENDBRANCH  15  16
ENDBRANCH  14  15
ENDBRANCH  13  14
ENDBRANCH  12  13
ENDBRANCH  11  12
ENDBRANCH  10  11
ENDBRANCH   1  10
TORSDOF 15
ENDMDL
MODEL 7
REMARK VINA RESULT:    -2.449     12.516     14.845
REMARK INTER + INTRA:          -6.440
REMARK INTER:                  -3.812
REMARK INTRA:                  -2.629
REMARK UNBOUND:                -1.914
REMARK SMILES CCCCCCCCCCCCCCCCO
REMARK SMILES IDX 9 1 8 2 7 3 6 4 5 5 4 6 3 7 2 8 1 9 10 10 11 11 12 12 13 13
REMARK SMILES IDX 14 14 15 15 16 16 17 17
REMARK H PARENT 17 18
REMARK Flexibility Score: inf
ROOT
ATOM      1  C   UNL     1     109.113 116.990 104.368  1.00  0.00     0.000 C 
ENDROOT
BRANCH   1   2
ATOM      2  C   UNL     1     107.636 117.421 104.517  1.00  0.00    -0.000 C 
BRANCH   2   3
ATOM      3  C   UNL     1     107.360 118.246 105.788  1.00  0.00    -0.000 C 
BRANCH   3   4
ATOM      4  C   UNL     1     106.392 117.583 106.783  1.00  0.00    -0.000 C 
BRANCH   4   5
ATOM      5  C   UNL     1     107.086 117.029 108.049  1.00  0.00    -0.000 C 
BRANCH   5   6
ATOM      6  C   UNL     1     108.563 117.449 108.146  1.00  0.00    -0.000 C 
BRANCH   6   7
ATOM      7  C   UNL     1     109.491 116.272 108.485  1.00  0.00    -0.000 C 
BRANCH   7   8
ATOM      8  C   UNL     1     110.863 116.388 107.804  1.00  0.00    -0.003 C 
ATOM      9  C   UNL     1     111.123 117.815 107.331  1.00  0.00     0.004 C 
ENDBRANCH   7   8
ENDBRANCH   6   7
ENDBRANCH   5   6
ENDBRANCH   4   5
ENDBRANCH   3   4
ENDBRANCH   2   3
ENDBRANCH   1   2
BRANCH   1  10
ATOM     10  C   UNL     1     109.330 115.499 104.668  1.00  0.00     0.000 C 
BRANCH  10  11
ATOM     11  C   UNL     1     108.019 114.750 104.959  1.00  0.00     0.000 C 
BRANCH  11  12
ATOM     12  C   UNL     1     108.116 113.781 106.157  1.00  0.00     0.000 C 
BRANCH  12  13
ATOM     13  C   UNL     1     109.508 113.141 106.274  1.00  0.00     0.000 C 
BRANCH  13  14
ATOM     14  C   UNL     1     109.777 112.669 107.707  1.00  0.00     0.002 C 
BRANCH  14  15
ATOM     15  C   UNL     1     111.226 112.963 108.120  1.00  0.00     0.028 C 
BRANCH  15  16
ATOM     16  C   UNL     1     111.361 113.130 109.634  1.00  0.00     0.156 C 
BRANCH  16  17
ATOM     17  O   UNL     1     112.532 113.837 109.939  1.00  0.00    -0.396 OA
ATOM     18  H   UNL     1     113.227 113.152 110.122  1.00  0.00     0.210 HD
ENDBRANCH  16  17
ENDBRANCH  15  16
ENDBRANCH  14  15
ENDBRANCH  13  14
ENDBRANCH  12  13
ENDBRANCH  11  12
ENDBRANCH  10  11
ENDBRANCH   1  10
TORSDOF 15
ENDMDL
MODEL 8
REMARK VINA RESULT:    -2.428     12.091     14.259
REMARK INTER + INTRA:          -6.401
REMARK INTER:                  -3.785
REMARK INTRA:                  -2.616
REMARK UNBOUND:                -1.914
REMARK SMILES CCCCCCCCCCCCCCCCO
REMARK SMILES IDX 9 1 8 2 7 3 6 4 5 5 4 6 3 7 2 8 1 9 10 10 11 11 12 12 13 13
REMARK SMILES IDX 14 14 15 15 16 16 17 17
REMARK H PARENT 17 18
REMARK Flexibility Score: inf
ROOT
ATOM      1  C   UNL     1     110.005 116.225 104.012  1.00  0.00     0.000 C 
ENDROOT
BRANCH   1   2
ATOM      2  C   UNL     1     111.389 116.040 104.677  1.00  0.00    -0.000 C 
BRANCH   2   3
ATOM      3  C   UNL     1     111.646 117.011 105.844  1.00  0.00    -0.000 C 
BRANCH   3   4
ATOM      4  C   UNL     1     110.377 117.481 106.577  1.00  0.00    -0.000 C 
BRANCH   4   5
ATOM      5  C   UNL     1     110.380 117.160 108.090  1.00  0.00    -0.000 C 
BRANCH   5   6
ATOM      6  C   UNL     1     108.995 116.736 108.608  1.00  0.00    -0.000 C 
BRANCH   6   7
ATOM      7  C   UNL     1     107.849 117.505 107.931  1.00  0.00    -0.000 C 
BRANCH   7   8
ATOM      8  C   UNL     1     106.550 116.687 107.861  1.00  0.00    -0.003 C 
ATOM      9  C   UNL     1     106.300 116.174 106.446  1.00  0.00     0.004 C 
ENDBRANCH   7   8
ENDBRANCH   6   7
ENDBRANCH   5   6
ENDBRANCH   4   5
ENDBRANCH   3   4
ENDBRANCH   2   3
ENDBRANCH   1   2
BRANCH   1  10
ATOM     10  C   UNL     1     109.084 115.012 104.212  1.00  0.00     0.000 C 
BRANCH  10  11
ATOM     11  C   UNL     1     109.724 113.910 105.071  1.00  0.00     0.000 C 
BRANCH  11  12
ATOM     12  C   UNL     1     108.883 113.528 106.309  1.00  0.00     0.000 C 
BRANCH  12  13
ATOM     13  C   UNL     1     109.757 113.272 107.547  1.00  0.00     0.000 C 
BRANCH  13  14
ATOM     14  C   UNL     1     111.246 113.285 107.181  1.00  0.00     0.002 C 
BRANCH  14  15
ATOM     15  C   UNL     1     112.087 113.880 108.318  1.00  0.00     0.028 C 
BRANCH  15  16
ATOM     16  C   UNL     1     111.381 113.757 109.670  1.00  0.00     0.156 C 
BRANCH  16  17
ATOM     17  O   UNL     1     112.324 113.728 110.706  1.00  0.00    -0.396 OA
ATOM     18  H   UNL     1     112.862 112.906 110.566  1.00  0.00     0.210 HD
ENDBRANCH  16  17
ENDBRANCH  15  16
ENDBRANCH  14  15
ENDBRANCH  13  14
ENDBRANCH  12  13
ENDBRANCH  11  12
ENDBRANCH  10  11
ENDBRANCH   1  10
TORSDOF 15
ENDMDL
MODEL 9
REMARK VINA RESULT:    -2.419      8.533     11.111
REMARK INTER + INTRA:          -6.384
REMARK INTER:                  -4.317
REMARK INTRA:                  -2.067
REMARK UNBOUND:                -1.914
REMARK SMILES CCCCCCCCCCCCCCCCO
REMARK SMILES IDX 9 1 8 2 7 3 6 4 5 5 4 6 3 7 2 8 1 9 10 10 11 11 12 12 13 13
REMARK SMILES IDX 14 14 15 15 16 16 17 17
REMARK H PARENT 17 18
REMARK Flexibility Score: inf
ROOT
ATOM      1  C   UNL     1     117.504 124.307 107.614  1.00  0.00     0.000 C 
ENDROOT
BRANCH   1   2
ATOM      2  C   UNL     1     117.143 123.394 108.808  1.00  0.00    -0.000 C 
BRANCH   2   3
ATOM      3  C   UNL     1     116.629 122.004 108.387  1.00  0.00    -0.000 C 
BRANCH   3   4
ATOM      4  C   UNL     1     116.440 121.825 106.871  1.00  0.00    -0.000 C 
BRANCH   4   5
ATOM      5  C   UNL     1     115.656 120.547 106.490  1.00  0.00    -0.000 C 
BRANCH   5   6
ATOM      6  C   UNL     1     114.183 120.834 106.152  1.00  0.00    -0.000 C 
BRANCH   6   7
ATOM      7  C   UNL     1     113.209 120.176 107.142  1.00  0.00    -0.000 C 
BRANCH   7   8
ATOM      8  C   UNL     1     113.019 121.005 108.422  1.00  0.00    -0.003 C 
ATOM      9  C   UNL     1     113.402 120.199 109.659  1.00  0.00     0.004 C 
ENDBRANCH   7   8
ENDBRANCH   6   7
ENDBRANCH   5   6
ENDBRANCH   4   5
ENDBRANCH   3   4
ENDBRANCH   2   3
ENDBRANCH   1   2
BRANCH   1  10
ATOM     10  C   UNL     1     117.034 125.756 107.812  1.00  0.00     0.000 C 
BRANCH  10  11
ATOM     11  C   UNL     1     115.503 125.896 107.796  1.00  0.00     0.000 C 
BRANCH  11  12
ATOM     12  C   UNL     1     114.834 125.210 106.585  1.00  0.00     0.000 C 
BRANCH  12  13
ATOM     13  C   UNL     1     113.611 124.374 106.995  1.00  0.00     0.000 C 
BRANCH  13  14
ATOM     14  C   UNL     1     112.902 124.994 108.204  1.00  0.00     0.002 C 
BRANCH  14  15
ATOM     15  C   UNL     1     111.509 124.380 108.399  1.00  0.00     0.028 C 
BRANCH  15  16
ATOM     16  C   UNL     1     111.310 123.867 109.826  1.00  0.00     0.156 C 
BRANCH  16  17
ATOM     17  O   UNL     1     111.838 124.783 110.746  1.00  0.00    -0.396 OA
ATOM     18  H   UNL     1     112.652 124.357 111.120  1.00  0.00     0.210 HD
ENDBRANCH  16  17
ENDBRANCH  15  16
ENDBRANCH  14  15
ENDBRANCH  13  14
ENDBRANCH  12  13
ENDBRANCH  11  12
ENDBRANCH  10  11
ENDBRANCH   1  10
TORSDOF 15
ENDMDL
