MODEL 1
REMARK VINA RESULT:    -6.066      0.000      0.000
REMARK INTER + INTRA:          -7.260
REMARK INTER:                  -7.130
REMARK INTRA:                  -0.130
REMARK UNBOUND:                -0.130
REMARK SMILES O=C([O-])C=Cc1ccc(O)c(O)c1
REMARK SMILES IDX 6 1 13 2 7 3 11 4 8 5 9 6 5 7 4 8 2 9 1 10 3 11 12 12 10 14
REMARK H PARENT 12 13 10 15
REMARK Flexibility Score: inf
ROOT
ATOM      1  C   UNL     1     -14.591 -29.422 -10.607  1.00  0.00    -0.022 A 
ATOM      2  C   UNL     1     -14.778 -28.792 -11.854  1.00  0.00     0.058 A 
ATOM      3  C   UNL     1     -14.989 -30.762 -10.459  1.00  0.00     0.012 A 
ATOM      4  C   UNL     1     -15.374 -29.484 -12.920  1.00  0.00     0.157 A 
ATOM      5  C   UNL     1     -15.583 -31.449 -11.519  1.00  0.00     0.051 A 
ATOM      6  C   UNL     1     -15.781 -30.817 -12.749  1.00  0.00     0.157 A 
ENDROOT
BRANCH   1   7
ATOM      7  C   UNL     1     -13.956 -28.738  -9.455  1.00  0.00     0.010 C 
ATOM      8  C   UNL     1     -12.704 -28.979  -9.043  1.00  0.00     0.025 C 
BRANCH   8   9
ATOM      9  C   UNL     1     -12.109 -28.268  -7.901  1.00  0.00     0.064 C 
ATOM     10  O   UNL     1     -11.469 -28.914  -7.031  1.00  0.00    -0.545 OA
ATOM     11  O   UNL     1     -12.245 -26.891  -7.764  1.00  0.00    -0.545 OA
ENDBRANCH   8   9
ENDBRANCH   1   7
BRANCH   4  12
ATOM     12  O   UNL     1     -15.558 -28.851 -14.149  1.00  0.00    -0.504 OA
ATOM     13  H   UNL     1     -15.677 -29.379 -15.006  1.00  0.00     0.293 HD
ENDBRANCH   4  12
BRANCH   6  14
ATOM     14  O   UNL     1     -16.380 -31.529 -13.789  1.00  0.00    -0.504 OA
ATOM     15  H   UNL     1     -15.870 -31.794 -14.622  1.00  0.00     0.293 HD
ENDBRANCH   6  14
TORSDOF 4
ENDMDL
MODEL 2
REMARK VINA RESULT:    -5.918      3.570      4.572
REMARK INTER + INTRA:          -7.086
REMARK INTER:                  -6.962
REMARK INTRA:                  -0.124
REMARK UNBOUND:                -0.130
REMARK SMILES O=C([O-])C=Cc1ccc(O)c(O)c1
REMARK SMILES IDX 6 1 13 2 7 3 11 4 8 5 9 6 5 7 4 8 2 9 1 10 3 11 12 12 10 14
REMARK H PARENT 12 13 10 15
REMARK Flexibility Score: inf
ROOT
ATOM      1  C   UNL     1     -14.973 -29.389 -12.764  1.00  0.00    -0.022 A 
ATOM      2  C   UNL     1     -15.240 -30.328 -13.782  1.00  0.00     0.058 A 
ATOM      3  C   UNL     1     -14.794 -29.849 -11.449  1.00  0.00     0.012 A 
ATOM      4  C   UNL     1     -15.349 -31.694 -13.481  1.00  0.00     0.157 A 
ATOM      5  C   UNL     1     -14.903 -31.208 -11.149  1.00  0.00     0.051 A 
ATOM      6  C   UNL     1     -15.183 -32.134 -12.157  1.00  0.00     0.157 A 
ENDROOT
BRANCH   1   7
ATOM      7  C   UNL     1     -14.837 -27.937 -13.034  1.00  0.00     0.010 C 
ATOM      8  C   UNL     1     -14.285 -27.434 -14.146  1.00  0.00     0.025 C 
BRANCH   8   9
ATOM      9  C   UNL     1     -14.181 -25.985 -14.378  1.00  0.00     0.064 C 
ATOM     10  O   UNL     1     -15.229 -25.298 -14.499  1.00  0.00    -0.545 OA
ATOM     11  O   UNL     1     -12.943 -25.359 -14.466  1.00  0.00    -0.545 OA
ENDBRANCH   8   9
ENDBRANCH   1   7
BRANCH   4  12
ATOM     12  O   UNL     1     -15.617 -32.615 -14.493  1.00  0.00    -0.504 OA
ATOM     13  H   UNL     1     -16.071 -32.339 -15.356  1.00  0.00     0.293 HD
ENDBRANCH   4  12
BRANCH   6  14
ATOM     14  O   UNL     1     -15.290 -33.485 -11.827  1.00  0.00    -0.504 OA
ATOM     15  H   UNL     1     -14.940 -34.216 -12.434  1.00  0.00     0.293 HD
ENDBRANCH   6  14
TORSDOF 4
ENDMDL
MODEL 3
REMARK VINA RESULT:    -5.889      2.316      2.955
REMARK INTER + INTRA:          -7.052
REMARK INTER:                  -6.928
REMARK INTRA:                  -0.124
REMARK UNBOUND:                -0.130
REMARK SMILES O=C([O-])C=Cc1ccc(O)c(O)c1
REMARK SMILES IDX 6 1 13 2 7 3 11 4 8 5 9 6 5 7 4 8 2 9 1 10 3 11 12 12 10 14
REMARK H PARENT 12 13 10 15
REMARK Flexibility Score: inf
ROOT
ATOM      1  C   UNL     1     -13.953 -27.689 -12.071  1.00  0.00    -0.022 A 
ATOM      2  C   UNL     1     -13.108 -26.952 -12.925  1.00  0.00     0.058 A 
ATOM      3  C   UNL     1     -14.858 -28.602 -12.638  1.00  0.00     0.012 A 
ATOM      4  C   UNL     1     -13.188 -27.109 -14.317  1.00  0.00     0.157 A 
ATOM      5  C   UNL     1     -14.939 -28.758 -14.023  1.00  0.00     0.051 A 
ATOM      6  C   UNL     1     -14.111 -28.014 -14.867  1.00  0.00     0.157 A 
ENDROOT
BRANCH   1   7
ATOM      7  C   UNL     1     -13.899 -27.566 -10.594  1.00  0.00     0.010 C 
ATOM      8  C   UNL     1     -12.769 -27.657  -9.880  1.00  0.00     0.025 C 
BRANCH   8   9
ATOM      9  C   UNL     1     -12.760 -27.517  -8.416  1.00  0.00     0.064 C 
ATOM     10  O   UNL     1     -13.238 -28.436  -7.700  1.00  0.00    -0.545 OA
ATOM     11  O   UNL     1     -12.234 -26.384  -7.807  1.00  0.00    -0.545 OA
ENDBRANCH   8   9
ENDBRANCH   1   7
BRANCH   4  12
ATOM     12  O   UNL     1     -12.350 -26.373 -15.155  1.00  0.00    -0.504 OA
ATOM     13  H   UNL     1     -12.286 -25.364 -15.088  1.00  0.00     0.293 HD
ENDBRANCH   4  12
BRANCH   6  14
ATOM     14  O   UNL     1     -14.215 -28.190 -16.247  1.00  0.00    -0.504 OA
ATOM     15  H   UNL     1     -13.434 -28.030 -16.870  1.00  0.00     0.293 HD
ENDBRANCH   6  14
TORSDOF 4
ENDMDL
MODEL 4
REMARK VINA RESULT:    -5.801      1.726      2.869
REMARK INTER + INTRA:          -6.949
REMARK INTER:                  -6.810
REMARK INTRA:                  -0.139
REMARK UNBOUND:                -0.130
REMARK SMILES O=C([O-])C=Cc1ccc(O)c(O)c1
REMARK SMILES IDX 6 1 13 2 7 3 11 4 8 5 9 6 5 7 4 8 2 9 1 10 3 11 12 12 10 14
REMARK H PARENT 12 13 10 15
REMARK Flexibility Score: inf
ROOT
ATOM      1  C   UNL     1     -13.867 -27.767 -11.700  1.00  0.00    -0.022 A 
ATOM      2  C   UNL     1     -14.898 -28.574 -12.220  1.00  0.00     0.058 A 
ATOM      3  C   UNL     1     -13.027 -27.081 -12.594  1.00  0.00     0.012 A 
ATOM      4  C   UNL     1     -15.067 -28.711 -13.607  1.00  0.00     0.157 A 
ATOM      5  C   UNL     1     -13.193 -27.218 -13.974  1.00  0.00     0.051 A 
ATOM      6  C   UNL     1     -14.207 -28.032 -14.486  1.00  0.00     0.157 A 
ENDROOT
BRANCH   1   7
ATOM      7  C   UNL     1     -13.655 -27.581 -10.244  1.00  0.00     0.010 C 
ATOM      8  C   UNL     1     -12.458 -27.665  -9.648  1.00  0.00     0.025 C 
BRANCH   8   9
ATOM      9  C   UNL     1     -12.292 -27.462  -8.201  1.00  0.00     0.064 C 
ATOM     10  O   UNL     1     -12.185 -26.294  -7.745  1.00  0.00    -0.545 OA
ATOM     11  O   UNL     1     -12.250 -28.541  -7.325  1.00  0.00    -0.545 OA
ENDBRANCH   8   9
ENDBRANCH   1   7
BRANCH   4  12
ATOM     12  O   UNL     1     -16.088 -29.515 -14.112  1.00  0.00    -0.504 OA
ATOM     13  H   UNL     1     -16.052 -30.525 -14.042  1.00  0.00     0.293 HD
ENDBRANCH   4  12
BRANCH   6  14
ATOM     14  O   UNL     1     -14.348 -28.151 -15.869  1.00  0.00    -0.504 OA
ATOM     15  H   UNL     1     -14.053 -27.421 -16.504  1.00  0.00     0.293 HD
ENDBRANCH   6  14
TORSDOF 4
ENDMDL
MODEL 5
REMARK VINA RESULT:    -5.742      1.032      2.141
REMARK INTER + INTRA:          -6.880
REMARK INTER:                  -6.749
REMARK INTRA:                  -0.130
REMARK UNBOUND:                -0.130
REMARK SMILES O=C([O-])C=Cc1ccc(O)c(O)c1
REMARK SMILES IDX 6 1 13 2 7 3 11 4 8 5 9 6 5 7 4 8 2 9 1 10 3 11 12 12 10 14
REMARK H PARENT 12 13 10 15
REMARK Flexibility Score: inf
ROOT
ATOM      1  C   UNL     1     -14.182 -29.260 -10.448  1.00  0.00    -0.022 A 
ATOM      2  C   UNL     1     -14.403 -30.651 -10.489  1.00  0.00     0.058 A 
ATOM      3  C   UNL     1     -14.604 -28.475 -11.534  1.00  0.00     0.012 A 
ATOM      4  C   UNL     1     -15.012 -31.244 -11.605  1.00  0.00     0.157 A 
ATOM      5  C   UNL     1     -15.209 -29.065 -12.646  1.00  0.00     0.051 A 
ATOM      6  C   UNL     1     -15.412 -30.446 -12.690  1.00  0.00     0.157 A 
ENDROOT
BRANCH   1   7
ATOM      7  C   UNL     1     -13.553 -28.585  -9.286  1.00  0.00     0.010 C 
ATOM      8  C   UNL     1     -12.332 -28.034  -9.315  1.00  0.00     0.025 C 
BRANCH   8   9
ATOM      9  C   UNL     1     -11.752 -27.363  -8.142  1.00  0.00     0.064 C 
ATOM     10  O   UNL     1     -12.242 -26.274  -7.743  1.00  0.00    -0.545 OA
ATOM     11  O   UNL     1     -10.669 -27.912  -7.465  1.00  0.00    -0.545 OA
ENDBRANCH   8   9
ENDBRANCH   1   7
BRANCH   4  12
ATOM     12  O   UNL     1     -15.223 -32.622 -11.638  1.00  0.00    -0.504 OA
ATOM     13  H   UNL     1     -14.623 -33.264 -11.134  1.00  0.00     0.293 HD
ENDBRANCH   4  12
BRANCH   6  14
ATOM     14  O   UNL     1     -16.017 -31.008 -13.815  1.00  0.00    -0.504 OA
ATOM     15  H   UNL     1     -15.518 -31.134 -14.687  1.00  0.00     0.293 HD
ENDBRANCH   6  14
TORSDOF 4
ENDMDL
MODEL 6
REMARK VINA RESULT:    -5.612      2.710      6.068
REMARK INTER + INTRA:          -6.727
REMARK INTER:                  -6.600
REMARK INTRA:                  -0.127
REMARK UNBOUND:                -0.130
REMARK SMILES O=C([O-])C=Cc1ccc(O)c(O)c1
REMARK SMILES IDX 6 1 13 2 7 3 11 4 8 5 9 6 5 7 4 8 2 9 1 10 3 11 12 12 10 14
REMARK H PARENT 12 13 10 15
REMARK Flexibility Score: inf
ROOT
ATOM      1  C   UNL     1     -15.202 -31.689 -12.574  1.00  0.00    -0.022 A 
ATOM      2  C   UNL     1     -15.554 -30.589 -13.383  1.00  0.00     0.058 A 
ATOM      3  C   UNL     1     -14.752 -31.449 -11.265  1.00  0.00     0.012 A 
ATOM      4  C   UNL     1     -15.433 -29.278 -12.897  1.00  0.00     0.157 A 
ATOM      5  C   UNL     1     -14.630 -30.145 -10.781  1.00  0.00     0.051 A 
ATOM      6  C   UNL     1     -14.965 -29.057 -11.591  1.00  0.00     0.157 A 
ENDROOT
BRANCH   1   7
ATOM      7  C   UNL     1     -15.323 -33.092 -13.037  1.00  0.00     0.010 C 
ATOM      8  C   UNL     1     -14.628 -33.601 -14.064  1.00  0.00     0.025 C 
BRANCH   8   9
ATOM      9  C   UNL     1     -14.771 -35.003 -14.482  1.00  0.00     0.064 C 
ATOM     10  O   UNL     1     -15.803 -35.646 -14.160  1.00  0.00    -0.545 OA
ATOM     11  O   UNL     1     -13.781 -35.634 -15.228  1.00  0.00    -0.545 OA
ENDBRANCH   8   9
ENDBRANCH   1   7
BRANCH   4  12
ATOM     12  O   UNL     1     -15.781 -28.197 -13.705  1.00  0.00    -0.504 OA
ATOM     13  H   UNL     1     -15.780 -28.268 -14.716  1.00  0.00     0.293 HD
ENDBRANCH   4  12
BRANCH   6  14
ATOM     14  O   UNL     1     -14.831 -27.765 -11.082  1.00  0.00    -0.504 OA
ATOM     15  H   UNL     1     -15.327 -26.977 -11.478  1.00  0.00     0.293 HD
ENDBRANCH   6  14
TORSDOF 4
ENDMDL
MODEL 7
REMARK VINA RESULT:    -5.606      4.460      6.525
REMARK INTER + INTRA:          -6.719
REMARK INTER:                  -6.597
REMARK INTRA:                  -0.122
REMARK UNBOUND:                -0.130
REMARK SMILES O=C([O-])C=Cc1ccc(O)c(O)c1
REMARK SMILES IDX 6 1 13 2 7 3 11 4 8 5 9 6 5 7 4 8 2 9 1 10 3 11 12 12 10 14
REMARK H PARENT 12 13 10 15
REMARK Flexibility Score: inf
ROOT
ATOM      1  C   UNL     1     -10.751 -30.556  -6.988  1.00  0.00    -0.022 A 
ATOM      2  C   UNL     1     -10.793 -31.591  -7.944  1.00  0.00     0.058 A 
ATOM      3  C   UNL     1     -10.331 -30.857  -5.682  1.00  0.00     0.012 A 
ATOM      4  C   UNL     1     -10.444 -32.904  -7.590  1.00  0.00     0.157 A 
ATOM      5  C   UNL     1      -9.986 -32.164  -5.329  1.00  0.00     0.051 A 
ATOM      6  C   UNL     1     -10.043 -33.190  -6.274  1.00  0.00     0.157 A 
ENDROOT
BRANCH   1   7
ATOM      7  C   UNL     1     -11.099 -29.152  -7.316  1.00  0.00     0.010 C 
ATOM      8  C   UNL     1     -12.236 -28.788  -7.924  1.00  0.00     0.025 C 
BRANCH   8   9
ATOM      9  C   UNL     1     -12.545 -27.381  -8.219  1.00  0.00     0.064 C 
ATOM     10  O   UNL     1     -13.592 -27.094  -8.857  1.00  0.00    -0.545 OA
ATOM     11  O   UNL     1     -11.698 -26.358  -7.806  1.00  0.00    -0.545 OA
ENDBRANCH   8   9
ENDBRANCH   1   7
BRANCH   4  12
ATOM     12  O   UNL     1     -10.491 -33.921  -8.542  1.00  0.00    -0.504 OA
ATOM     13  H   UNL     1     -10.693 -33.729  -9.516  1.00  0.00     0.293 HD
ENDBRANCH   4  12
BRANCH   6  14
ATOM     14  O   UNL     1      -9.694 -34.486  -5.893  1.00  0.00    -0.504 OA
ATOM     15  H   UNL     1      -9.016 -35.034  -6.407  1.00  0.00     0.293 HD
ENDBRANCH   6  14
TORSDOF 4
ENDMDL
MODEL 8
REMARK VINA RESULT:    -5.551      1.062      5.854
REMARK INTER + INTRA:          -6.655
REMARK INTER:                  -6.504
REMARK INTRA:                  -0.151
REMARK UNBOUND:                -0.130
REMARK SMILES O=C([O-])C=Cc1ccc(O)c(O)c1
REMARK SMILES IDX 6 1 13 2 7 3 11 4 8 5 9 6 5 7 4 8 2 9 1 10 3 11 12 12 10 14
REMARK H PARENT 12 13 10 15
REMARK Flexibility Score: inf
ROOT
ATOM      1  C   UNL     1     -13.792 -28.578 -10.124  1.00  0.00    -0.022 A 
ATOM      2  C   UNL     1     -13.570 -27.385  -9.407  1.00  0.00     0.058 A 
ATOM      3  C   UNL     1     -13.036 -29.716  -9.797  1.00  0.00     0.012 A 
ATOM      4  C   UNL     1     -12.593 -27.329  -8.401  1.00  0.00     0.157 A 
ATOM      5  C   UNL     1     -12.062 -29.660  -8.798  1.00  0.00     0.051 A 
ATOM      6  C   UNL     1     -11.834 -28.472  -8.099  1.00  0.00     0.157 A 
ENDROOT
BRANCH   1   7
ATOM      7  C   UNL     1     -14.821 -28.691 -11.187  1.00  0.00     0.010 C 
ATOM      8  C   UNL     1     -14.885 -29.708 -12.057  1.00  0.00     0.025 C 
BRANCH   8   9
ATOM      9  C   UNL     1     -15.931 -29.786 -13.088  1.00  0.00     0.064 C 
ATOM     10  O   UNL     1     -16.459 -30.896 -13.356  1.00  0.00    -0.545 OA
ATOM     11  O   UNL     1     -16.345 -28.651 -13.776  1.00  0.00    -0.545 OA
ENDBRANCH   8   9
ENDBRANCH   1   7
BRANCH   4  12
ATOM     12  O   UNL     1     -12.378 -26.144  -7.699  1.00  0.00    -0.504 OA
ATOM     13  H   UNL     1     -12.948 -25.888  -6.901  1.00  0.00     0.293 HD
ENDBRANCH   4  12
BRANCH   6  14
ATOM     14  O   UNL     1     -10.854 -28.446  -7.107  1.00  0.00    -0.504 OA
ATOM     15  H   UNL     1     -10.986 -28.891  -6.208  1.00  0.00     0.293 HD
ENDBRANCH   6  14
TORSDOF 4
ENDMDL
MODEL 9
REMARK VINA RESULT:    -5.485      2.589      6.110
REMARK INTER + INTRA:          -6.577
REMARK INTER:                  -6.434
REMARK INTRA:                  -0.143
REMARK UNBOUND:                -0.130
REMARK SMILES O=C([O-])C=Cc1ccc(O)c(O)c1
REMARK SMILES IDX 6 1 13 2 7 3 11 4 8 5 9 6 5 7 4 8 2 9 1 10 3 11 12 12 10 14
REMARK H PARENT 12 13 10 15
REMARK Flexibility Score: inf
ROOT
ATOM      1  C   UNL     1     -15.138 -31.239 -12.252  1.00  0.00    -0.022 A 
ATOM      2  C   UNL     1     -14.774 -30.875 -10.940  1.00  0.00     0.058 A 
ATOM      3  C   UNL     1     -15.329 -30.227 -13.207  1.00  0.00     0.012 A 
ATOM      4  C   UNL     1     -14.628 -29.524 -10.589  1.00  0.00     0.157 A 
ATOM      5  C   UNL     1     -15.186 -28.882 -12.858  1.00  0.00     0.051 A 
ATOM      6  C   UNL     1     -14.840 -28.524 -11.553  1.00  0.00     0.157 A 
ENDROOT
BRANCH   1   7
ATOM      7  C   UNL     1     -15.293 -32.652 -12.674  1.00  0.00     0.010 C 
ATOM      8  C   UNL     1     -14.810 -33.143 -13.824  1.00  0.00     0.025 C 
BRANCH   8   9
ATOM      9  C   UNL     1     -14.976 -34.556 -14.198  1.00  0.00     0.064 C 
ATOM     10  O   UNL     1     -16.077 -35.129 -13.990  1.00  0.00    -0.545 OA
ATOM     11  O   UNL     1     -13.935 -35.272 -14.776  1.00  0.00    -0.545 OA
ENDBRANCH   8   9
ENDBRANCH   1   7
BRANCH   4  12
ATOM     12  O   UNL     1     -14.270 -29.173  -9.288  1.00  0.00    -0.504 OA
ATOM     13  H   UNL     1     -14.691 -29.621  -8.482  1.00  0.00     0.293 HD
ENDBRANCH   4  12
BRANCH   6  14
ATOM     14  O   UNL     1     -14.706 -27.173 -11.232  1.00  0.00    -0.504 OA
ATOM     15  H   UNL     1     -15.505 -26.554 -11.165  1.00  0.00     0.293 HD
ENDBRANCH   6  14
TORSDOF 4
ENDMDL
