MODEL 1
REMARK VINA RESULT:    -4.256      0.000      0.000
REMARK INTER + INTRA:          -4.380
REMARK INTER:                  -4.380
REMARK INTRA:                   0.000
REMARK UNBOUND:                 0.000
REMARK SMILES Cc1cccc(O)c1C
REMARK SMILES IDX 1 1 2 2 8 3 6 4 5 5 4 6 3 7 9 8 7 9
REMARK H PARENT 7 10
REMARK Flexibility Score: inf
ROOT
ATOM      1  C   UNL     1      -3.382   2.917  28.517  1.00  0.00     0.045 C 
ATOM      2  C   UNL     1      -2.710   1.746  27.846  1.00  0.00    -0.045 A 
ATOM      3  C   UNL     1      -3.135   1.256  26.581  1.00  0.00    -0.006 A 
ATOM      4  C   UNL     1      -2.456   0.150  26.009  1.00  0.00     0.118 A 
ATOM      5  C   UNL     1      -1.387  -0.442  26.685  1.00  0.00     0.046 A 
ATOM      6  C   UNL     1      -0.976   0.043  27.923  1.00  0.00     0.004 A 
ATOM      7  C   UNL     1      -1.631   1.128  28.501  1.00  0.00     0.004 A 
ATOM      8  C   UNL     1      -4.290   1.881  25.830  1.00  0.00     0.048 C 
ENDROOT
BRANCH   4   9
ATOM      9  O   UNL     1      -2.818  -0.385  24.769  1.00  0.00    -0.508 OA
ATOM     10  H   UNL     1      -2.167  -0.851  24.150  1.00  0.00     0.293 HD
ENDBRANCH   4   9
TORSDOF 1
ENDMDL
MODEL 2
REMARK VINA RESULT:    -4.138     14.127     15.560
REMARK INTER + INTRA:          -4.258
REMARK INTER:                  -4.258
REMARK INTRA:                   0.000
REMARK UNBOUND:                 0.000
REMARK SMILES Cc1cccc(O)c1C
REMARK SMILES IDX 1 1 2 2 8 3 6 4 5 5 4 6 3 7 9 8 7 9
REMARK H PARENT 7 10
REMARK Flexibility Score: inf
ROOT
ATOM      1  C   UNL     1     -13.319   9.705  17.003  1.00  0.00     0.045 C 
ATOM      2  C   UNL     1     -12.085  10.242  17.682  1.00  0.00    -0.045 A 
ATOM      3  C   UNL     1     -11.150   9.388  18.330  1.00  0.00    -0.006 A 
ATOM      4  C   UNL     1     -10.010   9.963  18.949  1.00  0.00     0.118 A 
ATOM      5  C   UNL     1      -9.817  11.346  18.917  1.00  0.00     0.046 A 
ATOM      6  C   UNL     1     -10.736  12.174  18.281  1.00  0.00     0.004 A 
ATOM      7  C   UNL     1     -11.862  11.629  17.668  1.00  0.00     0.004 A 
ATOM      8  C   UNL     1     -11.338   7.889  18.377  1.00  0.00     0.048 C 
ENDROOT
BRANCH   4   9
ATOM      9  O   UNL     1      -9.048   9.187  19.604  1.00  0.00    -0.508 OA
ATOM     10  H   UNL     1      -8.054   9.283  19.450  1.00  0.00     0.293 HD
ENDBRANCH   4   9
TORSDOF 1
ENDMDL
MODEL 3
REMARK VINA RESULT:    -4.085      1.325      2.295
REMARK INTER + INTRA:          -4.204
REMARK INTER:                  -4.204
REMARK INTRA:                   0.000
REMARK UNBOUND:                 0.000
REMARK SMILES Cc1cccc(O)c1C
REMARK SMILES IDX 1 1 2 2 8 3 6 4 5 5 4 6 3 7 9 8 7 9
REMARK H PARENT 7 10
REMARK Flexibility Score: inf
ROOT
ATOM      1  C   UNL     1      -0.235   1.573  29.226  1.00  0.00     0.045 C 
ATOM      2  C   UNL     1      -1.085   1.106  28.072  1.00  0.00    -0.045 A 
ATOM      3  C   UNL     1      -1.956   1.986  27.372  1.00  0.00    -0.006 A 
ATOM      4  C   UNL     1      -2.727   1.477  26.296  1.00  0.00     0.118 A 
ATOM      5  C   UNL     1      -2.626   0.131  25.936  1.00  0.00     0.046 A 
ATOM      6  C   UNL     1      -1.772  -0.724  26.625  1.00  0.00     0.004 A 
ATOM      7  C   UNL     1      -1.006  -0.243  27.685  1.00  0.00     0.004 A 
ATOM      8  C   UNL     1      -2.082   3.446  27.744  1.00  0.00     0.048 C 
ENDROOT
BRANCH   4   9
ATOM      9  O   UNL     1      -3.604   2.282  25.562  1.00  0.00    -0.508 OA
ATOM     10  H   UNL     1      -4.545   2.500  25.862  1.00  0.00     0.293 HD
ENDBRANCH   4   9
TORSDOF 1
ENDMDL
MODEL 4
REMARK VINA RESULT:    -4.068      0.943      2.657
REMARK INTER + INTRA:          -4.187
REMARK INTER:                  -4.187
REMARK INTRA:                   0.000
REMARK UNBOUND:                 0.000
REMARK SMILES Cc1cccc(O)c1C
REMARK SMILES IDX 1 1 2 2 8 3 6 4 5 5 4 6 3 7 9 8 7 9
REMARK H PARENT 7 10
REMARK Flexibility Score: inf
ROOT
ATOM      1  C   UNL     1      -0.350   0.729  28.944  1.00  0.00     0.045 C 
ATOM      2  C   UNL     1      -1.439   1.170  28.000  1.00  0.00    -0.045 A 
ATOM      3  C   UNL     1      -1.884   0.349  26.927  1.00  0.00    -0.006 A 
ATOM      4  C   UNL     1      -2.914   0.828  26.077  1.00  0.00     0.118 A 
ATOM      5  C   UNL     1      -3.477   2.088  26.299  1.00  0.00     0.046 A 
ATOM      6  C   UNL     1      -3.036   2.885  27.351  1.00  0.00     0.004 A 
ATOM      7  C   UNL     1      -2.025   2.431  28.196  1.00  0.00     0.004 A 
ATOM      8  C   UNL     1      -1.290  -1.017  26.668  1.00  0.00     0.048 C 
ENDROOT
BRANCH   4   9
ATOM      9  O   UNL     1      -3.402   0.078  25.003  1.00  0.00    -0.508 OA
ATOM     10  H   UNL     1      -3.723   0.488  24.136  1.00  0.00     0.293 HD
ENDBRANCH   4   9
TORSDOF 1
ENDMDL
MODEL 5
REMARK VINA RESULT:    -4.039      3.075      4.316
REMARK INTER + INTRA:          -4.157
REMARK INTER:                  -4.157
REMARK INTRA:                   0.000
REMARK UNBOUND:                 0.000
REMARK SMILES Cc1cccc(O)c1C
REMARK SMILES IDX 1 1 2 2 8 3 6 4 5 5 4 6 3 7 9 8 7 9
REMARK H PARENT 7 10
REMARK Flexibility Score: inf
ROOT
ATOM      1  C   UNL     1      -1.096  -0.304  26.849  1.00  0.00     0.045 C 
ATOM      2  C   UNL     1      -1.898  -0.036  28.097  1.00  0.00    -0.045 A 
ATOM      3  C   UNL     1      -1.360   0.685  29.198  1.00  0.00    -0.006 A 
ATOM      4  C   UNL     1      -2.172   0.901  30.341  1.00  0.00     0.118 A 
ATOM      5  C   UNL     1      -3.479   0.408  30.375  1.00  0.00     0.046 A 
ATOM      6  C   UNL     1      -3.998  -0.297  29.294  1.00  0.00     0.004 A 
ATOM      7  C   UNL     1      -3.216  -0.519  28.163  1.00  0.00     0.004 A 
ATOM      8  C   UNL     1       0.051   1.228  29.183  1.00  0.00     0.048 C 
ENDROOT
BRANCH   4   9
ATOM      9  O   UNL     1      -1.711   1.601  31.461  1.00  0.00    -0.508 OA
ATOM     10  H   UNL     1      -1.365   2.550  31.421  1.00  0.00     0.293 HD
ENDBRANCH   4   9
TORSDOF 1
ENDMDL
MODEL 6
REMARK VINA RESULT:    -3.994      1.838      2.745
REMARK INTER + INTRA:          -4.111
REMARK INTER:                  -4.111
REMARK INTRA:                   0.000
REMARK UNBOUND:                 0.000
REMARK SMILES Cc1cccc(O)c1C
REMARK SMILES IDX 1 1 2 2 8 3 6 4 5 5 4 6 3 7 9 8 7 9
REMARK H PARENT 7 10
REMARK Flexibility Score: inf
ROOT
ATOM      1  C   UNL     1      -4.227   2.640  27.266  1.00  0.00     0.045 C 
ATOM      2  C   UNL     1      -3.184   1.559  27.135  1.00  0.00    -0.045 A 
ATOM      3  C   UNL     1      -2.158   1.381  28.104  1.00  0.00    -0.006 A 
ATOM      4  C   UNL     1      -1.210   0.343  27.917  1.00  0.00     0.118 A 
ATOM      5  C   UNL     1      -1.291  -0.487  26.796  1.00  0.00     0.046 A 
ATOM      6  C   UNL     1      -2.298  -0.307  25.853  1.00  0.00     0.004 A 
ATOM      7  C   UNL     1      -3.238   0.708  26.019  1.00  0.00     0.004 A 
ATOM      8  C   UNL     1      -2.051   2.268  29.324  1.00  0.00     0.048 C 
ENDROOT
BRANCH   4   9
ATOM      9  O   UNL     1      -0.174   0.108  28.826  1.00  0.00    -0.508 OA
ATOM     10  H   UNL     1       0.567   0.771  29.011  1.00  0.00     0.293 HD
ENDBRANCH   4   9
TORSDOF 1
ENDMDL
MODEL 7
REMARK VINA RESULT:    -3.973      2.478      3.303
REMARK INTER + INTRA:          -4.089
REMARK INTER:                  -4.089
REMARK INTRA:                   0.000
REMARK UNBOUND:                 0.000
REMARK SMILES Cc1cccc(O)c1C
REMARK SMILES IDX 1 1 2 2 8 3 6 4 5 5 4 6 3 7 9 8 7 9
REMARK H PARENT 7 10
REMARK Flexibility Score: inf
ROOT
ATOM      1  C   UNL     1      -2.358   0.107  26.044  1.00  0.00     0.045 C 
ATOM      2  C   UNL     1      -1.671   0.852  27.161  1.00  0.00    -0.045 A 
ATOM      3  C   UNL     1      -1.776   2.263  27.302  1.00  0.00    -0.006 A 
ATOM      4  C   UNL     1      -1.103   2.898  28.377  1.00  0.00     0.118 A 
ATOM      5  C   UNL     1      -0.349   2.140  29.277  1.00  0.00     0.046 A 
ATOM      6  C   UNL     1      -0.251   0.760  29.133  1.00  0.00     0.004 A 
ATOM      7  C   UNL     1      -0.905   0.119  28.083  1.00  0.00     0.004 A 
ATOM      8  C   UNL     1      -2.586   3.103  26.339  1.00  0.00     0.048 C 
ENDROOT
BRANCH   4   9
ATOM      9  O   UNL     1      -1.161   4.280  28.579  1.00  0.00    -0.508 OA
ATOM     10  H   UNL     1      -1.427   4.705  29.457  1.00  0.00     0.293 HD
ENDBRANCH   4   9
TORSDOF 1
ENDMDL
MODEL 8
REMARK VINA RESULT:    -3.956     14.705     16.302
REMARK INTER + INTRA:          -4.072
REMARK INTER:                  -4.072
REMARK INTRA:                   0.000
REMARK UNBOUND:                 0.000
REMARK SMILES Cc1cccc(O)c1C
REMARK SMILES IDX 1 1 2 2 8 3 6 4 5 5 4 6 3 7 9 8 7 9
REMARK H PARENT 7 10
REMARK Flexibility Score: inf
ROOT
ATOM      1  C   UNL     1     -15.256  11.992  30.137  1.00  0.00     0.045 C 
ATOM      2  C   UNL     1     -15.093  10.624  30.749  1.00  0.00    -0.045 A 
ATOM      3  C   UNL     1     -16.178   9.936  31.358  1.00  0.00    -0.006 A 
ATOM      4  C   UNL     1     -15.952   8.651  31.915  1.00  0.00     0.118 A 
ATOM      5  C   UNL     1     -14.679   8.078  31.860  1.00  0.00     0.046 A 
ATOM      6  C   UNL     1     -13.622   8.757  31.263  1.00  0.00     0.004 A 
ATOM      7  C   UNL     1     -13.824  10.020  30.712  1.00  0.00     0.004 A 
ATOM      8  C   UNL     1     -17.565  10.536  31.428  1.00  0.00     0.048 C 
ENDROOT
BRANCH   4   9
ATOM      9  O   UNL     1     -16.971   7.915  32.528  1.00  0.00    -0.508 OA
ATOM     10  H   UNL     1     -16.810   7.057  33.037  1.00  0.00     0.293 HD
ENDBRANCH   4   9
TORSDOF 1
ENDMDL
MODEL 9
REMARK VINA RESULT:    -3.940      2.516      3.410
REMARK INTER + INTRA:          -4.055
REMARK INTER:                  -4.055
REMARK INTRA:                   0.000
REMARK UNBOUND:                 0.000
REMARK SMILES Cc1cccc(O)c1C
REMARK SMILES IDX 1 1 2 2 8 3 6 4 5 5 4 6 3 7 9 8 7 9
REMARK H PARENT 7 10
REMARK Flexibility Score: inf
ROOT
ATOM      1  C   UNL     1       0.125   1.666  29.314  1.00  0.00     0.045 C 
ATOM      2  C   UNL     1      -1.045   0.871  28.793  1.00  0.00    -0.045 A 
ATOM      3  C   UNL     1      -2.226   0.675  29.561  1.00  0.00    -0.006 A 
ATOM      4  C   UNL     1      -3.288  -0.084  29.007  1.00  0.00     0.118 A 
ATOM      5  C   UNL     1      -3.167  -0.627  27.724  1.00  0.00     0.046 A 
ATOM      6  C   UNL     1      -2.010  -0.430  26.979  1.00  0.00     0.004 A 
ATOM      7  C   UNL     1      -0.955   0.312  27.507  1.00  0.00     0.004 A 
ATOM      8  C   UNL     1      -2.379   1.252  30.950  1.00  0.00     0.048 C 
ENDROOT
BRANCH   4   9
ATOM      9  O   UNL     1      -4.478  -0.319  29.703  1.00  0.00    -0.508 OA
ATOM     10  H   UNL     1      -5.372   0.063  29.423  1.00  0.00     0.293 HD
ENDBRANCH   4   9
TORSDOF 1
ENDMDL
