MODEL 1
REMARK VINA RESULT:    -6.622      0.000      0.000
REMARK INTER + INTRA:          -7.461
REMARK INTER:                  -7.202
REMARK INTRA:                  -0.259
REMARK UNBOUND:                -0.259
REMARK SMILES CC1(C)CC[C@@]2(C(=O)[O-])CC[C@@]3(C)C(=CC[C@@H]4[C@@]5(C)CC[C@H](O)C(C)(C)[C@@H]5CC[C@]43C)[C@H]2C1
REMARK SMILES IDX 6 1 5 2 10 3 32 4 4 5 11 6 14 7 33 8 2 9 12 10 15 11 1 12
REMARK SMILES IDX 3 13 13 14 30 15 16 16 17 17 29 18 31 19 18 20 28 21 27 22
REMARK SMILES IDX 20 23 19 24 24 25 21 26 22 27 25 28 26 29 7 30 8 31 9 32
REMARK SMILES IDX 23 33
REMARK H PARENT 23 34
REMARK Flexibility Score: inf
ROOT
ATOM      1  C   UNL     1       6.910 -16.170  15.745  1.00  0.00     0.017 C 
ATOM      2  C   UNL     1       7.198 -14.757  15.122  1.00  0.00     0.014 C 
ATOM      3  C   UNL     1       6.537 -17.145  14.597  1.00  0.00     0.014 C 
ATOM      4  C   UNL     1       8.172 -16.682  16.525  1.00  0.00     0.028 C 
ATOM      5  C   UNL     1       8.234 -13.953  15.926  1.00  0.00     0.007 C 
ATOM      6  C   UNL     1       6.455 -18.628  15.022  1.00  0.00     0.013 C 
ATOM      7  C   UNL     1       8.117 -18.190  16.821  1.00  0.00    -0.064 C 
ATOM      8  C   UNL     1       9.493 -16.210  15.883  1.00  0.00     0.015 C 
ATOM      9  C   UNL     1       9.633 -14.652  15.951  1.00  0.00    -0.035 C 
ATOM     10  C   UNL     1       7.747 -19.201  15.703  1.00  0.00    -0.006 C 
ATOM     11  C   UNL     1       8.140 -18.532  18.132  1.00  0.00    -0.027 C 
ATOM     12  C   UNL     1      10.373 -14.251  17.247  1.00  0.00     0.011 C 
ATOM     13  C   UNL     1      10.476 -14.167  14.751  1.00  0.00     0.011 C 
ATOM     14  C   UNL     1       8.875 -19.228  14.623  1.00  0.00     0.017 C 
ATOM     15  C   UNL     1       7.530 -20.711  16.285  1.00  0.00    -0.020 C 
ATOM     16  C   UNL     1       7.732 -19.861  18.679  1.00  0.00     0.032 C 
ATOM     17  C   UNL     1       6.823 -20.631  17.695  1.00  0.00     0.006 C 
ATOM     18  C   UNL     1       6.656 -21.573  15.309  1.00  0.00     0.008 C 
ATOM     19  C   UNL     1       8.915 -21.432  16.421  1.00  0.00     0.012 C 
ATOM     20  C   UNL     1       6.188 -21.974  18.296  1.00  0.00    -0.025 C 
ATOM     21  C   UNL     1       6.179 -22.903  15.897  1.00  0.00     0.005 C 
ATOM     22  C   UNL     1       5.322 -22.637  17.161  1.00  0.00     0.003 C 
ATOM     23  C   UNL     1       5.218 -21.586  19.460  1.00  0.00     0.010 C 
ATOM     24  C   UNL     1       7.276 -22.946  18.875  1.00  0.00     0.012 C 
ATOM     25  C   UNL     1       4.371 -23.824  17.597  1.00  0.00    -0.006 C 
ATOM     26  C   UNL     1       4.311 -22.733  19.938  1.00  0.00     0.033 C 
ATOM     27  C   UNL     1       3.492 -23.344  18.797  1.00  0.00     0.120 C 
ATOM     28  C   UNL     1       3.398 -24.170  16.434  1.00  0.00     0.014 C 
ATOM     29  C   UNL     1       5.137 -25.125  17.948  1.00  0.00     0.014 C 
ENDROOT
BRANCH   1  30
ATOM     30  C   UNL     1       5.703 -16.062  16.677  1.00  0.00     0.048 C 
ATOM     31  O   UNL     1       4.525 -16.189  16.246  1.00  0.00    -0.550 OA
ATOM     32  O   UNL     1       5.889 -15.754  18.021  1.00  0.00    -0.550 OA
ENDBRANCH   1  30
BRANCH  27  33
ATOM     33  O   UNL     1       2.734 -24.409  19.320  1.00  0.00    -0.393 OA
ATOM     34  H   UNL     1       1.799 -24.090  19.424  1.00  0.00     0.210 HD
ENDBRANCH  27  33
TORSDOF 2
ENDMDL
MODEL 2
REMARK VINA RESULT:    -6.577      4.377      8.542
REMARK INTER + INTRA:          -7.413
REMARK INTER:                  -7.148
REMARK INTRA:                  -0.264
REMARK UNBOUND:                -0.259
REMARK SMILES CC1(C)CC[C@@]2(C(=O)[O-])CC[C@@]3(C)C(=CC[C@@H]4[C@@]5(C)CC[C@H](O)C(C)(C)[C@@H]5CC[C@]43C)[C@H]2C1
REMARK SMILES IDX 6 1 5 2 10 3 32 4 4 5 11 6 14 7 33 8 2 9 12 10 15 11 1 12
REMARK SMILES IDX 3 13 13 14 30 15 16 16 17 17 29 18 31 19 18 20 28 21 27 22
REMARK SMILES IDX 20 23 19 24 24 25 21 26 22 27 25 28 26 29 7 30 8 31 9 32
REMARK SMILES IDX 23 33
REMARK H PARENT 23 34
REMARK Flexibility Score: inf
ROOT
ATOM      1  C   UNL     1       4.149 -18.416  10.313  1.00  0.00     0.017 C 
ATOM      2  C   UNL     1       3.291 -18.918   9.096  1.00  0.00     0.014 C 
ATOM      3  C   UNL     1       3.961 -16.881  10.445  1.00  0.00     0.014 C 
ATOM      4  C   UNL     1       3.699 -19.149  11.626  1.00  0.00     0.028 C 
ATOM      5  C   UNL     1       2.787 -20.359   9.278  1.00  0.00     0.007 C 
ATOM      6  C   UNL     1       4.553 -16.277  11.737  1.00  0.00     0.013 C 
ATOM      7  C   UNL     1       4.200 -18.448  12.900  1.00  0.00    -0.064 C 
ATOM      8  C   UNL     1       2.192 -19.474  11.633  1.00  0.00     0.015 C 
ATOM      9  C   UNL     1       1.825 -20.497  10.505  1.00  0.00    -0.035 C 
ATOM     10  C   UNL     1       4.035 -16.914  13.073  1.00  0.00    -0.006 C 
ATOM     11  C   UNL     1       5.009 -19.187  13.698  1.00  0.00    -0.027 C 
ATOM     12  C   UNL     1       1.917 -21.937  11.056  1.00  0.00     0.011 C 
ATOM     13  C   UNL     1       0.369 -20.251  10.052  1.00  0.00     0.011 C 
ATOM     14  C   UNL     1       2.520 -16.560  13.206  1.00  0.00     0.017 C 
ATOM     15  C   UNL     1       4.831 -16.353  14.384  1.00  0.00    -0.020 C 
ATOM     16  C   UNL     1       5.901 -18.635  14.761  1.00  0.00     0.032 C 
ATOM     17  C   UNL     1       6.194 -17.135  14.541  1.00  0.00     0.006 C 
ATOM     18  C   UNL     1       5.118 -14.817  14.256  1.00  0.00     0.008 C 
ATOM     19  C   UNL     1       3.949 -16.551  15.665  1.00  0.00     0.012 C 
ATOM     20  C   UNL     1       7.300 -16.526  15.529  1.00  0.00    -0.025 C 
ATOM     21  C   UNL     1       6.089 -14.267  15.304  1.00  0.00     0.005 C 
ATOM     22  C   UNL     1       7.451 -14.997  15.186  1.00  0.00     0.003 C 
ATOM     23  C   UNL     1       8.671 -17.214  15.222  1.00  0.00     0.010 C 
ATOM     24  C   UNL     1       6.959 -16.778  17.040  1.00  0.00     0.012 C 
ATOM     25  C   UNL     1       8.682 -14.244  15.835  1.00  0.00    -0.006 C 
ATOM     26  C   UNL     1       9.883 -16.531  15.877  1.00  0.00     0.033 C 
ATOM     27  C   UNL     1       9.985 -15.047  15.513  1.00  0.00     0.120 C 
ATOM     28  C   UNL     1       8.842 -12.842  15.181  1.00  0.00     0.014 C 
ATOM     29  C   UNL     1       8.526 -14.017  17.360  1.00  0.00     0.014 C 
ENDROOT
BRANCH   1  30
ATOM     30  C   UNL     1       5.625 -18.683  10.020  1.00  0.00     0.048 C 
ATOM     31  O   UNL     1       6.319 -17.874   9.347  1.00  0.00    -0.550 OA
ATOM     32  O   UNL     1       6.214 -19.870  10.444  1.00  0.00    -0.550 OA
ENDBRANCH   1  30
BRANCH  27  33
ATOM     33  O   UNL     1      11.090 -14.500  16.193  1.00  0.00    -0.393 OA
ATOM     34  H   UNL     1      10.995 -13.512  16.177  1.00  0.00     0.210 HD
ENDBRANCH  27  33
TORSDOF 2
ENDMDL
MODEL 3
REMARK VINA RESULT:    -6.517      2.102      8.088
REMARK INTER + INTRA:          -7.347
REMARK INTER:                  -7.659
REMARK INTRA:                   0.312
REMARK UNBOUND:                -0.259
REMARK SMILES CC1(C)CC[C@@]2(C(=O)[O-])CC[C@@]3(C)C(=CC[C@@H]4[C@@]5(C)CC[C@H](O)C(C)(C)[C@@H]5CC[C@]43C)[C@H]2C1
REMARK SMILES IDX 6 1 5 2 10 3 32 4 4 5 11 6 14 7 33 8 2 9 12 10 15 11 1 12
REMARK SMILES IDX 3 13 13 14 30 15 16 16 17 17 29 18 31 19 18 20 28 21 27 22
REMARK SMILES IDX 20 23 19 24 24 25 21 26 22 27 25 28 26 29 7 30 8 31 9 32
REMARK SMILES IDX 23 33
REMARK H PARENT 23 34
REMARK Flexibility Score: inf
ROOT
ATOM      1  C   UNL     1       5.540 -21.954  20.101  1.00  0.00     0.017 C 
ATOM      2  C   UNL     1       5.250 -23.316  20.830  1.00  0.00     0.014 C 
ATOM      3  C   UNL     1       6.818 -22.123  19.237  1.00  0.00     0.014 C 
ATOM      4  C   UNL     1       4.312 -21.549  19.211  1.00  0.00     0.028 C 
ATOM      5  C   UNL     1       3.751 -23.549  21.080  1.00  0.00     0.007 C 
ATOM      6  C   UNL     1       7.098 -20.944  18.278  1.00  0.00     0.013 C 
ATOM      7  C   UNL     1       4.659 -20.461  18.180  1.00  0.00    -0.064 C 
ATOM      8  C   UNL     1       3.584 -22.772  18.620  1.00  0.00     0.015 C 
ATOM      9  C   UNL     1       2.938 -23.649  19.747  1.00  0.00    -0.035 C 
ATOM     10  C   UNL     1       5.929 -20.588  17.295  1.00  0.00    -0.006 C 
ATOM     11  C   UNL     1       3.963 -19.304  18.290  1.00  0.00    -0.027 C 
ATOM     12  C   UNL     1       1.489 -23.182  20.005  1.00  0.00     0.011 C 
ATOM     13  C   UNL     1       2.890 -25.120  19.278  1.00  0.00     0.011 C 
ATOM     14  C   UNL     1       5.764 -21.786  16.307  1.00  0.00     0.017 C 
ATOM     15  C   UNL     1       6.222 -19.229  16.440  1.00  0.00    -0.020 C 
ATOM     16  C   UNL     1       4.358 -18.002  17.673  1.00  0.00     0.032 C 
ATOM     17  C   UNL     1       5.863 -17.969  17.323  1.00  0.00     0.006 C 
ATOM     18  C   UNL     1       7.726 -19.150  16.002  1.00  0.00     0.008 C 
ATOM     19  C   UNL     1       5.360 -19.229  15.131  1.00  0.00     0.012 C 
ATOM     20  C   UNL     1       6.396 -16.536  16.842  1.00  0.00    -0.025 C 
ATOM     21  C   UNL     1       8.148 -17.792  15.436  1.00  0.00     0.005 C 
ATOM     22  C   UNL     1       7.926 -16.691  16.503  1.00  0.00     0.003 C 
ATOM     23  C   UNL     1       6.279 -15.536  18.039  1.00  0.00     0.010 C 
ATOM     24  C   UNL     1       5.566 -15.957  15.642  1.00  0.00     0.012 C 
ATOM     25  C   UNL     1       8.740 -15.353  16.276  1.00  0.00    -0.006 C 
ATOM     26  C   UNL     1       7.022 -14.206  17.828  1.00  0.00     0.033 C 
ATOM     27  C   UNL     1       8.504 -14.410  17.501  1.00  0.00     0.120 C 
ATOM     28  C   UNL     1      10.263 -15.666  16.233  1.00  0.00     0.014 C 
ATOM     29  C   UNL     1       8.387 -14.641  14.945  1.00  0.00     0.014 C 
ENDROOT
BRANCH   1  30
ATOM     30  C   UNL     1       5.825 -20.883  21.153  1.00  0.00     0.048 C 
ATOM     31  O   UNL     1       5.555 -21.068  22.371  1.00  0.00    -0.550 OA
ATOM     32  O   UNL     1       6.335 -19.648  20.767  1.00  0.00    -0.550 OA
ENDBRANCH   1  30
BRANCH  27  33
ATOM     33  O   UNL     1       9.086 -13.147  17.280  1.00  0.00    -0.393 OA
ATOM     34  H   UNL     1       9.264 -13.064  16.306  1.00  0.00     0.210 HD
ENDBRANCH  27  33
TORSDOF 2
ENDMDL
MODEL 4
REMARK VINA RESULT:    -6.495      2.026      3.009
REMARK INTER + INTRA:          -7.323
REMARK INTER:                  -7.104
REMARK INTRA:                  -0.219
REMARK UNBOUND:                -0.259
REMARK SMILES CC1(C)CC[C@@]2(C(=O)[O-])CC[C@@]3(C)C(=CC[C@@H]4[C@@]5(C)CC[C@H](O)C(C)(C)[C@@H]5CC[C@]43C)[C@H]2C1
REMARK SMILES IDX 6 1 5 2 10 3 32 4 4 5 11 6 14 7 33 8 2 9 12 10 15 11 1 12
REMARK SMILES IDX 3 13 13 14 30 15 16 16 17 17 29 18 31 19 18 20 28 21 27 22
REMARK SMILES IDX 20 23 19 24 24 25 21 26 22 27 25 28 26 29 7 30 8 31 9 32
REMARK SMILES IDX 23 33
REMARK H PARENT 23 34
REMARK Flexibility Score: inf
ROOT
ATOM      1  C   UNL     1       6.382 -15.774  16.052  1.00  0.00     0.017 C 
ATOM      2  C   UNL     1       6.524 -14.241  16.370  1.00  0.00     0.014 C 
ATOM      3  C   UNL     1       5.486 -15.933  14.795  1.00  0.00     0.014 C 
ATOM      4  C   UNL     1       7.798 -16.407  15.813  1.00  0.00     0.028 C 
ATOM      5  C   UNL     1       7.867 -13.894  17.034  1.00  0.00     0.007 C 
ATOM      6  C   UNL     1       5.445 -17.365  14.220  1.00  0.00     0.013 C 
ATOM      7  C   UNL     1       7.726 -17.779  15.121  1.00  0.00    -0.064 C 
ATOM      8  C   UNL     1       8.782 -15.418  15.157  1.00  0.00     0.015 C 
ATOM      9  C   UNL     1       9.084 -14.205  16.101  1.00  0.00    -0.035 C 
ATOM     10  C   UNL     1       6.841 -17.984  13.863  1.00  0.00    -0.006 C 
ATOM     11  C   UNL     1       8.246 -18.817  15.821  1.00  0.00    -0.027 C 
ATOM     12  C   UNL     1      10.319 -14.518  16.974  1.00  0.00     0.011 C 
ATOM     13  C   UNL     1       9.409 -12.963  15.242  1.00  0.00     0.011 C 
ATOM     14  C   UNL     1       7.427 -17.164  12.669  1.00  0.00     0.017 C 
ATOM     15  C   UNL     1       6.738 -19.555  13.431  1.00  0.00    -0.020 C 
ATOM     16  C   UNL     1       7.973 -20.259  15.547  1.00  0.00     0.032 C 
ATOM     17  C   UNL     1       6.675 -20.450  14.731  1.00  0.00     0.006 C 
ATOM     18  C   UNL     1       5.467 -19.817  12.551  1.00  0.00     0.008 C 
ATOM     19  C   UNL     1       7.985 -19.951  12.568  1.00  0.00     0.012 C 
ATOM     20  C   UNL     1       6.215 -21.977  14.570  1.00  0.00    -0.025 C 
ATOM     21  C   UNL     1       5.146 -21.297  12.331  1.00  0.00     0.005 C 
ATOM     22  C   UNL     1       4.905 -21.988  13.697  1.00  0.00     0.003 C 
ATOM     23  C   UNL     1       5.842 -22.533  15.984  1.00  0.00     0.010 C 
ATOM     24  C   UNL     1       7.348 -22.887  13.975  1.00  0.00     0.012 C 
ATOM     25  C   UNL     1       4.106 -23.352  13.635  1.00  0.00    -0.006 C 
ATOM     26  C   UNL     1       5.103 -23.882  15.959  1.00  0.00     0.033 C 
ATOM     27  C   UNL     1       3.838 -23.840  15.096  1.00  0.00     0.120 C 
ATOM     28  C   UNL     1       2.717 -23.116  12.976  1.00  0.00     0.014 C 
ATOM     29  C   UNL     1       4.823 -24.444  12.801  1.00  0.00     0.014 C 
ENDROOT
BRANCH   1  30
ATOM     30  C   UNL     1       5.672 -16.456  17.222  1.00  0.00     0.048 C 
ATOM     31  O   UNL     1       6.315 -16.910  18.207  1.00  0.00    -0.550 OA
ATOM     32  O   UNL     1       4.295 -16.645  17.184  1.00  0.00    -0.550 OA
ENDBRANCH   1  30
BRANCH  27  33
ATOM     33  O   UNL     1       3.261 -25.125  15.097  1.00  0.00    -0.393 OA
ATOM     34  H   UNL     1       2.310 -25.027  15.368  1.00  0.00     0.210 HD
ENDBRANCH  27  33
TORSDOF 2
ENDMDL
MODEL 5
REMARK VINA RESULT:    -6.437      3.007      6.899
REMARK INTER + INTRA:          -7.260
REMARK INTER:                  -7.511
REMARK INTRA:                   0.251
REMARK UNBOUND:                -0.259
REMARK SMILES CC1(C)CC[C@@]2(C(=O)[O-])CC[C@@]3(C)C(=CC[C@@H]4[C@@]5(C)CC[C@H](O)C(C)(C)[C@@H]5CC[C@]43C)[C@H]2C1
REMARK SMILES IDX 6 1 5 2 10 3 32 4 4 5 11 6 14 7 33 8 2 9 12 10 15 11 1 12
REMARK SMILES IDX 3 13 13 14 30 15 16 16 17 17 29 18 31 19 18 20 28 21 27 22
REMARK SMILES IDX 20 23 19 24 24 25 21 26 22 27 25 28 26 29 7 30 8 31 9 32
REMARK SMILES IDX 23 33
REMARK H PARENT 23 34
REMARK Flexibility Score: inf
ROOT
ATOM      1  C   UNL     1       5.853 -20.971  20.292  1.00  0.00     0.017 C 
ATOM      2  C   UNL     1       5.420 -21.429  21.732  1.00  0.00     0.014 C 
ATOM      3  C   UNL     1       4.573 -20.675  19.466  1.00  0.00     0.014 C 
ATOM      4  C   UNL     1       6.765 -19.696  20.386  1.00  0.00     0.028 C 
ATOM      5  C   UNL     1       6.447 -21.048  22.811  1.00  0.00     0.007 C 
ATOM      6  C   UNL     1       4.836 -19.989  18.108  1.00  0.00     0.013 C 
ATOM      7  C   UNL     1       6.903 -18.964  19.040  1.00  0.00    -0.064 C 
ATOM      8  C   UNL     1       6.381 -18.783  21.567  1.00  0.00     0.015 C 
ATOM      9  C   UNL     1       6.619 -19.498  22.940  1.00  0.00    -0.035 C 
ATOM     10  C   UNL     1       5.649 -18.650  18.180  1.00  0.00    -0.006 C 
ATOM     11  C   UNL     1       8.163 -18.868  18.551  1.00  0.00    -0.027 C 
ATOM     12  C   UNL     1       8.045 -19.191  23.448  1.00  0.00     0.011 C 
ATOM     13  C   UNL     1       5.614 -18.949  23.977  1.00  0.00     0.011 C 
ATOM     14  C   UNL     1       4.758 -17.598  18.914  1.00  0.00     0.017 C 
ATOM     15  C   UNL     1       6.043 -18.076  16.703  1.00  0.00    -0.020 C 
ATOM     16  C   UNL     1       8.511 -18.549  17.133  1.00  0.00     0.032 C 
ATOM     17  C   UNL     1       7.330 -18.828  16.177  1.00  0.00     0.006 C 
ATOM     18  C   UNL     1       4.866 -18.277  15.686  1.00  0.00     0.008 C 
ATOM     19  C   UNL     1       6.320 -16.536  16.788  1.00  0.00     0.012 C 
ATOM     20  C   UNL     1       7.694 -18.697  14.622  1.00  0.00    -0.025 C 
ATOM     21  C   UNL     1       5.244 -18.020  14.226  1.00  0.00     0.005 C 
ATOM     22  C   UNL     1       6.381 -18.984  13.803  1.00  0.00     0.003 C 
ATOM     23  C   UNL     1       8.727 -19.814  14.260  1.00  0.00     0.010 C 
ATOM     24  C   UNL     1       8.337 -17.309  14.271  1.00  0.00     0.012 C 
ATOM     25  C   UNL     1       6.550 -19.190  12.243  1.00  0.00    -0.006 C 
ATOM     26  C   UNL     1       8.948 -20.007  12.750  1.00  0.00     0.033 C 
ATOM     27  C   UNL     1       7.642 -20.282  11.999  1.00  0.00     0.120 C 
ATOM     28  C   UNL     1       5.224 -19.733  11.639  1.00  0.00     0.014 C 
ATOM     29  C   UNL     1       6.888 -17.880  11.486  1.00  0.00     0.014 C 
ENDROOT
BRANCH   1  30
ATOM     30  C   UNL     1       6.595 -22.120  19.610  1.00  0.00     0.048 C 
ATOM     31  O   UNL     1       7.397 -21.913  18.660  1.00  0.00    -0.550 OA
ATOM     32  O   UNL     1       6.342 -23.433  19.992  1.00  0.00    -0.550 OA
ENDBRANCH   1  30
BRANCH  27  33
ATOM     33  O   UNL     1       7.937 -20.397  10.627  1.00  0.00    -0.393 OA
ATOM     34  H   UNL     1       8.225 -19.502  10.305  1.00  0.00     0.210 HD
ENDBRANCH  27  33
TORSDOF 2
ENDMDL
MODEL 6
REMARK VINA RESULT:    -6.419      2.365      8.238
REMARK INTER + INTRA:          -7.241
REMARK INTER:                  -7.003
REMARK INTRA:                  -0.238
REMARK UNBOUND:                -0.259
REMARK SMILES CC1(C)CC[C@@]2(C(=O)[O-])CC[C@@]3(C)C(=CC[C@@H]4[C@@]5(C)CC[C@H](O)C(C)(C)[C@@H]5CC[C@]43C)[C@H]2C1
REMARK SMILES IDX 6 1 5 2 10 3 32 4 4 5 11 6 14 7 33 8 2 9 12 10 15 11 1 12
REMARK SMILES IDX 3 13 13 14 30 15 16 16 17 17 29 18 31 19 18 20 28 21 27 22
REMARK SMILES IDX 20 23 19 24 24 25 21 26 22 27 25 28 26 29 7 30 8 31 9 32
REMARK SMILES IDX 23 33
REMARK H PARENT 23 34
REMARK Flexibility Score: inf
ROOT
ATOM      1  C   UNL     1       5.050 -23.345  18.569  1.00  0.00     0.017 C 
ATOM      2  C   UNL     1       4.643 -24.819  18.933  1.00  0.00     0.014 C 
ATOM      3  C   UNL     1       4.202 -22.889  17.352  1.00  0.00     0.014 C 
ATOM      4  C   UNL     1       4.812 -22.402  19.801  1.00  0.00     0.028 C 
ATOM      5  C   UNL     1       4.795 -25.125  20.432  1.00  0.00     0.007 C 
ATOM      6  C   UNL     1       4.319 -21.384  17.024  1.00  0.00     0.013 C 
ATOM      7  C   UNL     1       4.807 -20.913  19.418  1.00  0.00    -0.064 C 
ATOM      8  C   UNL     1       3.605 -22.841  20.654  1.00  0.00     0.015 C 
ATOM      9  C   UNL     1       3.852 -24.240  21.313  1.00  0.00    -0.035 C 
ATOM     10  C   UNL     1       3.975 -20.412  18.206  1.00  0.00    -0.006 C 
ATOM     11  C   UNL     1       5.756 -20.150  20.012  1.00  0.00    -0.027 C 
ATOM     12  C   UNL     1       4.493 -24.055  22.706  1.00  0.00     0.011 C 
ATOM     13  C   UNL     1       2.496 -24.956  21.502  1.00  0.00     0.011 C 
ATOM     14  C   UNL     1       2.452 -20.567  18.515  1.00  0.00     0.017 C 
ATOM     15  C   UNL     1       4.290 -18.852  17.845  1.00  0.00    -0.020 C 
ATOM     16  C   UNL     1       6.191 -18.800  19.543  1.00  0.00     0.032 C 
ATOM     17  C   UNL     1       5.829 -18.566  18.060  1.00  0.00     0.006 C 
ATOM     18  C   UNL     1       3.897 -18.524  16.364  1.00  0.00     0.008 C 
ATOM     19  C   UNL     1       3.438 -17.911  18.767  1.00  0.00     0.012 C 
ATOM     20  C   UNL     1       6.438 -17.222  17.436  1.00  0.00    -0.025 C 
ATOM     21  C   UNL     1       4.404 -17.170  15.861  1.00  0.00     0.005 C 
ATOM     22  C   UNL     1       5.952 -17.131  15.942  1.00  0.00     0.003 C 
ATOM     23  C   UNL     1       7.997 -17.348  17.415  1.00  0.00     0.010 C 
ATOM     24  C   UNL     1       6.066 -15.948  18.273  1.00  0.00     0.012 C 
ATOM     25  C   UNL     1       6.650 -16.038  15.034  1.00  0.00    -0.006 C 
ATOM     26  C   UNL     1       8.709 -16.271  16.578  1.00  0.00     0.033 C 
ATOM     27  C   UNL     1       8.199 -16.222  15.134  1.00  0.00     0.120 C 
ATOM     28  C   UNL     1       6.262 -16.268  13.545  1.00  0.00     0.014 C 
ATOM     29  C   UNL     1       6.233 -14.588  15.392  1.00  0.00     0.014 C 
ENDROOT
BRANCH   1  30
ATOM     30  C   UNL     1       6.520 -23.329  18.148  1.00  0.00     0.048 C 
ATOM     31  O   UNL     1       7.432 -23.010  18.958  1.00  0.00    -0.550 OA
ATOM     32  O   UNL     1       6.868 -23.607  16.831  1.00  0.00    -0.550 OA
ENDBRANCH   1  30
BRANCH  27  33
ATOM     33  O   UNL     1       8.871 -15.182  14.464  1.00  0.00    -0.393 OA
ATOM     34  H   UNL     1       9.080 -14.479  15.133  1.00  0.00     0.210 HD
ENDBRANCH  27  33
TORSDOF 2
ENDMDL
MODEL 7
REMARK VINA RESULT:    -6.405      2.978      7.907
REMARK INTER + INTRA:          -7.225
REMARK INTER:                  -6.963
REMARK INTRA:                  -0.263
REMARK UNBOUND:                -0.259
REMARK SMILES CC1(C)CC[C@@]2(C(=O)[O-])CC[C@@]3(C)C(=CC[C@@H]4[C@@]5(C)CC[C@H](O)C(C)(C)[C@@H]5CC[C@]43C)[C@H]2C1
REMARK SMILES IDX 6 1 5 2 10 3 32 4 4 5 11 6 14 7 33 8 2 9 12 10 15 11 1 12
REMARK SMILES IDX 3 13 13 14 30 15 16 16 17 17 29 18 31 19 18 20 28 21 27 22
REMARK SMILES IDX 20 23 19 24 24 25 21 26 22 27 25 28 26 29 7 30 8 31 9 32
REMARK SMILES IDX 23 33
REMARK H PARENT 23 34
REMARK Flexibility Score: inf
ROOT
ATOM      1  C   UNL     1       4.536 -23.798  18.878  1.00  0.00     0.017 C 
ATOM      2  C   UNL     1       3.807 -24.767  19.878  1.00  0.00     0.014 C 
ATOM      3  C   UNL     1       3.465 -22.920  18.178  1.00  0.00     0.014 C 
ATOM      4  C   UNL     1       5.572 -22.907  19.650  1.00  0.00     0.028 C 
ATOM      5  C   UNL     1       4.672 -25.122  21.099  1.00  0.00     0.007 C 
ATOM      6  C   UNL     1       4.043 -21.758  17.340  1.00  0.00     0.013 C 
ATOM      7  C   UNL     1       6.030 -21.686  18.835  1.00  0.00    -0.064 C 
ATOM      8  C   UNL     1       5.109 -22.573  21.083  1.00  0.00     0.015 C 
ATOM      9  C   UNL     1       5.015 -23.864  21.965  1.00  0.00    -0.035 C 
ATOM     10  C   UNL     1       4.993 -20.781  18.117  1.00  0.00    -0.006 C 
ATOM     11  C   UNL     1       7.358 -21.623  18.570  1.00  0.00    -0.027 C 
ATOM     12  C   UNL     1       6.359 -24.102  22.687  1.00  0.00     0.011 C 
ATOM     13  C   UNL     1       3.924 -23.664  23.040  1.00  0.00     0.011 C 
ATOM     14  C   UNL     1       4.130 -20.028  19.177  1.00  0.00     0.017 C 
ATOM     15  C   UNL     1       5.705 -19.688  17.134  1.00  0.00    -0.020 C 
ATOM     16  C   UNL     1       7.982 -20.770  17.514  1.00  0.00     0.032 C 
ATOM     17  C   UNL     1       6.958 -20.352  16.436  1.00  0.00     0.006 C 
ATOM     18  C   UNL     1       4.705 -19.175  16.041  1.00  0.00     0.008 C 
ATOM     19  C   UNL     1       6.156 -18.440  17.968  1.00  0.00     0.012 C 
ATOM     20  C   UNL     1       7.598 -19.602  15.172  1.00  0.00    -0.025 C 
ATOM     21  C   UNL     1       5.358 -18.362  14.921  1.00  0.00     0.005 C 
ATOM     22  C   UNL     1       6.420 -19.228  14.198  1.00  0.00     0.003 C 
ATOM     23  C   UNL     1       8.529 -20.609  14.419  1.00  0.00     0.010 C 
ATOM     24  C   UNL     1       8.462 -18.359  15.585  1.00  0.00     0.012 C 
ATOM     25  C   UNL     1       6.827 -18.733  12.751  1.00  0.00    -0.006 C 
ATOM     26  C   UNL     1       8.980 -20.135  13.027  1.00  0.00     0.033 C 
ATOM     27  C   UNL     1       7.798 -19.782  12.119  1.00  0.00     0.120 C 
ATOM     28  C   UNL     1       5.567 -18.676  11.842  1.00  0.00     0.014 C 
ATOM     29  C   UNL     1       7.454 -17.314  12.744  1.00  0.00     0.014 C 
ENDROOT
BRANCH   1  30
ATOM     30  C   UNL     1       5.232 -24.632  17.802  1.00  0.00     0.048 C 
ATOM     31  O   UNL     1       4.614 -25.038  16.782  1.00  0.00    -0.550 OA
ATOM     32  O   UNL     1       6.560 -25.012  17.970  1.00  0.00    -0.550 OA
ENDBRANCH   1  30
BRANCH  27  33
ATOM     33  O   UNL     1       8.309 -19.317  10.891  1.00  0.00    -0.393 OA
ATOM     34  H   UNL     1       7.750 -18.546  10.607  1.00  0.00     0.210 HD
ENDBRANCH  27  33
TORSDOF 2
ENDMDL
MODEL 8
REMARK VINA RESULT:    -6.354      4.425      6.680
REMARK INTER + INTRA:          -7.170
REMARK INTER:                  -6.929
REMARK INTRA:                  -0.241
REMARK UNBOUND:                -0.259
REMARK SMILES CC1(C)CC[C@@]2(C(=O)[O-])CC[C@@]3(C)C(=CC[C@@H]4[C@@]5(C)CC[C@H](O)C(C)(C)[C@@H]5CC[C@]43C)[C@H]2C1
REMARK SMILES IDX 6 1 5 2 10 3 32 4 4 5 11 6 14 7 33 8 2 9 12 10 15 11 1 12
REMARK SMILES IDX 3 13 13 14 30 15 16 16 17 17 29 18 31 19 18 20 28 21 27 22
REMARK SMILES IDX 20 23 19 24 24 25 21 26 22 27 25 28 26 29 7 30 8 31 9 32
REMARK SMILES IDX 23 33
REMARK H PARENT 23 34
REMARK Flexibility Score: inf
ROOT
ATOM      1  C   UNL     1       7.582 -17.640  15.716  1.00  0.00     0.017 C 
ATOM      2  C   UNL     1       8.412 -17.260  16.994  1.00  0.00     0.014 C 
ATOM      3  C   UNL     1       6.089 -17.771  16.121  1.00  0.00     0.014 C 
ATOM      4  C   UNL     1       7.766 -16.543  14.608  1.00  0.00     0.028 C 
ATOM      5  C   UNL     1       9.652 -16.410  16.668  1.00  0.00     0.007 C 
ATOM      6  C   UNL     1       5.116 -17.909  14.929  1.00  0.00     0.013 C 
ATOM      7  C   UNL     1       6.702 -16.631  13.501  1.00  0.00    -0.064 C 
ATOM      8  C   UNL     1       7.948 -15.132  15.202  1.00  0.00     0.015 C 
ATOM      9  C   UNL     1       9.271 -15.031  16.034  1.00  0.00    -0.035 C 
ATOM     10  C   UNL     1       5.198 -16.764  13.861  1.00  0.00    -0.006 C 
ATOM     11  C   UNL     1       7.173 -16.855  12.251  1.00  0.00    -0.027 C 
ATOM     12  C   UNL     1      10.426 -14.560  15.123  1.00  0.00     0.011 C 
ATOM     13  C   UNL     1       9.087 -13.981  17.152  1.00  0.00     0.011 C 
ATOM     14  C   UNL     1       4.702 -15.449  14.543  1.00  0.00     0.017 C 
ATOM     15  C   UNL     1       4.275 -17.065  12.549  1.00  0.00    -0.020 C 
ATOM     16  C   UNL     1       6.354 -17.340  11.099  1.00  0.00     0.032 C 
ATOM     17  C   UNL     1       5.056 -18.031  11.572  1.00  0.00     0.006 C 
ATOM     18  C   UNL     1       2.910 -17.722  12.956  1.00  0.00     0.008 C 
ATOM     19  C   UNL     1       3.938 -15.721  11.816  1.00  0.00     0.012 C 
ATOM     20  C   UNL     1       4.227 -18.748  10.403  1.00  0.00    -0.025 C 
ATOM     21  C   UNL     1       2.105 -18.283  11.782  1.00  0.00     0.005 C 
ATOM     22  C   UNL     1       2.934 -19.370  11.052  1.00  0.00     0.003 C 
ATOM     23  C   UNL     1       5.084 -19.930   9.841  1.00  0.00     0.010 C 
ATOM     24  C   UNL     1       3.901 -17.777   9.214  1.00  0.00     0.012 C 
ATOM     25  C   UNL     1       2.100 -20.369  10.152  1.00  0.00    -0.006 C 
ATOM     26  C   UNL     1       4.312 -20.893   8.924  1.00  0.00     0.033 C 
ATOM     27  C   UNL     1       3.064 -21.469   9.601  1.00  0.00     0.120 C 
ATOM     28  C   UNL     1       1.036 -21.095  11.024  1.00  0.00     0.014 C 
ATOM     29  C   UNL     1       1.337 -19.664   9.001  1.00  0.00     0.014 C 
ENDROOT
BRANCH   1  30
ATOM     30  C   UNL     1       8.050 -19.005  15.211  1.00  0.00     0.048 C 
ATOM     31  O   UNL     1       8.931 -19.108  14.315  1.00  0.00    -0.550 OA
ATOM     32  O   UNL     1       7.457 -20.166  15.696  1.00  0.00    -0.550 OA
ENDBRANCH   1  30
BRANCH  27  33
ATOM     33  O   UNL     1       2.401 -22.297   8.675  1.00  0.00    -0.393 OA
ATOM     34  H   UNL     1       2.326 -23.201   9.079  1.00  0.00     0.210 HD
ENDBRANCH  27  33
TORSDOF 2
ENDMDL
