MODEL 1
REMARK VINA RESULT:    -6.188      0.000      0.000
REMARK INTER + INTRA:         -11.367
REMARK INTER:                  -9.443
REMARK INTRA:                  -1.923
REMARK UNBOUND:                -1.923
REMARK SMILES CC(=O)CCC=C(C)CCC=C(C)CCC=C(C)C
REMARK SMILES IDX 10 1 11 2 12 3 13 4 14 5 15 6 16 7 18 8 17 9 19 10 9 11 7 12
REMARK SMILES IDX 6 13 8 14 5 15 4 16 2 17 3 18 1 19
REMARK H PARENT
REMARK Flexibility Score: inf
ROOT
ATOM      1  C   UNL     1      -7.855  35.614  22.430  1.00  0.00     0.032 C 
ENDROOT
BRANCH   1   2
ATOM      2  C   UNL     1      -7.954  34.465  21.457  1.00  0.00    -0.028 C 
ATOM      3  C   UNL     1      -8.986  33.592  21.455  1.00  0.00    -0.077 C 
ATOM      4  C   UNL     1     -10.125  33.719  22.440  1.00  0.00     0.039 C 
BRANCH   3   5
ATOM      5  C   UNL     1      -9.003  32.465  20.443  1.00  0.00     0.034 C 
BRANCH   5   6
ATOM      6  C   UNL     1      -8.789  31.095  21.104  1.00  0.00     0.032 C 
BRANCH   6   7
ATOM      7  C   UNL     1      -7.662  31.126  22.110  1.00  0.00    -0.028 C 
ATOM      8  C   UNL     1      -6.295  30.368  24.005  1.00  0.00     0.039 C 
ATOM      9  C   UNL     1      -7.441  30.176  23.045  1.00  0.00    -0.080 C 
ATOM     10  C   UNL     1      -8.290  28.930  23.140  1.00  0.00     0.039 C 
ENDBRANCH   6   7
ENDBRANCH   5   6
ENDBRANCH   3   5
ENDBRANCH   1   2
BRANCH   1  11
ATOM     11  C   UNL     1      -7.049  35.225  23.675  1.00  0.00     0.034 C 
BRANCH  11  12
ATOM     12  C   UNL     1      -7.975  34.826  24.805  1.00  0.00    -0.077 C 
ATOM     13  C   UNL     1      -8.177  33.512  25.050  1.00  0.00    -0.028 C 
ATOM     14  C   UNL     1      -8.653  35.903  25.618  1.00  0.00     0.039 C 
BRANCH  13  15
ATOM     15  C   UNL     1      -8.978  32.971  26.210  1.00  0.00     0.035 C 
BRANCH  15  16
ATOM     16  C   UNL     1      -9.811  31.751  25.797  1.00  0.00     0.079 C 
BRANCH  16  17
ATOM     17  C   UNL     1      -9.299  30.485  26.438  1.00  0.00     0.130 C 
ATOM     18  O   UNL     1      -9.981  29.473  26.400  1.00  0.00    -0.300 OA
ATOM     19  C   UNL     1      -7.961  30.442  27.118  1.00  0.00     0.087 C 
ENDBRANCH  16  17
ENDBRANCH  15  16
ENDBRANCH  13  15
ENDBRANCH  11  12
ENDBRANCH   1  11
TORSDOF 9
ENDMDL
MODEL 2
REMARK VINA RESULT:    -5.967      1.605      3.997
REMARK INTER + INTRA:         -11.030
REMARK INTER:                  -9.367
REMARK INTRA:                  -1.663
REMARK UNBOUND:                -1.923
REMARK SMILES CC(=O)CCC=C(C)CCC=C(C)CCC=C(C)C
REMARK SMILES IDX 10 1 11 2 12 3 13 4 14 5 15 6 16 7 18 8 17 9 19 10 9 11 7 12
REMARK SMILES IDX 6 13 8 14 5 15 4 16 2 17 3 18 1 19
REMARK H PARENT
REMARK Flexibility Score: inf
ROOT
ATOM      1  C   UNL     1      -8.312  34.697  27.282  1.00  0.00     0.032 C 
ENDROOT
BRANCH   1   2
ATOM      2  C   UNL     1      -7.931  34.704  25.823  1.00  0.00    -0.028 C 
ATOM      3  C   UNL     1      -8.411  35.611  24.943  1.00  0.00    -0.077 C 
ATOM      4  C   UNL     1      -9.370  36.695  25.376  1.00  0.00     0.039 C 
BRANCH   3   5
ATOM      5  C   UNL     1      -7.977  35.541  23.493  1.00  0.00     0.034 C 
BRANCH   5   6
ATOM      6  C   UNL     1      -7.335  34.190  23.149  1.00  0.00     0.032 C 
BRANCH   6   7
ATOM      7  C   UNL     1      -8.318  33.249  22.493  1.00  0.00    -0.028 C 
ATOM      8  C   UNL     1      -9.367  31.974  20.675  1.00  0.00     0.039 C 
ATOM      9  C   UNL     1      -8.291  32.895  21.190  1.00  0.00    -0.080 C 
ATOM     10  C   UNL     1      -7.209  33.375  20.250  1.00  0.00     0.039 C 
ENDBRANCH   6   7
ENDBRANCH   5   6
ENDBRANCH   3   5
ENDBRANCH   1   2
BRANCH   1  11
ATOM     11  C   UNL     1      -7.927  33.374  27.955  1.00  0.00     0.034 C 
BRANCH  11  12
ATOM     12  C   UNL     1      -8.615  32.210  27.273  1.00  0.00    -0.077 C 
ATOM     13  C   UNL     1      -7.868  31.327  26.574  1.00  0.00    -0.028 C 
ATOM     14  C   UNL     1     -10.116  32.074  27.383  1.00  0.00     0.039 C 
BRANCH  13  15
ATOM     15  C   UNL     1      -8.401  30.063  25.943  1.00  0.00     0.035 C 
BRANCH  15  16
ATOM     16  C   UNL     1      -8.864  30.308  24.501  1.00  0.00     0.079 C 
BRANCH  16  17
ATOM     17  C   UNL     1      -7.867  29.780  23.500  1.00  0.00     0.130 C 
ATOM     18  O   UNL     1      -8.193  28.878  22.745  1.00  0.00    -0.300 OA
ATOM     19  C   UNL     1      -6.480  30.347  23.409  1.00  0.00     0.087 C 
ENDBRANCH  16  17
ENDBRANCH  15  16
ENDBRANCH  13  15
ENDBRANCH  11  12
ENDBRANCH   1  11
TORSDOF 9
ENDMDL
MODEL 3
REMARK VINA RESULT:    -5.847      1.253      4.404
REMARK INTER + INTRA:         -10.847
REMARK INTER:                  -9.486
REMARK INTRA:                  -1.362
REMARK UNBOUND:                -1.923
REMARK SMILES CC(=O)CCC=C(C)CCC=C(C)CCC=C(C)C
REMARK SMILES IDX 10 1 11 2 12 3 13 4 14 5 15 6 16 7 18 8 17 9 19 10 9 11 7 12
REMARK SMILES IDX 6 13 8 14 5 15 4 16 2 17 3 18 1 19
REMARK H PARENT
REMARK Flexibility Score: inf
ROOT
ATOM      1  C   UNL     1      -7.106  35.413  22.993  1.00  0.00     0.032 C 
ENDROOT
BRANCH   1   2
ATOM      2  C   UNL     1      -7.389  34.602  24.233  1.00  0.00    -0.028 C 
ATOM      3  C   UNL     1      -8.187  35.040  25.231  1.00  0.00    -0.077 C 
ATOM      4  C   UNL     1      -8.862  36.391  25.163  1.00  0.00     0.039 C 
BRANCH   3   5
ATOM      5  C   UNL     1      -8.415  34.159  26.442  1.00  0.00     0.034 C 
BRANCH   5   6
ATOM      6  C   UNL     1      -9.132  32.851  26.075  1.00  0.00     0.032 C 
BRANCH   6   7
ATOM      7  C   UNL     1      -9.611  32.109  27.300  1.00  0.00    -0.028 C 
ATOM      8  C   UNL     1      -9.698  30.310  28.971  1.00  0.00     0.039 C 
ATOM      9  C   UNL     1      -9.084  30.950  27.752  1.00  0.00    -0.080 C 
ATOM     10  C   UNL     1      -7.893  30.297  27.089  1.00  0.00     0.039 C 
ENDBRANCH   6   7
ENDBRANCH   5   6
ENDBRANCH   3   5
ENDBRANCH   1   2
BRANCH   1  11
ATOM     11  C   UNL     1      -8.249  35.300  21.977  1.00  0.00     0.034 C 
BRANCH  11  12
ATOM     12  C   UNL     1      -8.284  33.915  21.368  1.00  0.00    -0.077 C 
ATOM     13  C   UNL     1      -9.226  33.041  21.788  1.00  0.00    -0.028 C 
ATOM     14  C   UNL     1      -7.263  33.544  20.318  1.00  0.00     0.039 C 
BRANCH  13  15
ATOM     15  C   UNL     1      -9.453  31.672  21.190  1.00  0.00     0.035 C 
BRANCH  15  16
ATOM     16  C   UNL     1      -8.324  30.703  21.564  1.00  0.00     0.079 C 
BRANCH  16  17
ATOM     17  C   UNL     1      -8.089  30.672  23.054  1.00  0.00     0.130 C 
ATOM     18  O   UNL     1      -8.996  30.336  23.800  1.00  0.00    -0.300 OA
ATOM     19  C   UNL     1      -6.757  31.040  23.640  1.00  0.00     0.087 C 
ENDBRANCH  16  17
ENDBRANCH  15  16
ENDBRANCH  13  15
ENDBRANCH  11  12
ENDBRANCH   1  11
TORSDOF 9
ENDMDL
MODEL 4
REMARK VINA RESULT:    -5.541      2.112      6.098
REMARK INTER + INTRA:         -10.380
REMARK INTER:                  -9.519
REMARK INTRA:                  -0.861
REMARK UNBOUND:                -1.923
REMARK SMILES CC(=O)CCC=C(C)CCC=C(C)CCC=C(C)C
REMARK SMILES IDX 10 1 11 2 12 3 13 4 14 5 15 6 16 7 18 8 17 9 19 10 9 11 7 12
REMARK SMILES IDX 6 13 8 14 5 15 4 16 2 17 3 18 1 19
REMARK H PARENT
REMARK Flexibility Score: inf
ROOT
ATOM      1  C   UNL     1      -9.026  29.159  24.163  1.00  0.00     0.032 C 
ENDROOT
BRANCH   1   2
ATOM      2  C   UNL     1      -8.301  30.109  25.083  1.00  0.00    -0.028 C 
ATOM      3  C   UNL     1      -8.705  30.358  26.348  1.00  0.00    -0.077 C 
ATOM      4  C   UNL     1      -9.926  29.684  26.930  1.00  0.00     0.039 C 
BRANCH   3   5
ATOM      5  C   UNL     1      -7.917  31.330  27.202  1.00  0.00     0.034 C 
BRANCH   5   6
ATOM      6  C   UNL     1      -8.796  32.474  27.731  1.00  0.00     0.032 C 
BRANCH   6   7
ATOM      7  C   UNL     1      -8.284  33.826  27.293  1.00  0.00    -0.028 C 
ATOM      8  C   UNL     1      -7.850  35.699  25.764  1.00  0.00     0.039 C 
ATOM      9  C   UNL     1      -8.454  34.350  26.060  1.00  0.00    -0.080 C 
ATOM     10  C   UNL     1      -9.246  33.638  24.987  1.00  0.00     0.039 C 
ENDBRANCH   6   7
ENDBRANCH   5   6
ENDBRANCH   3   5
ENDBRANCH   1   2
BRANCH   1  11
ATOM     11  C   UNL     1      -8.276  28.982  22.837  1.00  0.00     0.034 C 
BRANCH  11  12
ATOM     12  C   UNL     1      -8.091  30.317  22.147  1.00  0.00    -0.077 C 
ATOM     13  C   UNL     1      -9.067  30.770  21.329  1.00  0.00    -0.028 C 
ATOM     14  C   UNL     1      -6.821  31.100  22.384  1.00  0.00     0.039 C 
BRANCH  13  15
ATOM     15  C   UNL     1      -9.071  32.129  20.670  1.00  0.00     0.035 C 
BRANCH  15  16
ATOM     16  C   UNL     1      -9.045  33.257  21.709  1.00  0.00     0.079 C 
BRANCH  16  17
ATOM     17  C   UNL     1      -8.046  34.327  21.344  1.00  0.00     0.130 C 
ATOM     18  O   UNL     1      -8.037  35.378  21.965  1.00  0.00    -0.300 OA
ATOM     19  C   UNL     1      -7.057  34.121  20.234  1.00  0.00     0.087 C 
ENDBRANCH  16  17
ENDBRANCH  15  16
ENDBRANCH  13  15
ENDBRANCH  11  12
ENDBRANCH   1  11
TORSDOF 9
ENDMDL
MODEL 5
REMARK VINA RESULT:    -4.843     17.500     19.168
REMARK INTER + INTRA:          -9.315
REMARK INTER:                  -8.202
REMARK INTRA:                  -1.113
REMARK UNBOUND:                -1.923
REMARK SMILES CC(=O)CCC=C(C)CCC=C(C)CCC=C(C)C
REMARK SMILES IDX 10 1 11 2 12 3 13 4 14 5 15 6 16 7 18 8 17 9 19 10 9 11 7 12
REMARK SMILES IDX 6 13 8 14 5 15 4 16 2 17 3 18 1 19
REMARK H PARENT
REMARK Flexibility Score: inf
ROOT
ATOM      1  C   UNL     1       1.528  46.292  20.507  1.00  0.00     0.032 C 
ENDROOT
BRANCH   1   2
ATOM      2  C   UNL     1       0.662  47.246  19.722  1.00  0.00    -0.028 C 
ATOM      3  C   UNL     1      -0.092  48.202  20.307  1.00  0.00    -0.077 C 
ATOM      4  C   UNL     1      -0.111  48.381  21.807  1.00  0.00     0.039 C 
BRANCH   3   5
ATOM      5  C   UNL     1      -0.935  49.116  19.441  1.00  0.00     0.034 C 
BRANCH   5   6
ATOM      6  C   UNL     1      -1.823  48.328  18.468  1.00  0.00     0.032 C 
BRANCH   6   7
ATOM      7  C   UNL     1      -1.486  48.631  17.027  1.00  0.00    -0.028 C 
ATOM      8  C   UNL     1      -1.572  48.400  14.583  1.00  0.00     0.039 C 
ATOM      9  C   UNL     1      -2.041  48.012  15.961  1.00  0.00    -0.080 C 
ATOM     10  C   UNL     1      -3.124  46.969  16.113  1.00  0.00     0.039 C 
ENDBRANCH   6   7
ENDBRANCH   5   6
ENDBRANCH   3   5
ENDBRANCH   1   2
BRANCH   1  11
ATOM     11  C   UNL     1       3.018  46.602  20.315  1.00  0.00     0.034 C 
BRANCH  11  12
ATOM     12  C   UNL     1       3.396  47.870  21.050  1.00  0.00    -0.077 C 
ATOM     13  C   UNL     1       3.463  47.848  22.400  1.00  0.00    -0.028 C 
ATOM     14  C   UNL     1       3.679  49.125  20.257  1.00  0.00     0.039 C 
BRANCH  13  15
ATOM     15  C   UNL     1       3.937  49.000  23.253  1.00  0.00     0.035 C 
BRANCH  15  16
ATOM     16  C   UNL     1       4.375  48.525  24.645  1.00  0.00     0.079 C 
BRANCH  16  17
ATOM     17  C   UNL     1       3.222  48.518  25.618  1.00  0.00     0.130 C 
ATOM     18  O   UNL     1       2.096  48.767  25.219  1.00  0.00    -0.300 OA
ATOM     19  C   UNL     1       3.433  48.206  27.071  1.00  0.00     0.087 C 
ENDBRANCH  16  17
ENDBRANCH  15  16
ENDBRANCH  13  15
ENDBRANCH  11  12
ENDBRANCH   1  11
TORSDOF 9
ENDMDL
MODEL 6
REMARK VINA RESULT:    -4.499     18.172     19.979
REMARK INTER + INTRA:          -8.790
REMARK INTER:                  -7.912
REMARK INTRA:                  -0.878
REMARK UNBOUND:                -1.923
REMARK SMILES CC(=O)CCC=C(C)CCC=C(C)CCC=C(C)C
REMARK SMILES IDX 10 1 11 2 12 3 13 4 14 5 15 6 16 7 18 8 17 9 19 10 9 11 7 12
REMARK SMILES IDX 6 13 8 14 5 15 4 16 2 17 3 18 1 19
REMARK H PARENT
REMARK Flexibility Score: inf
ROOT
ATOM      1  C   UNL     1       0.750  47.152  20.120  1.00  0.00     0.032 C 
ENDROOT
BRANCH   1   2
ATOM      2  C   UNL     1       1.912  47.839  20.793  1.00  0.00    -0.028 C 
ATOM      3  C   UNL     1       3.138  47.280  20.894  1.00  0.00    -0.077 C 
ATOM      4  C   UNL     1       3.427  45.911  20.323  1.00  0.00     0.039 C 
BRANCH   3   5
ATOM      5  C   UNL     1       4.247  48.042  21.589  1.00  0.00     0.034 C 
BRANCH   5   6
ATOM      6  C   UNL     1       3.699  49.125  22.530  1.00  0.00     0.032 C 
BRANCH   6   7
ATOM      7  C   UNL     1       3.933  48.781  23.982  1.00  0.00    -0.028 C 
ATOM      8  C   UNL     1       3.372  48.440  26.349  1.00  0.00     0.039 C 
ATOM      9  C   UNL     1       2.974  48.768  24.933  1.00  0.00    -0.080 C 
ATOM     10  C   UNL     1       1.523  49.049  24.614  1.00  0.00     0.039 C 
ENDBRANCH   6   7
ENDBRANCH   5   6
ENDBRANCH   3   5
ENDBRANCH   1   2
BRANCH   1  11
ATOM     11  C   UNL     1      -0.357  48.149  19.758  1.00  0.00     0.034 C 
BRANCH  11  12
ATOM     12  C   UNL     1      -0.269  48.535  18.297  1.00  0.00    -0.077 C 
ATOM     13  C   UNL     1      -1.368  48.407  17.520  1.00  0.00    -0.028 C 
ATOM     14  C   UNL     1       1.043  49.043  17.746  1.00  0.00     0.039 C 
BRANCH  13  15
ATOM     15  C   UNL     1      -1.458  48.859  16.082  1.00  0.00     0.035 C 
BRANCH  15  16
ATOM     16  C   UNL     1      -2.560  48.107  15.325  1.00  0.00     0.079 C 
BRANCH  16  17
ATOM     17  C   UNL     1      -2.520  48.403  13.846  1.00  0.00     0.130 C 
ATOM     18  O   UNL     1      -3.564  48.468  13.217  1.00  0.00    -0.300 OA
ATOM     19  C   UNL     1      -1.219  48.626  13.132  1.00  0.00     0.087 C 
ENDBRANCH  16  17
ENDBRANCH  15  16
ENDBRANCH  13  15
ENDBRANCH  11  12
ENDBRANCH   1  11
TORSDOF 9
ENDMDL
MODEL 7
REMARK VINA RESULT:    -4.354     17.810     19.912
REMARK INTER + INTRA:          -8.568
REMARK INTER:                  -7.413
REMARK INTRA:                  -1.154
REMARK UNBOUND:                -1.923
REMARK SMILES CC(=O)CCC=C(C)CCC=C(C)CCC=C(C)C
REMARK SMILES IDX 10 1 11 2 12 3 13 4 14 5 15 6 16 7 18 8 17 9 19 10 9 11 7 12
REMARK SMILES IDX 6 13 8 14 5 15 4 16 2 17 3 18 1 19
REMARK H PARENT
REMARK Flexibility Score: inf
ROOT
ATOM      1  C   UNL     1       2.125  45.945  20.839  1.00  0.00     0.032 C 
ENDROOT
BRANCH   1   2
ATOM      2  C   UNL     1       1.024  46.719  20.157  1.00  0.00    -0.028 C 
ATOM      3  C   UNL     1       0.420  47.788  20.722  1.00  0.00    -0.077 C 
ATOM      4  C   UNL     1       0.821  48.286  22.091  1.00  0.00     0.039 C 
BRANCH   3   5
ATOM      5  C   UNL     1      -0.680  48.504  19.965  1.00  0.00     0.034 C 
BRANCH   5   6
ATOM      6  C   UNL     1      -0.453  48.466  18.447  1.00  0.00     0.032 C 
BRANCH   6   7
ATOM      7  C   UNL     1      -1.590  47.783  17.724  1.00  0.00    -0.028 C 
ATOM      8  C   UNL     1      -3.149  47.311  15.886  1.00  0.00     0.039 C 
ATOM      9  C   UNL     1      -1.968  48.053  16.456  1.00  0.00    -0.080 C 
ATOM     10  C   UNL     1      -1.231  49.053  15.595  1.00  0.00     0.039 C 
ENDBRANCH   6   7
ENDBRANCH   5   6
ENDBRANCH   3   5
ENDBRANCH   1   2
BRANCH   1  11
ATOM     11  C   UNL     1       3.437  46.739  20.859  1.00  0.00     0.034 C 
BRANCH  11  12
ATOM     12  C   UNL     1       3.795  47.211  19.465  1.00  0.00    -0.077 C 
ATOM     13  C   UNL     1       3.387  48.436  19.065  1.00  0.00    -0.028 C 
ATOM     14  C   UNL     1       4.587  46.298  18.558  1.00  0.00     0.039 C 
BRANCH  13  15
ATOM     15  C   UNL     1       3.767  49.079  17.753  1.00  0.00     0.035 C 
BRANCH  15  16
ATOM     16  C   UNL     1       2.611  49.025  16.746  1.00  0.00     0.079 C 
BRANCH  16  17
ATOM     17  C   UNL     1       3.029  48.368  15.454  1.00  0.00     0.130 C 
ATOM     18  O   UNL     1       4.072  47.735  15.412  1.00  0.00    -0.300 OA
ATOM     19  C   UNL     1       2.184  48.473  14.218  1.00  0.00     0.087 C 
ENDBRANCH  16  17
ENDBRANCH  15  16
ENDBRANCH  13  15
ENDBRANCH  11  12
ENDBRANCH   1  11
TORSDOF 9
ENDMDL
MODEL 8
REMARK VINA RESULT:    -4.293     17.711     19.106
REMARK INTER + INTRA:          -8.475
REMARK INTER:                  -7.773
REMARK INTRA:                  -0.702
REMARK UNBOUND:                -1.923
REMARK SMILES CC(=O)CCC=C(C)CCC=C(C)CCC=C(C)C
REMARK SMILES IDX 10 1 11 2 12 3 13 4 14 5 15 6 16 7 18 8 17 9 19 10 9 11 7 12
REMARK SMILES IDX 6 13 8 14 5 15 4 16 2 17 3 18 1 19
REMARK H PARENT
REMARK Flexibility Score: inf
ROOT
ATOM      1  C   UNL     1      -1.010  47.975  21.244  1.00  0.00     0.032 C 
ENDROOT
BRANCH   1   2
ATOM      2  C   UNL     1      -1.661  48.490  19.984  1.00  0.00    -0.028 C 
ATOM      3  C   UNL     1      -1.008  48.577  18.804  1.00  0.00    -0.077 C 
ATOM      4  C   UNL     1       0.436  48.152  18.670  1.00  0.00     0.039 C 
BRANCH   3   5
ATOM      5  C   UNL     1      -1.740  49.108  17.588  1.00  0.00     0.034 C 
BRANCH   5   6
ATOM      6  C   UNL     1      -1.539  48.210  16.358  1.00  0.00     0.032 C 
BRANCH   6   7
ATOM      7  C   UNL     1      -2.626  48.413  15.329  1.00  0.00    -0.028 C 
ATOM      8  C   UNL     1      -3.606  48.718  13.098  1.00  0.00     0.039 C 
ATOM      9  C   UNL     1      -2.421  48.473  13.995  1.00  0.00    -0.080 C 
ATOM     10  C   UNL     1      -1.052  48.281  13.385  1.00  0.00     0.039 C 
ENDBRANCH   6   7
ENDBRANCH   5   6
ENDBRANCH   3   5
ENDBRANCH   1   2
BRANCH   1  11
ATOM     11  C   UNL     1      -0.479  49.125  22.109  1.00  0.00     0.034 C 
BRANCH  11  12
ATOM     12  C   UNL     1       0.911  48.808  22.620  1.00  0.00    -0.077 C 
ATOM     13  C   UNL     1       1.804  48.245  21.777  1.00  0.00    -0.028 C 
ATOM     14  C   UNL     1       1.256  49.120  24.057  1.00  0.00     0.039 C 
BRANCH  13  15
ATOM     15  C   UNL     1       3.253  47.982  22.114  1.00  0.00     0.035 C 
BRANCH  15  16
ATOM     16  C   UNL     1       4.083  47.713  20.852  1.00  0.00     0.079 C 
BRANCH  16  17
ATOM     17  C   UNL     1       3.792  46.350  20.275  1.00  0.00     0.130 C 
ATOM     18  O   UNL     1       3.060  45.583  20.882  1.00  0.00    -0.300 OA
ATOM     19  C   UNL     1       4.381  45.917  18.964  1.00  0.00     0.087 C 
ENDBRANCH  16  17
ENDBRANCH  15  16
ENDBRANCH  13  15
ENDBRANCH  11  12
ENDBRANCH   1  11
TORSDOF 9
ENDMDL
MODEL 9
REMARK VINA RESULT:    -4.187     17.896     19.457
REMARK INTER + INTRA:          -8.313
REMARK INTER:                  -7.988
REMARK INTRA:                  -0.325
REMARK UNBOUND:                -1.923
REMARK SMILES CC(=O)CCC=C(C)CCC=C(C)CCC=C(C)C
REMARK SMILES IDX 10 1 11 2 12 3 13 4 14 5 15 6 16 7 18 8 17 9 19 10 9 11 7 12
REMARK SMILES IDX 6 13 8 14 5 15 4 16 2 17 3 18 1 19
REMARK H PARENT
REMARK Flexibility Score: inf
ROOT
ATOM      1  C   UNL     1      -0.805  48.073  20.984  1.00  0.00     0.032 C 
ENDROOT
BRANCH   1   2
ATOM      2  C   UNL     1       0.664  48.279  21.258  1.00  0.00    -0.028 C 
ATOM      3  C   UNL     1       1.132  48.760  22.431  1.00  0.00    -0.077 C 
ATOM      4  C   UNL     1       0.196  49.123  23.562  1.00  0.00     0.039 C 
BRANCH   3   5
ATOM      5  C   UNL     1       2.625  48.937  22.620  1.00  0.00     0.034 C 
BRANCH   5   6
ATOM      6  C   UNL     1       3.408  48.618  21.338  1.00  0.00     0.032 C 
BRANCH   6   7
ATOM      7  C   UNL     1       3.496  47.131  21.087  1.00  0.00    -0.028 C 
ATOM      8  C   UNL     1       3.682  45.060  19.779  1.00  0.00     0.039 C 
ATOM      9  C   UNL     1       3.649  46.564  19.870  1.00  0.00    -0.080 C 
ATOM     10  C   UNL     1       3.809  47.390  18.615  1.00  0.00     0.039 C 
ENDBRANCH   6   7
ENDBRANCH   5   6
ENDBRANCH   3   5
ENDBRANCH   1   2
BRANCH   1  11
ATOM     11  C   UNL     1      -1.341  49.117  19.997  1.00  0.00     0.034 C 
BRANCH  11  12
ATOM     12  C   UNL     1      -1.189  48.629  18.572  1.00  0.00    -0.077 C 
ATOM     13  C   UNL     1      -2.225  47.990  17.986  1.00  0.00    -0.028 C 
ATOM     14  C   UNL     1       0.117  48.861  17.849  1.00  0.00     0.039 C 
BRANCH  13  15
ATOM     15  C   UNL     1      -2.257  47.554  16.540  1.00  0.00     0.035 C 
BRANCH  15  16
ATOM     16  C   UNL     1      -2.051  48.742  15.591  1.00  0.00     0.079 C 
BRANCH  16  17
ATOM     17  C   UNL     1      -2.238  48.340  14.149  1.00  0.00     0.130 C 
ATOM     18  O   UNL     1      -1.316  47.814  13.547  1.00  0.00    -0.300 OA
ATOM     19  C   UNL     1      -3.541  48.569  13.440  1.00  0.00     0.087 C 
ENDBRANCH  16  17
ENDBRANCH  15  16
ENDBRANCH  13  15
ENDBRANCH  11  12
ENDBRANCH   1  11
TORSDOF 9
ENDMDL
