MODEL 1
REMARK VINA RESULT:    -5.146      0.000      0.000
REMARK INTER + INTRA:          -5.146
REMARK INTER:                  -5.146
REMARK INTRA:                   0.000
REMARK UNBOUND:                 0.000
REMARK SMILES O=c1ccc2ccccc2o1
REMARK SMILES IDX 7 1 8 2 9 3 10 4 5 5 6 6 4 7 3 8 2 9 1 10 11 11
REMARK H PARENT
REMARK Flexibility Score: inf
ROOT
ATOM      1  C   UNL     1      21.672   0.317 -23.125  1.00  0.00     0.001 A 
ATOM      2  C   UNL     1      21.808   1.568 -22.515  1.00  0.00     0.004 A 
ATOM      3  C   UNL     1      21.423   1.748 -21.182  1.00  0.00     0.048 A 
ATOM      4  C   UNL     1      20.900   0.674 -20.453  1.00  0.00     0.138 A 
ATOM      5  C   UNL     1      20.763  -0.590 -21.069  1.00  0.00     0.018 A 
ATOM      6  C   UNL     1      21.150  -0.765 -22.405  1.00  0.00     0.012 A 
ATOM      7  C   UNL     1      20.237  -1.645 -20.315  1.00  0.00     0.019 A 
ATOM      8  C   UNL     1      19.867  -1.419 -18.990  1.00  0.00     0.094 A 
ATOM      9  C   UNL     1      20.031  -0.141 -18.447  1.00  0.00     0.336 A 
ATOM     10  O   UNL     1      19.702   0.082 -17.252  1.00  0.00    -0.246 OA
ATOM     11  O   UNL     1      20.534   0.846 -19.185  1.00  0.00    -0.423 OA
ENDROOT
TORSDOF 0
ENDMDL
MODEL 2
REMARK VINA RESULT:    -5.098      1.596      3.831
REMARK INTER + INTRA:          -5.098
REMARK INTER:                  -5.098
REMARK INTRA:                   0.000
REMARK UNBOUND:                 0.000
REMARK SMILES O=c1ccc2ccccc2o1
REMARK SMILES IDX 7 1 8 2 9 3 10 4 5 5 6 6 4 7 3 8 2 9 1 10 11 11
REMARK H PARENT
REMARK Flexibility Score: inf
ROOT
ATOM      1  C   UNL     1      19.882  -1.496 -19.018  1.00  0.00     0.001 A 
ATOM      2  C   UNL     1      20.030  -0.244 -18.412  1.00  0.00     0.004 A 
ATOM      3  C   UNL     1      20.539   0.836 -19.143  1.00  0.00     0.048 A 
ATOM      4  C   UNL     1      20.901   0.665 -20.483  1.00  0.00     0.138 A 
ATOM      5  C   UNL     1      20.752  -0.599 -21.095  1.00  0.00     0.018 A 
ATOM      6  C   UNL     1      20.242  -1.678 -20.359  1.00  0.00     0.012 A 
ATOM      7  C   UNL     1      21.124  -0.739 -22.437  1.00  0.00     0.019 A 
ATOM      8  C   UNL     1      21.626   0.365 -23.125  1.00  0.00     0.094 A 
ATOM      9  C   UNL     1      21.746   1.587 -22.454  1.00  0.00     0.336 A 
ATOM     10  O   UNL     1      22.198   2.594 -23.059  1.00  0.00    -0.246 OA
ATOM     11  O   UNL     1      21.385   1.693 -21.177  1.00  0.00    -0.423 OA
ENDROOT
TORSDOF 0
ENDMDL
MODEL 3
REMARK VINA RESULT:    -5.028     18.603     20.304
REMARK INTER + INTRA:          -5.028
REMARK INTER:                  -5.028
REMARK INTRA:                   0.000
REMARK UNBOUND:                 0.000
REMARK SMILES O=c1ccc2ccccc2o1
REMARK SMILES IDX 7 1 8 2 9 3 10 4 5 5 6 6 4 7 3 8 2 9 1 10 11 11
REMARK H PARENT
REMARK Flexibility Score: inf
ROOT
ATOM      1  C   UNL     1       5.760   2.746  -7.331  1.00  0.00     0.001 A 
ATOM      2  C   UNL     1       6.769   2.830  -8.296  1.00  0.00     0.004 A 
ATOM      3  C   UNL     1       6.813   3.919  -9.176  1.00  0.00     0.048 A 
ATOM      4  C   UNL     1       5.847   4.927  -9.092  1.00  0.00     0.138 A 
ATOM      5  C   UNL     1       4.827   4.842  -8.117  1.00  0.00     0.018 A 
ATOM      6  C   UNL     1       4.788   3.750  -7.239  1.00  0.00     0.012 A 
ATOM      7  C   UNL     1       3.875   5.864  -8.058  1.00  0.00     0.019 A 
ATOM      8  C   UNL     1       3.959   6.929  -8.954  1.00  0.00     0.094 A 
ATOM      9  C   UNL     1       4.996   6.946  -9.893  1.00  0.00     0.336 A 
ATOM     10  O   UNL     1       5.087   7.899 -10.711  1.00  0.00    -0.246 OA
ATOM     11  O   UNL     1       5.889   5.960  -9.928  1.00  0.00    -0.423 OA
ENDROOT
TORSDOF 0
ENDMDL
MODEL 4
REMARK VINA RESULT:    -4.920     18.977     20.527
REMARK INTER + INTRA:          -4.920
REMARK INTER:                  -4.920
REMARK INTRA:                   0.000
REMARK UNBOUND:                 0.000
REMARK SMILES O=c1ccc2ccccc2o1
REMARK SMILES IDX 7 1 8 2 9 3 10 4 5 5 6 6 4 7 3 8 2 9 1 10 11 11
REMARK H PARENT
REMARK Flexibility Score: inf
ROOT
ATOM      1  C   UNL     1       5.403   3.057  -7.181  1.00  0.00     0.001 A 
ATOM      2  C   UNL     1       4.273   3.748  -6.732  1.00  0.00     0.004 A 
ATOM      3  C   UNL     1       3.875   4.932  -7.365  1.00  0.00     0.048 A 
ATOM      4  C   UNL     1       4.607   5.428  -8.449  1.00  0.00     0.138 A 
ATOM      5  C   UNL     1       5.749   4.729  -8.902  1.00  0.00     0.018 A 
ATOM      6  C   UNL     1       6.143   3.544  -8.265  1.00  0.00     0.012 A 
ATOM      7  C   UNL     1       6.461   5.249  -9.988  1.00  0.00     0.019 A 
ATOM      8  C   UNL     1       6.027   6.431 -10.586  1.00  0.00     0.094 A 
ATOM      9  C   UNL     1       4.888   7.069 -10.083  1.00  0.00     0.336 A 
ATOM     10  O   UNL     1       4.482   8.138 -10.611  1.00  0.00    -0.246 OA
ATOM     11  O   UNL     1       4.228   6.553  -9.049  1.00  0.00    -0.423 OA
ENDROOT
TORSDOF 0
ENDMDL
MODEL 5
REMARK VINA RESULT:    -4.905      1.351      2.196
REMARK INTER + INTRA:          -4.905
REMARK INTER:                  -4.905
REMARK INTRA:                   0.000
REMARK UNBOUND:                 0.000
REMARK SMILES O=c1ccc2ccccc2o1
REMARK SMILES IDX 7 1 8 2 9 3 10 4 5 5 6 6 4 7 3 8 2 9 1 10 11 11
REMARK H PARENT
REMARK Flexibility Score: inf
ROOT
ATOM      1  C   UNL     1      21.872   1.551 -22.461  1.00  0.00     0.001 A 
ATOM      2  C   UNL     1      21.737   0.327 -23.125  1.00  0.00     0.004 A 
ATOM      3  C   UNL     1      21.134  -0.760 -22.482  1.00  0.00     0.048 A 
ATOM      4  C   UNL     1      20.664  -0.625 -21.171  1.00  0.00     0.138 A 
ATOM      5  C   UNL     1      20.800   0.611 -20.500  1.00  0.00     0.018 A 
ATOM      6  C   UNL     1      21.405   1.697 -21.149  1.00  0.00     0.012 A 
ATOM      7  C   UNL     1      20.321   0.715 -19.190  1.00  0.00     0.019 A 
ATOM      8  C   UNL     1      19.727  -0.394 -18.590  1.00  0.00     0.094 A 
ATOM      9  C   UNL     1      19.627  -1.587 -19.315  1.00  0.00     0.336 A 
ATOM     10  O   UNL     1      19.094  -2.599 -18.788  1.00  0.00    -0.246 OA
ATOM     11  O   UNL     1      20.091  -1.659 -20.560  1.00  0.00    -0.423 OA
ENDROOT
TORSDOF 0
ENDMDL
MODEL 6
REMARK VINA RESULT:    -4.876      1.787      4.416
REMARK INTER + INTRA:          -4.876
REMARK INTER:                  -4.876
REMARK INTRA:                   0.000
REMARK UNBOUND:                 0.000
REMARK SMILES O=c1ccc2ccccc2o1
REMARK SMILES IDX 7 1 8 2 9 3 10 4 5 5 6 6 4 7 3 8 2 9 1 10 11 11
REMARK H PARENT
REMARK Flexibility Score: inf
ROOT
ATOM      1  C   UNL     1      19.267  -0.710 -17.318  1.00  0.00     0.001 A 
ATOM      2  C   UNL     1      18.937  -1.879 -18.012  1.00  0.00     0.004 A 
ATOM      3  C   UNL     1      19.332  -2.041 -19.346  1.00  0.00     0.048 A 
ATOM      4  C   UNL     1      20.057  -1.032 -19.989  1.00  0.00     0.138 A 
ATOM      5  C   UNL     1      20.389   0.149 -19.288  1.00  0.00     0.018 A 
ATOM      6  C   UNL     1      19.992   0.306 -17.952  1.00  0.00     0.012 A 
ATOM      7  C   UNL     1      21.115   1.140 -19.957  1.00  0.00     0.019 A 
ATOM      8  C   UNL     1      21.486   0.935 -21.286  1.00  0.00     0.094 A 
ATOM      9  C   UNL     1      21.122  -0.260 -21.916  1.00  0.00     0.336 A 
ATOM     10  O   UNL     1      21.447  -0.462 -23.116  1.00  0.00    -0.246 OA
ATOM     11  O   UNL     1      20.431  -1.187 -21.256  1.00  0.00    -0.423 OA
ENDROOT
TORSDOF 0
ENDMDL
MODEL 7
REMARK VINA RESULT:    -4.786     18.758     19.909
REMARK INTER + INTRA:          -4.786
REMARK INTER:                  -4.786
REMARK INTRA:                   0.000
REMARK UNBOUND:                 0.000
REMARK SMILES O=c1ccc2ccccc2o1
REMARK SMILES IDX 7 1 8 2 9 3 10 4 5 5 6 6 4 7 3 8 2 9 1 10 11 11
REMARK H PARENT
REMARK Flexibility Score: inf
ROOT
ATOM      1  C   UNL     1       4.025   6.821  -9.357  1.00  0.00     0.001 A 
ATOM      2  C   UNL     1       5.141   6.801 -10.200  1.00  0.00     0.004 A 
ATOM      3  C   UNL     1       6.116   5.807 -10.055  1.00  0.00     0.048 A 
ATOM      4  C   UNL     1       5.976   4.828  -9.066  1.00  0.00     0.138 A 
ATOM      5  C   UNL     1       4.848   4.847  -8.214  1.00  0.00     0.018 A 
ATOM      6  C   UNL     1       3.875   5.846  -8.364  1.00  0.00     0.012 A 
ATOM      7  C   UNL     1       4.736   3.855  -7.234  1.00  0.00     0.019 A 
ATOM      8  C   UNL     1       5.731   2.885  -7.127  1.00  0.00     0.094 A 
ATOM      9  C   UNL     1       6.820   2.928  -8.005  1.00  0.00     0.336 A 
ATOM     10  O   UNL     1       7.728   2.061  -7.922  1.00  0.00    -0.246 OA
ATOM     11  O   UNL     1       6.903   3.883  -8.929  1.00  0.00    -0.423 OA
ENDROOT
TORSDOF 0
ENDMDL
MODEL 8
REMARK VINA RESULT:    -4.717     16.165     18.598
REMARK INTER + INTRA:          -4.717
REMARK INTER:                  -4.717
REMARK INTRA:                   0.000
REMARK UNBOUND:                 0.000
REMARK SMILES O=c1ccc2ccccc2o1
REMARK SMILES IDX 7 1 8 2 9 3 10 4 5 5 6 6 4 7 3 8 2 9 1 10 11 11
REMARK H PARENT
REMARK Flexibility Score: inf
ROOT
ATOM      1  C   UNL     1       7.699  -7.606  -5.873  1.00  0.00     0.001 A 
ATOM      2  C   UNL     1       8.012  -6.259  -5.663  1.00  0.00     0.004 A 
ATOM      3  C   UNL     1       9.037  -5.652  -6.397  1.00  0.00     0.048 A 
ATOM      4  C   UNL     1       9.754  -6.391  -7.344  1.00  0.00     0.138 A 
ATOM      5  C   UNL     1       9.438  -7.752  -7.557  1.00  0.00     0.018 A 
ATOM      6  C   UNL     1       8.409  -8.355  -6.819  1.00  0.00     0.012 A 
ATOM      7  C   UNL     1      10.172  -8.466  -8.510  1.00  0.00     0.019 A 
ATOM      8  C   UNL     1      11.184  -7.819  -9.217  1.00  0.00     0.094 A 
ATOM      9  C   UNL     1      11.442  -6.470  -8.954  1.00  0.00     0.336 A 
ATOM     10  O   UNL     1      12.353  -5.869  -9.582  1.00  0.00    -0.246 OA
ATOM     11  O   UNL     1      10.729  -5.813  -8.041  1.00  0.00    -0.423 OA
ENDROOT
TORSDOF 0
ENDMDL
MODEL 9
REMARK VINA RESULT:    -4.483     15.535     17.495
REMARK INTER + INTRA:          -4.483
REMARK INTER:                  -4.483
REMARK INTRA:                   0.000
REMARK UNBOUND:                 0.000
REMARK SMILES O=c1ccc2ccccc2o1
REMARK SMILES IDX 7 1 8 2 9 3 10 4 5 5 6 6 4 7 3 8 2 9 1 10 11 11
REMARK H PARENT
REMARK Flexibility Score: inf
ROOT
ATOM      1  C   UNL     1      10.965  -5.627 -10.992  1.00  0.00     0.001 A 
ATOM      2  C   UNL     1      11.823  -6.096  -9.992  1.00  0.00     0.004 A 
ATOM      3  C   UNL     1      11.340  -6.322  -8.698  1.00  0.00     0.048 A 
ATOM      4  C   UNL     1       9.995  -6.078  -8.400  1.00  0.00     0.138 A 
ATOM      5  C   UNL     1       9.128  -5.604  -9.410  1.00  0.00     0.018 A 
ATOM      6  C   UNL     1       9.617  -5.380 -10.704  1.00  0.00     0.012 A 
ATOM      7  C   UNL     1       7.788  -5.370  -9.082  1.00  0.00     0.019 A 
ATOM      8  C   UNL     1       7.352  -5.609  -7.779  1.00  0.00     0.094 A 
ATOM      9  C   UNL     1       8.268  -6.078  -6.831  1.00  0.00     0.336 A 
ATOM     10  O   UNL     1       7.892  -6.299  -5.650  1.00  0.00    -0.246 OA
ATOM     11  O   UNL     1       9.537  -6.293  -7.169  1.00  0.00    -0.423 OA
ENDROOT
TORSDOF 0
ENDMDL
