MODEL 1
REMARK VINA RESULT:    -5.047      0.000      0.000
REMARK INTER + INTRA:         -13.883
REMARK INTER:                 -10.948
REMARK INTRA:                  -2.935
REMARK UNBOUND:                -2.935
REMARK SMILES CCCCCCCCCCCCCCCCCCCCCC(=O)[O-]
REMARK SMILES IDX 12 1 11 2 10 3 9 4 8 5 7 6 6 7 5 8 4 9 3 10 2 11 1 12 13 13
REMARK SMILES IDX 14 14 15 15 16 16 17 17 18 18 19 19 20 20 21 21 22 22 23 23
REMARK SMILES IDX 24 24
REMARK H PARENT
REMARK Flexibility Score: inf
ROOT
ATOM      1  C   UNL     1    -104.302 -85.551  34.084  1.00  0.00     0.000 C 
ENDROOT
BRANCH   1   2
ATOM      2  C   UNL     1    -105.714 -85.834  34.625  1.00  0.00     0.000 C 
BRANCH   2   3
ATOM      3  C   UNL     1    -105.901 -87.289  35.079  1.00  0.00     0.000 C 
BRANCH   3   4
ATOM      4  C   UNL     1    -104.944 -87.627  36.232  1.00  0.00    -0.000 C 
BRANCH   4   5
ATOM      5  C   UNL     1    -105.163 -86.740  37.466  1.00  0.00    -0.000 C 
BRANCH   5   6
ATOM      6  C   UNL     1    -103.994 -86.816  38.465  1.00  0.00    -0.000 C 
BRANCH   6   7
ATOM      7  C   UNL     1    -104.182 -85.876  39.665  1.00  0.00    -0.000 C 
BRANCH   7   8
ATOM      8  C   UNL     1    -105.239 -84.789  39.405  1.00  0.00    -0.000 C 
BRANCH   8   9
ATOM      9  C   UNL     1    -104.684 -83.364  39.574  1.00  0.00    -0.000 C 
BRANCH   9  10
ATOM     10  C   UNL     1    -104.697 -82.505  38.294  1.00  0.00    -0.000 C 
BRANCH  10  11
ATOM     11  C   UNL     1    -104.376 -83.266  36.996  1.00  0.00    -0.003 C 
ATOM     12  C   UNL     1    -102.897 -83.633  36.872  1.00  0.00     0.004 C 
ENDBRANCH  10  11
ENDBRANCH   9  10
ENDBRANCH   8   9
ENDBRANCH   7   8
ENDBRANCH   6   7
ENDBRANCH   5   6
ENDBRANCH   4   5
ENDBRANCH   3   4
ENDBRANCH   2   3
ENDBRANCH   1   2
BRANCH   1  13
ATOM     13  C   UNL     1    -104.251 -84.627  32.852  1.00  0.00     0.000 C 
BRANCH  13  14
ATOM     14  C   UNL     1    -103.647 -83.230  33.100  1.00  0.00     0.000 C 
BRANCH  14  15
ATOM     15  C   UNL     1    -104.607 -82.055  32.844  1.00  0.00     0.000 C 
BRANCH  15  16
ATOM     16  C   UNL     1    -105.804 -82.041  33.810  1.00  0.00     0.000 C 
BRANCH  16  17
ATOM     17  C   UNL     1    -107.100 -81.572  33.131  1.00  0.00     0.000 C 
BRANCH  17  18
ATOM     18  C   UNL     1    -108.241 -82.594  33.270  1.00  0.00     0.000 C 
BRANCH  18  19
ATOM     19  C   UNL     1    -108.260 -83.629  32.133  1.00  0.00     0.000 C 
BRANCH  19  20
ATOM     20  C   UNL     1    -107.845 -83.047  30.765  1.00  0.00     0.006 C 
BRANCH  20  21
ATOM     21  C   UNL     1    -108.544 -83.755  29.598  1.00  0.00     0.053 C 
BRANCH  21  22
ATOM     22  C   UNL     1    -109.339 -82.778  28.791  1.00  0.00     0.041 C 
ATOM     23  O   UNL     1    -109.393 -81.568  29.136  1.00  0.00    -0.550 OA
ATOM     24  O   UNL     1    -110.055 -83.210  27.682  1.00  0.00    -0.550 OA
ENDBRANCH  21  22
ENDBRANCH  20  21
ENDBRANCH  19  20
ENDBRANCH  18  19
ENDBRANCH  17  18
ENDBRANCH  16  17
ENDBRANCH  15  16
ENDBRANCH  14  15
ENDBRANCH  13  14
ENDBRANCH   1  13
TORSDOF 20
ENDMDL
MODEL 2
REMARK VINA RESULT:    -5.045      2.166      3.516
REMARK INTER + INTRA:         -13.879
REMARK INTER:                 -10.987
REMARK INTRA:                  -2.893
REMARK UNBOUND:                -2.935
REMARK SMILES CCCCCCCCCCCCCCCCCCCCCC(=O)[O-]
REMARK SMILES IDX 12 1 11 2 10 3 9 4 8 5 7 6 6 7 5 8 4 9 3 10 2 11 1 12 13 13
REMARK SMILES IDX 14 14 15 15 16 16 17 17 18 18 19 19 20 20 21 21 22 22 23 23
REMARK SMILES IDX 24 24
REMARK H PARENT
REMARK Flexibility Score: inf
ROOT
ATOM      1  C   UNL     1    -105.079 -86.192  34.328  1.00  0.00     0.000 C 
ENDROOT
BRANCH   1   2
ATOM      2  C   UNL     1    -105.863 -87.198  35.188  1.00  0.00     0.000 C 
BRANCH   2   3
ATOM      3  C   UNL     1    -105.025 -87.786  36.334  1.00  0.00     0.000 C 
BRANCH   3   4
ATOM      4  C   UNL     1    -105.177 -86.943  37.608  1.00  0.00    -0.000 C 
BRANCH   4   5
ATOM      5  C   UNL     1    -103.893 -86.900  38.449  1.00  0.00    -0.000 C 
BRANCH   5   6
ATOM      6  C   UNL     1    -103.943 -85.829  39.553  1.00  0.00    -0.000 C 
BRANCH   6   7
ATOM      7  C   UNL     1    -105.211 -84.965  39.480  1.00  0.00    -0.000 C 
BRANCH   7   8
ATOM      8  C   UNL     1    -104.898 -83.467  39.329  1.00  0.00    -0.000 C 
BRANCH   8   9
ATOM      9  C   UNL     1    -103.403 -83.191  39.091  1.00  0.00    -0.000 C 
BRANCH   9  10
ATOM     10  C   UNL     1    -102.709 -82.366  40.193  1.00  0.00    -0.000 C 
BRANCH  10  11
ATOM     11  C   UNL     1    -103.074 -80.871  40.213  1.00  0.00    -0.003 C 
ATOM     12  C   UNL     1    -103.140 -80.257  38.815  1.00  0.00     0.004 C 
ENDBRANCH  10  11
ENDBRANCH   9  10
ENDBRANCH   8   9
ENDBRANCH   7   8
ENDBRANCH   6   7
ENDBRANCH   5   6
ENDBRANCH   4   5
ENDBRANCH   3   4
ENDBRANCH   2   3
ENDBRANCH   1   2
BRANCH   1  13
ATOM     13  C   UNL     1    -105.424 -84.712  34.584  1.00  0.00     0.000 C 
BRANCH  13  14
ATOM     14  C   UNL     1    -104.252 -83.838  35.078  1.00  0.00     0.000 C 
BRANCH  14  15
ATOM     15  C   UNL     1    -103.052 -84.621  35.638  1.00  0.00     0.000 C 
BRANCH  15  16
ATOM     16  C   UNL     1    -101.808 -84.532  34.738  1.00  0.00     0.000 C 
BRANCH  16  17
ATOM     17  C   UNL     1    -101.897 -83.377  33.729  1.00  0.00     0.000 C 
BRANCH  17  18
ATOM     18  C   UNL     1    -101.626 -83.833  32.286  1.00  0.00     0.000 C 
BRANCH  18  19
ATOM     19  C   UNL     1    -102.658 -83.291  31.283  1.00  0.00     0.000 C 
BRANCH  19  20
ATOM     20  C   UNL     1    -103.938 -84.151  31.193  1.00  0.00     0.006 C 
BRANCH  20  21
ATOM     21  C   UNL     1    -105.198 -83.296  31.012  1.00  0.00     0.053 C 
BRANCH  21  22
ATOM     22  C   UNL     1    -105.806 -83.536  29.666  1.00  0.00     0.041 C 
ATOM     23  O   UNL     1    -105.074 -83.816  28.681  1.00  0.00    -0.550 OA
ATOM     24  O   UNL     1    -107.178 -83.408  29.489  1.00  0.00    -0.550 OA
ENDBRANCH  21  22
ENDBRANCH  20  21
ENDBRANCH  19  20
ENDBRANCH  18  19
ENDBRANCH  17  18
ENDBRANCH  16  17
ENDBRANCH  15  16
ENDBRANCH  14  15
ENDBRANCH  13  14
ENDBRANCH   1  13
TORSDOF 20
ENDMDL
MODEL 3
REMARK VINA RESULT:    -5.038      1.384      2.606
REMARK INTER + INTRA:         -13.864
REMARK INTER:                 -10.603
REMARK INTRA:                  -3.261
REMARK UNBOUND:                -2.935
REMARK SMILES CCCCCCCCCCCCCCCCCCCCCC(=O)[O-]
REMARK SMILES IDX 12 1 11 2 10 3 9 4 8 5 7 6 6 7 5 8 4 9 3 10 2 11 1 12 13 13
REMARK SMILES IDX 14 14 15 15 16 16 17 17 18 18 19 19 20 20 21 21 22 22 23 23
REMARK SMILES IDX 24 24
REMARK H PARENT
REMARK Flexibility Score: inf
ROOT
ATOM      1  C   UNL     1    -105.526 -85.814  35.024  1.00  0.00     0.000 C 
ENDROOT
BRANCH   1   2
ATOM      2  C   UNL     1    -105.844 -87.291  35.316  1.00  0.00     0.000 C 
BRANCH   2   3
ATOM      3  C   UNL     1    -105.008 -87.866  36.468  1.00  0.00     0.000 C 
BRANCH   3   4
ATOM      4  C   UNL     1    -105.152 -87.004  37.730  1.00  0.00    -0.000 C 
BRANCH   4   5
ATOM      5  C   UNL     1    -103.823 -86.811  38.474  1.00  0.00    -0.000 C 
BRANCH   5   6
ATOM      6  C   UNL     1    -103.876 -85.659  39.494  1.00  0.00    -0.000 C 
BRANCH   6   7
ATOM      7  C   UNL     1    -105.218 -84.913  39.472  1.00  0.00    -0.000 C 
BRANCH   7   8
ATOM      8  C   UNL     1    -105.047 -83.387  39.561  1.00  0.00    -0.000 C 
BRANCH   8   9
ATOM      9  C   UNL     1    -103.580 -82.961  39.744  1.00  0.00    -0.000 C 
BRANCH   9  10
ATOM     10  C   UNL     1    -103.368 -81.459  40.019  1.00  0.00    -0.000 C 
BRANCH  10  11
ATOM     11  C   UNL     1    -103.748 -80.525  38.856  1.00  0.00    -0.003 C 
ATOM     12  C   UNL     1    -105.170 -79.978  38.973  1.00  0.00     0.004 C 
ENDBRANCH  10  11
ENDBRANCH   9  10
ENDBRANCH   8   9
ENDBRANCH   7   8
ENDBRANCH   6   7
ENDBRANCH   5   6
ENDBRANCH   4   5
ENDBRANCH   3   4
ENDBRANCH   2   3
ENDBRANCH   1   2
BRANCH   1  13
ATOM     13  C   UNL     1    -104.219 -85.573  34.244  1.00  0.00     0.000 C 
BRANCH  13  14
ATOM     14  C   UNL     1    -103.093 -84.885  35.043  1.00  0.00     0.000 C 
BRANCH  14  15
ATOM     15  C   UNL     1    -103.573 -83.880  36.105  1.00  0.00     0.000 C 
BRANCH  15  16
ATOM     16  C   UNL     1    -103.370 -82.417  35.676  1.00  0.00     0.000 C 
BRANCH  16  17
ATOM     17  C   UNL     1    -104.700 -81.672  35.483  1.00  0.00     0.000 C 
BRANCH  17  18
ATOM     18  C   UNL     1    -105.214 -81.751  34.036  1.00  0.00     0.000 C 
BRANCH  18  19
ATOM     19  C   UNL     1    -106.612 -82.384  33.930  1.00  0.00     0.000 C 
BRANCH  19  20
ATOM     20  C   UNL     1    -106.766 -83.335  32.724  1.00  0.00     0.006 C 
BRANCH  20  21
ATOM     21  C   UNL     1    -108.225 -83.463  32.270  1.00  0.00     0.053 C 
BRANCH  21  22
ATOM     22  C   UNL     1    -108.359 -83.110  30.823  1.00  0.00     0.041 C 
ATOM     23  O   UNL     1    -108.647 -83.998  29.978  1.00  0.00    -0.550 OA
ATOM     24  O   UNL     1    -108.125 -81.808  30.399  1.00  0.00    -0.550 OA
ENDBRANCH  21  22
ENDBRANCH  20  21
ENDBRANCH  19  20
ENDBRANCH  18  19
ENDBRANCH  17  18
ENDBRANCH  16  17
ENDBRANCH  15  16
ENDBRANCH  14  15
ENDBRANCH  13  14
ENDBRANCH   1  13
TORSDOF 20
ENDMDL
MODEL 4
REMARK VINA RESULT:    -4.991      3.905      7.743
REMARK INTER + INTRA:         -13.762
REMARK INTER:                 -10.385
REMARK INTRA:                  -3.377
REMARK UNBOUND:                -2.935
REMARK SMILES CCCCCCCCCCCCCCCCCCCCCC(=O)[O-]
REMARK SMILES IDX 12 1 11 2 10 3 9 4 8 5 7 6 6 7 5 8 4 9 3 10 2 11 1 12 13 13
REMARK SMILES IDX 14 14 15 15 16 16 17 17 18 18 19 19 20 20 21 21 22 22 23 23
REMARK SMILES IDX 24 24
REMARK H PARENT
REMARK Flexibility Score: inf
ROOT
ATOM      1  C   UNL     1    -105.454 -85.672  34.631  1.00  0.00     0.000 C 
ENDROOT
BRANCH   1   2
ATOM      2  C   UNL     1    -104.368 -85.593  33.544  1.00  0.00     0.000 C 
BRANCH   2   3
ATOM      3  C   UNL     1    -103.255 -84.591  33.883  1.00  0.00     0.000 C 
BRANCH   3   4
ATOM      4  C   UNL     1    -102.827 -84.727  35.352  1.00  0.00    -0.000 C 
BRANCH   4   5
ATOM      5  C   UNL     1    -102.858 -83.389  36.106  1.00  0.00    -0.000 C 
BRANCH   5   6
ATOM      6  C   UNL     1    -104.282 -82.824  36.253  1.00  0.00    -0.000 C 
BRANCH   6   7
ATOM      7  C   UNL     1    -104.482 -81.518  35.470  1.00  0.00    -0.000 C 
BRANCH   7   8
ATOM      8  C   UNL     1    -105.690 -81.578  34.520  1.00  0.00    -0.000 C 
BRANCH   8   9
ATOM      9  C   UNL     1    -105.282 -81.763  33.048  1.00  0.00    -0.000 C 
BRANCH   9  10
ATOM     10  C   UNL     1    -106.218 -82.669  32.222  1.00  0.00    -0.000 C 
BRANCH  10  11
ATOM     11  C   UNL     1    -107.703 -82.602  32.619  1.00  0.00    -0.003 C 
ATOM     12  C   UNL     1    -108.318 -83.982  32.853  1.00  0.00     0.004 C 
ENDBRANCH  10  11
ENDBRANCH   9  10
ENDBRANCH   8   9
ENDBRANCH   7   8
ENDBRANCH   6   7
ENDBRANCH   5   6
ENDBRANCH   4   5
ENDBRANCH   3   4
ENDBRANCH   2   3
ENDBRANCH   1   2
BRANCH   1  13
ATOM     13  C   UNL     1    -105.872 -87.101  35.029  1.00  0.00     0.000 C 
BRANCH  13  14
ATOM     14  C   UNL     1    -105.239 -87.634  36.331  1.00  0.00     0.000 C 
BRANCH  14  15
ATOM     15  C   UNL     1    -105.124 -86.600  37.465  1.00  0.00     0.000 C 
BRANCH  15  16
ATOM     16  C   UNL     1    -103.899 -86.837  38.365  1.00  0.00     0.000 C 
BRANCH  16  17
ATOM     17  C   UNL     1    -103.989 -86.068  39.691  1.00  0.00     0.000 C 
BRANCH  17  18
ATOM     18  C   UNL     1    -103.954 -84.543  39.492  1.00  0.00     0.000 C 
BRANCH  18  19
ATOM     19  C   UNL     1    -102.596 -83.922  39.863  1.00  0.00     0.000 C 
BRANCH  19  20
ATOM     20  C   UNL     1    -102.681 -82.418  40.202  1.00  0.00     0.006 C 
BRANCH  20  21
ATOM     21  C   UNL     1    -104.056 -81.826  39.868  1.00  0.00     0.053 C 
BRANCH  21  22
ATOM     22  C   UNL     1    -104.096 -80.369  40.203  1.00  0.00     0.041 C 
ATOM     23  O   UNL     1    -103.216 -79.867  40.952  1.00  0.00    -0.550 OA
ATOM     24  O   UNL     1    -105.128 -79.571  39.724  1.00  0.00    -0.550 OA
ENDBRANCH  21  22
ENDBRANCH  20  21
ENDBRANCH  19  20
ENDBRANCH  18  19
ENDBRANCH  17  18
ENDBRANCH  16  17
ENDBRANCH  15  16
ENDBRANCH  14  15
ENDBRANCH  13  14
ENDBRANCH   1  13
TORSDOF 20
ENDMDL
MODEL 5
REMARK VINA RESULT:    -4.926      3.650      7.584
REMARK INTER + INTRA:         -13.621
REMARK INTER:                  -9.521
REMARK INTRA:                  -4.100
REMARK UNBOUND:                -2.935
REMARK SMILES CCCCCCCCCCCCCCCCCCCCCC(=O)[O-]
REMARK SMILES IDX 12 1 11 2 10 3 9 4 8 5 7 6 6 7 5 8 4 9 3 10 2 11 1 12 13 13
REMARK SMILES IDX 14 14 15 15 16 16 17 17 18 18 19 19 20 20 21 21 22 22 23 23
REMARK SMILES IDX 24 24
REMARK H PARENT
REMARK Flexibility Score: inf
ROOT
ATOM      1  C   UNL     1    -105.289 -85.634  35.034  1.00  0.00     0.000 C 
ENDROOT
BRANCH   1   2
ATOM      2  C   UNL     1    -103.765 -85.422  35.079  1.00  0.00     0.000 C 
BRANCH   2   3
ATOM      3  C   UNL     1    -103.349 -84.258  35.990  1.00  0.00     0.000 C 
BRANCH   3   4
ATOM      4  C   UNL     1    -104.359 -83.105  35.897  1.00  0.00    -0.000 C 
BRANCH   4   5
ATOM      5  C   UNL     1    -103.712 -81.782  35.460  1.00  0.00    -0.000 C 
BRANCH   5   6
ATOM      6  C   UNL     1    -102.529 -81.990  34.498  1.00  0.00    -0.000 C 
BRANCH   6   7
ATOM      7  C   UNL     1    -102.956 -81.965  33.023  1.00  0.00    -0.000 C 
BRANCH   7   8
ATOM      8  C   UNL     1    -102.765 -83.324  32.329  1.00  0.00    -0.000 C 
BRANCH   8   9
ATOM      9  C   UNL     1    -104.081 -83.904  31.782  1.00  0.00    -0.000 C 
BRANCH   9  10
ATOM     10  C   UNL     1    -105.261 -82.912  31.738  1.00  0.00    -0.000 C 
BRANCH  10  11
ATOM     11  C   UNL     1    -106.398 -83.209  32.732  1.00  0.00    -0.003 C 
ATOM     12  C   UNL     1    -106.924 -81.954  33.425  1.00  0.00     0.004 C 
ENDBRANCH  10  11
ENDBRANCH   9  10
ENDBRANCH   8   9
ENDBRANCH   7   8
ENDBRANCH   6   7
ENDBRANCH   5   6
ENDBRANCH   4   5
ENDBRANCH   3   4
ENDBRANCH   2   3
ENDBRANCH   1   2
BRANCH   1  13
ATOM     13  C   UNL     1    -105.753 -87.074  35.329  1.00  0.00     0.000 C 
BRANCH  13  14
ATOM     14  C   UNL     1    -104.889 -87.849  36.344  1.00  0.00     0.000 C 
BRANCH  14  15
ATOM     15  C   UNL     1    -105.088 -87.436  37.813  1.00  0.00     0.000 C 
BRANCH  15  16
ATOM     16  C   UNL     1    -103.769 -87.064  38.512  1.00  0.00     0.000 C 
BRANCH  16  17
ATOM     17  C   UNL     1    -103.899 -85.799  39.374  1.00  0.00     0.000 C 
BRANCH  17  18
ATOM     18  C   UNL     1    -105.197 -85.024  39.091  1.00  0.00     0.000 C 
BRANCH  18  19
ATOM     19  C   UNL     1    -105.175 -83.593  39.653  1.00  0.00     0.000 C 
BRANCH  19  20
ATOM     20  C   UNL     1    -103.794 -82.910  39.542  1.00  0.00     0.006 C 
BRANCH  20  21
ATOM     21  C   UNL     1    -103.811 -81.477  40.087  1.00  0.00     0.053 C 
BRANCH  21  22
ATOM     22  C   UNL     1    -104.074 -80.499  38.987  1.00  0.00     0.041 C 
ATOM     23  O   UNL     1    -105.215 -80.433  38.458  1.00  0.00    -0.550 OA
ATOM     24  O   UNL     1    -103.049 -79.688  38.516  1.00  0.00    -0.550 OA
ENDBRANCH  21  22
ENDBRANCH  20  21
ENDBRANCH  19  20
ENDBRANCH  18  19
ENDBRANCH  17  18
ENDBRANCH  16  17
ENDBRANCH  15  16
ENDBRANCH  14  15
ENDBRANCH  13  14
ENDBRANCH   1  13
TORSDOF 20
ENDMDL
MODEL 6
REMARK VINA RESULT:    -4.924      3.349      7.151
REMARK INTER + INTRA:         -13.616
REMARK INTER:                 -10.775
REMARK INTRA:                  -2.841
REMARK UNBOUND:                -2.935
REMARK SMILES CCCCCCCCCCCCCCCCCCCCCC(=O)[O-]
REMARK SMILES IDX 12 1 11 2 10 3 9 4 8 5 7 6 6 7 5 8 4 9 3 10 2 11 1 12 13 13
REMARK SMILES IDX 14 14 15 15 16 16 17 17 18 18 19 19 20 20 21 21 22 22 23 23
REMARK SMILES IDX 24 24
REMARK H PARENT
REMARK Flexibility Score: inf
ROOT
ATOM      1  C   UNL     1    -103.352 -83.286  39.052  1.00  0.00     0.000 C 
ENDROOT
BRANCH   1   2
ATOM      2  C   UNL     1    -102.774 -82.249  40.030  1.00  0.00     0.000 C 
BRANCH   2   3
ATOM      3  C   UNL     1    -103.773 -81.138  40.384  1.00  0.00     0.000 C 
BRANCH   3   4
ATOM      4  C   UNL     1    -103.781 -80.048  39.302  1.00  0.00    -0.000 C 
BRANCH   4   5
ATOM      5  C   UNL     1    -105.191 -79.517  39.004  1.00  0.00    -0.000 C 
BRANCH   5   6
ATOM      6  C   UNL     1    -105.965 -80.411  38.019  1.00  0.00    -0.000 C 
BRANCH   6   7
ATOM      7  C   UNL     1    -105.113 -80.834  36.812  1.00  0.00    -0.000 C 
BRANCH   7   8
ATOM      8  C   UNL     1    -105.758 -80.449  35.470  1.00  0.00    -0.000 C 
BRANCH   8   9
ATOM      9  C   UNL     1    -105.653 -81.566  34.416  1.00  0.00    -0.000 C 
BRANCH   9  10
ATOM     10  C   UNL     1    -106.916 -81.768  33.555  1.00  0.00    -0.000 C 
BRANCH  10  11
ATOM     11  C   UNL     1    -106.923 -83.049  32.703  1.00  0.00    -0.003 C 
ATOM     12  C   UNL     1    -108.239 -83.821  32.800  1.00  0.00     0.004 C 
ENDBRANCH  10  11
ENDBRANCH   9  10
ENDBRANCH   8   9
ENDBRANCH   7   8
ENDBRANCH   6   7
ENDBRANCH   5   6
ENDBRANCH   4   5
ENDBRANCH   3   4
ENDBRANCH   2   3
ENDBRANCH   1   2
BRANCH   1  13
ATOM     13  C   UNL     1    -104.835 -83.639  39.281  1.00  0.00     0.000 C 
BRANCH  13  14
ATOM     14  C   UNL     1    -105.111 -85.106  39.667  1.00  0.00     0.000 C 
BRANCH  14  15
ATOM     15  C   UNL     1    -103.872 -86.018  39.673  1.00  0.00     0.000 C 
BRANCH  15  16
ATOM     16  C   UNL     1    -103.810 -86.949  38.450  1.00  0.00     0.000 C 
BRANCH  16  17
ATOM     17  C   UNL     1    -105.109 -86.927  37.630  1.00  0.00     0.000 C 
BRANCH  17  18
ATOM     18  C   UNL     1    -104.902 -87.414  36.186  1.00  0.00     0.000 C 
BRANCH  18  19
ATOM     19  C   UNL     1    -105.535 -86.478  35.142  1.00  0.00     0.000 C 
BRANCH  19  20
ATOM     20  C   UNL     1    -104.896 -85.073  35.108  1.00  0.00     0.006 C 
BRANCH  20  21
ATOM     21  C   UNL     1    -103.808 -84.959  34.033  1.00  0.00     0.053 C 
BRANCH  21  22
ATOM     22  C   UNL     1    -102.483 -84.652  34.656  1.00  0.00     0.041 C 
ATOM     23  O   UNL     1    -101.477 -84.436  33.931  1.00  0.00    -0.550 OA
ATOM     24  O   UNL     1    -102.348 -84.646  36.039  1.00  0.00    -0.550 OA
ENDBRANCH  21  22
ENDBRANCH  20  21
ENDBRANCH  19  20
ENDBRANCH  18  19
ENDBRANCH  17  18
ENDBRANCH  16  17
ENDBRANCH  15  16
ENDBRANCH  14  15
ENDBRANCH  13  14
ENDBRANCH   1  13
TORSDOF 20
ENDMDL
MODEL 7
REMARK VINA RESULT:    -4.898      2.078      3.259
REMARK INTER + INTRA:         -13.559
REMARK INTER:                 -10.530
REMARK INTRA:                  -3.029
REMARK UNBOUND:                -2.935
REMARK SMILES CCCCCCCCCCCCCCCCCCCCCC(=O)[O-]
REMARK SMILES IDX 12 1 11 2 10 3 9 4 8 5 7 6 6 7 5 8 4 9 3 10 2 11 1 12 13 13
REMARK SMILES IDX 14 14 15 15 16 16 17 17 18 18 19 19 20 20 21 21 22 22 23 23
REMARK SMILES IDX 24 24
REMARK H PARENT
REMARK Flexibility Score: inf
ROOT
ATOM      1  C   UNL     1    -105.117 -84.560  35.688  1.00  0.00     0.000 C 
ENDROOT
BRANCH   1   2
ATOM      2  C   UNL     1    -105.165 -85.858  34.863  1.00  0.00     0.000 C 
BRANCH   2   3
ATOM      3  C   UNL     1    -105.129 -87.122  35.734  1.00  0.00     0.000 C 
BRANCH   3   4
ATOM      4  C   UNL     1    -105.144 -86.757  37.225  1.00  0.00    -0.000 C 
BRANCH   4   5
ATOM      5  C   UNL     1    -104.136 -87.573  38.047  1.00  0.00    -0.000 C 
BRANCH   5   6
ATOM      6  C   UNL     1    -103.424 -86.729  39.120  1.00  0.00    -0.000 C 
BRANCH   6   7
ATOM      7  C   UNL     1    -104.339 -85.657  39.730  1.00  0.00    -0.000 C 
BRANCH   7   8
ATOM      8  C   UNL     1    -103.854 -84.228  39.435  1.00  0.00    -0.000 C 
BRANCH   8   9
ATOM      9  C   UNL     1    -104.991 -83.192  39.477  1.00  0.00    -0.000 C 
BRANCH   9  10
ATOM     10  C   UNL     1    -104.732 -81.908  38.664  1.00  0.00    -0.000 C 
BRANCH  10  11
ATOM     11  C   UNL     1    -103.502 -81.096  39.105  1.00  0.00    -0.003 C 
ATOM     12  C   UNL     1    -103.496 -80.792  40.603  1.00  0.00     0.004 C 
ENDBRANCH  10  11
ENDBRANCH   9  10
ENDBRANCH   8   9
ENDBRANCH   7   8
ENDBRANCH   6   7
ENDBRANCH   5   6
ENDBRANCH   4   5
ENDBRANCH   3   4
ENDBRANCH   2   3
ENDBRANCH   1   2
BRANCH   1  13
ATOM     13  C   UNL     1    -103.845 -83.712  35.490  1.00  0.00     0.000 C 
BRANCH  13  14
ATOM     14  C   UNL     1    -102.515 -84.485  35.598  1.00  0.00     0.000 C 
BRANCH  14  15
ATOM     15  C   UNL     1    -101.688 -84.535  34.301  1.00  0.00     0.000 C 
BRANCH  15  16
ATOM     16  C   UNL     1    -101.990 -83.360  33.356  1.00  0.00     0.000 C 
BRANCH  16  17
ATOM     17  C   UNL     1    -102.304 -83.824  31.926  1.00  0.00     0.000 C 
BRANCH  17  18
ATOM     18  C   UNL     1    -103.732 -84.378  31.787  1.00  0.00     0.000 C 
BRANCH  18  19
ATOM     19  C   UNL     1    -104.500 -83.764  30.603  1.00  0.00     0.000 C 
BRANCH  19  20
ATOM     20  C   UNL     1    -105.773 -83.000  31.027  1.00  0.00     0.006 C 
BRANCH  20  21
ATOM     21  C   UNL     1    -106.191 -83.324  32.467  1.00  0.00     0.053 C 
BRANCH  21  22
ATOM     22  C   UNL     1    -107.649 -83.056  32.663  1.00  0.00     0.041 C 
ATOM     23  O   UNL     1    -108.462 -84.013  32.753  1.00  0.00    -0.550 OA
ATOM     24  O   UNL     1    -108.118 -81.749  32.706  1.00  0.00    -0.550 OA
ENDBRANCH  21  22
ENDBRANCH  20  21
ENDBRANCH  19  20
ENDBRANCH  18  19
ENDBRANCH  17  18
ENDBRANCH  16  17
ENDBRANCH  15  16
ENDBRANCH  14  15
ENDBRANCH  13  14
ENDBRANCH   1  13
TORSDOF 20
ENDMDL
MODEL 8
REMARK VINA RESULT:    -4.862      1.890      3.716
REMARK INTER + INTRA:         -13.482
REMARK INTER:                 -10.192
REMARK INTRA:                  -3.290
REMARK UNBOUND:                -2.935
REMARK SMILES CCCCCCCCCCCCCCCCCCCCCC(=O)[O-]
REMARK SMILES IDX 12 1 11 2 10 3 9 4 8 5 7 6 6 7 5 8 4 9 3 10 2 11 1 12 13 13
REMARK SMILES IDX 14 14 15 15 16 16 17 17 18 18 19 19 20 20 21 21 22 22 23 23
REMARK SMILES IDX 24 24
REMARK H PARENT
REMARK Flexibility Score: inf
ROOT
ATOM      1  C   UNL     1    -104.968 -87.400  36.027  1.00  0.00     0.000 C 
ENDROOT
BRANCH   1   2
ATOM      2  C   UNL     1    -105.137 -87.121  37.531  1.00  0.00     0.000 C 
BRANCH   2   3
ATOM      3  C   UNL     1    -103.904 -87.519  38.355  1.00  0.00     0.000 C 
BRANCH   3   4
ATOM      4  C   UNL     1    -103.471 -86.369  39.276  1.00  0.00    -0.000 C 
BRANCH   4   5
ATOM      5  C   UNL     1    -104.661 -85.612  39.883  1.00  0.00    -0.000 C 
BRANCH   5   6
ATOM      6  C   UNL     1    -104.673 -84.121  39.499  1.00  0.00    -0.000 C 
BRANCH   6   7
ATOM      7  C   UNL     1    -103.298 -83.458  39.666  1.00  0.00    -0.000 C 
BRANCH   7   8
ATOM      8  C   UNL     1    -103.392 -81.930  39.811  1.00  0.00    -0.000 C 
BRANCH   8   9
ATOM      9  C   UNL     1    -104.800 -81.388  39.511  1.00  0.00    -0.000 C 
BRANCH   9  10
ATOM     10  C   UNL     1    -104.834 -80.050  38.745  1.00  0.00    -0.000 C 
BRANCH  10  11
ATOM     11  C   UNL     1    -105.441 -80.123  37.334  1.00  0.00    -0.003 C 
ATOM     12  C   UNL     1    -104.837 -81.240  36.483  1.00  0.00     0.004 C 
ENDBRANCH  10  11
ENDBRANCH   9  10
ENDBRANCH   8   9
ENDBRANCH   7   8
ENDBRANCH   6   7
ENDBRANCH   5   6
ENDBRANCH   4   5
ENDBRANCH   3   4
ENDBRANCH   2   3
ENDBRANCH   1   2
BRANCH   1  13
ATOM     13  C   UNL     1    -104.644 -86.161  35.169  1.00  0.00     0.000 C 
BRANCH  13  14
ATOM     14  C   UNL     1    -104.395 -84.859  35.958  1.00  0.00     0.000 C 
BRANCH  14  15
ATOM     15  C   UNL     1    -102.916 -84.459  36.097  1.00  0.00     0.000 C 
BRANCH  15  16
ATOM     16  C   UNL     1    -102.161 -84.494  34.757  1.00  0.00     0.000 C 
BRANCH  16  17
ATOM     17  C   UNL     1    -102.692 -83.457  33.756  1.00  0.00     0.000 C 
BRANCH  17  18
ATOM     18  C   UNL     1    -102.981 -84.067  32.374  1.00  0.00     0.000 C 
BRANCH  18  19
ATOM     19  C   UNL     1    -104.459 -83.949  31.965  1.00  0.00     0.000 C 
BRANCH  19  20
ATOM     20  C   UNL     1    -105.282 -83.031  32.894  1.00  0.00     0.006 C 
BRANCH  20  21
ATOM     21  C   UNL     1    -106.618 -83.666  33.301  1.00  0.00     0.053 C 
BRANCH  21  22
ATOM     22  C   UNL     1    -107.762 -82.923  32.687  1.00  0.00     0.041 C 
ATOM     23  O   UNL     1    -108.027 -83.065  31.465  1.00  0.00    -0.550 OA
ATOM     24  O   UNL     1    -108.512 -82.041  33.455  1.00  0.00    -0.550 OA
ENDBRANCH  21  22
ENDBRANCH  20  21
ENDBRANCH  19  20
ENDBRANCH  18  19
ENDBRANCH  17  18
ENDBRANCH  16  17
ENDBRANCH  15  16
ENDBRANCH  14  15
ENDBRANCH  13  14
ENDBRANCH   1  13
TORSDOF 20
ENDMDL
MODEL 9
REMARK VINA RESULT:    -4.778      2.532      3.497
REMARK INTER + INTRA:         -13.298
REMARK INTER:                  -9.855
REMARK INTRA:                  -3.443
REMARK UNBOUND:                -2.935
REMARK SMILES CCCCCCCCCCCCCCCCCCCCCC(=O)[O-]
REMARK SMILES IDX 12 1 11 2 10 3 9 4 8 5 7 6 6 7 5 8 4 9 3 10 2 11 1 12 13 13
REMARK SMILES IDX 14 14 15 15 16 16 17 17 18 18 19 19 20 20 21 21 22 22 23 23
REMARK SMILES IDX 24 24
REMARK H PARENT
REMARK Flexibility Score: inf
ROOT
ATOM      1  C   UNL     1    -104.625 -85.665  34.710  1.00  0.00     0.000 C 
ENDROOT
BRANCH   1   2
ATOM      2  C   UNL     1    -105.492 -86.432  35.722  1.00  0.00     0.000 C 
BRANCH   2   3
ATOM      3  C   UNL     1    -104.724 -87.550  36.442  1.00  0.00     0.000 C 
BRANCH   3   4
ATOM      4  C   UNL     1    -104.879 -87.424  37.965  1.00  0.00    -0.000 C 
BRANCH   4   5
ATOM      5  C   UNL     1    -103.576 -87.008  38.663  1.00  0.00    -0.000 C 
BRANCH   5   6
ATOM      6  C   UNL     1    -103.707 -85.670  39.413  1.00  0.00    -0.000 C 
BRANCH   6   7
ATOM      7  C   UNL     1    -105.088 -85.024  39.231  1.00  0.00    -0.000 C 
BRANCH   7   8
ATOM      8  C   UNL     1    -105.071 -83.509  39.495  1.00  0.00    -0.000 C 
BRANCH   8   9
ATOM      9  C   UNL     1    -103.669 -82.979  39.841  1.00  0.00    -0.000 C 
BRANCH   9  10
ATOM     10  C   UNL     1    -103.277 -81.664  39.138  1.00  0.00    -0.000 C 
BRANCH  10  11
ATOM     11  C   UNL     1    -103.878 -80.391  39.758  1.00  0.00    -0.003 C 
ATOM     12  C   UNL     1    -103.483 -80.199  41.222  1.00  0.00     0.004 C 
ENDBRANCH  10  11
ENDBRANCH   9  10
ENDBRANCH   8   9
ENDBRANCH   7   8
ENDBRANCH   6   7
ENDBRANCH   5   6
ENDBRANCH   4   5
ENDBRANCH   3   4
ENDBRANCH   2   3
ENDBRANCH   1   2
BRANCH   1  13
ATOM     13  C   UNL     1    -103.251 -85.213  35.242  1.00  0.00     0.000 C 
BRANCH  13  14
ATOM     14  C   UNL     1    -103.274 -83.968  36.153  1.00  0.00     0.000 C 
BRANCH  14  15
ATOM     15  C   UNL     1    -104.444 -83.002  35.898  1.00  0.00     0.000 C 
BRANCH  15  16
ATOM     16  C   UNL     1    -103.980 -81.618  35.411  1.00  0.00     0.000 C 
BRANCH  16  17
ATOM     17  C   UNL     1    -104.467 -81.304  33.989  1.00  0.00     0.000 C 
BRANCH  17  18
ATOM     18  C   UNL     1    -105.457 -82.354  33.459  1.00  0.00     0.000 C 
BRANCH  18  19
ATOM     19  C   UNL     1    -105.055 -82.920  32.087  1.00  0.00     0.000 C 
BRANCH  19  20
ATOM     20  C   UNL     1    -103.583 -83.381  32.020  1.00  0.00     0.006 C 
BRANCH  20  21
ATOM     21  C   UNL     1    -103.370 -84.489  30.982  1.00  0.00     0.053 C 
BRANCH  21  22
ATOM     22  C   UNL     1    -103.757 -84.013  29.618  1.00  0.00     0.041 C 
ATOM     23  O   UNL     1    -104.847 -84.379  29.105  1.00  0.00    -0.550 OA
ATOM     24  O   UNL     1    -102.896 -83.198  28.894  1.00  0.00    -0.550 OA
ENDBRANCH  21  22
ENDBRANCH  20  21
ENDBRANCH  19  20
ENDBRANCH  18  19
ENDBRANCH  17  18
ENDBRANCH  16  17
ENDBRANCH  15  16
ENDBRANCH  14  15
ENDBRANCH  13  14
ENDBRANCH   1  13
TORSDOF 20
ENDMDL
