MODEL 1
REMARK VINA RESULT:    -4.336      0.000      0.000
REMARK INTER + INTRA:          -4.961
REMARK INTER:                  -4.716
REMARK INTRA:                  -0.245
REMARK UNBOUND:                -0.245
REMARK SMILES O=C([O-])c1ccccc1O
REMARK SMILES IDX 4 1 9 2 5 3 8 4 6 5 7 6 2 7 1 8 3 9 10 10
REMARK H PARENT 10 11
REMARK Flexibility Score: inf
ROOT
ATOM      1  C   UNL     1      12.198  23.296  34.353  1.00  0.00     0.039 A 
ATOM      2  C   UNL     1      11.430  22.898  33.227  1.00  0.00     0.124 A 
ATOM      3  C   UNL     1      12.280  22.430  35.460  1.00  0.00     0.014 A 
ATOM      4  C   UNL     1      10.724  21.688  33.264  1.00  0.00     0.047 A 
ATOM      5  C   UNL     1      11.586  21.219  35.470  1.00  0.00     0.001 A 
ATOM      6  C   UNL     1      10.801  20.853  34.379  1.00  0.00     0.004 A 
ENDROOT
BRANCH   1   7
ATOM      7  C   UNL     1      12.892  24.600  34.430  1.00  0.00     0.075 C 
ATOM      8  O   UNL     1      14.104  24.669  34.764  1.00  0.00    -0.545 OA
ATOM      9  O   UNL     1      12.227  25.764  34.065  1.00  0.00    -0.545 OA
ENDBRANCH   1   7
BRANCH   2  10
ATOM     10  O   UNL     1      11.370  23.649  32.052  1.00  0.00    -0.507 OA
ATOM     11  H   UNL     1      10.877  24.527  31.973  1.00  0.00     0.293 HD
ENDBRANCH   2  10
TORSDOF 2
ENDMDL
MODEL 2
REMARK VINA RESULT:    -4.325     12.578     13.444
REMARK INTER + INTRA:          -4.949
REMARK INTER:                  -4.705
REMARK INTRA:                  -0.244
REMARK UNBOUND:                -0.245
REMARK SMILES O=C([O-])c1ccccc1O
REMARK SMILES IDX 4 1 9 2 5 3 8 4 6 5 7 6 2 7 1 8 3 9 10 10
REMARK H PARENT 10 11
REMARK Flexibility Score: inf
ROOT
ATOM      1  C   UNL     1      19.406  12.352  33.505  1.00  0.00     0.039 A 
ATOM      2  C   UNL     1      20.527  13.101  33.951  1.00  0.00     0.124 A 
ATOM      3  C   UNL     1      18.258  12.299  34.316  1.00  0.00     0.014 A 
ATOM      4  C   UNL     1      20.491  13.717  35.209  1.00  0.00     0.047 A 
ATOM      5  C   UNL     1      18.232  12.937  35.558  1.00  0.00     0.001 A 
ATOM      6  C   UNL     1      19.350  13.636  36.008  1.00  0.00     0.004 A 
ENDROOT
BRANCH   1   7
ATOM      7  C   UNL     1      19.403  11.594  32.235  1.00  0.00     0.075 C 
ATOM      8  O   UNL     1      20.376  10.861  31.916  1.00  0.00    -0.545 OA
ATOM      9  O   UNL     1      18.287  11.628  31.407  1.00  0.00    -0.545 OA
ENDBRANCH   1   7
BRANCH   2  10
ATOM     10  O   UNL     1      21.669  13.286  33.170  1.00  0.00    -0.507 OA
ATOM     11  H   UNL     1      21.654  13.683  32.241  1.00  0.00     0.293 HD
ENDBRANCH   2  10
TORSDOF 2
ENDMDL
MODEL 3
REMARK VINA RESULT:    -4.265     11.861     12.648
REMARK INTER + INTRA:          -4.883
REMARK INTER:                  -4.685
REMARK INTRA:                  -0.198
REMARK UNBOUND:                -0.245
REMARK SMILES O=C([O-])c1ccccc1O
REMARK SMILES IDX 4 1 9 2 5 3 8 4 6 5 7 6 2 7 1 8 3 9 10 10
REMARK H PARENT 10 11
REMARK Flexibility Score: inf
ROOT
ATOM      1  C   UNL     1      19.073  13.030  33.801  1.00  0.00     0.039 A 
ATOM      2  C   UNL     1      19.498  12.494  32.557  1.00  0.00     0.124 A 
ATOM      3  C   UNL     1      17.694  13.137  34.060  1.00  0.00     0.014 A 
ATOM      4  C   UNL     1      18.543  12.143  31.593  1.00  0.00     0.047 A 
ATOM      5  C   UNL     1      16.757  12.763  33.096  1.00  0.00     0.001 A 
ATOM      6  C   UNL     1      17.180  12.276  31.861  1.00  0.00     0.004 A 
ENDROOT
BRANCH   1   7
ATOM      7  C   UNL     1      20.019  13.515  34.830  1.00  0.00     0.075 C 
ATOM      8  O   UNL     1      19.609  13.897  35.957  1.00  0.00    -0.545 OA
ATOM      9  O   UNL     1      21.387  13.487  34.586  1.00  0.00    -0.545 OA
ENDBRANCH   1   7
BRANCH   2  10
ATOM     10  O   UNL     1      20.841  12.264  32.254  1.00  0.00    -0.507 OA
ATOM     11  H   UNL     1      21.594  12.389  32.916  1.00  0.00     0.293 HD
ENDBRANCH   2  10
TORSDOF 2
ENDMDL
MODEL 4
REMARK VINA RESULT:    -4.212      5.684      6.740
REMARK INTER + INTRA:          -4.826
REMARK INTER:                  -4.578
REMARK INTRA:                  -0.249
REMARK UNBOUND:                -0.245
REMARK SMILES O=C([O-])c1ccccc1O
REMARK SMILES IDX 4 1 9 2 5 3 8 4 6 5 7 6 2 7 1 8 3 9 10 10
REMARK H PARENT 10 11
REMARK Flexibility Score: inf
ROOT
ATOM      1  C   UNL     1      18.349  24.898  34.310  1.00  0.00     0.039 A 
ATOM      2  C   UNL     1      18.574  23.506  34.137  1.00  0.00     0.124 A 
ATOM      3  C   UNL     1      17.030  25.355  34.488  1.00  0.00     0.014 A 
ATOM      4  C   UNL     1      17.483  22.629  34.085  1.00  0.00     0.047 A 
ATOM      5  C   UNL     1      15.955  24.464  34.454  1.00  0.00     0.001 A 
ATOM      6  C   UNL     1      16.181  23.105  34.243  1.00  0.00     0.004 A 
ENDROOT
BRANCH   1   7
ATOM      7  C   UNL     1      19.439  25.897  34.279  1.00  0.00     0.075 C 
ATOM      8  O   UNL     1      20.365  25.817  33.430  1.00  0.00    -0.545 OA
ATOM      9  O   UNL     1      19.414  26.981  35.148  1.00  0.00    -0.545 OA
ENDBRANCH   1   7
BRANCH   2  10
ATOM     10  O   UNL     1      19.854  22.955  34.050  1.00  0.00    -0.507 OA
ATOM     11  H   UNL     1      20.032  21.972  33.900  1.00  0.00     0.293 HD
ENDBRANCH   2  10
TORSDOF 2
ENDMDL
MODEL 5
REMARK VINA RESULT:    -4.211     10.588     11.679
REMARK INTER + INTRA:          -4.825
REMARK INTER:                  -4.596
REMARK INTRA:                  -0.229
REMARK UNBOUND:                -0.245
REMARK SMILES O=C([O-])c1ccccc1O
REMARK SMILES IDX 4 1 9 2 5 3 8 4 6 5 7 6 2 7 1 8 3 9 10 10
REMARK H PARENT 10 11
REMARK Flexibility Score: inf
ROOT
ATOM      1  C   UNL     1      15.297  13.683  29.437  1.00  0.00     0.039 A 
ATOM      2  C   UNL     1      15.479  12.331  29.830  1.00  0.00     0.124 A 
ATOM      3  C   UNL     1      16.350  14.595  29.634  1.00  0.00     0.014 A 
ATOM      4  C   UNL     1      16.671  11.947  30.457  1.00  0.00     0.047 A 
ATOM      5  C   UNL     1      17.540  14.190  30.243  1.00  0.00     0.001 A 
ATOM      6  C   UNL     1      17.696  12.871  30.663  1.00  0.00     0.004 A 
ENDROOT
BRANCH   1   7
ATOM      7  C   UNL     1      14.032  14.187  28.859  1.00  0.00     0.075 C 
ATOM      8  O   UNL     1      12.960  13.538  28.982  1.00  0.00    -0.545 OA
ATOM      9  O   UNL     1      14.000  15.425  28.228  1.00  0.00    -0.545 OA
ENDBRANCH   1   7
BRANCH   2  10
ATOM     10  O   UNL     1      14.525  11.340  29.586  1.00  0.00    -0.507 OA
ATOM     11  H   UNL     1      13.688  11.491  29.040  1.00  0.00     0.293 HD
ENDBRANCH   2  10
TORSDOF 2
ENDMDL
MODEL 6
REMARK VINA RESULT:    -4.203      1.961      3.513
REMARK INTER + INTRA:          -4.816
REMARK INTER:                  -4.585
REMARK INTRA:                  -0.230
REMARK UNBOUND:                -0.245
REMARK SMILES O=C([O-])c1ccccc1O
REMARK SMILES IDX 4 1 9 2 5 3 8 4 6 5 7 6 2 7 1 8 3 9 10 10
REMARK H PARENT 10 11
REMARK Flexibility Score: inf
ROOT
ATOM      1  C   UNL     1      12.310  22.221  34.613  1.00  0.00     0.039 A 
ATOM      2  C   UNL     1      12.102  23.356  35.440  1.00  0.00     0.124 A 
ATOM      3  C   UNL     1      13.503  21.487  34.754  1.00  0.00     0.014 A 
ATOM      4  C   UNL     1      13.107  23.758  36.330  1.00  0.00     0.047 A 
ATOM      5  C   UNL     1      14.485  21.890  35.661  1.00  0.00     0.001 A 
ATOM      6  C   UNL     1      14.292  23.029  36.440  1.00  0.00     0.004 A 
ENDROOT
BRANCH   1   7
ATOM      7  C   UNL     1      11.340  21.791  33.582  1.00  0.00     0.075 C 
ATOM      8  O   UNL     1      10.884  20.618  33.573  1.00  0.00    -0.545 OA
ATOM      9  O   UNL     1      10.868  22.705  32.648  1.00  0.00    -0.545 OA
ENDBRANCH   1   7
BRANCH   2  10
ATOM     10  O   UNL     1      10.911  24.085  35.434  1.00  0.00    -0.507 OA
ATOM     11  H   UNL     1      10.514  24.503  34.605  1.00  0.00     0.293 HD
ENDBRANCH   2  10
TORSDOF 2
ENDMDL
MODEL 7
REMARK VINA RESULT:    -4.200     11.435     12.209
REMARK INTER + INTRA:          -4.813
REMARK INTER:                  -4.563
REMARK INTRA:                  -0.251
REMARK UNBOUND:                -0.245
REMARK SMILES O=C([O-])c1ccccc1O
REMARK SMILES IDX 4 1 9 2 5 3 8 4 6 5 7 6 2 7 1 8 3 9 10 10
REMARK H PARENT 10 11
REMARK Flexibility Score: inf
ROOT
ATOM      1  C   UNL     1      16.665  13.843  28.259  1.00  0.00     0.039 A 
ATOM      2  C   UNL     1      16.018  14.573  27.227  1.00  0.00     0.124 A 
ATOM      3  C   UNL     1      17.387  12.684  27.921  1.00  0.00     0.014 A 
ATOM      4  C   UNL     1      16.058  14.095  25.911  1.00  0.00     0.047 A 
ATOM      5  C   UNL     1      17.434  12.233  26.600  1.00  0.00     0.001 A 
ATOM      6  C   UNL     1      16.762  12.932  25.599  1.00  0.00     0.004 A 
ENDROOT
BRANCH   1   7
ATOM      7  C   UNL     1      16.586  14.229  29.685  1.00  0.00     0.075 C 
ATOM      8  O   UNL     1      17.618  14.255  30.406  1.00  0.00    -0.545 OA
ATOM      9  O   UNL     1      15.374  14.636  30.230  1.00  0.00    -0.545 OA
ENDBRANCH   1   7
BRANCH   2  10
ATOM     10  O   UNL     1      15.361  15.784  27.458  1.00  0.00    -0.507 OA
ATOM     11  H   UNL     1      15.354  16.255  28.352  1.00  0.00     0.293 HD
ENDBRANCH   2  10
TORSDOF 2
ENDMDL
MODEL 8
REMARK VINA RESULT:    -4.172      2.034      2.150
REMARK INTER + INTRA:          -4.783
REMARK INTER:                  -4.541
REMARK INTRA:                  -0.242
REMARK UNBOUND:                -0.245
REMARK SMILES O=C([O-])c1ccccc1O
REMARK SMILES IDX 4 1 9 2 5 3 8 4 6 5 7 6 2 7 1 8 3 9 10 10
REMARK H PARENT 10 11
REMARK Flexibility Score: inf
ROOT
ATOM      1  C   UNL     1      12.583  22.724  35.756  1.00  0.00     0.039 A 
ATOM      2  C   UNL     1      12.863  22.148  34.489  1.00  0.00     0.124 A 
ATOM      3  C   UNL     1      11.326  22.491  36.345  1.00  0.00     0.014 A 
ATOM      4  C   UNL     1      11.869  21.416  33.826  1.00  0.00     0.047 A 
ATOM      5  C   UNL     1      10.354  21.742  35.679  1.00  0.00     0.001 A 
ATOM      6  C   UNL     1      10.622  21.214  34.417  1.00  0.00     0.004 A 
ENDROOT
BRANCH   1   7
ATOM      7  C   UNL     1      13.544  23.589  36.475  1.00  0.00     0.075 C 
ATOM      8  O   UNL     1      14.724  23.206  36.689  1.00  0.00    -0.545 OA
ATOM      9  O   UNL     1      13.172  24.870  36.862  1.00  0.00    -0.545 OA
ENDBRANCH   1   7
BRANCH   2  10
ATOM     10  O   UNL     1      14.114  22.248  33.876  1.00  0.00    -0.507 OA
ATOM     11  H   UNL     1      14.734  21.462  33.738  1.00  0.00     0.293 HD
ENDBRANCH   2  10
TORSDOF 2
ENDMDL
MODEL 9
REMARK VINA RESULT:    -4.141     12.113     13.088
REMARK INTER + INTRA:          -4.749
REMARK INTER:                  -4.524
REMARK INTRA:                  -0.224
REMARK UNBOUND:                -0.245
REMARK SMILES O=C([O-])c1ccccc1O
REMARK SMILES IDX 4 1 9 2 5 3 8 4 6 5 7 6 2 7 1 8 3 9 10 10
REMARK H PARENT 10 11
REMARK Flexibility Score: inf
ROOT
ATOM      1  C   UNL     1      18.121  11.963  34.235  1.00  0.00     0.039 A 
ATOM      2  C   UNL     1      18.315  12.095  35.635  1.00  0.00     0.124 A 
ATOM      3  C   UNL     1      17.902  10.680  33.698  1.00  0.00     0.014 A 
ATOM      4  C   UNL     1      18.346  10.950  36.442  1.00  0.00     0.047 A 
ATOM      5  C   UNL     1      17.915   9.552  34.520  1.00  0.00     0.001 A 
ATOM      6  C   UNL     1      18.147   9.685  35.887  1.00  0.00     0.004 A 
ENDROOT
BRANCH   1   7
ATOM      7  C   UNL     1      18.173  13.112  33.305  1.00  0.00     0.075 C 
ATOM      8  O   UNL     1      18.653  14.218  33.670  1.00  0.00    -0.545 OA
ATOM      9  O   UNL     1      17.753  12.962  31.989  1.00  0.00    -0.545 OA
ENDBRANCH   1   7
BRANCH   2  10
ATOM     10  O   UNL     1      18.444  13.336  36.264  1.00  0.00    -0.507 OA
ATOM     11  H   UNL     1      19.290  13.646  36.722  1.00  0.00     0.293 HD
ENDBRANCH   2  10
TORSDOF 2
ENDMDL
