MODEL 1
REMARK VINA RESULT:    -4.759      0.000      0.000
REMARK INTER + INTRA:          -6.246
REMARK INTER:                  -5.872
REMARK INTRA:                  -0.374
REMARK UNBOUND:                -0.374
REMARK SMILES COC(=O)c1ccccc1C(=O)OC
REMARK SMILES IDX 5 1 6 2 7 3 8 4 9 5 10 6 3 7 4 8 2 9 1 10 11 11 12 12 13 13
REMARK SMILES IDX 14 14
REMARK H PARENT
REMARK Flexibility Score: inf
ROOT
ATOM      1  C   UNL     1      29.548  27.941  -5.595  1.00  0.00     0.074 A 
ATOM      2  C   UNL     1      28.543  28.630  -6.299  1.00  0.00     0.016 A 
ATOM      3  C   UNL     1      28.156  29.914  -5.917  1.00  0.00     0.001 A 
ATOM      4  C   UNL     1      28.766  30.533  -4.828  1.00  0.00     0.001 A 
ATOM      5  C   UNL     1      29.750  29.860  -4.102  1.00  0.00     0.016 A 
ATOM      6  C   UNL     1      30.140  28.555  -4.456  1.00  0.00     0.074 A 
ENDROOT
BRANCH   1   7
ATOM      7  C   UNL     1      29.999  26.632  -6.118  1.00  0.00     0.338 C 
ATOM      8  O   UNL     1      30.696  26.583  -7.170  1.00  0.00    -0.246 OA
BRANCH   7   9
ATOM      9  O   UNL     1      29.701  25.457  -5.419  1.00  0.00    -0.465 OA
ATOM     10  C   UNL     1      30.675  24.454  -5.153  1.00  0.00     0.282 C 
ENDBRANCH   7   9
ENDBRANCH   1   7
BRANCH   6  11
ATOM     11  C   UNL     1      31.105  27.859  -3.576  1.00  0.00     0.338 C 
ATOM     12  O   UNL     1      30.699  27.019  -2.726  1.00  0.00    -0.246 OA
BRANCH  11  13
ATOM     13  O   UNL     1      32.464  28.180  -3.653  1.00  0.00    -0.465 OA
ATOM     14  C   UNL     1      33.207  28.086  -4.862  1.00  0.00     0.282 C 
ENDBRANCH  11  13
ENDBRANCH   6  11
TORSDOF 4
ENDMDL
MODEL 2
REMARK VINA RESULT:    -4.750      0.055      3.359
REMARK INTER + INTRA:          -6.235
REMARK INTER:                  -5.882
REMARK INTRA:                  -0.353
REMARK UNBOUND:                -0.374
REMARK SMILES COC(=O)c1ccccc1C(=O)OC
REMARK SMILES IDX 5 1 6 2 7 3 8 4 9 5 10 6 3 7 4 8 2 9 1 10 11 11 12 12 13 13
REMARK SMILES IDX 14 14
REMARK H PARENT
REMARK Flexibility Score: inf
ROOT
ATOM      1  C   UNL     1      30.162  28.593  -4.424  1.00  0.00     0.074 A 
ATOM      2  C   UNL     1      29.737  29.891  -4.087  1.00  0.00     0.016 A 
ATOM      3  C   UNL     1      28.742  30.531  -4.826  1.00  0.00     0.001 A 
ATOM      4  C   UNL     1      28.154  29.885  -5.911  1.00  0.00     0.001 A 
ATOM      5  C   UNL     1      28.574  28.606  -6.276  1.00  0.00     0.016 A 
ATOM      6  C   UNL     1      29.593  27.951  -5.559  1.00  0.00     0.074 A 
ENDROOT
BRANCH   1   7
ATOM      7  C   UNL     1      31.136  27.921  -3.533  1.00  0.00     0.338 C 
ATOM      8  O   UNL     1      30.739  27.034  -2.727  1.00  0.00    -0.246 OA
BRANCH   7   9
ATOM      9  O   UNL     1      32.497  28.227  -3.625  1.00  0.00    -0.465 OA
ATOM     10  C   UNL     1      33.224  28.140  -4.845  1.00  0.00     0.282 C 
ENDBRANCH   7   9
ENDBRANCH   1   7
BRANCH   6  11
ATOM     11  C   UNL     1      30.069  26.645  -6.068  1.00  0.00     0.338 C 
ATOM     12  O   UNL     1      30.738  26.585  -7.137  1.00  0.00    -0.246 OA
BRANCH  11  13
ATOM     13  O   UNL     1      29.724  25.473  -5.389  1.00  0.00    -0.465 OA
ATOM     14  C   UNL     1      30.668  24.449  -5.097  1.00  0.00     0.282 C 
ENDBRANCH  11  13
ENDBRANCH   6  11
TORSDOF 4
ENDMDL
MODEL 3
REMARK VINA RESULT:    -4.638      0.687      3.211
REMARK INTER + INTRA:          -6.097
REMARK INTER:                  -5.766
REMARK INTRA:                  -0.331
REMARK UNBOUND:                -0.374
REMARK SMILES COC(=O)c1ccccc1C(=O)OC
REMARK SMILES IDX 5 1 6 2 7 3 8 4 9 5 10 6 3 7 4 8 2 9 1 10 11 11 12 12 13 13
REMARK SMILES IDX 14 14
REMARK H PARENT
REMARK Flexibility Score: inf
ROOT
ATOM      1  C   UNL     1      30.189  28.515  -4.409  1.00  0.00     0.074 A 
ATOM      2  C   UNL     1      29.779  29.813  -4.049  1.00  0.00     0.016 A 
ATOM      3  C   UNL     1      28.794  30.477  -4.779  1.00  0.00     0.001 A 
ATOM      4  C   UNL     1      28.200  29.858  -5.877  1.00  0.00     0.001 A 
ATOM      5  C   UNL     1      28.606  28.581  -6.264  1.00  0.00     0.016 A 
ATOM      6  C   UNL     1      29.614  27.901  -5.556  1.00  0.00     0.074 A 
ENDROOT
BRANCH   1   7
ATOM      7  C   UNL     1      31.152  27.815  -3.528  1.00  0.00     0.338 C 
ATOM      8  O   UNL     1      32.377  28.113  -3.577  1.00  0.00    -0.246 OA
BRANCH   7   9
ATOM      9  O   UNL     1      30.696  26.868  -2.604  1.00  0.00    -0.465 OA
ATOM     10  C   UNL     1      31.574  26.137  -1.757  1.00  0.00     0.282 C 
ENDBRANCH   7   9
ENDBRANCH   1   7
BRANCH   6  11
ATOM     11  C   UNL     1      30.076  26.599  -6.088  1.00  0.00     0.338 C 
ATOM     12  O   UNL     1      30.727  26.547  -7.168  1.00  0.00    -0.246 OA
BRANCH  11  13
ATOM     13  O   UNL     1      29.736  25.420  -5.416  1.00  0.00    -0.465 OA
ATOM     14  C   UNL     1      30.681  24.392  -5.144  1.00  0.00     0.282 C 
ENDBRANCH  11  13
ENDBRANCH   6  11
TORSDOF 4
ENDMDL
MODEL 4
REMARK VINA RESULT:    -4.364      1.883      3.814
REMARK INTER + INTRA:          -5.758
REMARK INTER:                  -5.447
REMARK INTRA:                  -0.311
REMARK UNBOUND:                -0.374
REMARK SMILES COC(=O)c1ccccc1C(=O)OC
REMARK SMILES IDX 5 1 6 2 7 3 8 4 9 5 10 6 3 7 4 8 2 9 1 10 11 11 12 12 13 13
REMARK SMILES IDX 14 14
REMARK H PARENT
REMARK Flexibility Score: inf
ROOT
ATOM      1  C   UNL     1      30.531  26.531  -3.938  1.00  0.00     0.074 A 
ATOM      2  C   UNL     1      31.431  26.683  -2.867  1.00  0.00     0.016 A 
ATOM      3  C   UNL     1      32.527  27.539  -2.971  1.00  0.00     0.001 A 
ATOM      4  C   UNL     1      32.743  28.258  -4.145  1.00  0.00     0.001 A 
ATOM      5  C   UNL     1      31.876  28.106  -5.227  1.00  0.00     0.016 A 
ATOM      6  C   UNL     1      30.777  27.231  -5.152  1.00  0.00     0.074 A 
ENDROOT
BRANCH   1   7
ATOM      7  C   UNL     1      29.323  25.702  -3.727  1.00  0.00     0.338 C 
ATOM      8  O   UNL     1      28.285  26.222  -3.232  1.00  0.00    -0.246 OA
BRANCH   7   9
ATOM      9  O   UNL     1      29.314  24.361  -4.127  1.00  0.00    -0.465 OA
ATOM     10  C   UNL     1      30.490  23.676  -4.542  1.00  0.00     0.282 C 
ENDBRANCH   7   9
ENDBRANCH   1   7
BRANCH   6  11
ATOM     11  C   UNL     1      29.965  27.033  -6.374  1.00  0.00     0.338 C 
ATOM     12  O   UNL     1      30.215  26.074  -7.155  1.00  0.00    -0.246 OA
BRANCH  11  13
ATOM     13  O   UNL     1      28.956  27.949  -6.688  1.00  0.00    -0.465 OA
ATOM     14  C   UNL     1      28.600  29.023  -5.826  1.00  0.00     0.282 C 
ENDBRANCH  11  13
ENDBRANCH   6  11
TORSDOF 4
ENDMDL
MODEL 5
REMARK VINA RESULT:    -4.350      1.838      3.724
REMARK INTER + INTRA:          -5.742
REMARK INTER:                  -5.364
REMARK INTRA:                  -0.377
REMARK UNBOUND:                -0.374
REMARK SMILES COC(=O)c1ccccc1C(=O)OC
REMARK SMILES IDX 5 1 6 2 7 3 8 4 9 5 10 6 3 7 4 8 2 9 1 10 11 11 12 12 13 13
REMARK SMILES IDX 14 14
REMARK H PARENT
REMARK Flexibility Score: inf
ROOT
ATOM      1  C   UNL     1      30.767  27.415  -4.788  1.00  0.00     0.074 A 
ATOM      2  C   UNL     1      31.814  28.355  -4.732  1.00  0.00     0.016 A 
ATOM      3  C   UNL     1      32.665  28.410  -3.628  1.00  0.00     0.001 A 
ATOM      4  C   UNL     1      32.486  27.528  -2.564  1.00  0.00     0.001 A 
ATOM      5  C   UNL     1      31.442  26.603  -2.589  1.00  0.00     0.016 A 
ATOM      6  C   UNL     1      30.558  26.545  -3.682  1.00  0.00     0.074 A 
ENDROOT
BRANCH   1   7
ATOM      7  C   UNL     1      29.972  27.326  -6.034  1.00  0.00     0.338 C 
ATOM      8  O   UNL     1      30.387  26.617  -6.993  1.00  0.00    -0.246 OA
BRANCH   7   9
ATOM      9  O   UNL     1      28.738  27.979  -6.127  1.00  0.00    -0.465 OA
ATOM     10  C   UNL     1      28.625  29.387  -6.297  1.00  0.00     0.282 C 
ENDBRANCH   7   9
ENDBRANCH   1   7
BRANCH   6  11
ATOM     11  C   UNL     1      29.406  25.620  -3.593  1.00  0.00     0.338 C 
ATOM     12  O   UNL     1      28.278  26.042  -3.215  1.00  0.00    -0.246 OA
BRANCH  11  13
ATOM     13  O   UNL     1      29.589  24.262  -3.874  1.00  0.00    -0.465 OA
ATOM     14  C   UNL     1      30.613  23.790  -4.742  1.00  0.00     0.282 C 
ENDBRANCH  11  13
ENDBRANCH   6  11
TORSDOF 4
ENDMDL
MODEL 6
REMARK VINA RESULT:    -4.265      2.180      4.379
REMARK INTER + INTRA:          -5.636
REMARK INTER:                  -5.266
REMARK INTRA:                  -0.370
REMARK UNBOUND:                -0.374
REMARK SMILES COC(=O)c1ccccc1C(=O)OC
REMARK SMILES IDX 5 1 6 2 7 3 8 4 9 5 10 6 3 7 4 8 2 9 1 10 11 11 12 12 13 13
REMARK SMILES IDX 14 14
REMARK H PARENT
REMARK Flexibility Score: inf
ROOT
ATOM      1  C   UNL     1      30.919  26.851  -3.399  1.00  0.00     0.074 A 
ATOM      2  C   UNL     1      31.193  25.886  -2.411  1.00  0.00     0.016 A 
ATOM      3  C   UNL     1      30.198  25.016  -1.968  1.00  0.00     0.001 A 
ATOM      4  C   UNL     1      28.913  25.093  -2.502  1.00  0.00     0.001 A 
ATOM      5  C   UNL     1      28.613  26.055  -3.467  1.00  0.00     0.016 A 
ATOM      6  C   UNL     1      29.596  26.959  -3.913  1.00  0.00     0.074 A 
ENDROOT
BRANCH   1   7
ATOM      7  C   UNL     1      32.043  27.666  -3.914  1.00  0.00     0.338 C 
ATOM      8  O   UNL     1      32.659  27.298  -4.952  1.00  0.00    -0.246 OA
BRANCH   7   9
ATOM      9  O   UNL     1      32.383  28.868  -3.285  1.00  0.00    -0.465 OA
ATOM     10  C   UNL     1      33.704  29.157  -2.844  1.00  0.00     0.282 C 
ENDBRANCH   7   9
ENDBRANCH   1   7
BRANCH   6  11
ATOM     11  C   UNL     1      29.182  28.025  -4.851  1.00  0.00     0.338 C 
ATOM     12  O   UNL     1      28.985  29.200  -4.433  1.00  0.00    -0.246 OA
BRANCH  11  13
ATOM     13  O   UNL     1      28.954  27.711  -6.195  1.00  0.00    -0.465 OA
ATOM     14  C   UNL     1      29.683  26.701  -6.881  1.00  0.00     0.282 C 
ENDBRANCH  11  13
ENDBRANCH   6  11
TORSDOF 4
ENDMDL
MODEL 7
REMARK VINA RESULT:    -4.265      2.190      3.490
REMARK INTER + INTRA:          -5.636
REMARK INTER:                  -5.265
REMARK INTRA:                  -0.371
REMARK UNBOUND:                -0.374
REMARK SMILES COC(=O)c1ccccc1C(=O)OC
REMARK SMILES IDX 5 1 6 2 7 3 8 4 9 5 10 6 3 7 4 8 2 9 1 10 11 11 12 12 13 13
REMARK SMILES IDX 14 14
REMARK H PARENT
REMARK Flexibility Score: inf
ROOT
ATOM      1  C   UNL     1      29.583  26.819  -3.925  1.00  0.00     0.074 A 
ATOM      2  C   UNL     1      28.624  25.905  -3.450  1.00  0.00     0.016 A 
ATOM      3  C   UNL     1      28.930  25.022  -2.415  1.00  0.00     0.001 A 
ATOM      4  C   UNL     1      30.196  25.039  -1.834  1.00  0.00     0.001 A 
ATOM      5  C   UNL     1      31.169  25.923  -2.302  1.00  0.00     0.016 A 
ATOM      6  C   UNL     1      30.889  26.806  -3.361  1.00  0.00     0.074 A 
ENDROOT
BRANCH   1   7
ATOM      7  C   UNL     1      29.164  27.809  -4.943  1.00  0.00     0.338 C 
ATOM      8  O   UNL     1      28.972  29.011  -4.607  1.00  0.00    -0.246 OA
BRANCH   7   9
ATOM      9  O   UNL     1      29.036  27.425  -6.282  1.00  0.00    -0.465 OA
ATOM     10  C   UNL     1      29.918  26.497  -6.903  1.00  0.00     0.282 C 
ENDBRANCH   7   9
ENDBRANCH   1   7
BRANCH   6  11
ATOM     11  C   UNL     1      31.999  27.635  -3.884  1.00  0.00     0.338 C 
ATOM     12  O   UNL     1      32.692  27.230  -4.858  1.00  0.00    -0.246 OA
BRANCH  11  13
ATOM     13  O   UNL     1      32.312  28.844  -3.254  1.00  0.00    -0.465 OA
ATOM     14  C   UNL     1      33.634  29.177  -2.847  1.00  0.00     0.282 C 
ENDBRANCH  11  13
ENDBRANCH   6  11
TORSDOF 4
ENDMDL
MODEL 8
REMARK VINA RESULT:    -4.202      1.896      2.664
REMARK INTER + INTRA:          -5.559
REMARK INTER:                  -5.205
REMARK INTRA:                  -0.355
REMARK UNBOUND:                -0.374
REMARK SMILES COC(=O)c1ccccc1C(=O)OC
REMARK SMILES IDX 5 1 6 2 7 3 8 4 9 5 10 6 3 7 4 8 2 9 1 10 11 11 12 12 13 13
REMARK SMILES IDX 14 14
REMARK H PARENT
REMARK Flexibility Score: inf
ROOT
ATOM      1  C   UNL     1      30.165  26.602  -4.173  1.00  0.00     0.074 A 
ATOM      2  C   UNL     1      28.983  27.144  -4.711  1.00  0.00     0.016 A 
ATOM      3  C   UNL     1      29.026  28.255  -5.553  1.00  0.00     0.001 A 
ATOM      4  C   UNL     1      30.248  28.841  -5.875  1.00  0.00     0.001 A 
ATOM      5  C   UNL     1      31.431  28.333  -5.336  1.00  0.00     0.016 A 
ATOM      6  C   UNL     1      31.409  27.228  -4.466  1.00  0.00     0.074 A 
ENDROOT
BRANCH   1   7
ATOM      7  C   UNL     1      30.067  25.354  -3.382  1.00  0.00     0.338 C 
ATOM      8  O   UNL     1      30.134  25.403  -2.123  1.00  0.00    -0.246 OA
BRANCH   7   9
ATOM      9  O   UNL     1      29.845  24.132  -4.027  1.00  0.00    -0.465 OA
ATOM     10  C   UNL     1      30.815  23.521  -4.870  1.00  0.00     0.282 C 
ENDBRANCH   7   9
ENDBRANCH   1   7
BRANCH   6  11
ATOM     11  C   UNL     1      32.685  26.812  -3.841  1.00  0.00     0.338 C 
ATOM     12  O   UNL     1      33.314  25.811  -4.284  1.00  0.00    -0.246 OA
BRANCH  11  13
ATOM     13  O   UNL     1      33.161  27.501  -2.721  1.00  0.00    -0.465 OA
ATOM     14  C   UNL     1      33.165  26.934  -1.416  1.00  0.00     0.282 C 
ENDBRANCH  11  13
ENDBRANCH   6  11
TORSDOF 4
ENDMDL
MODEL 9
REMARK VINA RESULT:    -4.194      2.006      3.865
REMARK INTER + INTRA:          -5.549
REMARK INTER:                  -5.056
REMARK INTRA:                  -0.493
REMARK UNBOUND:                -0.374
REMARK SMILES COC(=O)c1ccccc1C(=O)OC
REMARK SMILES IDX 5 1 6 2 7 3 8 4 9 5 10 6 3 7 4 8 2 9 1 10 11 11 12 12 13 13
REMARK SMILES IDX 14 14
REMARK H PARENT
REMARK Flexibility Score: inf
ROOT
ATOM      1  C   UNL     1      31.480  26.885  -4.620  1.00  0.00     0.074 A 
ATOM      2  C   UNL     1      31.502  28.183  -5.166  1.00  0.00     0.016 A 
ATOM      3  C   UNL     1      30.469  28.627  -5.991  1.00  0.00     0.001 A 
ATOM      4  C   UNL     1      29.398  27.786  -6.285  1.00  0.00     0.001 A 
ATOM      5  C   UNL     1      29.366  26.489  -5.772  1.00  0.00     0.016 A 
ATOM      6  C   UNL     1      30.408  26.012  -4.955  1.00  0.00     0.074 A 
ENDROOT
BRANCH   1   7
ATOM      7  C   UNL     1      32.541  26.512  -3.657  1.00  0.00     0.338 C 
ATOM      8  O   UNL     1      32.394  26.772  -2.431  1.00  0.00    -0.246 OA
BRANCH   7   9
ATOM      9  O   UNL     1      33.677  25.824  -4.098  1.00  0.00    -0.465 OA
ATOM     10  C   UNL     1      33.983  24.500  -3.677  1.00  0.00     0.282 C 
ENDBRANCH   7   9
ENDBRANCH   1   7
BRANCH   6  11
ATOM     11  C   UNL     1      30.368  24.592  -4.540  1.00  0.00     0.338 C 
ATOM     12  O   UNL     1      30.876  23.699  -5.273  1.00  0.00    -0.246 OA
BRANCH  11  13
ATOM     13  O   UNL     1      29.711  24.238  -3.357  1.00  0.00    -0.465 OA
ATOM     14  C   UNL     1      30.406  23.809  -2.192  1.00  0.00     0.282 C 
ENDBRANCH  11  13
ENDBRANCH   6  11
TORSDOF 4
ENDMDL
