MODEL 1
REMARK VINA RESULT:    -3.551      0.000      0.000
REMARK INTER + INTRA:          -4.866
REMARK INTER:                  -4.590
REMARK INTRA:                  -0.277
REMARK UNBOUND:                -0.277
REMARK SMILES CCCCCCC(=O)[O-]
REMARK SMILES IDX 5 1 6 2 7 3 8 4 9 5 4 6 3 7 2 8 1 9
REMARK H PARENT
REMARK Flexibility Score: inf
ROOT
ATOM      1  C   UNL     1     -17.546  35.006 -20.173  1.00  0.00     0.006 C 
ENDROOT
BRANCH   1   2
ATOM      2  C   UNL     1     -18.146  34.611 -18.815  1.00  0.00     0.053 C 
BRANCH   2   3
ATOM      3  C   UNL     1     -19.641  34.539 -18.862  1.00  0.00     0.041 C 
ATOM      4  O   UNL     1     -20.212  33.697 -19.606  1.00  0.00    -0.550 OA
ATOM      5  O   UNL     1     -20.403  35.377 -18.059  1.00  0.00    -0.550 OA
ENDBRANCH   2   3
ENDBRANCH   1   2
BRANCH   1   6
ATOM      6  C   UNL     1     -16.262  34.240 -20.544  1.00  0.00     0.000 C 
BRANCH   6   7
ATOM      7  C   UNL     1     -15.593  33.578 -19.326  1.00  0.00    -0.000 C 
BRANCH   7   8
ATOM      8  C   UNL     1     -14.340  34.334 -18.862  1.00  0.00    -0.003 C 
ATOM      9  C   UNL     1     -14.642  35.364 -17.773  1.00  0.00     0.004 C 
ENDBRANCH   7   8
ENDBRANCH   6   7
ENDBRANCH   1   6
TORSDOF 5
ENDMDL
MODEL 2
REMARK VINA RESULT:    -3.546      1.150      1.661
REMARK INTER + INTRA:          -4.860
REMARK INTER:                  -4.475
REMARK INTRA:                  -0.385
REMARK UNBOUND:                -0.277
REMARK SMILES CCCCCCC(=O)[O-]
REMARK SMILES IDX 5 1 6 2 7 3 8 4 9 5 4 6 3 7 2 8 1 9
REMARK H PARENT
REMARK Flexibility Score: inf
ROOT
ATOM      1  C   UNL     1     -17.686  36.036 -20.473  1.00  0.00     0.006 C 
ENDROOT
BRANCH   1   2
ATOM      2  C   UNL     1     -19.004  36.066 -19.684  1.00  0.00     0.053 C 
BRANCH   2   3
ATOM      3  C   UNL     1     -19.076  34.965 -18.671  1.00  0.00     0.041 C 
ATOM      4  O   UNL     1     -18.375  35.019 -17.625  1.00  0.00    -0.550 OA
ATOM      5  O   UNL     1     -19.941  33.897 -18.866  1.00  0.00    -0.550 OA
ENDBRANCH   2   3
ENDBRANCH   1   2
BRANCH   1   6
ATOM      6  C   UNL     1     -17.319  34.651 -21.038  1.00  0.00     0.000 C 
BRANCH   6   7
ATOM      7  C   UNL     1     -15.849  34.275 -20.782  1.00  0.00    -0.000 C 
BRANCH   7   8
ATOM      8  C   UNL     1     -15.618  33.741 -19.361  1.00  0.00    -0.003 C 
ATOM      9  C   UNL     1     -14.821  34.710 -18.488  1.00  0.00     0.004 C 
ENDBRANCH   7   8
ENDBRANCH   6   7
ENDBRANCH   1   6
TORSDOF 5
ENDMDL
MODEL 3
REMARK VINA RESULT:    -3.504      2.662      4.383
REMARK INTER + INTRA:          -4.805
REMARK INTER:                  -4.602
REMARK INTRA:                  -0.203
REMARK UNBOUND:                -0.277
REMARK SMILES CCCCCCC(=O)[O-]
REMARK SMILES IDX 5 1 6 2 7 3 8 4 9 5 4 6 3 7 2 8 1 9
REMARK H PARENT
REMARK Flexibility Score: inf
ROOT
ATOM      1  C   UNL     1     -16.614  33.700 -19.482  1.00  0.00     0.006 C 
ENDROOT
BRANCH   1   2
ATOM      2  C   UNL     1     -15.192  34.157 -19.121  1.00  0.00     0.053 C 
BRANCH   2   3
ATOM      3  C   UNL     1     -15.197  35.228 -18.074  1.00  0.00     0.041 C 
ATOM      4  O   UNL     1     -16.082  36.124 -18.086  1.00  0.00    -0.550 OA
ATOM      5  O   UNL     1     -14.243  35.216 -17.063  1.00  0.00    -0.550 OA
ENDBRANCH   2   3
ENDBRANCH   1   2
BRANCH   1   6
ATOM      6  C   UNL     1     -17.240  34.459 -20.668  1.00  0.00     0.000 C 
BRANCH   6   7
ATOM      7  C   UNL     1     -18.708  34.848 -20.416  1.00  0.00    -0.000 C 
BRANCH   7   8
ATOM      8  C   UNL     1     -19.167  34.511 -18.990  1.00  0.00    -0.003 C 
ATOM      9  C   UNL     1     -20.630  34.071 -18.930  1.00  0.00     0.004 C 
ENDBRANCH   7   8
ENDBRANCH   6   7
ENDBRANCH   1   6
TORSDOF 5
ENDMDL
MODEL 4
REMARK VINA RESULT:    -3.041      1.341      2.049
REMARK INTER + INTRA:          -4.206
REMARK INTER:                  -4.031
REMARK INTRA:                  -0.176
REMARK UNBOUND:                -0.277
REMARK SMILES CCCCCCC(=O)[O-]
REMARK SMILES IDX 5 1 6 2 7 3 8 4 9 5 4 6 3 7 2 8 1 9
REMARK H PARENT
REMARK Flexibility Score: inf
ROOT
ATOM      1  C   UNL     1     -18.675  34.985 -18.148  1.00  0.00     0.006 C 
ENDROOT
BRANCH   1   2
ATOM      2  C   UNL     1     -20.053  35.426 -18.665  1.00  0.00     0.053 C 
BRANCH   2   3
ATOM      3  C   UNL     1     -20.692  34.377 -19.522  1.00  0.00     0.041 C 
ATOM      4  O   UNL     1     -20.825  34.564 -20.761  1.00  0.00    -0.550 OA
ATOM      5  O   UNL     1     -21.109  33.178 -18.959  1.00  0.00    -0.550 OA
ENDBRANCH   2   3
ENDBRANCH   1   2
BRANCH   1   6
ATOM      6  C   UNL     1     -17.533  35.157 -19.167  1.00  0.00     0.000 C 
BRANCH   6   7
ATOM      7  C   UNL     1     -16.191  35.508 -18.500  1.00  0.00    -0.000 C 
BRANCH   7   8
ATOM      8  C   UNL     1     -15.060  34.556 -18.919  1.00  0.00    -0.003 C 
ATOM      9  C   UNL     1     -15.578  33.201 -19.399  1.00  0.00     0.004 C 
ENDBRANCH   7   8
ENDBRANCH   6   7
ENDBRANCH   1   6
TORSDOF 5
ENDMDL
MODEL 5
REMARK VINA RESULT:    -2.864      2.955      5.063
REMARK INTER + INTRA:          -3.978
REMARK INTER:                  -3.800
REMARK INTRA:                  -0.177
REMARK UNBOUND:                -0.277
REMARK SMILES CCCCCCC(=O)[O-]
REMARK SMILES IDX 5 1 6 2 7 3 8 4 9 5 4 6 3 7 2 8 1 9
REMARK H PARENT
REMARK Flexibility Score: inf
ROOT
ATOM      1  C   UNL     1     -17.769  34.626 -18.556  1.00  0.00     0.006 C 
ENDROOT
BRANCH   1   2
ATOM      2  C   UNL     1     -16.585  35.561 -18.845  1.00  0.00     0.053 C 
BRANCH   2   3
ATOM      3  C   UNL     1     -15.278  34.953 -18.437  1.00  0.00     0.041 C 
ATOM      4  O   UNL     1     -14.678  35.369 -17.410  1.00  0.00    -0.550 OA
ATOM      5  O   UNL     1     -14.740  33.903 -19.171  1.00  0.00    -0.550 OA
ENDBRANCH   2   3
ENDBRANCH   1   2
BRANCH   1   6
ATOM      6  C   UNL     1     -18.944  35.301 -17.823  1.00  0.00     0.000 C 
BRANCH   6   7
ATOM      7  C   UNL     1     -20.145  35.568 -18.747  1.00  0.00    -0.000 C 
BRANCH   7   8
ATOM      8  C   UNL     1     -20.596  34.309 -19.502  1.00  0.00    -0.003 C 
ATOM      9  C   UNL     1     -21.007  34.602 -20.945  1.00  0.00     0.004 C 
ENDBRANCH   7   8
ENDBRANCH   6   7
ENDBRANCH   1   6
TORSDOF 5
ENDMDL
MODEL 6
REMARK VINA RESULT:    -1.444     25.037     25.959
REMARK INTER + INTRA:          -2.143
REMARK INTER:                  -2.027
REMARK INTRA:                  -0.115
REMARK UNBOUND:                -0.277
REMARK SMILES CCCCCCC(=O)[O-]
REMARK SMILES IDX 5 1 6 2 7 3 8 4 9 5 4 6 3 7 2 8 1 9
REMARK H PARENT
REMARK Flexibility Score: inf
ROOT
ATOM      1  C   UNL     1      -7.916  20.204  -2.046  1.00  0.00     0.006 C 
ENDROOT
BRANCH   1   2
ATOM      2  C   UNL     1      -7.236  20.930  -0.875  1.00  0.00     0.053 C 
BRANCH   2   3
ATOM      3  C   UNL     1      -5.742  20.854  -0.960  1.00  0.00     0.041 C 
ATOM      4  O   UNL     1      -5.171  19.738  -1.085  1.00  0.00    -0.550 OA
ATOM      5  O   UNL     1      -4.984  22.017  -0.936  1.00  0.00    -0.550 OA
ENDBRANCH   2   3
ENDBRANCH   1   2
BRANCH   1   6
ATOM      6  C   UNL     1      -9.044  19.243  -1.625  1.00  0.00     0.000 C 
BRANCH   6   7
ATOM      7  C   UNL     1      -8.520  18.005  -0.875  1.00  0.00    -0.000 C 
BRANCH   7   8
ATOM      8  C   UNL     1      -7.275  17.399  -1.541  1.00  0.00    -0.003 C 
ATOM      9  C   UNL     1      -6.847  16.080  -0.898  1.00  0.00     0.004 C 
ENDBRANCH   7   8
ENDBRANCH   6   7
ENDBRANCH   1   6
TORSDOF 5
ENDMDL
MODEL 7
REMARK VINA RESULT:    -1.434     24.817     25.739
REMARK INTER + INTRA:          -2.130
REMARK INTER:                  -2.511
REMARK INTRA:                   0.381
REMARK UNBOUND:                -0.277
REMARK SMILES CCCCCCC(=O)[O-]
REMARK SMILES IDX 5 1 6 2 7 3 8 4 9 5 4 6 3 7 2 8 1 9
REMARK H PARENT
REMARK Flexibility Score: inf
ROOT
ATOM      1  C   UNL     1      -6.412  20.041  -1.830  1.00  0.00     0.006 C 
ENDROOT
BRANCH   1   2
ATOM      2  C   UNL     1      -7.693  20.283  -1.016  1.00  0.00     0.053 C 
BRANCH   2   3
ATOM      3  C   UNL     1      -8.923  19.912  -1.786  1.00  0.00     0.041 C 
ATOM      4  O   UNL     1      -9.520  18.830  -1.544  1.00  0.00    -0.550 OA
ATOM      5  O   UNL     1      -9.431  20.779  -2.746  1.00  0.00    -0.550 OA
ENDBRANCH   2   3
ENDBRANCH   1   2
BRANCH   1   6
ATOM      6  C   UNL     1      -5.228  19.507  -1.001  1.00  0.00     0.000 C 
BRANCH   6   7
ATOM      7  C   UNL     1      -5.236  17.973  -0.875  1.00  0.00    -0.000 C 
BRANCH   7   8
ATOM      8  C   UNL     1      -6.652  17.384  -0.962  1.00  0.00    -0.003 C 
ATOM      9  C   UNL     1      -6.649  15.875  -1.210  1.00  0.00     0.004 C 
ENDBRANCH   7   8
ENDBRANCH   6   7
ENDBRANCH   1   6
TORSDOF 5
ENDMDL
MODEL 8
REMARK VINA RESULT:    -1.278     24.150     25.161
REMARK INTER + INTRA:          -1.928
REMARK INTER:                  -1.924
REMARK INTRA:                  -0.005
REMARK UNBOUND:                -0.277
REMARK SMILES CCCCCCC(=O)[O-]
REMARK SMILES IDX 5 1 6 2 7 3 8 4 9 5 4 6 3 7 2 8 1 9
REMARK H PARENT
REMARK Flexibility Score: inf
ROOT
ATOM      1  C   UNL     1      -7.095  18.251  -1.059  1.00  0.00     0.006 C 
ENDROOT
BRANCH   1   2
ATOM      2  C   UNL     1      -5.680  18.849  -1.032  1.00  0.00     0.053 C 
BRANCH   2   3
ATOM      3  C   UNL     1      -5.651  20.247  -1.569  1.00  0.00     0.041 C 
ATOM      4  O   UNL     1      -5.149  21.178  -0.886  1.00  0.00    -0.550 OA
ATOM      5  O   UNL     1      -6.149  20.514  -2.838  1.00  0.00    -0.550 OA
ENDBRANCH   2   3
ENDBRANCH   1   2
BRANCH   1   6
ATOM      6  C   UNL     1      -8.221  19.285  -0.876  1.00  0.00     0.000 C 
BRANCH   6   7
ATOM      7  C   UNL     1      -9.293  19.197  -1.977  1.00  0.00    -0.000 C 
BRANCH   7   8
ATOM      8  C   UNL     1      -9.542  20.548  -2.663  1.00  0.00    -0.003 C 
ATOM      9  C   UNL     1     -10.696  20.497  -3.665  1.00  0.00     0.004 C 
ENDBRANCH   7   8
ENDBRANCH   6   7
ENDBRANCH   1   6
TORSDOF 5
ENDMDL
MODEL 9
REMARK VINA RESULT:    -1.202     24.969     25.975
REMARK INTER + INTRA:          -1.830
REMARK INTER:                  -1.704
REMARK INTRA:                  -0.126
REMARK UNBOUND:                -0.277
REMARK SMILES CCCCCCC(=O)[O-]
REMARK SMILES IDX 5 1 6 2 7 3 8 4 9 5 4 6 3 7 2 8 1 9
REMARK H PARENT
REMARK Flexibility Score: inf
ROOT
ATOM      1  C   UNL     1      -6.576  19.493  -1.856  1.00  0.00     0.006 C 
ENDROOT
BRANCH   1   2
ATOM      2  C   UNL     1      -5.395  19.141  -0.938  1.00  0.00     0.053 C 
BRANCH   2   3
ATOM      3  C   UNL     1      -5.120  17.669  -0.918  1.00  0.00     0.041 C 
ATOM      4  O   UNL     1      -3.934  17.246  -0.875  1.00  0.00    -0.550 OA
ATOM      5  O   UNL     1      -6.174  16.764  -0.913  1.00  0.00    -0.550 OA
ENDBRANCH   2   3
ENDBRANCH   1   2
BRANCH   1   6
ATOM      6  C   UNL     1      -7.862  19.890  -1.107  1.00  0.00     0.000 C 
BRANCH   6   7
ATOM      7  C   UNL     1      -9.139  19.525  -1.885  1.00  0.00    -0.000 C 
BRANCH   7   8
ATOM      8  C   UNL     1      -9.580  20.639  -2.845  1.00  0.00    -0.003 C 
ATOM      9  C   UNL     1     -10.952  20.374  -3.465  1.00  0.00     0.004 C 
ENDBRANCH   7   8
ENDBRANCH   6   7
ENDBRANCH   1   6
TORSDOF 5
ENDMDL
