MODEL 1
REMARK VINA RESULT:     0.000      0.000      0.000
REMARK INTER + INTRA:          -5.094
REMARK INTER:                   0.000
REMARK INTRA:                  -5.094
REMARK UNBOUND:                -5.094
REMARK SMILES CCCCCCCCCCCCCCCCCCCCCC(=O)[O-]
REMARK SMILES IDX 12 1 11 2 10 3 9 4 8 5 7 6 6 7 5 8 4 9 3 10 2 11 1 12 13 13
REMARK SMILES IDX 14 14 15 15 16 16 17 17 18 18 19 19 20 20 21 21 22 22 23 23
REMARK SMILES IDX 24 24
REMARK H PARENT
REMARK Flexibility Score: inf
ROOT
ATOM      1  C   UNL     1     168.123 186.268 186.695  1.00  0.00     0.000 C 
ENDROOT
BRANCH   1   2
ATOM      2  C   UNL     1     168.564 187.738 186.577  1.00  0.00     0.000 C 
BRANCH   2   3
ATOM      3  C   UNL     1     169.225 188.265 187.863  1.00  0.00     0.000 C 
BRANCH   3   4
ATOM      4  C   UNL     1     169.770 189.704 187.769  1.00  0.00    -0.000 C 
BRANCH   4   5
ATOM      5  C   UNL     1     170.269 190.127 186.371  1.00  0.00    -0.000 C 
BRANCH   5   6
ATOM      6  C   UNL     1     169.454 191.250 185.703  1.00  0.00    -0.000 C 
BRANCH   6   7
ATOM      7  C   UNL     1     168.085 191.463 186.366  1.00  0.00    -0.000 C 
BRANCH   7   8
ATOM      8  C   UNL     1     166.952 190.939 185.475  1.00  0.00    -0.000 C 
BRANCH   8   9
ATOM      9  C   UNL     1     165.867 190.255 186.320  1.00  0.00    -0.000 C 
BRANCH   9  10
ATOM     10  C   UNL     1     166.096 190.416 187.832  1.00  0.00    -0.000 C 
BRANCH  10  11
ATOM     11  C   UNL     1     165.729 189.157 188.646  1.00  0.00    -0.003 C 
ATOM     12  C   UNL     1     165.004 188.113 187.799  1.00  0.00     0.004 C 
ENDBRANCH  10  11
ENDBRANCH   9  10
ENDBRANCH   8   9
ENDBRANCH   7   8
ENDBRANCH   6   7
ENDBRANCH   5   6
ENDBRANCH   4   5
ENDBRANCH   3   4
ENDBRANCH   2   3
ENDBRANCH   1   2
BRANCH   1  13
ATOM     13  C   UNL     1     167.245 185.823 185.514  1.00  0.00     0.000 C 
BRANCH  13  14
ATOM     14  C   UNL     1     166.736 187.014 184.683  1.00  0.00     0.000 C 
BRANCH  14  15
ATOM     15  C   UNL     1     166.578 186.668 183.195  1.00  0.00     0.000 C 
BRANCH  15  16
ATOM     16  C   UNL     1     167.591 187.411 182.307  1.00  0.00     0.000 C 
BRANCH  16  17
ATOM     17  C   UNL     1     168.320 188.545 183.050  1.00  0.00     0.000 C 
BRANCH  17  18
ATOM     18  C   UNL     1     169.851 188.367 183.098  1.00  0.00     0.000 C 
BRANCH  18  19
ATOM     19  C   UNL     1     170.278 186.906 182.860  1.00  0.00     0.000 C 
BRANCH  19  20
ATOM     20  C   UNL     1     170.880 186.247 184.115  1.00  0.00     0.006 C 
BRANCH  20  21
ATOM     21  C   UNL     1     171.888 187.139 184.860  1.00  0.00     0.053 C 
BRANCH  21  22
ATOM     22  C   UNL     1     172.110 186.698 186.274  1.00  0.00     0.041 C 
ATOM     23  O   UNL     1     171.712 185.565 186.657  1.00  0.00    -0.550 OA
ATOM     24  O   UNL     1     172.763 187.537 187.171  1.00  0.00    -0.550 OA
ENDBRANCH  21  22
ENDBRANCH  20  21
ENDBRANCH  19  20
ENDBRANCH  18  19
ENDBRANCH  17  18
ENDBRANCH  16  17
ENDBRANCH  15  16
ENDBRANCH  14  15
ENDBRANCH  13  14
ENDBRANCH   1  13
TORSDOF 20
ENDMDL
MODEL 2
REMARK VINA RESULT:     0.012      4.108      6.215
REMARK INTER + INTRA:          -5.068
REMARK INTER:                   0.000
REMARK INTRA:                  -5.068
REMARK UNBOUND:                -5.094
REMARK SMILES CCCCCCCCCCCCCCCCCCCCCC(=O)[O-]
REMARK SMILES IDX 12 1 11 2 10 3 9 4 8 5 7 6 6 7 5 8 4 9 3 10 2 11 1 12 13 13
REMARK SMILES IDX 14 14 15 15 16 16 17 17 18 18 19 19 20 20 21 21 22 22 23 23
REMARK SMILES IDX 24 24
REMARK H PARENT
REMARK Flexibility Score: inf
ROOT
ATOM      1  C   UNL     1     170.348 183.430 191.624  1.00  0.00     0.000 C 
ENDROOT
BRANCH   1   2
ATOM      2  C   UNL     1     171.750 183.956 191.977  1.00  0.00     0.000 C 
BRANCH   2   3
ATOM      3  C   UNL     1     172.638 184.157 190.737  1.00  0.00     0.000 C 
BRANCH   3   4
ATOM      4  C   UNL     1     173.228 185.574 190.585  1.00  0.00    -0.000 C 
BRANCH   4   5
ATOM      5  C   UNL     1     172.570 186.446 189.494  1.00  0.00    -0.000 C 
BRANCH   5   6
ATOM      6  C   UNL     1     171.537 187.462 190.012  1.00  0.00    -0.000 C 
BRANCH   6   7
ATOM      7  C   UNL     1     171.689 187.750 191.513  1.00  0.00    -0.000 C 
BRANCH   7   8
ATOM      8  C   UNL     1     170.393 187.436 192.270  1.00  0.00    -0.000 C 
BRANCH   8   9
ATOM      9  C   UNL     1     169.318 186.900 191.312  1.00  0.00    -0.000 C 
BRANCH   9  10
ATOM     10  C   UNL     1     167.888 187.145 191.820  1.00  0.00    -0.000 C 
BRANCH  10  11
ATOM     11  C   UNL     1     167.073 185.847 192.009  1.00  0.00    -0.003 C 
ATOM     12  C   UNL     1     165.826 185.816 191.128  1.00  0.00     0.004 C 
ENDBRANCH  10  11
ENDBRANCH   9  10
ENDBRANCH   8   9
ENDBRANCH   7   8
ENDBRANCH   6   7
ENDBRANCH   5   6
ENDBRANCH   4   5
ENDBRANCH   3   4
ENDBRANCH   2   3
ENDBRANCH   1   2
BRANCH   1  13
ATOM     13  C   UNL     1     170.084 183.434 190.109  1.00  0.00     0.000 C 
BRANCH  13  14
ATOM     14  C   UNL     1     168.584 183.343 189.778  1.00  0.00     0.000 C 
BRANCH  14  15
ATOM     15  C   UNL     1     168.180 184.268 188.619  1.00  0.00     0.000 C 
BRANCH  15  16
ATOM     16  C   UNL     1     169.363 185.090 188.082  1.00  0.00     0.000 C 
BRANCH  16  17
ATOM     17  C   UNL     1     168.951 186.500 187.620  1.00  0.00     0.000 C 
BRANCH  17  18
ATOM     18  C   UNL     1     167.499 186.869 187.988  1.00  0.00     0.000 C 
BRANCH  18  19
ATOM     19  C   UNL     1     167.280 188.393 188.045  1.00  0.00     0.000 C 
BRANCH  19  20
ATOM     20  C   UNL     1     168.516 189.157 188.554  1.00  0.00     0.006 C 
BRANCH  20  21
ATOM     21  C   UNL     1     168.203 190.168 189.671  1.00  0.00     0.053 C 
BRANCH  21  22
ATOM     22  C   UNL     1     169.428 190.604 190.413  1.00  0.00     0.041 C 
ATOM     23  O   UNL     1     170.497 190.846 189.788  1.00  0.00    -0.550 OA
ATOM     24  O   UNL     1     169.391 190.752 191.795  1.00  0.00    -0.550 OA
ENDBRANCH  21  22
ENDBRANCH  20  21
ENDBRANCH  19  20
ENDBRANCH  18  19
ENDBRANCH  17  18
ENDBRANCH  16  17
ENDBRANCH  15  16
ENDBRANCH  14  15
ENDBRANCH  13  14
ENDBRANCH   1  13
TORSDOF 20
ENDMDL
MODEL 3
REMARK VINA RESULT:     0.031      4.085      7.198
REMARK INTER + INTRA:          -5.027
REMARK INTER:                   0.000
REMARK INTRA:                  -5.027
REMARK UNBOUND:                -5.094
REMARK SMILES CCCCCCCCCCCCCCCCCCCCCC(=O)[O-]
REMARK SMILES IDX 12 1 11 2 10 3 9 4 8 5 7 6 6 7 5 8 4 9 3 10 2 11 1 12 13 13
REMARK SMILES IDX 14 14 15 15 16 16 17 17 18 18 19 19 20 20 21 21 22 22 23 23
REMARK SMILES IDX 24 24
REMARK H PARENT
REMARK Flexibility Score: inf
ROOT
ATOM      1  C   UNL     1     172.076 191.049 185.227  1.00  0.00     0.000 C 
ENDROOT
BRANCH   1   2
ATOM      2  C   UNL     1     171.093 189.865 185.249  1.00  0.00     0.000 C 
BRANCH   2   3
ATOM      3  C   UNL     1     171.648 188.647 186.008  1.00  0.00     0.000 C 
BRANCH   3   4
ATOM      4  C   UNL     1     171.070 188.447 187.424  1.00  0.00    -0.000 C 
BRANCH   4   5
ATOM      5  C   UNL     1     172.063 188.694 188.579  1.00  0.00    -0.000 C 
BRANCH   5   6
ATOM      6  C   UNL     1     172.491 190.161 188.765  1.00  0.00    -0.000 C 
BRANCH   6   7
ATOM      7  C   UNL     1     173.973 190.393 188.435  1.00  0.00    -0.000 C 
BRANCH   7   8
ATOM      8  C   UNL     1     174.359 191.864 188.633  1.00  0.00    -0.000 C 
BRANCH   8   9
ATOM      9  C   UNL     1     173.177 192.667 189.197  1.00  0.00    -0.000 C 
BRANCH   9  10
ATOM     10  C   UNL     1     173.160 194.126 188.714  1.00  0.00    -0.000 C 
BRANCH  10  11
ATOM     11  C   UNL     1     172.285 195.052 189.585  1.00  0.00    -0.003 C 
ATOM     12  C   UNL     1     172.012 194.458 190.965  1.00  0.00     0.004 C 
ENDBRANCH  10  11
ENDBRANCH   9  10
ENDBRANCH   8   9
ENDBRANCH   7   8
ENDBRANCH   6   7
ENDBRANCH   5   6
ENDBRANCH   4   5
ENDBRANCH   3   4
ENDBRANCH   2   3
ENDBRANCH   1   2
BRANCH   1  13
ATOM     13  C   UNL     1     171.482 192.317 185.861  1.00  0.00     0.000 C 
BRANCH  13  14
ATOM     14  C   UNL     1     170.152 192.040 186.584  1.00  0.00     0.000 C 
BRANCH  14  15
ATOM     15  C   UNL     1     169.766 193.163 187.559  1.00  0.00     0.000 C 
BRANCH  15  16
ATOM     16  C   UNL     1     169.425 192.634 188.962  1.00  0.00     0.000 C 
BRANCH  16  17
ATOM     17  C   UNL     1     168.959 191.167 188.952  1.00  0.00     0.000 C 
BRANCH  17  18
ATOM     18  C   UNL     1     169.163 190.446 190.300  1.00  0.00     0.000 C 
BRANCH  18  19
ATOM     19  C   UNL     1     170.032 191.262 191.274  1.00  0.00     0.000 C 
BRANCH  19  20
ATOM     20  C   UNL     1     170.985 190.385 192.108  1.00  0.00     0.006 C 
BRANCH  20  21
ATOM     21  C   UNL     1     172.298 191.089 192.494  1.00  0.00     0.053 C 
BRANCH  21  22
ATOM     22  C   UNL     1     173.506 190.257 192.193  1.00  0.00     0.041 C 
ATOM     23  O   UNL     1     174.640 190.797 192.089  1.00  0.00    -0.550 OA
ATOM     24  O   UNL     1     173.382 188.881 192.033  1.00  0.00    -0.550 OA
ENDBRANCH  21  22
ENDBRANCH  20  21
ENDBRANCH  19  20
ENDBRANCH  18  19
ENDBRANCH  17  18
ENDBRANCH  16  17
ENDBRANCH  15  16
ENDBRANCH  14  15
ENDBRANCH  13  14
ENDBRANCH   1  13
TORSDOF 20
ENDMDL
MODEL 4
REMARK VINA RESULT:     0.050      8.130      9.988
REMARK INTER + INTRA:          -4.985
REMARK INTER:                   0.000
REMARK INTRA:                  -4.985
REMARK UNBOUND:                -5.094
REMARK SMILES CCCCCCCCCCCCCCCCCCCCCC(=O)[O-]
REMARK SMILES IDX 12 1 11 2 10 3 9 4 8 5 7 6 6 7 5 8 4 9 3 10 2 11 1 12 13 13
REMARK SMILES IDX 14 14 15 15 16 16 17 17 18 18 19 19 20 20 21 21 22 22 23 23
REMARK SMILES IDX 24 24
REMARK H PARENT
REMARK Flexibility Score: inf
ROOT
ATOM      1  C   UNL     1     160.070 195.328 188.227  1.00  0.00     0.000 C 
ENDROOT
BRANCH   1   2
ATOM      2  C   UNL     1     161.204 194.494 188.848  1.00  0.00     0.000 C 
BRANCH   2   3
ATOM      3  C   UNL     1     161.556 194.942 190.278  1.00  0.00     0.000 C 
BRANCH   3   4
ATOM      4  C   UNL     1     162.877 194.369 190.830  1.00  0.00    -0.000 C 
BRANCH   4   5
ATOM      5  C   UNL     1     163.669 193.480 189.847  1.00  0.00    -0.000 C 
BRANCH   5   6
ATOM      6  C   UNL     1     164.180 192.154 190.440  1.00  0.00    -0.000 C 
BRANCH   6   7
ATOM      7  C   UNL     1     163.081 191.086 190.541  1.00  0.00    -0.000 C 
BRANCH   7   8
ATOM      8  C   UNL     1     162.279 190.993 189.237  1.00  0.00    -0.000 C 
BRANCH   8   9
ATOM      9  C   UNL     1     160.771 190.955 189.527  1.00  0.00    -0.000 C 
BRANCH   9  10
ATOM     10  C   UNL     1     160.427 191.374 190.966  1.00  0.00    -0.000 C 
BRANCH  10  11
ATOM     11  C   UNL     1     159.147 192.230 191.068  1.00  0.00    -0.003 C 
ATOM     12  C   UNL     1     158.337 192.214 189.772  1.00  0.00     0.004 C 
ENDBRANCH  10  11
ENDBRANCH   9  10
ENDBRANCH   8   9
ENDBRANCH   7   8
ENDBRANCH   6   7
ENDBRANCH   5   6
ENDBRANCH   4   5
ENDBRANCH   3   4
ENDBRANCH   2   3
ENDBRANCH   1   2
BRANCH   1  13
ATOM     13  C   UNL     1     159.527 194.707 186.930  1.00  0.00     0.000 C 
BRANCH  13  14
ATOM     14  C   UNL     1     160.073 193.288 186.690  1.00  0.00     0.000 C 
BRANCH  14  15
ATOM     15  C   UNL     1     160.276 192.980 185.199  1.00  0.00     0.000 C 
BRANCH  15  16
ATOM     16  C   UNL     1     161.759 192.815 184.827  1.00  0.00     0.000 C 
BRANCH  16  17
ATOM     17  C   UNL     1     162.671 192.663 186.059  1.00  0.00     0.000 C 
BRANCH  17  18
ATOM     18  C   UNL     1     163.770 193.742 186.149  1.00  0.00     0.000 C 
BRANCH  18  19
ATOM     19  C   UNL     1     163.400 195.020 185.373  1.00  0.00     0.000 C 
BRANCH  19  20
ATOM     20  C   UNL     1     163.169 196.233 186.293  1.00  0.00     0.006 C 
BRANCH  20  21
ATOM     21  C   UNL     1     164.186 196.342 187.443  1.00  0.00     0.053 C 
BRANCH  21  22
ATOM     22  C   UNL     1     163.726 197.259 188.533  1.00  0.00     0.041 C 
ATOM     23  O   UNL     1     164.418 197.403 189.577  1.00  0.00    -0.550 OA
ATOM     24  O   UNL     1     162.535 197.962 188.395  1.00  0.00    -0.550 OA
ENDBRANCH  21  22
ENDBRANCH  20  21
ENDBRANCH  19  20
ENDBRANCH  18  19
ENDBRANCH  17  18
ENDBRANCH  16  17
ENDBRANCH  15  16
ENDBRANCH  14  15
ENDBRANCH  13  14
ENDBRANCH   1  13
TORSDOF 20
ENDMDL
MODEL 5
REMARK VINA RESULT:     0.067      4.598      7.030
REMARK INTER + INTRA:          -4.948
REMARK INTER:                   0.000
REMARK INTRA:                  -4.948
REMARK UNBOUND:                -5.094
REMARK SMILES CCCCCCCCCCCCCCCCCCCCCC(=O)[O-]
REMARK SMILES IDX 12 1 11 2 10 3 9 4 8 5 7 6 6 7 5 8 4 9 3 10 2 11 1 12 13 13
REMARK SMILES IDX 14 14 15 15 16 16 17 17 18 18 19 19 20 20 21 21 22 22 23 23
REMARK SMILES IDX 24 24
REMARK H PARENT
REMARK Flexibility Score: inf
ROOT
ATOM      1  C   UNL     1     163.190 190.890 187.103  1.00  0.00     0.000 C 
ENDROOT
BRANCH   1   2
ATOM      2  C   UNL     1     162.486 189.928 188.076  1.00  0.00     0.000 C 
BRANCH   2   3
ATOM      3  C   UNL     1     163.338 188.689 188.405  1.00  0.00     0.000 C 
BRANCH   3   4
ATOM      4  C   UNL     1     164.369 188.306 187.324  1.00  0.00    -0.000 C 
BRANCH   4   5
ATOM      5  C   UNL     1     165.541 187.430 187.816  1.00  0.00    -0.000 C 
BRANCH   5   6
ATOM      6  C   UNL     1     165.458 187.004 189.293  1.00  0.00    -0.000 C 
BRANCH   6   7
ATOM      7  C   UNL     1     166.826 187.018 189.992  1.00  0.00    -0.000 C 
BRANCH   7   8
ATOM      8  C   UNL     1     166.744 187.721 191.352  1.00  0.00    -0.000 C 
BRANCH   8   9
ATOM      9  C   UNL     1     165.328 188.263 191.602  1.00  0.00    -0.000 C 
BRANCH   9  10
ATOM     10  C   UNL     1     165.322 189.729 192.062  1.00  0.00    -0.000 C 
BRANCH  10  11
ATOM     11  C   UNL     1     164.222 190.579 191.391  1.00  0.00    -0.003 C 
ATOM     12  C   UNL     1     164.204 192.015 191.912  1.00  0.00     0.004 C 
ENDBRANCH  10  11
ENDBRANCH   9  10
ENDBRANCH   8   9
ENDBRANCH   7   8
ENDBRANCH   6   7
ENDBRANCH   5   6
ENDBRANCH   4   5
ENDBRANCH   3   4
ENDBRANCH   2   3
ENDBRANCH   1   2
BRANCH   1  13
ATOM     13  C   UNL     1     163.515 192.246 187.753  1.00  0.00     0.000 C 
BRANCH  13  14
ATOM     14  C   UNL     1     164.988 192.347 188.186  1.00  0.00     0.000 C 
BRANCH  14  15
ATOM     15  C   UNL     1     165.962 192.059 187.034  1.00  0.00     0.000 C 
BRANCH  15  16
ATOM     16  C   UNL     1     166.958 190.936 187.371  1.00  0.00     0.000 C 
BRANCH  16  17
ATOM     17  C   UNL     1     166.963 190.570 188.866  1.00  0.00     0.000 C 
BRANCH  17  18
ATOM     18  C   UNL     1     168.379 190.397 189.454  1.00  0.00     0.000 C 
BRANCH  18  19
ATOM     19  C   UNL     1     168.563 191.171 190.773  1.00  0.00     0.000 C 
BRANCH  19  20
ATOM     20  C   UNL     1     167.722 192.459 190.834  1.00  0.00     0.006 C 
BRANCH  20  21
ATOM     21  C   UNL     1     168.511 193.731 190.476  1.00  0.00     0.053 C 
BRANCH  21  22
ATOM     22  C   UNL     1     168.341 194.128 189.042  1.00  0.00     0.041 C 
ATOM     23  O   UNL     1     169.106 193.656 188.157  1.00  0.00    -0.550 OA
ATOM     24  O   UNL     1     167.334 195.014 188.678  1.00  0.00    -0.550 OA
ENDBRANCH  21  22
ENDBRANCH  20  21
ENDBRANCH  19  20
ENDBRANCH  18  19
ENDBRANCH  17  18
ENDBRANCH  16  17
ENDBRANCH  15  16
ENDBRANCH  14  15
ENDBRANCH  13  14
ENDBRANCH   1  13
TORSDOF 20
ENDMDL
MODEL 6
REMARK VINA RESULT:     0.070      3.942      6.670
REMARK INTER + INTRA:          -4.943
REMARK INTER:                   0.000
REMARK INTRA:                  -4.943
REMARK UNBOUND:                -5.094
REMARK SMILES CCCCCCCCCCCCCCCCCCCCCC(=O)[O-]
REMARK SMILES IDX 12 1 11 2 10 3 9 4 8 5 7 6 6 7 5 8 4 9 3 10 2 11 1 12 13 13
REMARK SMILES IDX 14 14 15 15 16 16 17 17 18 18 19 19 20 20 21 21 22 22 23 23
REMARK SMILES IDX 24 24
REMARK H PARENT
REMARK Flexibility Score: inf
ROOT
ATOM      1  C   UNL     1     166.464 192.753 190.868  1.00  0.00     0.000 C 
ENDROOT
BRANCH   1   2
ATOM      2  C   UNL     1     166.161 192.905 189.367  1.00  0.00     0.000 C 
BRANCH   2   3
ATOM      3  C   UNL     1     165.032 191.972 188.892  1.00  0.00     0.000 C 
BRANCH   3   4
ATOM      4  C   UNL     1     165.236 191.371 187.487  1.00  0.00    -0.000 C 
BRANCH   4   5
ATOM      5  C   UNL     1     164.305 190.191 187.136  1.00  0.00    -0.000 C 
BRANCH   5   6
ATOM      6  C   UNL     1     165.027 188.901 186.706  1.00  0.00    -0.000 C 
BRANCH   6   7
ATOM      7  C   UNL     1     164.636 187.688 187.563  1.00  0.00    -0.000 C 
BRANCH   7   8
ATOM      8  C   UNL     1     163.373 187.977 188.384  1.00  0.00    -0.000 C 
BRANCH   8   9
ATOM      9  C   UNL     1     163.664 187.864 189.889  1.00  0.00    -0.000 C 
BRANCH   9  10
ATOM     10  C   UNL     1     163.317 189.146 190.663  1.00  0.00    -0.000 C 
BRANCH  10  11
ATOM     11  C   UNL     1     162.093 189.895 190.093  1.00  0.00    -0.003 C 
ATOM     12  C   UNL     1     161.853 191.229 190.797  1.00  0.00     0.004 C 
ENDBRANCH  10  11
ENDBRANCH   9  10
ENDBRANCH   8   9
ENDBRANCH   7   8
ENDBRANCH   6   7
ENDBRANCH   5   6
ENDBRANCH   4   5
ENDBRANCH   3   4
ENDBRANCH   2   3
ENDBRANCH   1   2
BRANCH   1  13
ATOM     13  C   UNL     1     165.270 192.184 191.653  1.00  0.00     0.000 C 
BRANCH  13  14
ATOM     14  C   UNL     1     165.705 191.158 192.715  1.00  0.00     0.000 C 
BRANCH  14  15
ATOM     15  C   UNL     1     167.040 190.483 192.369  1.00  0.00     0.000 C 
BRANCH  15  16
ATOM     16  C   UNL     1     166.969 188.950 192.467  1.00  0.00     0.000 C 
BRANCH  16  17
ATOM     17  C   UNL     1     167.249 188.250 191.125  1.00  0.00     0.000 C 
BRANCH  17  18
ATOM     18  C   UNL     1     167.018 189.156 189.898  1.00  0.00     0.000 C 
BRANCH  18  19
ATOM     19  C   UNL     1     168.130 189.004 188.842  1.00  0.00     0.000 C 
BRANCH  19  20
ATOM     20  C   UNL     1     168.753 190.351 188.430  1.00  0.00     0.006 C 
BRANCH  20  21
ATOM     21  C   UNL     1     169.508 191.058 189.569  1.00  0.00     0.053 C 
BRANCH  21  22
ATOM     22  C   UNL     1     170.574 190.198 190.174  1.00  0.00     0.041 C 
ATOM     23  O   UNL     1     171.589 189.876 189.500  1.00  0.00    -0.550 OA
ATOM     24  O   UNL     1     170.451 189.756 191.487  1.00  0.00    -0.550 OA
ENDBRANCH  21  22
ENDBRANCH  20  21
ENDBRANCH  19  20
ENDBRANCH  18  19
ENDBRANCH  17  18
ENDBRANCH  16  17
ENDBRANCH  15  16
ENDBRANCH  14  15
ENDBRANCH  13  14
ENDBRANCH   1  13
TORSDOF 20
ENDMDL
MODEL 7
REMARK VINA RESULT:     0.079      3.156      6.279
REMARK INTER + INTRA:          -4.923
REMARK INTER:                   0.000
REMARK INTRA:                  -4.923
REMARK UNBOUND:                -5.094
REMARK SMILES CCCCCCCCCCCCCCCCCCCCCC(=O)[O-]
REMARK SMILES IDX 12 1 11 2 10 3 9 4 8 5 7 6 6 7 5 8 4 9 3 10 2 11 1 12 13 13
REMARK SMILES IDX 14 14 15 15 16 16 17 17 18 18 19 19 20 20 21 21 22 22 23 23
REMARK SMILES IDX 24 24
REMARK H PARENT
REMARK Flexibility Score: inf
ROOT
ATOM      1  C   UNL     1     175.077 188.869 186.318  1.00  0.00     0.000 C 
ENDROOT
BRANCH   1   2
ATOM      2  C   UNL     1     174.160 189.756 187.178  1.00  0.00     0.000 C 
BRANCH   2   3
ATOM      3  C   UNL     1     172.801 189.097 187.471  1.00  0.00     0.000 C 
BRANCH   3   4
ATOM      4  C   UNL     1     171.574 189.982 187.173  1.00  0.00    -0.000 C 
BRANCH   4   5
ATOM      5  C   UNL     1     170.394 189.259 186.489  1.00  0.00    -0.000 C 
BRANCH   5   6
ATOM      6  C   UNL     1     170.615 187.758 186.228  1.00  0.00    -0.000 C 
BRANCH   6   7
ATOM      7  C   UNL     1     170.818 187.438 184.740  1.00  0.00    -0.000 C 
BRANCH   7   8
ATOM      8  C   UNL     1     169.911 186.284 184.294  1.00  0.00    -0.000 C 
BRANCH   8   9
ATOM      9  C   UNL     1     169.993 186.082 182.774  1.00  0.00    -0.000 C 
BRANCH   9  10
ATOM     10  C   UNL     1     171.395 186.361 182.208  1.00  0.00    -0.000 C 
BRANCH  10  11
ATOM     11  C   UNL     1     171.434 186.426 180.666  1.00  0.00    -0.003 C 
ATOM     12  C   UNL     1     172.637 187.215 180.152  1.00  0.00     0.004 C 
ENDBRANCH  10  11
ENDBRANCH   9  10
ENDBRANCH   8   9
ENDBRANCH   7   8
ENDBRANCH   6   7
ENDBRANCH   5   6
ENDBRANCH   4   5
ENDBRANCH   3   4
ENDBRANCH   2   3
ENDBRANCH   1   2
BRANCH   1  13
ATOM     13  C   UNL     1     174.387 187.568 185.875  1.00  0.00     0.000 C 
BRANCH  13  14
ATOM     14  C   UNL     1     174.346 187.420 184.344  1.00  0.00     0.000 C 
BRANCH  14  15
ATOM     15  C   UNL     1     174.709 188.723 183.617  1.00  0.00     0.000 C 
BRANCH  15  16
ATOM     16  C   UNL     1     173.500 189.360 182.910  1.00  0.00     0.000 C 
BRANCH  16  17
ATOM     17  C   UNL     1     172.843 190.478 183.738  1.00  0.00     0.000 C 
BRANCH  17  18
ATOM     18  C   UNL     1     171.402 190.806 183.298  1.00  0.00     0.000 C 
BRANCH  18  19
ATOM     19  C   UNL     1     171.012 190.089 181.992  1.00  0.00     0.000 C 
BRANCH  19  20
ATOM     20  C   UNL     1     169.518 189.720 181.934  1.00  0.00     0.006 C 
BRANCH  20  21
ATOM     21  C   UNL     1     168.740 190.085 183.210  1.00  0.00     0.053 C 
BRANCH  21  22
ATOM     22  C   UNL     1     167.688 189.075 183.551  1.00  0.00     0.041 C 
ATOM     23  O   UNL     1     167.181 188.356 182.648  1.00  0.00    -0.550 OA
ATOM     24  O   UNL     1     167.271 188.921 184.869  1.00  0.00    -0.550 OA
ENDBRANCH  21  22
ENDBRANCH  20  21
ENDBRANCH  19  20
ENDBRANCH  18  19
ENDBRANCH  17  18
ENDBRANCH  16  17
ENDBRANCH  15  16
ENDBRANCH  14  15
ENDBRANCH  13  14
ENDBRANCH   1  13
TORSDOF 20
ENDMDL
MODEL 8
REMARK VINA RESULT:     0.079      6.428      9.221
REMARK INTER + INTRA:          -4.923
REMARK INTER:                   0.000
REMARK INTRA:                  -4.923
REMARK UNBOUND:                -5.094
REMARK SMILES CCCCCCCCCCCCCCCCCCCCCC(=O)[O-]
REMARK SMILES IDX 12 1 11 2 10 3 9 4 8 5 7 6 6 7 5 8 4 9 3 10 2 11 1 12 13 13
REMARK SMILES IDX 14 14 15 15 16 16 17 17 18 18 19 19 20 20 21 21 22 22 23 23
REMARK SMILES IDX 24 24
REMARK H PARENT
REMARK Flexibility Score: inf
ROOT
ATOM      1  C   UNL     1     165.045 194.335 189.996  1.00  0.00     0.000 C 
ENDROOT
BRANCH   1   2
ATOM      2  C   UNL     1     165.101 192.798 190.047  1.00  0.00     0.000 C 
BRANCH   2   3
ATOM      3  C   UNL     1     163.994 192.135 189.208  1.00  0.00     0.000 C 
BRANCH   3   4
ATOM      4  C   UNL     1     162.997 191.277 190.012  1.00  0.00    -0.000 C 
BRANCH   4   5
ATOM      5  C   UNL     1     161.507 191.572 189.738  1.00  0.00    -0.000 C 
BRANCH   5   6
ATOM      6  C   UNL     1     161.234 192.428 188.488  1.00  0.00    -0.000 C 
BRANCH   6   7
ATOM      7  C   UNL     1     160.488 193.731 188.813  1.00  0.00    -0.000 C 
BRANCH   7   8
ATOM      8  C   UNL     1     160.338 193.919 190.327  1.00  0.00    -0.000 C 
BRANCH   8   9
ATOM      9  C   UNL     1     160.880 195.289 190.762  1.00  0.00    -0.000 C 
BRANCH   9  10
ATOM     10  C   UNL     1     161.903 195.191 191.906  1.00  0.00    -0.000 C 
BRANCH  10  11
ATOM     11  C   UNL     1     161.917 193.813 192.601  1.00  0.00    -0.003 C 
ATOM     12  C   UNL     1     163.289 193.472 193.180  1.00  0.00     0.004 C 
ENDBRANCH  10  11
ENDBRANCH   9  10
ENDBRANCH   8   9
ENDBRANCH   7   8
ENDBRANCH   6   7
ENDBRANCH   5   6
ENDBRANCH   4   5
ENDBRANCH   3   4
ENDBRANCH   2   3
ENDBRANCH   1   2
BRANCH   1  13
ATOM     13  C   UNL     1     164.062 194.851 188.932  1.00  0.00     0.000 C 
BRANCH  13  14
ATOM     14  C   UNL     1     163.951 196.386 188.936  1.00  0.00     0.000 C 
BRANCH  14  15
ATOM     15  C   UNL     1     163.464 196.944 187.590  1.00  0.00     0.000 C 
BRANCH  15  16
ATOM     16  C   UNL     1     161.934 196.878 187.444  1.00  0.00     0.000 C 
BRANCH  16  17
ATOM     17  C   UNL     1     161.486 196.094 186.197  1.00  0.00     0.000 C 
BRANCH  17  18
ATOM     18  C   UNL     1     162.648 195.409 185.449  1.00  0.00     0.000 C 
BRANCH  18  19
ATOM     19  C   UNL     1     162.541 193.873 185.485  1.00  0.00     0.000 C 
BRANCH  19  20
ATOM     20  C   UNL     1     163.910 193.180 185.614  1.00  0.00     0.006 C 
BRANCH  20  21
ATOM     21  C   UNL     1     165.105 194.144 185.507  1.00  0.00     0.053 C 
BRANCH  21  22
ATOM     22  C   UNL     1     166.413 193.472 185.789  1.00  0.00     0.041 C 
ATOM     23  O   UNL     1     167.062 192.927 184.855  1.00  0.00    -0.550 OA
ATOM     24  O   UNL     1     166.922 193.453 187.083  1.00  0.00    -0.550 OA
ENDBRANCH  21  22
ENDBRANCH  20  21
ENDBRANCH  19  20
ENDBRANCH  18  19
ENDBRANCH  17  18
ENDBRANCH  16  17
ENDBRANCH  15  16
ENDBRANCH  14  15
ENDBRANCH  13  14
ENDBRANCH   1  13
TORSDOF 20
ENDMDL
MODEL 9
REMARK VINA RESULT:     0.085      3.825      5.792
REMARK INTER + INTRA:          -4.911
REMARK INTER:                   0.000
REMARK INTRA:                  -4.911
REMARK UNBOUND:                -5.094
REMARK SMILES CCCCCCCCCCCCCCCCCCCCCC(=O)[O-]
REMARK SMILES IDX 12 1 11 2 10 3 9 4 8 5 7 6 6 7 5 8 4 9 3 10 2 11 1 12 13 13
REMARK SMILES IDX 14 14 15 15 16 16 17 17 18 18 19 19 20 20 21 21 22 22 23 23
REMARK SMILES IDX 24 24
REMARK H PARENT
REMARK Flexibility Score: inf
ROOT
ATOM      1  C   UNL     1     168.889 191.347 185.459  1.00  0.00     0.000 C 
ENDROOT
BRANCH   1   2
ATOM      2  C   UNL     1     168.668 192.856 185.255  1.00  0.00     0.000 C 
BRANCH   2   3
ATOM      3  C   UNL     1     167.580 193.428 186.182  1.00  0.00     0.000 C 
BRANCH   3   4
ATOM      4  C   UNL     1     166.417 194.134 185.457  1.00  0.00    -0.000 C 
BRANCH   4   5
ATOM      5  C   UNL     1     166.612 194.332 183.939  1.00  0.00    -0.000 C 
BRANCH   5   6
ATOM      6  C   UNL     1     165.365 194.051 183.082  1.00  0.00    -0.000 C 
BRANCH   6   7
ATOM      7  C   UNL     1     164.059 194.447 183.787  1.00  0.00    -0.000 C 
BRANCH   7   8
ATOM      8  C   UNL     1     162.936 193.452 183.470  1.00  0.00    -0.000 C 
BRANCH   8   9
ATOM      9  C   UNL     1     162.171 193.069 184.747  1.00  0.00    -0.000 C 
BRANCH   9  10
ATOM     10  C   UNL     1     162.762 193.710 186.013  1.00  0.00    -0.000 C 
BRANCH  10  11
ATOM     11  C   UNL     1     162.959 192.711 187.173  1.00  0.00    -0.003 C 
ATOM     12  C   UNL     1     162.135 191.438 186.984  1.00  0.00     0.004 C 
ENDBRANCH  10  11
ENDBRANCH   9  10
ENDBRANCH   8   9
ENDBRANCH   7   8
ENDBRANCH   6   7
ENDBRANCH   5   6
ENDBRANCH   4   5
ENDBRANCH   3   4
ENDBRANCH   2   3
ENDBRANCH   1   2
BRANCH   1  13
ATOM     13  C   UNL     1     168.807 190.559 184.141  1.00  0.00     0.000 C 
BRANCH  13  14
ATOM     14  C   UNL     1     168.808 191.481 182.909  1.00  0.00     0.000 C 
BRANCH  14  15
ATOM     15  C   UNL     1     167.607 191.231 181.985  1.00  0.00     0.000 C 
BRANCH  15  16
ATOM     16  C   UNL     1     166.711 190.084 182.481  1.00  0.00     0.000 C 
BRANCH  16  17
ATOM     17  C   UNL     1     165.212 190.431 182.430  1.00  0.00     0.000 C 
BRANCH  17  18
ATOM     18  C   UNL     1     164.472 190.167 183.757  1.00  0.00     0.000 C 
BRANCH  18  19
ATOM     19  C   UNL     1     165.201 190.782 184.966  1.00  0.00     0.000 C 
BRANCH  19  20
ATOM     20  C   UNL     1     165.546 189.743 186.049  1.00  0.00     0.006 C 
BRANCH  20  21
ATOM     21  C   UNL     1     165.850 190.361 187.426  1.00  0.00     0.053 C 
BRANCH  21  22
ATOM     22  C   UNL     1     165.419 189.482 188.558  1.00  0.00     0.041 C 
ATOM     23  O   UNL     1     166.228 189.192 189.481  1.00  0.00    -0.550 OA
ATOM     24  O   UNL     1     164.121 188.986 188.600  1.00  0.00    -0.550 OA
ENDBRANCH  21  22
ENDBRANCH  20  21
ENDBRANCH  19  20
ENDBRANCH  18  19
ENDBRANCH  17  18
ENDBRANCH  16  17
ENDBRANCH  15  16
ENDBRANCH  14  15
ENDBRANCH  13  14
ENDBRANCH   1  13
TORSDOF 20
ENDMDL
