MODEL 1
REMARK VINA RESULT:    -7.938      0.000      0.000
REMARK INTER + INTRA:         -13.935
REMARK INTER:                 -13.043
REMARK INTRA:                  -0.892
REMARK UNBOUND:                -0.892
REMARK SMILES C[C@H]1O[C@H](OC[C@H]2O[C@@H](Oc3c(-c4ccc(O)c(O)c4)oc4cc(O)cc(O)c4c3=O)[C@H](O)[C@@H](O)[C@@H]2O)[C@H](O)[C@@H](O)[C@@H]1O
REMARK SMILES IDX 7 1 36 2 34 3 32 4 9 5 8 6 6 7 5 8 4 9 1 10 2 11 42 12 3 13
REMARK SMILES IDX 40 14 38 15 43 16 41 18 39 20 37 22 35 24 10 26 11 27 12 28
REMARK SMILES IDX 30 29 21 30 29 31 31 32 22 33 27 34 23 35 26 36 24 37 13 38
REMARK SMILES IDX 20 39 14 40 18 41 15 42 16 43 19 44 17 46 28 48 25 50 33 52
REMARK H PARENT 43 17 41 19 39 21 37 23 35 25 19 45 17 47 28 49 25 51 33 53
REMARK Flexibility Score: inf
ROOT
ATOM      1  C   UNL     1     -36.568   7.650  83.344  1.00  0.00     0.180 C 
ATOM      2  C   UNL     1     -38.033   8.154  83.368  1.00  0.00     0.177 C 
ATOM      3  C   UNL     1     -38.364   8.976  82.095  1.00  0.00     0.180 C 
ATOM      4  C   UNL     1     -37.682   8.423  80.829  1.00  0.00     0.214 C 
ATOM      5  C   UNL     1     -37.120   7.024  81.090  1.00  0.00     0.339 C 
ATOM      6  O   UNL     1     -36.150   7.044  82.128  1.00  0.00    -0.332 OA
ENDROOT
BRANCH   1   7
ATOM      7  C   UNL     1     -36.257   6.691  84.516  1.00  0.00     0.198 C 
BRANCH   7   8
ATOM      8  O   UNL     1     -35.907   5.394  84.055  1.00  0.00    -0.347 OA
BRANCH   8   9
ATOM      9  C   UNL     1     -36.810   4.417  84.528  1.00  0.00     0.281 C 
ATOM     10  C   UNL     1     -40.395   5.277  85.124  1.00  0.00     0.041 C 
ATOM     11  C   UNL     1     -39.215   4.683  84.347  1.00  0.00     0.150 C 
ATOM     12  C   UNL     1     -39.276   3.148  84.346  1.00  0.00     0.174 C 
ATOM     13  O   UNL     1     -38.003   5.088  84.963  1.00  0.00    -0.344 OA
ATOM     14  C   UNL     1     -38.339   2.660  83.244  1.00  0.00     0.179 C 
ATOM     15  C   UNL     1     -36.920   3.252  83.470  1.00  0.00     0.202 C 
BRANCH  12  16
ATOM     16  O   UNL     1     -40.557   2.612  84.217  1.00  0.00    -0.388 OA
ATOM     17  H   UNL     1     -40.480   1.634  84.210  1.00  0.00     0.211 HD
ENDBRANCH  12  16
BRANCH  14  18
ATOM     18  O   UNL     1     -38.281   1.250  83.267  1.00  0.00    -0.387 OA
ATOM     19  H   UNL     1     -38.124   0.968  82.318  1.00  0.00     0.211 HD
ENDBRANCH  14  18
BRANCH  15  20
ATOM     20  O   UNL     1     -36.390   3.687  82.247  1.00  0.00    -0.385 OA
ATOM     21  H   UNL     1     -35.450   3.961  82.429  1.00  0.00     0.211 HD
ENDBRANCH  15  20
ENDBRANCH   8   9
ENDBRANCH   7   8
ENDBRANCH   1   7
BRANCH   2  22
ATOM     22  O   UNL     1     -38.211   8.982  84.500  1.00  0.00    -0.387 OA
ATOM     23  H   UNL     1     -37.323   9.350  84.749  1.00  0.00     0.211 HD
ENDBRANCH   2  22
BRANCH   3  24
ATOM     24  O   UNL     1     -39.755   8.930  81.897  1.00  0.00    -0.387 OA
ATOM     25  H   UNL     1     -40.202   9.267  82.713  1.00  0.00     0.211 HD
ENDBRANCH   3  24
BRANCH   5  26
ATOM     26  O   UNL     1     -38.132   6.071  81.403  1.00  0.00    -0.454 OA
BRANCH  26  27
ATOM     27  C   UNL     1     -38.862   5.353  80.437  1.00  0.00     0.214 A 
ATOM     28  C   UNL     1     -38.303   5.109  79.174  1.00  0.00     0.180 A 
ATOM     29  C   UNL     1     -40.148   4.830  80.710  1.00  0.00     0.239 A 
ATOM     30  O   UNL     1     -39.036   4.542  78.227  1.00  0.00    -0.452 OA
ATOM     31  C   UNL     1     -40.878   4.148  79.710  1.00  0.00     0.111 A 
ATOM     32  O   UNL     1     -40.577   4.908  81.886  1.00  0.00    -0.285 OA
ATOM     33  C   UNL     1     -40.271   4.065  78.436  1.00  0.00     0.146 A 
ATOM     34  C   UNL     1     -42.126   3.493  79.915  1.00  0.00     0.134 A 
ATOM     35  C   UNL     1     -40.932   3.452  77.376  1.00  0.00     0.094 A 
ATOM     36  C   UNL     1     -42.721   2.795  78.855  1.00  0.00     0.093 A 
ATOM     37  C   UNL     1     -42.149   2.805  77.581  1.00  0.00     0.123 A 
BRANCH  28  38
ATOM     38  C   UNL     1     -36.893   5.422  78.847  1.00  0.00     0.025 A 
ATOM     39  C   UNL     1     -35.855   4.703  79.443  1.00  0.00     0.062 A 
ATOM     40  C   UNL     1     -36.595   6.583  78.123  1.00  0.00     0.016 A 
ATOM     41  C   UNL     1     -34.512   5.108  79.269  1.00  0.00     0.158 A 
ATOM     42  C   UNL     1     -35.269   6.993  77.952  1.00  0.00     0.051 A 
ATOM     43  C   UNL     1     -34.231   6.280  78.529  1.00  0.00     0.157 A 
BRANCH  41  44
ATOM     44  O   UNL     1     -33.476   4.367  79.821  1.00  0.00    -0.504 OA
ATOM     45  H   UNL     1     -32.710   4.049  79.245  1.00  0.00     0.293 HD
ENDBRANCH  41  44
BRANCH  43  46
ATOM     46  O   UNL     1     -32.915   6.741  78.357  1.00  0.00    -0.504 OA
ATOM     47  H   UNL     1     -32.545   7.040  77.479  1.00  0.00     0.293 HD
ENDBRANCH  43  46
ENDBRANCH  28  38
BRANCH  34  48
ATOM     48  O   UNL     1     -42.837   3.507  81.136  1.00  0.00    -0.507 OA
ATOM     49  H   UNL     1     -42.489   3.144  82.006  1.00  0.00     0.293 HD
ENDBRANCH  34  48
BRANCH  37  50
ATOM     50  O   UNL     1     -42.779   2.178  76.503  1.00  0.00    -0.508 OA
ATOM     51  H   UNL     1     -43.523   2.641  75.960  1.00  0.00     0.293 HD
ENDBRANCH  37  50
ENDBRANCH  26  27
ENDBRANCH   5  26
BRANCH   4  52
ATOM     52  O   UNL     1     -36.659   9.270  80.354  1.00  0.00    -0.384 OA
ATOM     53  H   UNL     1     -37.068  10.139  80.074  1.00  0.00     0.211 HD
ENDBRANCH   4  52
TORSDOF 16
ENDMDL
MODEL 2
REMARK VINA RESULT:    -7.387      2.794      5.592
REMARK INTER + INTRA:         -13.030
REMARK INTER:                 -11.018
REMARK INTRA:                  -2.011
REMARK UNBOUND:                -0.892
REMARK SMILES C[C@H]1O[C@H](OC[C@H]2O[C@@H](Oc3c(-c4ccc(O)c(O)c4)oc4cc(O)cc(O)c4c3=O)[C@H](O)[C@@H](O)[C@@H]2O)[C@H](O)[C@@H](O)[C@@H]1O
REMARK SMILES IDX 7 1 36 2 34 3 32 4 9 5 8 6 6 7 5 8 4 9 1 10 2 11 42 12 3 13
REMARK SMILES IDX 40 14 38 15 43 16 41 18 39 20 37 22 35 24 10 26 11 27 12 28
REMARK SMILES IDX 30 29 21 30 29 31 31 32 22 33 27 34 23 35 26 36 24 37 13 38
REMARK SMILES IDX 20 39 14 40 18 41 15 42 16 43 19 44 17 46 28 48 25 50 33 52
REMARK H PARENT 43 17 41 19 39 21 37 23 35 25 19 45 17 47 28 49 25 51 33 53
REMARK Flexibility Score: inf
ROOT
ATOM      1  C   UNL     1     -35.485   5.079  78.725  1.00  0.00     0.180 C 
ATOM      2  C   UNL     1     -34.812   5.775  79.935  1.00  0.00     0.177 C 
ATOM      3  C   UNL     1     -33.899   6.941  79.475  1.00  0.00     0.180 C 
ATOM      4  C   UNL     1     -34.469   7.711  78.269  1.00  0.00     0.214 C 
ATOM      5  C   UNL     1     -35.936   7.339  78.040  1.00  0.00     0.339 C 
ATOM      6  O   UNL     1     -36.080   5.952  77.772  1.00  0.00    -0.332 OA
ENDROOT
BRANCH   1   7
ATOM      7  C   UNL     1     -36.528   4.024  79.159  1.00  0.00     0.198 C 
BRANCH   7   8
ATOM      8  O   UNL     1     -37.740   4.628  79.587  1.00  0.00    -0.347 OA
BRANCH   8   9
ATOM      9  C   UNL     1     -38.818   3.717  79.534  1.00  0.00     0.281 C 
ATOM     10  C   UNL     1     -41.494   3.789  82.137  1.00  0.00     0.041 C 
ATOM     11  C   UNL     1     -40.878   4.077  80.763  1.00  0.00     0.150 C 
ATOM     12  C   UNL     1     -41.551   3.230  79.672  1.00  0.00     0.174 C 
ATOM     13  O   UNL     1     -39.497   3.757  80.798  1.00  0.00    -0.344 OA
ATOM     14  C   UNL     1     -41.185   3.854  78.328  1.00  0.00     0.179 C 
ATOM     15  C   UNL     1     -39.638   3.956  78.208  1.00  0.00     0.202 C 
BRANCH  12  16
ATOM     16  O   UNL     1     -42.928   3.075  79.817  1.00  0.00    -0.388 OA
ATOM     17  H   UNL     1     -43.218   3.614  80.585  1.00  0.00     0.211 HD
ENDBRANCH  12  16
BRANCH  14  18
ATOM     18  O   UNL     1     -41.695   3.053  77.284  1.00  0.00    -0.387 OA
ATOM     19  H   UNL     1     -42.692   3.152  77.327  1.00  0.00     0.211 HD
ENDBRANCH  14  18
BRANCH  15  20
ATOM     20  O   UNL     1     -39.288   5.202  77.667  1.00  0.00    -0.385 OA
ATOM     21  H   UNL     1     -39.488   5.153  76.692  1.00  0.00     0.211 HD
ENDBRANCH  15  20
ENDBRANCH   8   9
ENDBRANCH   7   8
ENDBRANCH   1   7
BRANCH   2  22
ATOM     22  O   UNL     1     -34.022   4.826  80.624  1.00  0.00    -0.387 OA
ATOM     23  H   UNL     1     -33.463   5.317  81.281  1.00  0.00     0.211 HD
ENDBRANCH   2  22
BRANCH   3  24
ATOM     24  O   UNL     1     -33.769   7.842  80.547  1.00  0.00    -0.387 OA
ATOM     25  H   UNL     1     -33.630   8.751  80.181  1.00  0.00     0.211 HD
ENDBRANCH   3  24
BRANCH   5  26
ATOM     26  O   UNL     1     -36.775   7.702  79.134  1.00  0.00    -0.454 OA
BRANCH  26  27
ATOM     27  C   UNL     1     -38.127   8.072  78.998  1.00  0.00     0.214 A 
ATOM     28  C   UNL     1     -39.002   7.943  80.087  1.00  0.00     0.180 A 
ATOM     29  C   UNL     1     -38.635   8.611  77.793  1.00  0.00     0.239 A 
ATOM     30  O   UNL     1     -40.296   8.175  79.922  1.00  0.00    -0.452 OA
ATOM     31  C   UNL     1     -40.004   8.938  77.668  1.00  0.00     0.111 A 
ATOM     32  O   UNL     1     -37.819   8.877  76.878  1.00  0.00    -0.285 OA
ATOM     33  C   UNL     1     -40.822   8.653  78.786  1.00  0.00     0.146 A 
ATOM     34  C   UNL     1     -40.589   9.584  76.542  1.00  0.00     0.134 A 
ATOM     35  C   UNL     1     -42.191   8.897  78.742  1.00  0.00     0.094 A 
ATOM     36  C   UNL     1     -41.953   9.912  76.565  1.00  0.00     0.093 A 
ATOM     37  C   UNL     1     -42.760   9.537  77.642  1.00  0.00     0.123 A 
BRANCH  28  38
ATOM     38  C   UNL     1     -38.541   7.591  81.449  1.00  0.00     0.025 A 
ATOM     39  C   UNL     1     -37.189   7.689  81.782  1.00  0.00     0.062 A 
ATOM     40  C   UNL     1     -39.419   6.946  82.329  1.00  0.00     0.016 A 
ATOM     41  C   UNL     1     -36.720   7.193  83.021  1.00  0.00     0.158 A 
ATOM     42  C   UNL     1     -38.961   6.448  83.552  1.00  0.00     0.051 A 
ATOM     43  C   UNL     1     -37.623   6.549  83.898  1.00  0.00     0.157 A 
BRANCH  41  44
ATOM     44  O   UNL     1     -35.385   7.332  83.374  1.00  0.00    -0.504 OA
ATOM     45  H   UNL     1     -34.658   6.923  82.806  1.00  0.00     0.293 HD
ENDBRANCH  41  44
BRANCH  43  46
ATOM     46  O   UNL     1     -37.198   6.011  85.123  1.00  0.00    -0.504 OA
ATOM     47  H   UNL     1     -36.912   6.568  85.902  1.00  0.00     0.293 HD
ENDBRANCH  43  46
ENDBRANCH  28  38
BRANCH  34  48
ATOM     48  O   UNL     1     -39.884   9.915  75.363  1.00  0.00    -0.507 OA
ATOM     49  H   UNL     1     -40.090   9.550  74.450  1.00  0.00     0.293 HD
ENDBRANCH  34  48
BRANCH  37  50
ATOM     50  O   UNL     1     -44.134   9.790  77.634  1.00  0.00    -0.508 OA
ATOM     51  H   UNL     1     -44.626  10.162  78.459  1.00  0.00     0.293 HD
ENDBRANCH  37  50
ENDBRANCH  26  27
ENDBRANCH   5  26
BRANCH   4  52
ATOM     52  O   UNL     1     -33.729   7.490  77.089  1.00  0.00    -0.384 OA
ATOM     53  H   UNL     1     -34.370   7.350  76.333  1.00  0.00     0.211 HD
ENDBRANCH   4  52
TORSDOF 16
ENDMDL
MODEL 3
REMARK VINA RESULT:    -7.359      1.476      4.446
REMARK INTER + INTRA:         -12.983
REMARK INTER:                 -12.139
REMARK INTRA:                  -0.844
REMARK UNBOUND:                -0.892
REMARK SMILES C[C@H]1O[C@H](OC[C@H]2O[C@@H](Oc3c(-c4ccc(O)c(O)c4)oc4cc(O)cc(O)c4c3=O)[C@H](O)[C@@H](O)[C@@H]2O)[C@H](O)[C@@H](O)[C@@H]1O
REMARK SMILES IDX 7 1 36 2 34 3 32 4 9 5 8 6 6 7 5 8 4 9 1 10 2 11 42 12 3 13
REMARK SMILES IDX 40 14 38 15 43 16 41 18 39 20 37 22 35 24 10 26 11 27 12 28
REMARK SMILES IDX 30 29 21 30 29 31 31 32 22 33 27 34 23 35 26 36 24 37 13 38
REMARK SMILES IDX 20 39 14 40 18 41 15 42 16 43 19 44 17 46 28 48 25 50 33 52
REMARK H PARENT 43 17 41 19 39 21 37 23 35 25 19 45 17 47 28 49 25 51 33 53
REMARK Flexibility Score: inf
ROOT
ATOM      1  C   UNL     1     -36.537   5.598  84.356  1.00  0.00     0.180 C 
ATOM      2  C   UNL     1     -36.345   4.212  83.689  1.00  0.00     0.177 C 
ATOM      3  C   UNL     1     -37.587   3.309  83.906  1.00  0.00     0.180 C 
ATOM      4  C   UNL     1     -38.913   4.090  83.860  1.00  0.00     0.214 C 
ATOM      5  C   UNL     1     -38.690   5.494  83.292  1.00  0.00     0.339 C 
ATOM      6  O   UNL     1     -37.781   6.235  84.093  1.00  0.00    -0.332 OA
ENDROOT
BRANCH   1   7
ATOM      7  C   UNL     1     -35.389   6.577  84.018  1.00  0.00     0.198 C 
BRANCH   7   8
ATOM      8  O   UNL     1     -35.869   7.741  83.358  1.00  0.00    -0.347 OA
BRANCH   8   9
ATOM      9  C   UNL     1     -35.558   7.718  81.980  1.00  0.00     0.281 C 
ATOM     10  C   UNL     1     -37.724   9.501  79.516  1.00  0.00     0.041 C 
ATOM     11  C   UNL     1     -36.497   9.316  80.415  1.00  0.00     0.150 C 
ATOM     12  C   UNL     1     -35.234   9.074  79.576  1.00  0.00     0.174 C 
ATOM     13  O   UNL     1     -36.704   8.194  81.258  1.00  0.00    -0.344 OA
ATOM     14  C   UNL     1     -34.033   9.308  80.490  1.00  0.00     0.179 C 
ATOM     15  C   UNL     1     -34.157   8.406  81.750  1.00  0.00     0.202 C 
BRANCH  12  16
ATOM     16  O   UNL     1     -35.153   9.828  78.407  1.00  0.00    -0.388 OA
ATOM     17  H   UNL     1     -34.576  10.603  78.581  1.00  0.00     0.211 HD
ENDBRANCH  12  16
BRANCH  14  18
ATOM     18  O   UNL     1     -32.845   8.999  79.794  1.00  0.00    -0.387 OA
ATOM     19  H   UNL     1     -32.812   9.632  79.017  1.00  0.00     0.211 HD
ENDBRANCH  14  18
BRANCH  15  20
ATOM     20  O   UNL     1     -33.811   9.142  82.892  1.00  0.00    -0.385 OA
ATOM     21  H   UNL     1     -33.138   8.597  83.385  1.00  0.00     0.211 HD
ENDBRANCH  15  20
ENDBRANCH   8   9
ENDBRANCH   7   8
ENDBRANCH   1   7
BRANCH   2  22
ATOM     22  O   UNL     1     -35.220   3.582  84.268  1.00  0.00    -0.387 OA
ATOM     23  H   UNL     1     -35.433   2.618  84.371  1.00  0.00     0.211 HD
ENDBRANCH   2  22
BRANCH   3  24
ATOM     24  O   UNL     1     -37.610   2.349  82.879  1.00  0.00    -0.387 OA
ATOM     25  H   UNL     1     -36.742   1.874  82.870  1.00  0.00     0.211 HD
ENDBRANCH   3  24
BRANCH   5  26
ATOM     26  O   UNL     1     -38.231   5.477  81.942  1.00  0.00    -0.454 OA
BRANCH  26  27
ATOM     27  C   UNL     1     -38.936   4.879  80.880  1.00  0.00     0.214 A 
ATOM     28  C   UNL     1     -38.290   4.638  79.658  1.00  0.00     0.180 A 
ATOM     29  C   UNL     1     -40.284   4.474  81.015  1.00  0.00     0.239 A 
ATOM     30  O   UNL     1     -38.986   4.190  78.623  1.00  0.00    -0.452 OA
ATOM     31  C   UNL     1     -40.982   3.912  79.921  1.00  0.00     0.111 A 
ATOM     32  O   UNL     1     -40.808   4.540  82.152  1.00  0.00    -0.285 OA
ATOM     33  C   UNL     1     -40.274   3.827  78.701  1.00  0.00     0.146 A 
ATOM     34  C   UNL     1     -42.300   3.375  79.984  1.00  0.00     0.134 A 
ATOM     35  C   UNL     1     -40.891   3.331  77.557  1.00  0.00     0.094 A 
ATOM     36  C   UNL     1     -42.861   2.787  78.841  1.00  0.00     0.093 A 
ATOM     37  C   UNL     1     -42.177   2.798  77.623  1.00  0.00     0.123 A 
BRANCH  28  38
ATOM     38  C   UNL     1     -36.834   4.826  79.470  1.00  0.00     0.025 A 
ATOM     39  C   UNL     1     -35.933   4.351  80.425  1.00  0.00     0.062 A 
ATOM     40  C   UNL     1     -36.374   5.676  78.456  1.00  0.00     0.016 A 
ATOM     41  C   UNL     1     -34.560   4.677  80.338  1.00  0.00     0.158 A 
ATOM     42  C   UNL     1     -35.018   6.006  78.367  1.00  0.00     0.051 A 
ATOM     43  C   UNL     1     -34.114   5.532  79.303  1.00  0.00     0.157 A 
BRANCH  41  44
ATOM     44  O   UNL     1     -33.655   4.167  81.258  1.00  0.00    -0.504 OA
ATOM     45  H   UNL     1     -33.802   3.259  81.673  1.00  0.00     0.293 HD
ENDBRANCH  41  44
BRANCH  43  46
ATOM     46  O   UNL     1     -32.766   5.910  79.195  1.00  0.00    -0.504 OA
ATOM     47  H   UNL     1     -32.301   6.497  79.856  1.00  0.00     0.293 HD
ENDBRANCH  43  46
ENDBRANCH  28  38
BRANCH  34  48
ATOM     48  O   UNL     1     -43.113   3.404  81.139  1.00  0.00    -0.507 OA
ATOM     49  H   UNL     1     -43.755   2.679  81.406  1.00  0.00     0.293 HD
ENDBRANCH  34  48
BRANCH  37  50
ATOM     50  O   UNL     1     -42.765   2.285  76.463  1.00  0.00    -0.508 OA
ATOM     51  H   UNL     1     -42.453   2.566  75.522  1.00  0.00     0.293 HD
ENDBRANCH  37  50
ENDBRANCH  26  27
ENDBRANCH   5  26
BRANCH   4  52
ATOM     52  O   UNL     1     -39.531   4.179  85.125  1.00  0.00    -0.384 OA
ATOM     53  H   UNL     1     -38.917   3.783  85.809  1.00  0.00     0.211 HD
ENDBRANCH   4  52
TORSDOF 16
ENDMDL
MODEL 4
REMARK VINA RESULT:    -7.344      2.081      7.254
REMARK INTER + INTRA:         -12.958
REMARK INTER:                 -10.643
REMARK INTRA:                  -2.315
REMARK UNBOUND:                -0.892
REMARK SMILES C[C@H]1O[C@H](OC[C@H]2O[C@@H](Oc3c(-c4ccc(O)c(O)c4)oc4cc(O)cc(O)c4c3=O)[C@H](O)[C@@H](O)[C@@H]2O)[C@H](O)[C@@H](O)[C@@H]1O
REMARK SMILES IDX 7 1 36 2 34 3 32 4 9 5 8 6 6 7 5 8 4 9 1 10 2 11 42 12 3 13
REMARK SMILES IDX 40 14 38 15 43 16 41 18 39 20 37 22 35 24 10 26 11 27 12 28
REMARK SMILES IDX 30 29 21 30 29 31 31 32 22 33 27 34 23 35 26 36 24 37 13 38
REMARK SMILES IDX 20 39 14 40 18 41 15 42 16 43 19 44 17 46 28 48 25 50 33 52
REMARK H PARENT 43 17 41 19 39 21 37 23 35 25 19 45 17 47 28 49 25 51 33 53
REMARK Flexibility Score: inf
ROOT
ATOM      1  C   UNL     1     -38.964   3.101  80.136  1.00  0.00     0.180 C 
ATOM      2  C   UNL     1     -40.302   3.862  80.316  1.00  0.00     0.177 C 
ATOM      3  C   UNL     1     -41.102   3.310  81.524  1.00  0.00     0.180 C 
ATOM      4  C   UNL     1     -40.202   2.897  82.703  1.00  0.00     0.214 C 
ATOM      5  C   UNL     1     -38.783   3.436  82.509  1.00  0.00     0.339 C 
ATOM      6  O   UNL     1     -38.196   2.927  81.320  1.00  0.00    -0.332 OA
ENDROOT
BRANCH   1   7
ATOM      7  C   UNL     1     -38.069   3.735  79.046  1.00  0.00     0.198 C 
BRANCH   7   8
ATOM      8  O   UNL     1     -36.723   3.862  79.480  1.00  0.00    -0.347 OA
BRANCH   8   9
ATOM      9  C   UNL     1     -35.979   4.698  78.618  1.00  0.00     0.281 C 
ATOM     10  C   UNL     1     -37.157   8.158  77.848  1.00  0.00     0.041 C 
ATOM     11  C   UNL     1     -36.298   7.102  78.555  1.00  0.00     0.150 C 
ATOM     12  C   UNL     1     -34.839   7.175  78.080  1.00  0.00     0.174 C 
ATOM     13  O   UNL     1     -36.808   5.813  78.256  1.00  0.00    -0.344 OA
ATOM     14  C   UNL     1     -33.996   6.405  79.094  1.00  0.00     0.179 C 
ATOM     15  C   UNL     1     -34.557   4.964  79.246  1.00  0.00     0.202 C 
BRANCH  12  16
ATOM     16  O   UNL     1     -34.354   8.465  77.872  1.00  0.00    -0.388 OA
ATOM     17  H   UNL     1     -34.442   8.965  78.712  1.00  0.00     0.211 HD
ENDBRANCH  12  16
BRANCH  14  18
ATOM     18  O   UNL     1     -32.657   6.355  78.650  1.00  0.00    -0.387 OA
ATOM     19  H   UNL     1     -32.236   7.212  78.956  1.00  0.00     0.211 HD
ENDBRANCH  14  18
BRANCH  15  20
ATOM     20  O   UNL     1     -34.578   4.606  80.602  1.00  0.00    -0.385 OA
ATOM     21  H   UNL     1     -35.310   5.135  81.023  1.00  0.00     0.211 HD
ENDBRANCH  15  20
ENDBRANCH   8   9
ENDBRANCH   7   8
ENDBRANCH   1   7
BRANCH   2  22
ATOM     22  O   UNL     1     -41.079   3.699  79.146  1.00  0.00    -0.387 OA
ATOM     23  H   UNL     1     -40.558   3.139  78.513  1.00  0.00     0.211 HD
ENDBRANCH   2  22
BRANCH   3  24
ATOM     24  O   UNL     1     -41.969   4.323  81.970  1.00  0.00    -0.387 OA
ATOM     25  H   UNL     1     -41.428   5.109  82.234  1.00  0.00     0.211 HD
ENDBRANCH   3  24
BRANCH   5  26
ATOM     26  O   UNL     1     -38.730   4.861  82.494  1.00  0.00    -0.454 OA
BRANCH  26  27
ATOM     27  C   UNL     1     -37.544   5.606  82.635  1.00  0.00     0.214 A 
ATOM     28  C   UNL     1     -37.431   6.867  82.032  1.00  0.00     0.180 A 
ATOM     29  C   UNL     1     -36.456   5.134  83.407  1.00  0.00     0.239 A 
ATOM     30  O   UNL     1     -36.273   7.510  82.063  1.00  0.00    -0.452 OA
ATOM     31  C   UNL     1     -35.260   5.882  83.502  1.00  0.00     0.111 A 
ATOM     32  O   UNL     1     -36.620   4.087  84.076  1.00  0.00    -0.285 OA
ATOM     33  C   UNL     1     -35.208   7.080  82.754  1.00  0.00     0.146 A 
ATOM     34  C   UNL     1     -34.154   5.549  84.336  1.00  0.00     0.134 A 
ATOM     35  C   UNL     1     -34.056   7.861  82.747  1.00  0.00     0.094 A 
ATOM     36  C   UNL     1     -33.047   6.408  84.389  1.00  0.00     0.093 A 
ATOM     37  C   UNL     1     -32.979   7.539  83.571  1.00  0.00     0.123 A 
BRANCH  28  38
ATOM     38  C   UNL     1     -38.572   7.549  81.380  1.00  0.00     0.025 A 
ATOM     39  C   UNL     1     -39.394   6.855  80.492  1.00  0.00     0.062 A 
ATOM     40  C   UNL     1     -38.688   8.942  81.476  1.00  0.00     0.016 A 
ATOM     41  C   UNL     1     -40.375   7.541  79.738  1.00  0.00     0.158 A 
ATOM     42  C   UNL     1     -39.651   9.628  80.730  1.00  0.00     0.051 A 
ATOM     43  C   UNL     1     -40.480   8.946  79.853  1.00  0.00     0.157 A 
BRANCH  41  44
ATOM     44  O   UNL     1     -41.226   6.846  78.891  1.00  0.00    -0.504 OA
ATOM     45  H   UNL     1     -40.905   6.022  78.404  1.00  0.00     0.293 HD
ENDBRANCH  41  44
BRANCH  43  46
ATOM     46  O   UNL     1     -41.415   9.676  79.101  1.00  0.00    -0.504 OA
ATOM     47  H   UNL     1     -41.172  10.442  78.509  1.00  0.00     0.293 HD
ENDBRANCH  43  46
ENDBRANCH  28  38
BRANCH  34  48
ATOM     48  O   UNL     1     -34.081   4.380  85.125  1.00  0.00    -0.507 OA
ATOM     49  H   UNL     1     -34.516   4.266  86.023  1.00  0.00     0.293 HD
ENDBRANCH  34  48
BRANCH  37  50
ATOM     50  O   UNL     1     -31.843   8.353  83.561  1.00  0.00    -0.508 OA
ATOM     51  H   UNL     1     -31.380   8.654  84.430  1.00  0.00     0.293 HD
ENDBRANCH  37  50
ENDBRANCH  26  27
ENDBRANCH   5  26
BRANCH   4  52
ATOM     52  O   UNL     1     -40.162   1.499  82.888  1.00  0.00    -0.384 OA
ATOM     53  H   UNL     1     -40.490   1.290  83.809  1.00  0.00     0.211 HD
ENDBRANCH   4  52
TORSDOF 16
ENDMDL
MODEL 5
REMARK VINA RESULT:    -7.321      2.040      5.409
REMARK INTER + INTRA:         -12.921
REMARK INTER:                  -9.956
REMARK INTRA:                  -2.965
REMARK UNBOUND:                -0.892
REMARK SMILES C[C@H]1O[C@H](OC[C@H]2O[C@@H](Oc3c(-c4ccc(O)c(O)c4)oc4cc(O)cc(O)c4c3=O)[C@H](O)[C@@H](O)[C@@H]2O)[C@H](O)[C@@H](O)[C@@H]1O
REMARK SMILES IDX 7 1 36 2 34 3 32 4 9 5 8 6 6 7 5 8 4 9 1 10 2 11 42 12 3 13
REMARK SMILES IDX 40 14 38 15 43 16 41 18 39 20 37 22 35 24 10 26 11 27 12 28
REMARK SMILES IDX 30 29 21 30 29 31 31 32 22 33 27 34 23 35 26 36 24 37 13 38
REMARK SMILES IDX 20 39 14 40 18 41 15 42 16 43 19 44 17 46 28 48 25 50 33 52
REMARK H PARENT 43 17 41 19 39 21 37 23 35 25 19 45 17 47 28 49 25 51 33 53
REMARK Flexibility Score: inf
ROOT
ATOM      1  C   UNL     1     -39.444   8.690  79.501  1.00  0.00     0.180 C 
ATOM      2  C   UNL     1     -37.971   9.085  79.781  1.00  0.00     0.177 C 
ATOM      3  C   UNL     1     -37.835   9.805  81.147  1.00  0.00     0.180 C 
ATOM      4  C   UNL     1     -38.774   9.233  82.225  1.00  0.00     0.214 C 
ATOM      5  C   UNL     1     -39.364   7.897  81.768  1.00  0.00     0.339 C 
ATOM      6  O   UNL     1     -40.119   8.048  80.575  1.00  0.00    -0.332 OA
ENDROOT
BRANCH   1   7
ATOM      7  C   UNL     1     -39.588   7.826  78.227  1.00  0.00     0.198 C 
BRANCH   7   8
ATOM      8  O   UNL     1     -40.399   6.682  78.458  1.00  0.00    -0.347 OA
BRANCH   8   9
ATOM      9  C   UNL     1     -39.803   5.513  77.935  1.00  0.00     0.281 C 
ATOM     10  C   UNL     1     -36.573   4.249  79.318  1.00  0.00     0.041 C 
ATOM     11  C   UNL     1     -38.095   4.282  79.141  1.00  0.00     0.150 C 
ATOM     12  C   UNL     1     -38.582   3.052  78.360  1.00  0.00     0.174 C 
ATOM     13  O   UNL     1     -38.452   5.449  78.418  1.00  0.00    -0.344 OA
ATOM     14  C   UNL     1     -40.090   2.948  78.578  1.00  0.00     0.179 C 
ATOM     15  C   UNL     1     -40.767   4.286  78.169  1.00  0.00     0.202 C 
BRANCH  12  16
ATOM     16  O   UNL     1     -37.927   1.862  78.672  1.00  0.00    -0.388 OA
ATOM     17  H   UNL     1     -37.036   2.085  79.017  1.00  0.00     0.211 HD
ENDBRANCH  12  16
BRANCH  14  18
ATOM     18  O   UNL     1     -40.606   1.891  77.798  1.00  0.00    -0.387 OA
ATOM     19  H   UNL     1     -39.826   1.293  77.599  1.00  0.00     0.211 HD
ENDBRANCH  14  18
BRANCH  15  20
ATOM     20  O   UNL     1     -41.736   4.635  79.121  1.00  0.00    -0.385 OA
ATOM     21  H   UNL     1     -41.733   5.630  79.174  1.00  0.00     0.211 HD
ENDBRANCH  15  20
ENDBRANCH   8   9
ENDBRANCH   7   8
ENDBRANCH   1   7
BRANCH   2  22
ATOM     22  O   UNL     1     -37.534   9.961  78.761  1.00  0.00    -0.387 OA
ATOM     23  H   UNL     1     -37.537   9.457  77.907  1.00  0.00     0.211 HD
ENDBRANCH   2  22
BRANCH   3  24
ATOM     24  O   UNL     1     -36.511   9.646  81.592  1.00  0.00    -0.387 OA
ATOM     25  H   UNL     1     -35.918  10.202  81.028  1.00  0.00     0.211 HD
ENDBRANCH   3  24
BRANCH   5  26
ATOM     26  O   UNL     1     -38.371   6.891  81.579  1.00  0.00    -0.454 OA
BRANCH  26  27
ATOM     27  C   UNL     1     -38.329   5.682  82.301  1.00  0.00     0.214 A 
ATOM     28  C   UNL     1     -37.263   5.423  83.174  1.00  0.00     0.180 A 
ATOM     29  C   UNL     1     -39.360   4.719  82.200  1.00  0.00     0.239 A 
ATOM     30  O   UNL     1     -37.162   4.237  83.756  1.00  0.00    -0.452 OA
ATOM     31  C   UNL     1     -39.276   3.495  82.904  1.00  0.00     0.111 A 
ATOM     32  O   UNL     1     -40.387   5.021  81.548  1.00  0.00    -0.285 OA
ATOM     33  C   UNL     1     -38.100   3.285  83.659  1.00  0.00     0.146 A 
ATOM     34  C   UNL     1     -40.305   2.512  82.956  1.00  0.00     0.134 A 
ATOM     35  C   UNL     1     -37.905   2.092  84.349  1.00  0.00     0.094 A 
ATOM     36  C   UNL     1     -40.125   1.365  83.743  1.00  0.00     0.093 A 
ATOM     37  C   UNL     1     -38.917   1.136  84.406  1.00  0.00     0.123 A 
BRANCH  28  38
ATOM     38  C   UNL     1     -36.242   6.440  83.517  1.00  0.00     0.025 A 
ATOM     39  C   UNL     1     -35.000   6.434  82.881  1.00  0.00     0.062 A 
ATOM     40  C   UNL     1     -36.435   7.260  84.636  1.00  0.00     0.016 A 
ATOM     41  C   UNL     1     -33.964   7.289  83.324  1.00  0.00     0.158 A 
ATOM     42  C   UNL     1     -35.414   8.103  85.084  1.00  0.00     0.051 A 
ATOM     43  C   UNL     1     -34.181   8.113  84.452  1.00  0.00     0.157 A 
BRANCH  41  44
ATOM     44  O   UNL     1     -32.745   7.319  82.662  1.00  0.00    -0.504 OA
ATOM     45  H   UNL     1     -32.705   7.483  81.667  1.00  0.00     0.293 HD
ENDBRANCH  41  44
BRANCH  43  46
ATOM     46  O   UNL     1     -33.172   8.955  84.950  1.00  0.00    -0.504 OA
ATOM     47  H   UNL     1     -33.151   9.297  85.888  1.00  0.00     0.293 HD
ENDBRANCH  43  46
ENDBRANCH  28  38
BRANCH  34  48
ATOM     48  O   UNL     1     -41.522   2.600  82.243  1.00  0.00    -0.507 OA
ATOM     49  H   UNL     1     -42.393   2.201  82.545  1.00  0.00     0.293 HD
ENDBRANCH  34  48
BRANCH  37  50
ATOM     50  O   UNL     1     -38.703  -0.044  85.125  1.00  0.00    -0.508 OA
ATOM     51  H   UNL     1     -38.519  -0.943  84.657  1.00  0.00     0.293 HD
ENDBRANCH  37  50
ENDBRANCH  26  27
ENDBRANCH   5  26
BRANCH   4  52
ATOM     52  O   UNL     1     -39.814  10.124  82.563  1.00  0.00    -0.384 OA
ATOM     53  H   UNL     1     -40.267  10.420  81.721  1.00  0.00     0.211 HD
ENDBRANCH   4  52
TORSDOF 16
ENDMDL
MODEL 6
REMARK VINA RESULT:    -7.073      2.809      7.306
REMARK INTER + INTRA:         -12.513
REMARK INTER:                 -10.592
REMARK INTRA:                  -1.920
REMARK UNBOUND:                -0.892
REMARK SMILES C[C@H]1O[C@H](OC[C@H]2O[C@@H](Oc3c(-c4ccc(O)c(O)c4)oc4cc(O)cc(O)c4c3=O)[C@H](O)[C@@H](O)[C@@H]2O)[C@H](O)[C@@H](O)[C@@H]1O
REMARK SMILES IDX 7 1 36 2 34 3 32 4 9 5 8 6 6 7 5 8 4 9 1 10 2 11 42 12 3 13
REMARK SMILES IDX 40 14 38 15 43 16 41 18 39 20 37 22 35 24 10 26 11 27 12 28
REMARK SMILES IDX 30 29 21 30 29 31 31 32 22 33 27 34 23 35 26 36 24 37 13 38
REMARK SMILES IDX 20 39 14 40 18 41 15 42 16 43 19 44 17 46 28 48 25 50 33 52
REMARK H PARENT 43 17 41 19 39 21 37 23 35 25 19 45 17 47 28 49 25 51 33 53
REMARK Flexibility Score: inf
ROOT
ATOM      1  C   UNL     1     -37.877   4.435  81.721  1.00  0.00     0.180 C 
ATOM      2  C   UNL     1     -38.198   5.297  82.969  1.00  0.00     0.177 C 
ATOM      3  C   UNL     1     -37.380   4.826  84.200  1.00  0.00     0.180 C 
ATOM      4  C   UNL     1     -35.955   4.367  83.835  1.00  0.00     0.214 C 
ATOM      5  C   UNL     1     -35.602   4.797  82.409  1.00  0.00     0.339 C 
ATOM      6  O   UNL     1     -36.494   4.225  81.463  1.00  0.00    -0.332 OA
ENDROOT
BRANCH   1   7
ATOM      7  C   UNL     1     -38.550   4.983  80.441  1.00  0.00     0.198 C 
BRANCH   7   8
ATOM      8  O   UNL     1     -38.486   4.048  79.373  1.00  0.00    -0.347 OA
BRANCH   8   9
ATOM      9  C   UNL     1     -39.621   3.208  79.354  1.00  0.00     0.281 C 
ATOM     10  C   UNL     1     -42.324   3.612  81.898  1.00  0.00     0.041 C 
ATOM     11  C   UNL     1     -41.670   3.776  80.521  1.00  0.00     0.150 C 
ATOM     12  C   UNL     1     -42.382   2.911  79.470  1.00  0.00     0.174 C 
ATOM     13  O   UNL     1     -40.314   3.368  80.601  1.00  0.00    -0.344 OA
ATOM     14  C   UNL     1     -41.956   3.427  78.099  1.00  0.00     0.179 C 
ATOM     15  C   UNL     1     -40.404   3.420  78.001  1.00  0.00     0.202 C 
BRANCH  12  16
ATOM     16  O   UNL     1     -43.769   2.856  79.598  1.00  0.00    -0.388 OA
ATOM     17  H   UNL     1     -44.004   3.137  80.509  1.00  0.00     0.211 HD
ENDBRANCH  12  16
BRANCH  14  18
ATOM     18  O   UNL     1     -42.503   2.600  77.094  1.00  0.00    -0.387 OA
ATOM     19  H   UNL     1     -42.746   1.741  77.551  1.00  0.00     0.211 HD
ENDBRANCH  14  18
BRANCH  15  20
ATOM     20  O   UNL     1     -39.964   4.605  77.394  1.00  0.00    -0.385 OA
ATOM     21  H   UNL     1     -40.493   5.344  77.801  1.00  0.00     0.211 HD
ENDBRANCH  15  20
ENDBRANCH   8   9
ENDBRANCH   7   8
ENDBRANCH   1   7
BRANCH   2  22
ATOM     22  O   UNL     1     -39.574   5.172  83.266  1.00  0.00    -0.387 OA
ATOM     23  H   UNL     1     -39.659   4.977  84.236  1.00  0.00     0.211 HD
ENDBRANCH   2  22
BRANCH   3  24
ATOM     24  O   UNL     1     -37.275   5.908  85.092  1.00  0.00    -0.387 OA
ATOM     25  H   UNL     1     -37.336   6.750  84.576  1.00  0.00     0.211 HD
ENDBRANCH   3  24
BRANCH   5  26
ATOM     26  O   UNL     1     -35.581   6.213  82.248  1.00  0.00    -0.454 OA
BRANCH  26  27
ATOM     27  C   UNL     1     -34.413   6.958  81.996  1.00  0.00     0.214 A 
ATOM     28  C   UNL     1     -34.147   7.430  80.702  1.00  0.00     0.180 A 
ATOM     29  C   UNL     1     -33.499   7.282  83.026  1.00  0.00     0.239 A 
ATOM     30  O   UNL     1     -32.991   8.023  80.442  1.00  0.00    -0.452 OA
ATOM     31  C   UNL     1     -32.313   7.997  82.741  1.00  0.00     0.111 A 
ATOM     32  O   UNL     1     -33.818   7.001  84.205  1.00  0.00    -0.285 OA
ATOM     33  C   UNL     1     -32.084   8.317  81.383  1.00  0.00     0.146 A 
ATOM     34  C   UNL     1     -31.388   8.464  83.718  1.00  0.00     0.134 A 
ATOM     35  C   UNL     1     -30.922   8.979  80.998  1.00  0.00     0.094 A 
ATOM     36  C   UNL     1     -30.277   9.218  83.311  1.00  0.00     0.093 A 
ATOM     37  C   UNL     1     -30.023   9.443  81.956  1.00  0.00     0.123 A 
BRANCH  28  38
ATOM     38  C   UNL     1     -35.127   7.334  79.596  1.00  0.00     0.025 A 
ATOM     39  C   UNL     1     -36.335   8.031  79.663  1.00  0.00     0.062 A 
ATOM     40  C   UNL     1     -34.947   6.369  78.597  1.00  0.00     0.016 A 
ATOM     41  C   UNL     1     -37.344   7.808  78.697  1.00  0.00     0.158 A 
ATOM     42  C   UNL     1     -35.942   6.140  77.642  1.00  0.00     0.051 A 
ATOM     43  C   UNL     1     -37.140   6.834  77.692  1.00  0.00     0.157 A 
BRANCH  41  44
ATOM     44  O   UNL     1     -38.526   8.535  78.733  1.00  0.00    -0.504 OA
ATOM     45  H   UNL     1     -39.315   8.259  78.168  1.00  0.00     0.293 HD
ENDBRANCH  41  44
BRANCH  43  46
ATOM     46  O   UNL     1     -38.125   6.554  76.731  1.00  0.00    -0.504 OA
ATOM     47  H   UNL     1     -39.100   6.713  76.877  1.00  0.00     0.293 HD
ENDBRANCH  43  46
ENDBRANCH  28  38
BRANCH  34  48
ATOM     48  O   UNL     1     -31.499   8.206  85.102  1.00  0.00    -0.507 OA
ATOM     49  H   UNL     1     -32.336   7.893  85.561  1.00  0.00     0.293 HD
ENDBRANCH  34  48
BRANCH  37  50
ATOM     50  O   UNL     1     -28.875  10.125  81.543  1.00  0.00    -0.508 OA
ATOM     51  H   UNL     1     -28.888  10.789  80.756  1.00  0.00     0.293 HD
ENDBRANCH  37  50
ENDBRANCH  26  27
ENDBRANCH   5  26
BRANCH   4  52
ATOM     52  O   UNL     1     -35.786   2.974  83.971  1.00  0.00    -0.384 OA
ATOM     53  H   UNL     1     -34.819   2.786  84.148  1.00  0.00     0.211 HD
ENDBRANCH   4  52
TORSDOF 16
ENDMDL
MODEL 7
REMARK VINA RESULT:    -6.913      2.577      4.836
REMARK INTER + INTRA:         -12.251
REMARK INTER:                  -9.777
REMARK INTRA:                  -2.473
REMARK UNBOUND:                -0.892
REMARK SMILES C[C@H]1O[C@H](OC[C@H]2O[C@@H](Oc3c(-c4ccc(O)c(O)c4)oc4cc(O)cc(O)c4c3=O)[C@H](O)[C@@H](O)[C@@H]2O)[C@H](O)[C@@H](O)[C@@H]1O
REMARK SMILES IDX 7 1 36 2 34 3 32 4 9 5 8 6 6 7 5 8 4 9 1 10 2 11 42 12 3 13
REMARK SMILES IDX 40 14 38 15 43 16 41 18 39 20 37 22 35 24 10 26 11 27 12 28
REMARK SMILES IDX 30 29 21 30 29 31 31 32 22 33 27 34 23 35 26 36 24 37 13 38
REMARK SMILES IDX 20 39 14 40 18 41 15 42 16 43 19 44 17 46 28 48 25 50 33 52
REMARK H PARENT 43 17 41 19 39 21 37 23 35 25 19 45 17 47 28 49 25 51 33 53
REMARK Flexibility Score: inf
ROOT
ATOM      1  C   UNL     1     -36.381   8.942  81.740  1.00  0.00     0.180 C 
ATOM      2  C   UNL     1     -36.446   7.996  82.967  1.00  0.00     0.177 C 
ATOM      3  C   UNL     1     -37.800   8.136  83.710  1.00  0.00     0.180 C 
ATOM      4  C   UNL     1     -38.988   8.365  82.757  1.00  0.00     0.214 C 
ATOM      5  C   UNL     1     -38.580   8.073  81.311  1.00  0.00     0.339 C 
ATOM      6  O   UNL     1     -37.522   8.923  80.893  1.00  0.00    -0.332 OA
ENDROOT
BRANCH   1   7
ATOM      7  C   UNL     1     -35.115   8.708  80.884  1.00  0.00     0.198 C 
BRANCH   7   8
ATOM      8  O   UNL     1     -34.115   8.002  81.606  1.00  0.00    -0.347 OA
BRANCH   8   9
ATOM      9  C   UNL     1     -33.039   8.846  81.958  1.00  0.00     0.281 C 
ATOM     10  C   UNL     1     -31.141   8.282  85.124  1.00  0.00     0.041 C 
ATOM     11  C   UNL     1     -31.382   8.209  83.612  1.00  0.00     0.150 C 
ATOM     12  C   UNL     1     -30.427   9.147  82.859  1.00  0.00     0.174 C 
ATOM     13  O   UNL     1     -32.717   8.604  83.336  1.00  0.00    -0.344 OA
ATOM     14  C   UNL     1     -30.444   8.724  81.392  1.00  0.00     0.179 C 
ATOM     15  C   UNL     1     -31.906   8.730  80.867  1.00  0.00     0.202 C 
BRANCH  12  16
ATOM     16  O   UNL     1     -29.132   9.200  83.371  1.00  0.00    -0.388 OA
ATOM     17  H   UNL     1     -28.956  10.121  83.664  1.00  0.00     0.211 HD
ENDBRANCH  12  16
BRANCH  14  18
ATOM     18  O   UNL     1     -29.658   9.620  80.636  1.00  0.00    -0.387 OA
ATOM     19  H   UNL     1     -30.002   9.557  79.696  1.00  0.00     0.211 HD
ENDBRANCH  14  18
BRANCH  15  20
ATOM     20  O   UNL     1     -32.133   7.588  80.086  1.00  0.00    -0.385 OA
ATOM     21  H   UNL     1     -31.372   7.528  79.446  1.00  0.00     0.211 HD
ENDBRANCH  15  20
ENDBRANCH   8   9
ENDBRANCH   7   8
ENDBRANCH   1   7
BRANCH   2  22
ATOM     22  O   UNL     1     -35.403   8.336  83.858  1.00  0.00    -0.387 OA
ATOM     23  H   UNL     1     -35.010   7.491  84.200  1.00  0.00     0.211 HD
ENDBRANCH   2  22
BRANCH   3  24
ATOM     24  O   UNL     1     -38.031   6.944  84.418  1.00  0.00    -0.387 OA
ATOM     25  H   UNL     1     -37.999   7.140  85.388  1.00  0.00     0.211 HD
ENDBRANCH   3  24
BRANCH   5  26
ATOM     26  O   UNL     1     -38.207   6.712  81.107  1.00  0.00    -0.454 OA
BRANCH  26  27
ATOM     27  C   UNL     1     -38.910   5.821  80.273  1.00  0.00     0.214 A 
ATOM     28  C   UNL     1     -38.428   5.536  78.987  1.00  0.00     0.180 A 
ATOM     29  C   UNL     1     -40.086   5.166  80.707  1.00  0.00     0.239 A 
ATOM     30  O   UNL     1     -39.154   4.796  78.162  1.00  0.00    -0.452 OA
ATOM     31  C   UNL     1     -40.796   4.306  79.838  1.00  0.00     0.111 A 
ATOM     32  O   UNL     1     -40.423   5.295  81.908  1.00  0.00    -0.285 OA
ATOM     33  C   UNL     1     -40.291   4.185  78.523  1.00  0.00     0.146 A 
ATOM     34  C   UNL     1     -41.923   3.519  80.211  1.00  0.00     0.134 A 
ATOM     35  C   UNL     1     -40.947   3.398  77.582  1.00  0.00     0.094 A 
ATOM     36  C   UNL     1     -42.503   2.655  79.270  1.00  0.00     0.093 A 
ATOM     37  C   UNL     1     -42.044   2.622  77.952  1.00  0.00     0.123 A 
BRANCH  28  38
ATOM     38  C   UNL     1     -37.106   5.996  78.506  1.00  0.00     0.025 A 
ATOM     39  C   UNL     1     -35.938   5.376  78.955  1.00  0.00     0.062 A 
ATOM     40  C   UNL     1     -37.013   7.192  77.783  1.00  0.00     0.016 A 
ATOM     41  C   UNL     1     -34.672   5.919  78.636  1.00  0.00     0.158 A 
ATOM     42  C   UNL     1     -35.764   7.737  77.468  1.00  0.00     0.051 A 
ATOM     43  C   UNL     1     -34.599   7.125  77.900  1.00  0.00     0.157 A 
BRANCH  41  44
ATOM     44  O   UNL     1     -33.509   5.279  79.041  1.00  0.00    -0.504 OA
ATOM     45  H   UNL     1     -33.395   4.979  79.998  1.00  0.00     0.293 HD
ENDBRANCH  41  44
BRANCH  43  46
ATOM     46  O   UNL     1     -33.366   7.720  77.587  1.00  0.00    -0.504 OA
ATOM     47  H   UNL     1     -32.582   7.724  78.206  1.00  0.00     0.293 HD
ENDBRANCH  43  46
ENDBRANCH  28  38
BRANCH  34  48
ATOM     48  O   UNL     1     -42.526   3.554  81.488  1.00  0.00    -0.507 OA
ATOM     49  H   UNL     1     -42.036   3.725  82.348  1.00  0.00     0.293 HD
ENDBRANCH  34  48
BRANCH  37  50
ATOM     50  O   UNL     1     -42.671   1.823  76.991  1.00  0.00    -0.508 OA
ATOM     51  H   UNL     1     -42.415   1.865  75.994  1.00  0.00     0.293 HD
ENDBRANCH  37  50
ENDBRANCH  26  27
ENDBRANCH   5  26
BRANCH   4  52
ATOM     52  O   UNL     1     -39.512   9.671  82.852  1.00  0.00    -0.384 OA
ATOM     53  H   UNL     1     -40.499   9.609  83.004  1.00  0.00     0.211 HD
ENDBRANCH   4  52
TORSDOF 16
ENDMDL
MODEL 8
REMARK VINA RESULT:    -6.716      2.208      5.160
REMARK INTER + INTRA:         -11.927
REMARK INTER:                  -9.295
REMARK INTRA:                  -2.632
REMARK UNBOUND:                -0.892
REMARK SMILES C[C@H]1O[C@H](OC[C@H]2O[C@@H](Oc3c(-c4ccc(O)c(O)c4)oc4cc(O)cc(O)c4c3=O)[C@H](O)[C@@H](O)[C@@H]2O)[C@H](O)[C@@H](O)[C@@H]1O
REMARK SMILES IDX 7 1 36 2 34 3 32 4 9 5 8 6 6 7 5 8 4 9 1 10 2 11 42 12 3 13
REMARK SMILES IDX 40 14 38 15 43 16 41 18 39 20 37 22 35 24 10 26 11 27 12 28
REMARK SMILES IDX 30 29 21 30 29 31 31 32 22 33 27 34 23 35 26 36 24 37 13 38
REMARK SMILES IDX 20 39 14 40 18 41 15 42 16 43 19 44 17 46 28 48 25 50 33 52
REMARK H PARENT 43 17 41 19 39 21 37 23 35 25 19 45 17 47 28 49 25 51 33 53
REMARK Flexibility Score: inf
ROOT
ATOM      1  C   UNL     1     -33.683   7.265  80.441  1.00  0.00     0.180 C 
ATOM      2  C   UNL     1     -34.407   7.477  79.087  1.00  0.00     0.177 C 
ATOM      3  C   UNL     1     -34.400   6.179  78.238  1.00  0.00     0.180 C 
ATOM      4  C   UNL     1     -34.558   4.904  79.088  1.00  0.00     0.214 C 
ATOM      5  C   UNL     1     -35.006   5.258  80.508  1.00  0.00     0.339 C 
ATOM      6  O   UNL     1     -34.056   6.093  81.155  1.00  0.00    -0.332 OA
ENDROOT
BRANCH   1   7
ATOM      7  C   UNL     1     -33.818   8.488  81.377  1.00  0.00     0.198 C 
BRANCH   7   8
ATOM      8  O   UNL     1     -34.070   8.097  82.719  1.00  0.00    -0.347 OA
BRANCH   8   9
ATOM      9  C   UNL     1     -35.246   8.699  83.220  1.00  0.00     0.281 C 
ATOM     10  C   UNL     1     -37.790  10.124  80.887  1.00  0.00     0.041 C 
ATOM     11  C   UNL     1     -37.201   9.071  81.833  1.00  0.00     0.150 C 
ATOM     12  C   UNL     1     -38.008   8.993  83.138  1.00  0.00     0.174 C 
ATOM     13  O   UNL     1     -35.864   9.426  82.148  1.00  0.00    -0.344 OA
ATOM     14  C   UNL     1     -37.628   7.684  83.825  1.00  0.00     0.179 C 
ATOM     15  C   UNL     1     -36.086   7.624  84.012  1.00  0.00     0.202 C 
BRANCH  12  16
ATOM     16  O   UNL     1     -39.387   9.118  82.982  1.00  0.00    -0.388 OA
ATOM     17  H   UNL     1     -39.692   8.413  82.371  1.00  0.00     0.211 HD
ENDBRANCH  12  16
BRANCH  14  18
ATOM     18  O   UNL     1     -38.267   7.610  85.081  1.00  0.00    -0.387 OA
ATOM     19  H   UNL     1     -38.309   8.552  85.421  1.00  0.00     0.211 HD
ENDBRANCH  14  18
BRANCH  15  20
ATOM     20  O   UNL     1     -35.620   6.343  83.687  1.00  0.00    -0.385 OA
ATOM     21  H   UNL     1     -34.677   6.296  84.004  1.00  0.00     0.211 HD
ENDBRANCH  15  20
ENDBRANCH   8   9
ENDBRANCH   7   8
ENDBRANCH   1   7
BRANCH   2  22
ATOM     22  O   UNL     1     -33.736   8.492  78.367  1.00  0.00    -0.387 OA
ATOM     23  H   UNL     1     -34.393   9.211  78.175  1.00  0.00     0.211 HD
ENDBRANCH   2  22
BRANCH   3  24
ATOM     24  O   UNL     1     -35.479   6.241  77.340  1.00  0.00    -0.387 OA
ATOM     25  H   UNL     1     -35.429   5.462  76.731  1.00  0.00     0.211 HD
ENDBRANCH   3  24
BRANCH   5  26
ATOM     26  O   UNL     1     -36.288   5.880  80.544  1.00  0.00    -0.454 OA
BRANCH  26  27
ATOM     27  C   UNL     1     -37.457   5.246  81.007  1.00  0.00     0.214 A 
ATOM     28  C   UNL     1     -38.699   5.559  80.435  1.00  0.00     0.180 A 
ATOM     29  C   UNL     1     -37.418   4.262  82.023  1.00  0.00     0.239 A 
ATOM     30  O   UNL     1     -39.808   5.055  80.953  1.00  0.00    -0.452 OA
ATOM     31  C   UNL     1     -38.610   3.669  82.499  1.00  0.00     0.111 A 
ATOM     32  O   UNL     1     -36.295   3.868  82.417  1.00  0.00    -0.285 OA
ATOM     33  C   UNL     1     -39.817   4.146  81.939  1.00  0.00     0.146 A 
ATOM     34  C   UNL     1     -38.669   2.597  83.435  1.00  0.00     0.134 A 
ATOM     35  C   UNL     1     -41.043   3.655  82.376  1.00  0.00     0.094 A 
ATOM     36  C   UNL     1     -39.914   2.052  83.782  1.00  0.00     0.093 A 
ATOM     37  C   UNL     1     -41.098   2.601  83.286  1.00  0.00     0.123 A 
BRANCH  28  38
ATOM     38  C   UNL     1     -38.835   6.412  79.232  1.00  0.00     0.025 A 
ATOM     39  C   UNL     1     -39.500   7.637  79.308  1.00  0.00     0.062 A 
ATOM     40  C   UNL     1     -38.503   5.889  77.975  1.00  0.00     0.016 A 
ATOM     41  C   UNL     1     -39.784   8.372  78.134  1.00  0.00     0.158 A 
ATOM     42  C   UNL     1     -38.785   6.608  76.810  1.00  0.00     0.051 A 
ATOM     43  C   UNL     1     -39.435   7.830  76.875  1.00  0.00     0.157 A 
BRANCH  41  44
ATOM     44  O   UNL     1     -40.401   9.612  78.212  1.00  0.00    -0.504 OA
ATOM     45  H   UNL     1     -41.323   9.752  77.824  1.00  0.00     0.293 HD
ENDBRANCH  41  44
BRANCH  43  46
ATOM     46  O   UNL     1     -39.726   8.507  75.679  1.00  0.00    -0.504 OA
ATOM     47  H   UNL     1     -39.989   8.046  74.833  1.00  0.00     0.293 HD
ENDBRANCH  43  46
ENDBRANCH  28  38
BRANCH  34  48
ATOM     48  O   UNL     1     -37.538   2.037  84.071  1.00  0.00    -0.507 OA
ATOM     49  H   UNL     1     -37.334   2.115  85.051  1.00  0.00     0.293 HD
ENDBRANCH  34  48
BRANCH  37  50
ATOM     50  O   UNL     1     -42.343   2.112  83.691  1.00  0.00    -0.508 OA
ATOM     51  H   UNL     1     -43.208   2.662  83.581  1.00  0.00     0.293 HD
ENDBRANCH  37  50
ENDBRANCH  26  27
ENDBRANCH   5  26
BRANCH   4  52
ATOM     52  O   UNL     1     -33.374   4.138  79.137  1.00  0.00    -0.384 OA
ATOM     53  H   UNL     1     -33.165   3.935  80.094  1.00  0.00     0.211 HD
ENDBRANCH   4  52
TORSDOF 16
ENDMDL
