MODEL 1
REMARK VINA RESULT:     3.838      0.000      0.000
REMARK INTER + INTRA:           4.451
REMARK INTER:                   4.511
REMARK INTRA:                  -0.060
REMARK UNBOUND:                -0.060
REMARK SMILES O=C([O-])CCC(=O)[O-]
REMARK SMILES IDX 4 1 2 2 1 3 3 4 5 5 6 6 7 7 8 8
REMARK H PARENT
REMARK Flexibility Score: inf
ROOT
ATOM      1  C   UNL     1      -0.851  -9.192  25.552  1.00  0.00     0.059 C 
ENDROOT
BRANCH   1   2
ATOM      2  C   UNL     1       0.289  -8.525  26.261  1.00  0.00     0.042 C 
ATOM      3  O   UNL     1       0.954  -9.154  27.125  1.00  0.00    -0.550 OA
ATOM      4  O   UNL     1       0.640  -7.221  25.937  1.00  0.00    -0.550 OA
ENDBRANCH   1   2
BRANCH   1   5
ATOM      5  C   UNL     1      -1.156  -8.512  24.213  1.00  0.00     0.059 C 
BRANCH   5   6
ATOM      6  C   UNL     1      -2.621  -8.246  24.052  1.00  0.00     0.042 C 
ATOM      7  O   UNL     1      -3.459  -8.853  24.770  1.00  0.00    -0.550 OA
ATOM      8  O   UNL     1      -3.059  -7.298  23.135  1.00  0.00    -0.550 OA
ENDBRANCH   5   6
ENDBRANCH   1   5
TORSDOF 3
ENDMDL
MODEL 2
REMARK VINA RESULT:     3.855      0.048      3.937
REMARK INTER + INTRA:           4.471
REMARK INTER:                   4.534
REMARK INTRA:                  -0.063
REMARK UNBOUND:                -0.060
REMARK SMILES O=C([O-])CCC(=O)[O-]
REMARK SMILES IDX 4 1 2 2 1 3 3 4 5 5 6 6 7 7 8 8
REMARK H PARENT
REMARK Flexibility Score: inf
ROOT
ATOM      1  C   UNL     1      -1.181  -8.590  24.214  1.00  0.00     0.059 C 
ENDROOT
BRANCH   1   2
ATOM      2  C   UNL     1      -2.638  -8.262  24.082  1.00  0.00     0.042 C 
ATOM      3  O   UNL     1      -3.487  -8.838  24.811  1.00  0.00    -0.550 OA
ATOM      4  O   UNL     1      -3.051  -7.289  23.181  1.00  0.00    -0.550 OA
ENDBRANCH   1   2
BRANCH   1   5
ATOM      5  C   UNL     1      -0.867  -9.228  25.571  1.00  0.00     0.059 C 
BRANCH   5   6
ATOM      6  C   UNL     1       0.271  -8.536  26.255  1.00  0.00     0.042 C 
ATOM      7  O   UNL     1       0.961  -9.148  27.114  1.00  0.00    -0.550 OA
ATOM      8  O   UNL     1       0.595  -7.229  25.916  1.00  0.00    -0.550 OA
ENDBRANCH   5   6
ENDBRANCH   1   5
TORSDOF 3
ENDMDL
MODEL 3
REMARK VINA RESULT:     5.867      8.960     10.184
REMARK INTER + INTRA:           6.836
REMARK INTER:                   6.931
REMARK INTRA:                  -0.095
REMARK UNBOUND:                -0.060
REMARK SMILES O=C([O-])CCC(=O)[O-]
REMARK SMILES IDX 4 1 2 2 1 3 3 4 5 5 6 6 7 7 8 8
REMARK H PARENT
REMARK Flexibility Score: inf
ROOT
ATOM      1  C   UNL     1      -5.727 -18.120  25.684  1.00  0.00     0.059 C 
ENDROOT
BRANCH   1   2
ATOM      2  C   UNL     1      -5.649 -18.340  24.203  1.00  0.00     0.042 C 
ATOM      3  O   UNL     1      -6.512 -19.046  23.620  1.00  0.00    -0.550 OA
ATOM      4  O   UNL     1      -4.643 -17.730  23.463  1.00  0.00    -0.550 OA
ENDBRANCH   1   2
BRANCH   1   5
ATOM      5  C   UNL     1      -4.589 -17.223  26.181  1.00  0.00     0.059 C 
BRANCH   5   6
ATOM      6  C   UNL     1      -5.035 -15.801  26.335  1.00  0.00     0.042 C 
ATOM      7  O   UNL     1      -5.973 -15.513  27.125  1.00  0.00    -0.550 OA
ATOM      8  O   UNL     1      -4.389 -14.790  25.635  1.00  0.00    -0.550 OA
ENDBRANCH   5   6
ENDBRANCH   1   5
TORSDOF 3
ENDMDL
MODEL 4
REMARK VINA RESULT:     5.935      8.973      9.913
REMARK INTER + INTRA:           6.916
REMARK INTER:                   7.009
REMARK INTRA:                  -0.093
REMARK UNBOUND:                -0.060
REMARK SMILES O=C([O-])CCC(=O)[O-]
REMARK SMILES IDX 4 1 2 2 1 3 3 4 5 5 6 6 7 7 8 8
REMARK H PARENT
REMARK Flexibility Score: inf
ROOT
ATOM      1  C   UNL     1      -4.588 -17.201  26.182  1.00  0.00     0.059 C 
ENDROOT
BRANCH   1   2
ATOM      2  C   UNL     1      -5.046 -15.782  26.341  1.00  0.00     0.042 C 
ATOM      3  O   UNL     1      -5.990 -15.504  27.125  1.00  0.00    -0.550 OA
ATOM      4  O   UNL     1      -4.399 -14.763  25.652  1.00  0.00    -0.550 OA
ENDBRANCH   1   2
BRANCH   1   5
ATOM      5  C   UNL     1      -5.719 -18.105  25.680  1.00  0.00     0.059 C 
BRANCH   5   6
ATOM      6  C   UNL     1      -5.580 -18.400  24.218  1.00  0.00     0.042 C 
ATOM      7  O   UNL     1      -6.345 -19.233  23.664  1.00  0.00    -0.550 OA
ATOM      8  O   UNL     1      -4.631 -17.726  23.459  1.00  0.00    -0.550 OA
ENDBRANCH   5   6
ENDBRANCH   1   5
TORSDOF 3
ENDMDL
