MODEL 1
REMARK VINA RESULT:    -6.259      0.000      0.000
REMARK INTER + INTRA:         -11.136
REMARK INTER:                  -9.552
REMARK INTRA:                  -1.584
REMARK UNBOUND:                -1.584
REMARK SMILES CC(=O)CCC=C(C)CCC=C(C)CCC=C(C)C
REMARK SMILES IDX 10 1 11 2 12 3 13 4 14 5 15 6 16 7 18 8 17 9 19 10 9 11 7 12
REMARK SMILES IDX 6 13 8 14 5 15 4 16 2 17 3 18 1 19
REMARK H PARENT
REMARK Flexibility Score: inf
ROOT
ATOM      1  C   UNL     1      -8.294  32.551  27.288  1.00  0.00     0.032 C 
ENDROOT
BRANCH   1   2
ATOM      2  C   UNL     1      -9.032  31.567  28.162  1.00  0.00    -0.028 C 
ATOM      3  C   UNL     1      -8.975  30.222  28.036  1.00  0.00    -0.077 C 
ATOM      4  C   UNL     1      -9.814  29.383  28.965  1.00  0.00     0.039 C 
BRANCH   3   5
ATOM      5  C   UNL     1      -8.057  29.521  27.055  1.00  0.00     0.034 C 
BRANCH   5   6
ATOM      6  C   UNL     1      -8.680  29.500  25.656  1.00  0.00     0.032 C 
BRANCH   6   7
ATOM      7  C   UNL     1      -7.706  30.020  24.628  1.00  0.00    -0.028 C 
ATOM      8  C   UNL     1      -8.857  28.875  22.720  1.00  0.00     0.039 C 
ATOM      9  C   UNL     1      -7.787  29.768  23.303  1.00  0.00    -0.080 C 
ATOM     10  C   UNL     1      -6.761  30.391  22.391  1.00  0.00     0.039 C 
ENDBRANCH   6   7
ENDBRANCH   5   6
ENDBRANCH   3   5
ENDBRANCH   1   2
BRANCH   1  11
ATOM     11  C   UNL     1      -9.158  33.041  26.115  1.00  0.00     0.034 C 
BRANCH  11  12
ATOM     12  C   UNL     1      -8.420  34.053  25.265  1.00  0.00    -0.077 C 
ATOM     13  C   UNL     1      -7.815  33.642  24.127  1.00  0.00    -0.028 C 
ATOM     14  C   UNL     1      -8.433  35.503  25.684  1.00  0.00     0.039 C 
BRANCH  13  15
ATOM     15  C   UNL     1      -7.157  34.563  23.131  1.00  0.00     0.035 C 
BRANCH  15  16
ATOM     16  C   UNL     1      -8.092  34.822  21.946  1.00  0.00     0.079 C 
BRANCH  16  17
ATOM     17  C   UNL     1      -8.244  33.583  21.106  1.00  0.00     0.130 C 
ATOM     18  O   UNL     1      -9.216  32.860  21.270  1.00  0.00    -0.300 OA
ATOM     19  C   UNL     1      -7.221  33.205  20.076  1.00  0.00     0.087 C 
ENDBRANCH  16  17
ENDBRANCH  15  16
ENDBRANCH  13  15
ENDBRANCH  11  12
ENDBRANCH   1  11
TORSDOF 9
ENDMDL
MODEL 2
REMARK VINA RESULT:    -6.038      1.347      4.807
REMARK INTER + INTRA:         -10.800
REMARK INTER:                  -9.232
REMARK INTRA:                  -1.568
REMARK UNBOUND:                -1.584
REMARK SMILES CC(=O)CCC=C(C)CCC=C(C)CCC=C(C)C
REMARK SMILES IDX 10 1 11 2 12 3 13 4 14 5 15 6 16 7 18 8 17 9 19 10 9 11 7 12
REMARK SMILES IDX 6 13 8 14 5 15 4 16 2 17 3 18 1 19
REMARK H PARENT
REMARK Flexibility Score: inf
ROOT
ATOM      1  C   UNL     1      -6.921  34.440  23.122  1.00  0.00     0.032 C 
ENDROOT
BRANCH   1   2
ATOM      2  C   UNL     1      -7.509  35.339  24.183  1.00  0.00    -0.028 C 
ATOM      3  C   UNL     1      -8.440  34.965  25.089  1.00  0.00    -0.077 C 
ATOM      4  C   UNL     1      -8.955  36.003  26.052  1.00  0.00     0.039 C 
BRANCH   3   5
ATOM      5  C   UNL     1      -8.933  33.539  25.226  1.00  0.00     0.034 C 
BRANCH   5   6
ATOM      6  C   UNL     1      -8.372  32.895  26.498  1.00  0.00     0.032 C 
BRANCH   6   7
ATOM      7  C   UNL     1      -9.307  31.830  27.016  1.00  0.00    -0.028 C 
ATOM      8  C   UNL     1      -7.620  29.996  26.754  1.00  0.00     0.039 C 
ATOM      9  C   UNL     1      -8.975  30.527  27.160  1.00  0.00    -0.080 C 
ATOM     10  C   UNL     1     -10.003  29.584  27.729  1.00  0.00     0.039 C 
ENDBRANCH   6   7
ENDBRANCH   5   6
ENDBRANCH   3   5
ENDBRANCH   1   2
BRANCH   1  11
ATOM     11  C   UNL     1      -7.523  34.717  21.735  1.00  0.00     0.034 C 
BRANCH  11  12
ATOM     12  C   UNL     1      -7.943  33.437  21.046  1.00  0.00    -0.077 C 
ATOM     13  C   UNL     1      -8.968  32.718  21.558  1.00  0.00    -0.028 C 
ATOM     14  C   UNL     1      -7.243  33.034  19.771  1.00  0.00     0.039 C 
BRANCH  13  15
ATOM     15  C   UNL     1      -9.564  31.499  20.903  1.00  0.00     0.035 C 
BRANCH  15  16
ATOM     16  C   UNL     1      -8.842  30.232  21.374  1.00  0.00     0.079 C 
BRANCH  16  17
ATOM     17  C   UNL     1      -8.455  30.348  22.825  1.00  0.00     0.130 C 
ATOM     18  O   UNL     1      -9.328  30.383  23.678  1.00  0.00    -0.300 OA
ATOM     19  C   UNL     1      -7.018  30.435  23.246  1.00  0.00     0.087 C 
ENDBRANCH  16  17
ENDBRANCH  15  16
ENDBRANCH  13  15
ENDBRANCH  11  12
ENDBRANCH   1  11
TORSDOF 9
ENDMDL
MODEL 3
REMARK VINA RESULT:    -5.960      1.855      5.548
REMARK INTER + INTRA:         -10.681
REMARK INTER:                  -9.855
REMARK INTRA:                  -0.826
REMARK UNBOUND:                -1.584
REMARK SMILES CC(=O)CCC=C(C)CCC=C(C)CCC=C(C)C
REMARK SMILES IDX 10 1 11 2 12 3 13 4 14 5 15 6 16 7 18 8 17 9 19 10 9 11 7 12
REMARK SMILES IDX 6 13 8 14 5 15 4 16 2 17 3 18 1 19
REMARK H PARENT
REMARK Flexibility Score: inf
ROOT
ATOM      1  C   UNL     1      -8.180  34.940  23.327  1.00  0.00     0.032 C 
ENDROOT
BRANCH   1   2
ATOM      2  C   UNL     1      -7.558  34.661  21.980  1.00  0.00    -0.028 C 
ATOM      3  C   UNL     1      -7.976  33.711  21.113  1.00  0.00    -0.077 C 
ATOM      4  C   UNL     1      -7.211  33.534  19.827  1.00  0.00     0.039 C 
BRANCH   3   5
ATOM      5  C   UNL     1      -9.214  32.870  21.343  1.00  0.00     0.034 C 
BRANCH   5   6
ATOM      6  C   UNL     1      -8.929  31.397  21.033  1.00  0.00     0.032 C 
BRANCH   6   7
ATOM      7  C   UNL     1      -7.704  30.921  21.773  1.00  0.00    -0.028 C 
ATOM      8  C   UNL     1      -9.029  29.912  23.645  1.00  0.00     0.039 C 
ATOM      9  C   UNL     1      -7.734  30.231  22.935  1.00  0.00    -0.080 C 
ATOM     10  C   UNL     1      -6.427  29.786  23.539  1.00  0.00     0.039 C 
ENDBRANCH   6   7
ENDBRANCH   5   6
ENDBRANCH   3   5
ENDBRANCH   1   2
BRANCH   1  11
ATOM     11  C   UNL     1      -8.671  33.655  24.011  1.00  0.00     0.034 C 
BRANCH  11  12
ATOM     12  C   UNL     1      -8.442  33.699  25.507  1.00  0.00    -0.077 C 
ATOM     13  C   UNL     1      -8.445  32.543  26.209  1.00  0.00    -0.028 C 
ATOM     14  C   UNL     1      -8.159  35.030  26.160  1.00  0.00     0.039 C 
BRANCH  13  15
ATOM     15  C   UNL     1      -8.108  32.436  27.674  1.00  0.00     0.035 C 
BRANCH  15  16
ATOM     16  C   UNL     1      -8.785  31.206  28.289  1.00  0.00     0.079 C 
BRANCH  16  17
ATOM     17  C   UNL     1      -8.585  29.996  27.417  1.00  0.00     0.130 C 
ATOM     18  O   UNL     1      -7.470  29.745  26.984  1.00  0.00    -0.300 OA
ATOM     19  C   UNL     1      -9.729  29.096  27.054  1.00  0.00     0.087 C 
ENDBRANCH  16  17
ENDBRANCH  15  16
ENDBRANCH  13  15
ENDBRANCH  11  12
ENDBRANCH   1  11
TORSDOF 9
ENDMDL
MODEL 4
REMARK VINA RESULT:    -5.904      1.635      4.795
REMARK INTER + INTRA:         -10.594
REMARK INTER:                  -8.773
REMARK INTRA:                  -1.821
REMARK UNBOUND:                -1.584
REMARK SMILES CC(=O)CCC=C(C)CCC=C(C)CCC=C(C)C
REMARK SMILES IDX 10 1 11 2 12 3 13 4 14 5 15 6 16 7 18 8 17 9 19 10 9 11 7 12
REMARK SMILES IDX 6 13 8 14 5 15 4 16 2 17 3 18 1 19
REMARK H PARENT
REMARK Flexibility Score: inf
ROOT
ATOM      1  C   UNL     1      -9.266  28.955  25.481  1.00  0.00     0.032 C 
ENDROOT
BRANCH   1   2
ATOM      2  C   UNL     1      -8.230  29.151  24.400  1.00  0.00    -0.028 C 
ATOM      3  C   UNL     1      -8.288  30.093  23.432  1.00  0.00    -0.077 C 
ATOM      4  C   UNL     1      -7.190  30.122  22.400  1.00  0.00     0.039 C 
BRANCH   3   5
ATOM      5  C   UNL     1      -9.362  31.160  23.379  1.00  0.00     0.034 C 
BRANCH   5   6
ATOM      6  C   UNL     1      -9.304  31.917  22.049  1.00  0.00     0.032 C 
BRANCH   6   7
ATOM      7  C   UNL     1      -8.719  33.294  22.242  1.00  0.00    -0.028 C 
ATOM      8  C   UNL     1      -7.317  33.166  20.169  1.00  0.00     0.039 C 
ATOM      9  C   UNL     1      -7.845  33.879  21.393  1.00  0.00    -0.080 C 
ATOM     10  C   UNL     1      -7.377  35.279  21.697  1.00  0.00     0.039 C 
ENDBRANCH   6   7
ENDBRANCH   5   6
ENDBRANCH   3   5
ENDBRANCH   1   2
BRANCH   1  11
ATOM     11  C   UNL     1      -8.675  29.150  26.886  1.00  0.00     0.034 C 
BRANCH  11  12
ATOM     12  C   UNL     1      -8.811  30.585  27.351  1.00  0.00    -0.077 C 
ATOM     13  C   UNL     1      -7.986  31.525  26.838  1.00  0.00    -0.028 C 
ATOM     14  C   UNL     1      -9.906  30.930  28.332  1.00  0.00     0.039 C 
BRANCH  13  15
ATOM     15  C   UNL     1      -8.098  33.002  27.121  1.00  0.00     0.035 C 
BRANCH  15  16
ATOM     16  C   UNL     1      -8.948  33.688  26.047  1.00  0.00     0.079 C 
BRANCH  16  17
ATOM     17  C   UNL     1      -8.304  34.972  25.597  1.00  0.00     0.130 C 
ATOM     18  O   UNL     1      -7.117  35.159  25.819  1.00  0.00    -0.300 OA
ATOM     19  C   UNL     1      -9.091  36.037  24.892  1.00  0.00     0.087 C 
ENDBRANCH  16  17
ENDBRANCH  15  16
ENDBRANCH  13  15
ENDBRANCH  11  12
ENDBRANCH   1  11
TORSDOF 9
ENDMDL
MODEL 5
REMARK VINA RESULT:    -5.859      1.140      3.848
REMARK INTER + INTRA:         -10.527
REMARK INTER:                  -9.261
REMARK INTRA:                  -1.266
REMARK UNBOUND:                -1.584
REMARK SMILES CC(=O)CCC=C(C)CCC=C(C)CCC=C(C)C
REMARK SMILES IDX 10 1 11 2 12 3 13 4 14 5 15 6 16 7 18 8 17 9 19 10 9 11 7 12
REMARK SMILES IDX 6 13 8 14 5 15 4 16 2 17 3 18 1 19
REMARK H PARENT
REMARK Flexibility Score: inf
ROOT
ATOM      1  C   UNL     1      -7.750  29.793  25.675  1.00  0.00     0.032 C 
ENDROOT
BRANCH   1   2
ATOM      2  C   UNL     1      -8.383  29.479  27.009  1.00  0.00    -0.028 C 
ATOM      3  C   UNL     1      -9.017  30.376  27.799  1.00  0.00    -0.077 C 
ATOM      4  C   UNL     1      -9.553  29.904  29.125  1.00  0.00     0.039 C 
BRANCH   3   5
ATOM      5  C   UNL     1      -9.273  31.809  27.380  1.00  0.00     0.034 C 
BRANCH   5   6
ATOM      6  C   UNL     1      -8.050  32.683  27.675  1.00  0.00     0.032 C 
BRANCH   6   7
ATOM      7  C   UNL     1      -8.251  34.081  27.146  1.00  0.00    -0.028 C 
ATOM      8  C   UNL     1      -8.342  33.337  24.755  1.00  0.00     0.039 C 
ATOM      9  C   UNL     1      -8.409  34.388  25.839  1.00  0.00    -0.080 C 
ATOM     10  C   UNL     1      -8.642  35.829  25.464  1.00  0.00     0.039 C 
ENDBRANCH   6   7
ENDBRANCH   5   6
ENDBRANCH   3   5
ENDBRANCH   1   2
BRANCH   1  11
ATOM     11  C   UNL     1      -8.682  29.451  24.502  1.00  0.00     0.034 C 
BRANCH  11  12
ATOM     12  C   UNL     1      -8.183  30.049  23.204  1.00  0.00    -0.077 C 
ATOM     13  C   UNL     1      -9.066  30.639  22.367  1.00  0.00    -0.028 C 
ATOM     14  C   UNL     1      -6.702  30.020  22.912  1.00  0.00     0.039 C 
BRANCH  13  15
ATOM     15  C   UNL     1      -8.686  31.378  21.110  1.00  0.00     0.035 C 
BRANCH  15  16
ATOM     16  C   UNL     1      -9.032  32.865  21.240  1.00  0.00     0.079 C 
BRANCH  16  17
ATOM     17  C   UNL     1      -7.835  33.721  20.920  1.00  0.00     0.130 C 
ATOM     18  O   UNL     1      -7.120  33.424  19.975  1.00  0.00    -0.300 OA
ATOM     19  C   UNL     1      -7.492  34.925  21.745  1.00  0.00     0.087 C 
ENDBRANCH  16  17
ENDBRANCH  15  16
ENDBRANCH  13  15
ENDBRANCH  11  12
ENDBRANCH   1  11
TORSDOF 9
ENDMDL
MODEL 6
REMARK VINA RESULT:    -5.746      2.104      5.296
REMARK INTER + INTRA:         -10.354
REMARK INTER:                  -8.284
REMARK INTRA:                  -2.070
REMARK UNBOUND:                -1.584
REMARK SMILES CC(=O)CCC=C(C)CCC=C(C)CCC=C(C)C
REMARK SMILES IDX 10 1 11 2 12 3 13 4 14 5 15 6 16 7 18 8 17 9 19 10 9 11 7 12
REMARK SMILES IDX 6 13 8 14 5 15 4 16 2 17 3 18 1 19
REMARK H PARENT
REMARK Flexibility Score: inf
ROOT
ATOM      1  C   UNL     1      -7.873  34.806  22.071  1.00  0.00     0.032 C 
ENDROOT
BRANCH   1   2
ATOM      2  C   UNL     1      -9.002  33.833  21.828  1.00  0.00    -0.028 C 
ATOM      3  C   UNL     1      -8.847  32.532  21.493  1.00  0.00    -0.077 C 
ATOM      4  C   UNL     1     -10.084  31.710  21.241  1.00  0.00     0.039 C 
BRANCH   3   5
ATOM      5  C   UNL     1      -7.496  31.850  21.430  1.00  0.00     0.034 C 
BRANCH   5   6
ATOM      6  C   UNL     1      -7.585  30.428  21.995  1.00  0.00     0.032 C 
BRANCH   6   7
ATOM      7  C   UNL     1      -7.081  30.385  23.416  1.00  0.00    -0.028 C 
ATOM      8  C   UNL     1      -9.225  29.452  24.317  1.00  0.00     0.039 C 
ATOM      9  C   UNL     1      -7.798  29.925  24.466  1.00  0.00    -0.080 C 
ATOM     10  C   UNL     1      -7.147  29.906  25.825  1.00  0.00     0.039 C 
ENDBRANCH   6   7
ENDBRANCH   5   6
ENDBRANCH   3   5
ENDBRANCH   1   2
BRANCH   1  11
ATOM     11  C   UNL     1      -7.123  34.503  23.378  1.00  0.00     0.034 C 
BRANCH  11  12
ATOM     12  C   UNL     1      -8.043  34.585  24.578  1.00  0.00    -0.077 C 
ATOM     13  C   UNL     1      -8.224  33.486  25.345  1.00  0.00    -0.028 C 
ATOM     14  C   UNL     1      -8.682  35.909  24.915  1.00  0.00     0.039 C 
BRANCH  13  15
ATOM     15  C   UNL     1      -9.009  33.466  26.632  1.00  0.00     0.035 C 
BRANCH  15  16
ATOM     16  C   UNL     1      -9.627  32.082  26.858  1.00  0.00     0.079 C 
BRANCH  16  17
ATOM     17  C   UNL     1      -9.204  31.521  28.189  1.00  0.00     0.130 C 
ATOM     18  O   UNL     1      -8.609  32.236  28.981  1.00  0.00    -0.300 OA
ATOM     19  C   UNL     1      -9.485  30.095  28.562  1.00  0.00     0.087 C 
ENDBRANCH  16  17
ENDBRANCH  15  16
ENDBRANCH  13  15
ENDBRANCH  11  12
ENDBRANCH   1  11
TORSDOF 9
ENDMDL
MODEL 7
REMARK VINA RESULT:    -5.541     17.663     20.620
REMARK INTER + INTRA:         -10.041
REMARK INTER:                  -8.846
REMARK INTRA:                  -1.195
REMARK UNBOUND:                -1.584
REMARK SMILES CC(=O)CCC=C(C)CCC=C(C)CCC=C(C)C
REMARK SMILES IDX 10 1 11 2 12 3 13 4 14 5 15 6 16 7 18 8 17 9 19 10 9 11 7 12
REMARK SMILES IDX 6 13 8 14 5 15 4 16 2 17 3 18 1 19
REMARK H PARENT
REMARK Flexibility Score: inf
ROOT
ATOM      1  C   UNL     1      -1.874  45.746  12.915  1.00  0.00     0.032 C 
ENDROOT
BRANCH   1   2
ATOM      2  C   UNL     1      -1.735  47.012  12.105  1.00  0.00    -0.028 C 
ATOM      3  C   UNL     1      -2.035  47.130  10.792  1.00  0.00    -0.077 C 
ATOM      4  C   UNL     1      -1.793  48.458  10.122  1.00  0.00     0.039 C 
BRANCH   3   5
ATOM      5  C   UNL     1      -2.667  46.014   9.985  1.00  0.00     0.034 C 
BRANCH   5   6
ATOM      6  C   UNL     1      -4.106  45.763  10.448  1.00  0.00     0.032 C 
BRANCH   6   7
ATOM      7  C   UNL     1      -5.025  46.851   9.952  1.00  0.00    -0.028 C 
ATOM      8  C   UNL     1      -5.318  47.863  12.226  1.00  0.00     0.039 C 
ATOM      9  C   UNL     1      -5.558  47.817  10.735  1.00  0.00    -0.080 C 
ATOM     10  C   UNL     1      -6.430  48.863  10.090  1.00  0.00     0.039 C 
ENDBRANCH   6   7
ENDBRANCH   5   6
ENDBRANCH   3   5
ENDBRANCH   1   2
BRANCH   1  11
ATOM     11  C   UNL     1      -0.618  45.458  13.753  1.00  0.00     0.034 C 
BRANCH  11  12
ATOM     12  C   UNL     1      -0.310  46.597  14.703  1.00  0.00    -0.077 C 
ATOM     13  C   UNL     1      -1.180  46.878  15.699  1.00  0.00    -0.028 C 
ATOM     14  C   UNL     1       0.991  47.345  14.542  1.00  0.00     0.039 C 
BRANCH  13  15
ATOM     15  C   UNL     1      -0.935  47.897  16.782  1.00  0.00     0.035 C 
BRANCH  15  16
ATOM     16  C   UNL     1      -2.011  47.792  17.868  1.00  0.00     0.079 C 
BRANCH  16  17
ATOM     17  C   UNL     1      -1.383  47.591  19.221  1.00  0.00     0.130 C 
ATOM     18  O   UNL     1      -0.178  47.405  19.304  1.00  0.00    -0.300 OA
ATOM     19  C   UNL     1      -2.207  47.600  20.475  1.00  0.00     0.087 C 
ENDBRANCH  16  17
ENDBRANCH  15  16
ENDBRANCH  13  15
ENDBRANCH  11  12
ENDBRANCH   1  11
TORSDOF 9
ENDMDL
MODEL 8
REMARK VINA RESULT:    -5.398     18.083     19.996
REMARK INTER + INTRA:          -9.823
REMARK INTER:                  -8.938
REMARK INTRA:                  -0.885
REMARK UNBOUND:                -1.584
REMARK SMILES CC(=O)CCC=C(C)CCC=C(C)CCC=C(C)C
REMARK SMILES IDX 10 1 11 2 12 3 13 4 14 5 15 6 16 7 18 8 17 9 19 10 9 11 7 12
REMARK SMILES IDX 6 13 8 14 5 15 4 16 2 17 3 18 1 19
REMARK H PARENT
REMARK Flexibility Score: inf
ROOT
ATOM      1  C   UNL     1      -1.379  47.666  16.600  1.00  0.00     0.032 C 
ENDROOT
BRANCH   1   2
ATOM      2  C   UNL     1      -0.035  47.709  15.916  1.00  0.00    -0.028 C 
ATOM      3  C   UNL     1       0.295  47.009  14.807  1.00  0.00    -0.077 C 
ATOM      4  C   UNL     1       1.700  47.133  14.277  1.00  0.00     0.039 C 
BRANCH   3   5
ATOM      5  C   UNL     1      -0.699  46.166  14.036  1.00  0.00     0.034 C 
BRANCH   5   6
ATOM      6  C   UNL     1      -1.342  46.985  12.911  1.00  0.00     0.032 C 
BRANCH   6   7
ATOM      7  C   UNL     1      -1.902  46.080  11.843  1.00  0.00    -0.028 C 
ATOM      8  C   UNL     1      -1.925  47.881  10.102  1.00  0.00     0.039 C 
ATOM      9  C   UNL     1      -2.146  46.462  10.569  1.00  0.00    -0.080 C 
ATOM     10  C   UNL     1      -2.670  45.433   9.600  1.00  0.00     0.039 C 
ENDBRANCH   6   7
ENDBRANCH   5   6
ENDBRANCH   3   5
ENDBRANCH   1   2
BRANCH   1  11
ATOM     11  C   UNL     1      -1.524  48.775  17.654  1.00  0.00     0.034 C 
BRANCH  11  12
ATOM     12  C   UNL     1      -1.452  48.219  19.061  1.00  0.00    -0.077 C 
ATOM     13  C   UNL     1      -0.315  47.615  19.474  1.00  0.00    -0.028 C 
ATOM     14  C   UNL     1      -2.635  48.409  19.979  1.00  0.00     0.039 C 
BRANCH  13  15
ATOM     15  C   UNL     1      -0.069  47.132  20.880  1.00  0.00     0.035 C 
BRANCH  15  16
ATOM     16  C   UNL     1       0.929  48.051  21.593  1.00  0.00     0.079 C 
BRANCH  16  17
ATOM     17  C   UNL     1       0.469  48.351  22.995  1.00  0.00     0.130 C 
ATOM     18  O   UNL     1       1.264  48.266  23.919  1.00  0.00    -0.300 OA
ATOM     19  C   UNL     1      -0.950  48.740  23.286  1.00  0.00     0.087 C 
ENDBRANCH  16  17
ENDBRANCH  15  16
ENDBRANCH  13  15
ENDBRANCH  11  12
ENDBRANCH   1  11
TORSDOF 9
ENDMDL
MODEL 9
REMARK VINA RESULT:    -5.335     17.821     19.066
REMARK INTER + INTRA:          -9.727
REMARK INTER:                  -8.753
REMARK INTRA:                  -0.974
REMARK UNBOUND:                -1.584
REMARK SMILES CC(=O)CCC=C(C)CCC=C(C)CCC=C(C)C
REMARK SMILES IDX 10 1 11 2 12 3 13 4 14 5 15 6 16 7 18 8 17 9 19 10 9 11 7 12
REMARK SMILES IDX 6 13 8 14 5 15 4 16 2 17 3 18 1 19
REMARK H PARENT
REMARK Flexibility Score: inf
ROOT
ATOM      1  C   UNL     1      -1.128  47.609  19.326  1.00  0.00     0.032 C 
ENDROOT
BRANCH   1   2
ATOM      2  C   UNL     1      -1.980  47.902  20.537  1.00  0.00    -0.028 C 
ATOM      3  C   UNL     1      -1.543  48.502  21.668  1.00  0.00    -0.077 C 
ATOM      4  C   UNL     1      -2.516  48.678  22.804  1.00  0.00     0.039 C 
BRANCH   3   5
ATOM      5  C   UNL     1      -0.145  49.068  21.816  1.00  0.00     0.034 C 
BRANCH   5   6
ATOM      6  C   UNL     1       0.807  48.008  22.381  1.00  0.00     0.032 C 
BRANCH   6   7
ATOM      7  C   UNL     1       1.173  48.326  23.809  1.00  0.00    -0.028 C 
ATOM      8  C   UNL     1       3.554  47.596  23.530  1.00  0.00     0.039 C 
ATOM      9  C   UNL     1       2.410  48.170  24.333  1.00  0.00    -0.080 C 
ATOM     10  C   UNL     1       2.636  48.568  25.769  1.00  0.00     0.039 C 
ENDBRANCH   6   7
ENDBRANCH   5   6
ENDBRANCH   3   5
ENDBRANCH   1   2
BRANCH   1  11
ATOM     11  C   UNL     1      -1.214  48.729  18.277  1.00  0.00     0.034 C 
BRANCH  11  12
ATOM     12  C   UNL     1      -1.380  48.170  16.880  1.00  0.00    -0.077 C 
ATOM     13  C   UNL     1      -0.454  48.462  15.939  1.00  0.00    -0.028 C 
ATOM     14  C   UNL     1      -2.546  47.254  16.597  1.00  0.00     0.039 C 
BRANCH  13  15
ATOM     15  C   UNL     1      -0.433  47.873  14.552  1.00  0.00     0.035 C 
BRANCH  15  16
ATOM     16  C   UNL     1       0.315  46.535  14.552  1.00  0.00     0.079 C 
BRANCH  16  17
ATOM     17  C   UNL     1      -0.559  45.436  14.009  1.00  0.00     0.130 C 
ATOM     18  O   UNL     1      -0.327  44.277  14.317  1.00  0.00    -0.300 OA
ATOM     19  C   UNL     1      -1.703  45.731  13.086  1.00  0.00     0.087 C 
ENDBRANCH  16  17
ENDBRANCH  15  16
ENDBRANCH  13  15
ENDBRANCH  11  12
ENDBRANCH   1  11
TORSDOF 9
ENDMDL
