MODEL 1
REMARK VINA RESULT:    -4.059      0.000      0.000
REMARK INTER + INTRA:          -5.332
REMARK INTER:                  -5.720
REMARK INTRA:                   0.387
REMARK UNBOUND:                 0.387
REMARK SMILES CC1=CCC(=C(C)C)C(=O)CC(C)=CCC1
REMARK SMILES IDX 12 1 14 2 13 3 15 4 16 5 2 6 1 7 3 8 11 10 9 11 10 12 5 13
REMARK SMILES IDX 6 14 7 15 8 16 4 17
REMARK H PARENT
REMARK Flexibility Score: 60.00
ROOT
ATOM      1  C   UNL     1      -9.322  73.136  24.971  1.00  0.00    -0.070 C 
ATOM      2  C   UNL     1      -9.683  74.285  24.351  1.00  0.00    -0.027 C 
ATOM      3  C   UNL     1      -9.536  73.056  26.463  1.00  0.00     0.039 C 
ENDROOT
BRANCH   2   4
ATOM      4  C   UNL     1      -9.656  74.543  22.863  1.00  0.00     0.032 C 
BRANCH   4   5
ATOM      5  C   UNL     1      -8.248  74.895  22.349  1.00  0.00     0.034 C 
BRANCH   5   6
ATOM      6  C   UNL     1      -7.849  74.053  21.152  1.00  0.00    -0.077 C 
ATOM      7  C   UNL     1      -8.647  74.193  19.880  1.00  0.00     0.039 C 
ATOM      8  C   UNL     1      -6.832  73.162  21.167  1.00  0.00    -0.023 CG0
ATOM      9  G   UNL     1      -5.945  72.856  22.349  1.00  0.00     0.000 G0
ENDBRANCH   5   6
ENDBRANCH   4   5
ENDBRANCH   2   4
BRANCH   1  10
ATOM     10  C   UNL     1      -8.786  71.915  24.243  1.00  0.00     0.111 C 
BRANCH  10  11
ATOM     11  C   UNL     1      -7.280  71.847  24.309  1.00  0.00     0.163 C 
ATOM     12  O   UNL     1      -6.725  72.026  25.427  1.00  0.00    -0.294 OA
BRANCH  11  13
ATOM     13  C   UNL     1      -6.443  71.631  23.087  1.00  0.00    -0.002 C 
ATOM     14  C   UNL     1      -6.193  70.377  22.601  1.00  0.00    -0.069 C 
ATOM     15  C   UNL     1      -5.314  70.165  21.386  1.00  0.00     0.039 C 
ATOM     16  C   UNL     1      -6.807  69.146  23.228  1.00  0.00     0.039 C 
BRANCH  13  17
ATOM     17  C   UNL     1      -5.944  72.869  22.364  1.00  0.00     0.066 CG0
ATOM     18  G   UNL     1      -6.820  73.149  21.166  1.00  0.00     0.000 G0
ENDBRANCH  13  17
ENDBRANCH  11  13
ENDBRANCH  10  11
ENDBRANCH   1  10
TORSDOF 0
ENDMDL
MODEL 2
REMARK VINA RESULT:    -3.654     12.040     14.602
REMARK INTER + INTRA:          -4.761
REMARK INTER:                  -5.396
REMARK INTRA:                   0.634
REMARK UNBOUND:                 0.387
REMARK SMILES CC1=CCC(=C(C)C)C(=O)CC(C)=CCC1
REMARK SMILES IDX 12 1 14 2 13 3 15 4 16 5 2 6 1 7 3 8 11 10 9 11 10 12 5 13
REMARK SMILES IDX 6 14 7 15 8 16 4 17
REMARK H PARENT
REMARK Flexibility Score: 60.00
ROOT
ATOM      1  C   UNL     1     -11.916  71.876  38.653  1.00  0.00    -0.070 C 
ATOM      2  C   UNL     1     -11.976  73.006  37.909  1.00  0.00    -0.027 C 
ATOM      3  C   UNL     1     -12.228  71.997  40.125  1.00  0.00     0.039 C 
ENDROOT
BRANCH   2   4
ATOM      4  C   UNL     1     -11.806  73.100  36.411  1.00  0.00     0.032 C 
BRANCH   4   5
ATOM      5  C   UNL     1     -10.327  73.158  35.986  1.00  0.00     0.034 C 
BRANCH   5   6
ATOM      6  C   UNL     1      -9.922  71.953  35.159  1.00  0.00    -0.077 C 
ATOM      7  C   UNL     1     -10.441  71.845  33.747  1.00  0.00     0.039 C 
ATOM      8  C   UNL     1      -9.140  70.953  35.624  1.00  0.00    -0.023 CG0
ATOM      9  G   UNL     1      -8.555  70.863  37.013  1.00  0.00     0.000 G0
ENDBRANCH   5   6
ENDBRANCH   4   5
ENDBRANCH   2   4
BRANCH   1  10
ATOM     10  C   UNL     1     -11.622  70.501  38.079  1.00  0.00     0.111 C 
BRANCH  10  11
ATOM     11  C   UNL     1     -10.328  69.940  38.617  1.00  0.00     0.163 C 
ATOM     12  O   UNL     1     -10.237  69.747  39.860  1.00  0.00    -0.294 OA
BRANCH  11  13
ATOM     13  C   UNL     1      -9.155  69.664  37.731  1.00  0.00    -0.002 C 
ATOM     14  C   UNL     1      -8.693  68.393  37.526  1.00  0.00    -0.069 C 
ATOM     15  C   UNL     1      -7.482  68.126  36.657  1.00  0.00     0.039 C 
ATOM     16  C   UNL     1      -9.387  67.191  38.125  1.00  0.00     0.039 C 
BRANCH  13  17
ATOM     17  C   UNL     1      -8.543  70.849  37.007  1.00  0.00     0.066 CG0
ATOM     18  G   UNL     1      -9.121  70.953  35.616  1.00  0.00     0.000 G0
ENDBRANCH  13  17
ENDBRANCH  11  13
ENDBRANCH  10  11
ENDBRANCH   1  10
TORSDOF 0
ENDMDL
MODEL 3
REMARK VINA RESULT:    -3.586      1.761      3.895
REMARK INTER + INTRA:          -4.667
REMARK INTER:                  -6.115
REMARK INTRA:                   1.448
REMARK UNBOUND:                 0.387
REMARK SMILES CC1=CCC(=C(C)C)C(=O)CC(C)=CCC1
REMARK SMILES IDX 12 1 14 2 13 3 15 4 16 5 2 6 1 7 3 8 11 10 9 11 10 12 5 13
REMARK SMILES IDX 6 14 7 15 8 16 4 17
REMARK H PARENT
REMARK Flexibility Score: 60.00
ROOT
ATOM      1  C   UNL     1      -9.824  73.468  25.716  1.00  0.00    -0.070 C 
ATOM      2  C   UNL     1      -8.697  72.752  25.945  1.00  0.00    -0.027 C 
ATOM      3  C   UNL     1     -10.913  73.402  26.760  1.00  0.00     0.039 C 
ENDROOT
BRANCH   2   4
ATOM      4  C   UNL     1      -7.449  72.754  25.095  1.00  0.00     0.032 C 
BRANCH   4   5
ATOM      5  C   UNL     1      -6.935  71.333  24.796  1.00  0.00     0.034 C 
BRANCH   5   6
ATOM      6  C   UNL     1      -7.210  70.915  23.364  1.00  0.00    -0.077 C 
ATOM      7  C   UNL     1      -7.129  69.450  23.018  1.00  0.00     0.039 C 
ATOM      8  C   UNL     1      -7.499  71.786  22.371  1.00  0.00    -0.023 CG0
ATOM      9  G   UNL     1      -7.590  73.286  22.511  1.00  0.00     0.000 G0
ENDBRANCH   5   6
ENDBRANCH   4   5
ENDBRANCH   2   4
BRANCH   1  10
ATOM     10  C   UNL     1     -10.019  74.374  24.513  1.00  0.00     0.111 C 
BRANCH  10  11
ATOM     11  C   UNL     1     -10.063  73.587  23.226  1.00  0.00     0.163 C 
ATOM     12  O   UNL     1     -10.989  72.744  23.078  1.00  0.00    -0.294 OA
BRANCH  11  13
ATOM     13  C   UNL     1      -9.020  73.745  22.165  1.00  0.00    -0.002 C 
ATOM     14  C   UNL     1      -9.304  74.324  20.959  1.00  0.00    -0.069 C 
ATOM     15  C   UNL     1      -8.252  74.445  19.877  1.00  0.00     0.039 C 
ATOM     16  C   UNL     1     -10.668  74.901  20.658  1.00  0.00     0.039 C 
BRANCH  13  17
ATOM     17  C   UNL     1      -7.610  73.303  22.513  1.00  0.00     0.066 CG0
ATOM     18  G   UNL     1      -7.494  71.804  22.371  1.00  0.00     0.000 G0
ENDBRANCH  13  17
ENDBRANCH  11  13
ENDBRANCH  10  11
ENDBRANCH   1  10
TORSDOF 0
ENDMDL
MODEL 4
REMARK VINA RESULT:    -3.303     12.462     14.233
REMARK INTER + INTRA:          -4.267
REMARK INTER:                  -4.714
REMARK INTRA:                   0.447
REMARK UNBOUND:                 0.387
REMARK SMILES CC1=CCC(=C(C)C)C(=O)CC(C)=CCC1
REMARK SMILES IDX 12 1 14 2 13 3 15 4 16 5 2 6 1 7 3 8 11 10 9 11 10 12 5 13
REMARK SMILES IDX 6 14 7 15 8 16 4 17
REMARK H PARENT
REMARK Flexibility Score: 60.00
ROOT
ATOM      1  C   UNL     1      -6.874  68.132  35.187  1.00  0.00    -0.070 C 
ATOM      2  C   UNL     1      -6.457  67.675  33.982  1.00  0.00    -0.027 C 
ATOM      3  C   UNL     1      -8.297  68.626  35.287  1.00  0.00     0.039 C 
ENDROOT
BRANCH   2   4
ATOM      4  C   UNL     1      -5.119  67.042  33.682  1.00  0.00     0.032 C 
BRANCH   4   5
ATOM      5  C   UNL     1      -4.026  68.085  33.380  1.00  0.00     0.034 C 
BRANCH   5   6
ATOM      6  C   UNL     1      -2.873  68.005  34.362  1.00  0.00    -0.077 C 
ATOM      7  C   UNL     1      -1.931  66.831  34.267  1.00  0.00     0.039 C 
ATOM      8  C   UNL     1      -2.653  68.916  35.336  1.00  0.00    -0.023 CG0
ATOM      9  G   UNL     1      -3.501  70.135  35.612  1.00  0.00     0.000 G0
ENDBRANCH   5   6
ENDBRANCH   4   5
ENDBRANCH   2   4
BRANCH   1  10
ATOM     10  C   UNL     1      -6.018  68.111  36.442  1.00  0.00     0.111 C 
BRANCH  10  11
ATOM     11  C   UNL     1      -5.646  69.505  36.883  1.00  0.00     0.163 C 
ATOM     12  O   UNL     1      -6.577  70.314  37.144  1.00  0.00    -0.294 OA
BRANCH  11  13
ATOM     13  C   UNL     1      -4.221  69.956  36.962  1.00  0.00    -0.002 C 
ATOM     14  C   UNL     1      -3.589  70.132  38.162  1.00  0.00    -0.069 C 
ATOM     15  C   UNL     1      -2.159  70.625  38.235  1.00  0.00     0.039 C 
ATOM     16  C   UNL     1      -4.272  69.810  39.472  1.00  0.00     0.039 C 
BRANCH  13  17
ATOM     17  C   UNL     1      -3.481  70.140  35.650  1.00  0.00     0.066 CG0
ATOM     18  G   UNL     1      -2.663  68.907  35.347  1.00  0.00     0.000 G0
ENDBRANCH  13  17
ENDBRANCH  11  13
ENDBRANCH  10  11
ENDBRANCH   1  10
TORSDOF 0
ENDMDL
MODEL 5
REMARK VINA RESULT:    -3.303     11.848     14.335
REMARK INTER + INTRA:          -4.267
REMARK INTER:                  -4.623
REMARK INTRA:                   0.356
REMARK UNBOUND:                 0.387
REMARK SMILES CC1=CCC(=C(C)C)C(=O)CC(C)=CCC1
REMARK SMILES IDX 12 1 14 2 13 3 15 4 16 5 2 6 1 7 3 8 11 10 9 11 10 12 5 13
REMARK SMILES IDX 6 14 7 15 8 16 4 17
REMARK H PARENT
REMARK Flexibility Score: 60.00
ROOT
ATOM      1  C   UNL     1      -5.386  67.427  33.642  1.00  0.00    -0.070 C 
ATOM      2  C   UNL     1      -6.741  67.430  33.650  1.00  0.00    -0.027 C 
ATOM      3  C   UNL     1      -4.700  67.502  32.299  1.00  0.00     0.039 C 
ENDROOT
BRANCH   2   4
ATOM      4  C   UNL     1      -7.627  67.467  34.872  1.00  0.00     0.032 C 
BRANCH   4   5
ATOM      5  C   UNL     1      -8.013  68.902  35.278  1.00  0.00     0.034 C 
BRANCH   5   6
ATOM      6  C   UNL     1      -7.888  69.127  36.773  1.00  0.00    -0.077 C 
ATOM      7  C   UNL     1      -8.998  68.635  37.667  1.00  0.00     0.039 C 
ATOM      8  C   UNL     1      -6.847  69.767  37.350  1.00  0.00    -0.023 CG0
ATOM      9  G   UNL     1      -5.662  70.359  36.624  1.00  0.00     0.000 G0
ENDBRANCH   5   6
ENDBRANCH   4   5
ENDBRANCH   2   4
BRANCH   1  10
ATOM     10  C   UNL     1      -4.534  67.423  34.899  1.00  0.00     0.111 C 
BRANCH  10  11
ATOM     11  C   UNL     1      -4.105  68.818  35.283  1.00  0.00     0.163 C 
ATOM     12  O   UNL     1      -3.381  69.461  34.476  1.00  0.00    -0.294 OA
BRANCH  11  13
ATOM     13  C   UNL     1      -4.470  69.423  36.602  1.00  0.00    -0.002 C 
ATOM     14  C   UNL     1      -3.742  69.173  37.733  1.00  0.00    -0.069 C 
ATOM     15  C   UNL     1      -4.140  69.759  39.071  1.00  0.00     0.039 C 
ATOM     16  C   UNL     1      -2.487  68.332  37.697  1.00  0.00     0.039 C 
BRANCH  13  17
ATOM     17  C   UNL     1      -5.641  70.388  36.619  1.00  0.00     0.066 CG0
ATOM     18  G   UNL     1      -6.811  69.762  37.340  1.00  0.00     0.000 G0
ENDBRANCH  13  17
ENDBRANCH  11  13
ENDBRANCH  10  11
ENDBRANCH   1  10
TORSDOF 0
ENDMDL
MODEL 6
REMARK VINA RESULT:    -3.134      3.423      6.569
REMARK INTER + INTRA:          -4.030
REMARK INTER:                  -4.549
REMARK INTRA:                   0.519
REMARK UNBOUND:                 0.387
REMARK SMILES CC1=CCC(=C(C)C)C(=O)CC(C)=CCC1
REMARK SMILES IDX 12 1 14 2 13 3 15 4 16 5 2 6 1 7 3 8 11 10 9 11 10 12 5 13
REMARK SMILES IDX 6 14 7 15 8 16 4 17
REMARK H PARENT
REMARK Flexibility Score: 60.00
ROOT
ATOM      1  C   UNL     1      -7.058  66.391  23.299  1.00  0.00    -0.070 C 
ATOM      2  C   UNL     1      -6.414  65.774  24.319  1.00  0.00    -0.027 C 
ATOM      3  C   UNL     1      -7.592  65.520  22.187  1.00  0.00     0.039 C 
ENDROOT
BRANCH   2   4
ATOM      4  C   UNL     1      -5.896  66.432  25.576  1.00  0.00     0.032 C 
BRANCH   4   5
ATOM      5  C   UNL     1      -4.405  66.805  25.477  1.00  0.00     0.034 C 
BRANCH   5   6
ATOM      6  C   UNL     1      -4.134  68.212  25.973  1.00  0.00    -0.077 C 
ATOM      7  C   UNL     1      -4.066  68.446  27.462  1.00  0.00     0.039 C 
ATOM      8  C   UNL     1      -3.974  69.278  25.158  1.00  0.00    -0.023 CG0
ATOM      9  G   UNL     1      -4.042  69.253  23.649  1.00  0.00     0.000 G0
ENDBRANCH   5   6
ENDBRANCH   4   5
ENDBRANCH   2   4
BRANCH   1  10
ATOM     10  C   UNL     1      -7.328  67.885  23.251  1.00  0.00     0.111 C 
BRANCH  10  11
ATOM     11  C   UNL     1      -6.239  68.621  22.509  1.00  0.00     0.163 C 
ATOM     12  O   UNL     1      -6.006  68.290  21.315  1.00  0.00    -0.294 OA
BRANCH  11  13
ATOM     13  C   UNL     1      -5.410  69.680  23.166  1.00  0.00    -0.002 C 
ATOM     14  C   UNL     1      -5.896  70.939  23.386  1.00  0.00    -0.069 C 
ATOM     15  C   UNL     1      -5.038  72.014  24.018  1.00  0.00     0.039 C 
ATOM     16  C   UNL     1      -7.321  71.310  23.045  1.00  0.00     0.039 C 
BRANCH  13  17
ATOM     17  C   UNL     1      -4.029  69.274  23.647  1.00  0.00     0.066 CG0
ATOM     18  G   UNL     1      -3.990  69.281  25.157  1.00  0.00     0.000 G0
ENDBRANCH  13  17
ENDBRANCH  11  13
ENDBRANCH  10  11
ENDBRANCH   1  10
TORSDOF 0
ENDMDL
MODEL 7
REMARK VINA RESULT:    -3.104     12.498     13.904
REMARK INTER + INTRA:          -3.986
REMARK INTER:                  -4.599
REMARK INTRA:                   0.613
REMARK UNBOUND:                 0.387
REMARK SMILES CC1=CCC(=C(C)C)C(=O)CC(C)=CCC1
REMARK SMILES IDX 12 1 14 2 13 3 15 4 16 5 2 6 1 7 3 8 11 10 9 11 10 12 5 13
REMARK SMILES IDX 6 14 7 15 8 16 4 17
REMARK H PARENT
REMARK Flexibility Score: 60.00
ROOT
ATOM      1  C   UNL     1      -7.787  66.621  34.897  1.00  0.00    -0.070 C 
ATOM      2  C   UNL     1      -8.423  67.507  35.701  1.00  0.00    -0.027 C 
ATOM      3  C   UNL     1      -8.215  65.176  34.980  1.00  0.00     0.039 C 
ENDROOT
BRANCH   2   4
ATOM      4  C   UNL     1      -8.231  69.005  35.709  1.00  0.00     0.032 C 
BRANCH   4   5
ATOM      5  C   UNL     1      -7.642  69.519  37.036  1.00  0.00     0.034 C 
BRANCH   5   6
ATOM      6  C   UNL     1      -6.528  68.628  37.550  1.00  0.00    -0.077 C 
ATOM      7  C   UNL     1      -6.749  67.878  38.841  1.00  0.00     0.039 C 
ATOM      8  C   UNL     1      -5.335  68.485  36.931  1.00  0.00    -0.023 CG0
ATOM      9  G   UNL     1      -4.914  69.175  35.656  1.00  0.00     0.000 G0
ENDBRANCH   5   6
ENDBRANCH   4   5
ENDBRANCH   2   4
BRANCH   1  10
ATOM     10  C   UNL     1      -6.727  67.013  33.882  1.00  0.00     0.111 C 
BRANCH  10  11
ATOM     11  C   UNL     1      -5.338  66.913  34.463  1.00  0.00     0.163 C 
ATOM     12  O   UNL     1      -4.938  65.783  34.854  1.00  0.00    -0.294 OA
BRANCH  11  13
ATOM     13  C   UNL     1      -4.463  68.114  34.632  1.00  0.00    -0.002 C 
ATOM     14  C   UNL     1      -3.350  68.306  33.860  1.00  0.00    -0.069 C 
ATOM     15  C   UNL     1      -2.448  69.506  34.063  1.00  0.00     0.039 C 
ATOM     16  C   UNL     1      -2.984  67.353  32.745  1.00  0.00     0.039 C 
BRANCH  13  17
ATOM     17  C   UNL     1      -4.903  69.152  35.648  1.00  0.00     0.066 CG0
ATOM     18  G   UNL     1      -5.331  68.469  36.925  1.00  0.00     0.000 G0
ENDBRANCH  13  17
ENDBRANCH  11  13
ENDBRANCH  10  11
ENDBRANCH   1  10
TORSDOF 0
ENDMDL
MODEL 8
REMARK VINA RESULT:    -2.994     11.368     13.551
REMARK INTER + INTRA:          -3.832
REMARK INTER:                  -4.448
REMARK INTRA:                   0.615
REMARK UNBOUND:                 0.387
REMARK SMILES CC1=CCC(=C(C)C)C(=O)CC(C)=CCC1
REMARK SMILES IDX 12 1 14 2 13 3 15 4 16 5 2 6 1 7 3 8 11 10 9 11 10 12 5 13
REMARK SMILES IDX 6 14 7 15 8 16 4 17
REMARK H PARENT
REMARK Flexibility Score: 60.00
ROOT
ATOM      1  C   UNL     1      -7.784  68.915  36.250  1.00  0.00    -0.070 C 
ATOM      2  C   UNL     1      -6.945  69.635  37.032  1.00  0.00    -0.027 C 
ATOM      3  C   UNL     1      -9.023  68.348  36.899  1.00  0.00     0.039 C 
ENDROOT
BRANCH   2   4
ATOM      4  C   UNL     1      -5.712  70.377  36.573  1.00  0.00     0.032 C 
BRANCH   4   5
ATOM      5  C   UNL     1      -4.441  69.928  37.317  1.00  0.00     0.034 C 
BRANCH   5   6
ATOM      6  C   UNL     1      -4.172  68.445  37.147  1.00  0.00    -0.077 C 
ATOM      7  C   UNL     1      -3.981  67.606  38.385  1.00  0.00     0.039 C 
ATOM      8  C   UNL     1      -4.069  67.834  35.945  1.00  0.00    -0.023 CG0
ATOM      9  G   UNL     1      -4.194  68.507  34.599  1.00  0.00     0.000 G0
ENDBRANCH   5   6
ENDBRANCH   4   5
ENDBRANCH   2   4
BRANCH   1  10
ATOM     10  C   UNL     1      -7.582  68.709  34.758  1.00  0.00     0.111 C 
BRANCH  10  11
ATOM     11  C   UNL     1      -6.601  67.596  34.480  1.00  0.00     0.163 C 
ATOM     12  O   UNL     1      -6.883  66.439  34.895  1.00  0.00    -0.294 OA
BRANCH  11  13
ATOM     13  C   UNL     1      -5.301  67.842  33.783  1.00  0.00    -0.002 C 
ATOM     14  C   UNL     1      -5.132  67.557  32.456  1.00  0.00    -0.069 C 
ATOM     15  C   UNL     1      -3.801  67.774  31.767  1.00  0.00     0.039 C 
ATOM     16  C   UNL     1      -6.272  67.047  31.603  1.00  0.00     0.039 C 
BRANCH  13  17
ATOM     17  C   UNL     1      -4.195  68.493  34.594  1.00  0.00     0.066 CG0
ATOM     18  G   UNL     1      -4.094  67.829  35.946  1.00  0.00     0.000 G0
ENDBRANCH  13  17
ENDBRANCH  11  13
ENDBRANCH  10  11
ENDBRANCH   1  10
TORSDOF 0
ENDMDL
MODEL 9
REMARK VINA RESULT:    -2.939      3.509      5.321
REMARK INTER + INTRA:          -3.754
REMARK INTER:                  -4.348
REMARK INTRA:                   0.594
REMARK UNBOUND:                 0.387
REMARK SMILES CC1=CCC(=C(C)C)C(=O)CC(C)=CCC1
REMARK SMILES IDX 12 1 14 2 13 3 15 4 16 5 2 6 1 7 3 8 11 10 9 11 10 12 5 13
REMARK SMILES IDX 6 14 7 15 8 16 4 17
REMARK H PARENT
REMARK Flexibility Score: 60.00
ROOT
ATOM      1  C   UNL     1      -3.548  71.111  25.448  1.00  0.00    -0.070 C 
ATOM      2  C   UNL     1      -4.479  71.840  24.788  1.00  0.00    -0.027 C 
ATOM      3  C   UNL     1      -2.133  71.636  25.458  1.00  0.00     0.039 C 
ENDROOT
BRANCH   2   4
ATOM      4  C   UNL     1      -5.963  71.561  24.738  1.00  0.00     0.032 C 
BRANCH   4   5
ATOM      5  C   UNL     1      -6.467  71.298  23.307  1.00  0.00     0.034 C 
BRANCH   5   6
ATOM      6  C   UNL     1      -5.596  70.301  22.567  1.00  0.00    -0.077 C 
ATOM      7  C   UNL     1      -4.893  70.756  21.313  1.00  0.00     0.039 C 
ATOM      8  C   UNL     1      -5.433  69.016  22.954  1.00  0.00    -0.023 CG0
ATOM      9  G   UNL     1      -6.078  68.367  24.155  1.00  0.00     0.000 G0
ENDBRANCH   5   6
ENDBRANCH   4   5
ENDBRANCH   2   4
BRANCH   1  10
ATOM     10  C   UNL     1      -3.863  69.845  26.227  1.00  0.00     0.111 C 
BRANCH  10  11
ATOM     11  C   UNL     1      -3.817  68.623  25.342  1.00  0.00     0.163 C 
ATOM     12  O   UNL     1      -2.726  68.341  24.776  1.00  0.00    -0.294 OA
BRANCH  11  13
ATOM     13  C   UNL     1      -5.030  67.786  25.084  1.00  0.00    -0.002 C 
ATOM     14  C   UNL     1      -5.218  66.583  25.706  1.00  0.00    -0.069 C 
ATOM     15  C   UNL     1      -6.431  65.725  25.411  1.00  0.00     0.039 C 
ATOM     16  C   UNL     1      -4.248  66.066  26.743  1.00  0.00     0.039 C 
BRANCH  13  17
ATOM     17  C   UNL     1      -6.084  68.365  24.156  1.00  0.00     0.066 CG0
ATOM     18  G   UNL     1      -5.417  69.017  22.969  1.00  0.00     0.000 G0
ENDBRANCH  13  17
ENDBRANCH  11  13
ENDBRANCH  10  11
ENDBRANCH   1  10
TORSDOF 0
ENDMDL
