MODEL 1
REMARK VINA RESULT:    -1.689      0.000      0.000
REMARK INTER + INTRA:          -5.425
REMARK INTER:                  -3.170
REMARK INTRA:                  -2.255
REMARK UNBOUND:                -2.255
REMARK SMILES O=C([O-])CCCCCCCCCCCCCCC(=O)[O-]
REMARK SMILES IDX 10 1 9 2 8 3 7 4 6 5 5 6 4 7 2 8 1 9 3 10 11 11 12 12 13 13
REMARK SMILES IDX 14 14 15 15 16 16 17 17 18 18 19 19 20 20
REMARK H PARENT
REMARK Flexibility Score: inf
ROOT
ATOM      1  C   UNL     1     -17.911 -25.313  30.729  1.00  0.00     0.000 C 
ENDROOT
BRANCH   1   2
ATOM      2  C   UNL     1     -18.598 -24.932  29.408  1.00  0.00     0.000 C 
BRANCH   2   3
ATOM      3  C   UNL     1     -19.744 -23.926  29.601  1.00  0.00     0.000 C 
BRANCH   3   4
ATOM      4  C   UNL     1     -20.090 -23.703  31.083  1.00  0.00     0.000 C 
BRANCH   4   5
ATOM      5  C   UNL     1     -19.867 -22.248  31.529  1.00  0.00     0.000 C 
BRANCH   5   6
ATOM      6  C   UNL     1     -20.232 -21.230  30.434  1.00  0.00     0.006 C 
BRANCH   6   7
ATOM      7  C   UNL     1     -21.626 -20.625  30.650  1.00  0.00     0.053 C 
BRANCH   7   8
ATOM      8  C   UNL     1     -21.549 -19.200  31.109  1.00  0.00     0.041 C 
ATOM      9  O   UNL     1     -20.869 -18.897  32.124  1.00  0.00    -0.550 OA
ATOM     10  O   UNL     1     -22.254 -18.213  30.432  1.00  0.00    -0.550 OA
ENDBRANCH   7   8
ENDBRANCH   6   7
ENDBRANCH   5   6
ENDBRANCH   4   5
ENDBRANCH   3   4
ENDBRANCH   2   3
ENDBRANCH   1   2
BRANCH   1  11
ATOM     11  C   UNL     1     -16.389 -25.408  30.547  1.00  0.00     0.000 C 
BRANCH  11  12
ATOM     12  C   UNL     1     -15.619 -24.394  31.410  1.00  0.00     0.000 C 
BRANCH  12  13
ATOM     13  C   UNL     1     -16.480 -23.274  32.031  1.00  0.00     0.000 C 
BRANCH  13  14
ATOM     14  C   UNL     1     -16.145 -21.849  31.558  1.00  0.00     0.000 C 
BRANCH  14  15
ATOM     15  C   UNL     1     -15.726 -21.794  30.079  1.00  0.00     0.000 C 
BRANCH  15  16
ATOM     16  C   UNL     1     -16.929 -21.667  29.131  1.00  0.00     0.006 C 
BRANCH  16  17
ATOM     17  C   UNL     1     -16.554 -21.050  27.778  1.00  0.00     0.053 C 
BRANCH  17  18
ATOM     18  C   UNL     1     -17.637 -21.295  26.775  1.00  0.00     0.041 C 
ATOM     19  O   UNL     1     -17.990 -20.379  25.987  1.00  0.00    -0.550 OA
ATOM     20  O   UNL     1     -18.222 -22.552  26.677  1.00  0.00    -0.550 OA
ENDBRANCH  17  18
ENDBRANCH  16  17
ENDBRANCH  15  16
ENDBRANCH  14  15
ENDBRANCH  13  14
ENDBRANCH  12  13
ENDBRANCH  11  12
ENDBRANCH   1  11
TORSDOF 15
ENDMDL
MODEL 2
REMARK VINA RESULT:    -1.630     21.651     23.851
REMARK INTER + INTRA:          -5.315
REMARK INTER:                  -2.910
REMARK INTRA:                  -2.406
REMARK UNBOUND:                -2.255
REMARK SMILES O=C([O-])CCCCCCCCCCCCCCC(=O)[O-]
REMARK SMILES IDX 10 1 9 2 8 3 7 4 6 5 5 6 4 7 2 8 1 9 3 10 11 11 12 12 13 13
REMARK SMILES IDX 14 14 15 15 16 16 17 17 18 18 19 19 20 20
REMARK H PARENT
REMARK Flexibility Score: inf
ROOT
ATOM      1  C   UNL     1     -29.946 -33.574  16.015  1.00  0.00     0.000 C 
ENDROOT
BRANCH   1   2
ATOM      2  C   UNL     1     -29.914 -34.985  16.623  1.00  0.00     0.000 C 
BRANCH   2   3
ATOM      3  C   UNL     1     -30.216 -36.085  15.592  1.00  0.00     0.000 C 
BRANCH   3   4
ATOM      4  C   UNL     1     -29.205 -36.101  14.433  1.00  0.00     0.000 C 
BRANCH   4   5
ATOM      5  C   UNL     1     -29.885 -36.033  13.054  1.00  0.00     0.000 C 
BRANCH   5   6
ATOM      6  C   UNL     1     -31.396 -35.759  13.152  1.00  0.00     0.006 C 
BRANCH   6   7
ATOM      7  C   UNL     1     -31.890 -34.835  12.030  1.00  0.00     0.053 C 
BRANCH   7   8
ATOM      8  C   UNL     1     -32.021 -33.416  12.494  1.00  0.00     0.041 C 
ATOM      9  O   UNL     1     -30.993 -32.715  12.686  1.00  0.00    -0.550 OA
ATOM     10  O   UNL     1     -33.278 -32.879  12.743  1.00  0.00    -0.550 OA
ENDBRANCH   7   8
ENDBRANCH   6   7
ENDBRANCH   5   6
ENDBRANCH   4   5
ENDBRANCH   3   4
ENDBRANCH   2   3
ENDBRANCH   1   2
BRANCH   1  11
ATOM     11  C   UNL     1     -31.326 -32.928  16.203  1.00  0.00     0.000 C 
BRANCH  11  12
ATOM     12  C   UNL     1     -31.385 -31.986  17.419  1.00  0.00     0.000 C 
BRANCH  12  13
ATOM     13  C   UNL     1     -31.744 -32.665  18.757  1.00  0.00     0.000 C 
BRANCH  13  14
ATOM     14  C   UNL     1     -33.133 -33.324  18.807  1.00  0.00     0.000 C 
BRANCH  14  15
ATOM     15  C   UNL     1     -33.069 -34.859  18.743  1.00  0.00     0.000 C 
BRANCH  15  16
ATOM     16  C   UNL     1     -34.187 -35.460  17.876  1.00  0.00     0.006 C 
BRANCH  16  17
ATOM     17  C   UNL     1     -33.706 -35.840  16.471  1.00  0.00     0.053 C 
BRANCH  17  18
ATOM     18  C   UNL     1     -34.428 -35.032  15.437  1.00  0.00     0.041 C 
ATOM     19  O   UNL     1     -34.732 -33.833  15.670  1.00  0.00    -0.550 OA
ATOM     20  O   UNL     1     -34.719 -35.589  14.198  1.00  0.00    -0.550 OA
ENDBRANCH  17  18
ENDBRANCH  16  17
ENDBRANCH  15  16
ENDBRANCH  14  15
ENDBRANCH  13  14
ENDBRANCH  12  13
ENDBRANCH  11  12
ENDBRANCH   1  11
TORSDOF 15
ENDMDL
MODEL 3
REMARK VINA RESULT:    -1.612      1.312      5.096
REMARK INTER + INTRA:          -5.280
REMARK INTER:                  -3.090
REMARK INTRA:                  -2.190
REMARK UNBOUND:                -2.255
REMARK SMILES O=C([O-])CCCCCCCCCCCCCCC(=O)[O-]
REMARK SMILES IDX 10 1 9 2 8 3 7 4 6 5 5 6 4 7 2 8 1 9 3 10 11 11 12 12 13 13
REMARK SMILES IDX 14 14 15 15 16 16 17 17 18 18 19 19 20 20
REMARK H PARENT
REMARK Flexibility Score: inf
ROOT
ATOM      1  C   UNL     1     -17.476 -26.084  29.563  1.00  0.00     0.000 C 
ENDROOT
BRANCH   1   2
ATOM      2  C   UNL     1     -16.994 -26.397  30.987  1.00  0.00     0.000 C 
BRANCH   2   3
ATOM      3  C   UNL     1     -15.561 -25.908  31.252  1.00  0.00     0.000 C 
BRANCH   3   4
ATOM      4  C   UNL     1     -15.338 -24.458  30.791  1.00  0.00     0.000 C 
BRANCH   4   5
ATOM      5  C   UNL     1     -16.138 -23.443  31.626  1.00  0.00     0.000 C 
BRANCH   5   6
ATOM      6  C   UNL     1     -16.049 -22.013  31.064  1.00  0.00     0.006 C 
BRANCH   6   7
ATOM      7  C   UNL     1     -15.320 -21.967  29.714  1.00  0.00     0.053 C 
BRANCH   7   8
ATOM      8  C   UNL     1     -16.277 -21.834  28.568  1.00  0.00     0.041 C 
ATOM      9  O   UNL     1     -16.393 -20.735  27.964  1.00  0.00    -0.550 OA
ATOM     10  O   UNL     1     -17.063 -22.915  28.189  1.00  0.00    -0.550 OA
ENDBRANCH   7   8
ENDBRANCH   6   7
ENDBRANCH   5   6
ENDBRANCH   4   5
ENDBRANCH   3   4
ENDBRANCH   2   3
ENDBRANCH   1   2
BRANCH   1  11
ATOM     11  C   UNL     1     -18.918 -25.555  29.576  1.00  0.00     0.000 C 
BRANCH  11  12
ATOM     12  C   UNL     1     -19.459 -25.332  31.000  1.00  0.00     0.000 C 
BRANCH  12  13
ATOM     13  C   UNL     1     -19.752 -23.862  31.365  1.00  0.00     0.000 C 
BRANCH  13  14
ATOM     14  C   UNL     1     -20.016 -22.928  30.172  1.00  0.00     0.000 C 
BRANCH  14  15
ATOM     15  C   UNL     1     -19.513 -21.495  30.412  1.00  0.00     0.000 C 
BRANCH  15  16
ATOM     16  C   UNL     1     -19.550 -21.099  31.897  1.00  0.00     0.006 C 
BRANCH  16  17
ATOM     17  C   UNL     1     -20.178 -19.718  32.125  1.00  0.00     0.053 C 
BRANCH  17  18
ATOM     18  C   UNL     1     -21.595 -19.704  31.641  1.00  0.00     0.041 C 
ATOM     19  O   UNL     1     -21.955 -18.878  30.762  1.00  0.00    -0.550 OA
ATOM     20  O   UNL     1     -22.504 -20.636  32.125  1.00  0.00    -0.550 OA
ENDBRANCH  17  18
ENDBRANCH  16  17
ENDBRANCH  15  16
ENDBRANCH  14  15
ENDBRANCH  13  14
ENDBRANCH  12  13
ENDBRANCH  11  12
ENDBRANCH   1  11
TORSDOF 15
ENDMDL
MODEL 4
REMARK VINA RESULT:    -1.554      2.859      5.765
REMARK INTER + INTRA:          -5.172
REMARK INTER:                  -2.901
REMARK INTRA:                  -2.271
REMARK UNBOUND:                -2.255
REMARK SMILES O=C([O-])CCCCCCCCCCCCCCC(=O)[O-]
REMARK SMILES IDX 10 1 9 2 8 3 7 4 6 5 5 6 4 7 2 8 1 9 3 10 11 11 12 12 13 13
REMARK SMILES IDX 14 14 15 15 16 16 17 17 18 18 19 19 20 20
REMARK H PARENT
REMARK Flexibility Score: inf
ROOT
ATOM      1  C   UNL     1     -19.031 -23.007  28.778  1.00  0.00     0.000 C 
ENDROOT
BRANCH   1   2
ATOM      2  C   UNL     1     -17.560 -22.896  28.350  1.00  0.00     0.000 C 
BRANCH   2   3
ATOM      3  C   UNL     1     -17.002 -21.471  28.498  1.00  0.00     0.000 C 
BRANCH   3   4
ATOM      4  C   UNL     1     -15.476 -21.413  28.316  1.00  0.00     0.000 C 
BRANCH   4   5
ATOM      5  C   UNL     1     -15.042 -20.330  27.313  1.00  0.00     0.000 C 
BRANCH   5   6
ATOM      6  C   UNL     1     -14.886 -20.876  25.882  1.00  0.00     0.006 C 
BRANCH   6   7
ATOM      7  C   UNL     1     -16.098 -20.544  25.002  1.00  0.00     0.053 C 
BRANCH   7   8
ATOM      8  C   UNL     1     -17.081 -21.674  24.957  1.00  0.00     0.041 C 
ATOM      9  O   UNL     1     -18.310 -21.453  25.119  1.00  0.00    -0.550 OA
ATOM     10  O   UNL     1     -16.635 -22.976  24.765  1.00  0.00    -0.550 OA
ENDBRANCH   7   8
ENDBRANCH   6   7
ENDBRANCH   5   6
ENDBRANCH   4   5
ENDBRANCH   3   4
ENDBRANCH   2   3
ENDBRANCH   1   2
BRANCH   1  11
ATOM     11  C   UNL     1     -19.637 -21.618  29.020  1.00  0.00     0.000 C 
BRANCH  11  12
ATOM     12  C   UNL     1     -20.166 -21.437  30.454  1.00  0.00     0.000 C 
BRANCH  12  13
ATOM     13  C   UNL     1     -19.177 -21.829  31.571  1.00  0.00     0.000 C 
BRANCH  13  14
ATOM     14  C   UNL     1     -18.154 -20.744  31.953  1.00  0.00     0.000 C 
BRANCH  14  15
ATOM     15  C   UNL     1     -16.727 -21.296  32.104  1.00  0.00     0.000 C 
BRANCH  15  16
ATOM     16  C   UNL     1     -16.671 -22.827  31.980  1.00  0.00     0.006 C 
BRANCH  16  17
ATOM     17  C   UNL     1     -15.239 -23.357  31.836  1.00  0.00     0.053 C 
BRANCH  17  18
ATOM     18  C   UNL     1     -15.228 -24.613  31.021  1.00  0.00     0.041 C 
ATOM     19  O   UNL     1     -14.892 -24.577  29.808  1.00  0.00    -0.550 OA
ATOM     20  O   UNL     1     -15.542 -25.829  31.614  1.00  0.00    -0.550 OA
ENDBRANCH  17  18
ENDBRANCH  16  17
ENDBRANCH  15  16
ENDBRANCH  14  15
ENDBRANCH  13  14
ENDBRANCH  12  13
ENDBRANCH  11  12
ENDBRANCH   1  11
TORSDOF 15
ENDMDL
MODEL 5
REMARK VINA RESULT:    -1.547      3.102      5.417
REMARK INTER + INTRA:          -5.158
REMARK INTER:                  -2.739
REMARK INTRA:                  -2.419
REMARK UNBOUND:                -2.255
REMARK SMILES O=C([O-])CCCCCCCCCCCCCCC(=O)[O-]
REMARK SMILES IDX 10 1 9 2 8 3 7 4 6 5 5 6 4 7 2 8 1 9 3 10 11 11 12 12 13 13
REMARK SMILES IDX 14 14 15 15 16 16 17 17 18 18 19 19 20 20
REMARK H PARENT
REMARK Flexibility Score: inf
ROOT
ATOM      1  C   UNL     1     -18.120 -21.790  30.394  1.00  0.00     0.000 C 
ENDROOT
BRANCH   1   2
ATOM      2  C   UNL     1     -18.847 -23.002  30.995  1.00  0.00     0.000 C 
BRANCH   2   3
ATOM      3  C   UNL     1     -19.557 -23.858  29.933  1.00  0.00     0.000 C 
BRANCH   3   4
ATOM      4  C   UNL     1     -20.377 -25.004  30.551  1.00  0.00     0.000 C 
BRANCH   4   5
ATOM      5  C   UNL     1     -19.506 -25.999  31.335  1.00  0.00     0.000 C 
BRANCH   5   6
ATOM      6  C   UNL     1     -20.093 -27.421  31.344  1.00  0.00     0.006 C 
BRANCH   6   7
ATOM      7  C   UNL     1     -19.209 -28.407  32.120  1.00  0.00     0.053 C 
BRANCH   7   8
ATOM      8  C   UNL     1     -17.904 -28.652  31.423  1.00  0.00     0.041 C 
ATOM      9  O   UNL     1     -17.889 -29.059  30.231  1.00  0.00    -0.550 OA
ATOM     10  O   UNL     1     -16.707 -28.460  32.101  1.00  0.00    -0.550 OA
ENDBRANCH   7   8
ENDBRANCH   6   7
ENDBRANCH   5   6
ENDBRANCH   4   5
ENDBRANCH   3   4
ENDBRANCH   2   3
ENDBRANCH   1   2
BRANCH   1  11
ATOM     11  C   UNL     1     -16.626 -21.816  30.747  1.00  0.00     0.000 C 
BRANCH  11  12
ATOM     12  C   UNL     1     -16.349 -22.445  32.125  1.00  0.00     0.000 C 
BRANCH  12  13
ATOM     13  C   UNL     1     -15.322 -23.596  32.125  1.00  0.00     0.000 C 
BRANCH  13  14
ATOM     14  C   UNL     1     -15.078 -24.258  30.757  1.00  0.00     0.000 C 
BRANCH  14  15
ATOM     15  C   UNL     1     -15.979 -25.480  30.516  1.00  0.00     0.000 C 
BRANCH  15  16
ATOM     16  C   UNL     1     -16.487 -25.561  29.067  1.00  0.00     0.006 C 
BRANCH  16  17
ATOM     17  C   UNL     1     -15.905 -24.459  28.174  1.00  0.00     0.053 C 
BRANCH  17  18
ATOM     18  C   UNL     1     -16.990 -23.811  27.372  1.00  0.00     0.041 C 
ATOM     19  O   UNL     1     -16.954 -22.574  27.140  1.00  0.00    -0.550 OA
ATOM     20  O   UNL     1     -18.014 -24.583  26.837  1.00  0.00    -0.550 OA
ENDBRANCH  17  18
ENDBRANCH  16  17
ENDBRANCH  15  16
ENDBRANCH  14  15
ENDBRANCH  13  14
ENDBRANCH  12  13
ENDBRANCH  11  12
ENDBRANCH   1  11
TORSDOF 15
ENDMDL
MODEL 6
REMARK VINA RESULT:    -1.545     21.768     24.081
REMARK INTER + INTRA:          -5.155
REMARK INTER:                  -2.772
REMARK INTRA:                  -2.383
REMARK UNBOUND:                -2.255
REMARK SMILES O=C([O-])CCCCCCCCCCCCCCC(=O)[O-]
REMARK SMILES IDX 10 1 9 2 8 3 7 4 6 5 5 6 4 7 2 8 1 9 3 10 11 11 12 12 13 13
REMARK SMILES IDX 14 14 15 15 16 16 17 17 18 18 19 19 20 20
REMARK H PARENT
REMARK Flexibility Score: inf
ROOT
ATOM      1  C   UNL     1     -32.844 -34.144  15.617  1.00  0.00     0.000 C 
ENDROOT
BRANCH   1   2
ATOM      2  C   UNL     1     -34.374 -34.260  15.533  1.00  0.00     0.000 C 
BRANCH   2   3
ATOM      3  C   UNL     1     -34.835 -35.493  14.739  1.00  0.00     0.000 C 
BRANCH   3   4
ATOM      4  C   UNL     1     -33.698 -36.125  13.917  1.00  0.00     0.000 C 
BRANCH   4   5
ATOM      5  C   UNL     1     -33.713 -35.677  12.446  1.00  0.00     0.000 C 
BRANCH   5   6
ATOM      6  C   UNL     1     -32.356 -35.120  11.982  1.00  0.00     0.006 C 
BRANCH   6   7
ATOM      7  C   UNL     1     -31.181 -35.766  12.728  1.00  0.00     0.053 C 
BRANCH   7   8
ATOM      8  C   UNL     1     -30.043 -34.807  12.912  1.00  0.00     0.041 C 
ATOM      9  O   UNL     1     -29.415 -34.771  14.002  1.00  0.00    -0.550 OA
ATOM     10  O   UNL     1     -29.697 -33.935  11.888  1.00  0.00    -0.550 OA
ENDBRANCH   7   8
ENDBRANCH   6   7
ENDBRANCH   5   6
ENDBRANCH   4   5
ENDBRANCH   3   4
ENDBRANCH   2   3
ENDBRANCH   1   2
BRANCH   1  11
ATOM     11  C   UNL     1     -32.365 -32.798  15.057  1.00  0.00     0.000 C 
BRANCH  11  12
ATOM     12  C   UNL     1     -33.374 -32.162  14.084  1.00  0.00     0.000 C 
BRANCH  12  13
ATOM     13  C   UNL     1     -33.806 -30.724  14.437  1.00  0.00     0.000 C 
BRANCH  13  14
ATOM     14  C   UNL     1     -33.775 -30.377  15.935  1.00  0.00     0.000 C 
BRANCH  14  15
ATOM     15  C   UNL     1     -35.102 -30.687  16.648  1.00  0.00     0.000 C 
BRANCH  15  16
ATOM     16  C   UNL     1     -34.905 -31.525  17.922  1.00  0.00     0.006 C 
BRANCH  16  17
ATOM     17  C   UNL     1     -33.443 -31.567  18.382  1.00  0.00     0.053 C 
BRANCH  17  18
ATOM     18  C   UNL     1     -33.364 -31.492  19.875  1.00  0.00     0.041 C 
ATOM     19  O   UNL     1     -32.550 -30.706  20.427  1.00  0.00    -0.550 OA
ATOM     20  O   UNL     1     -34.225 -32.253  20.656  1.00  0.00    -0.550 OA
ENDBRANCH  17  18
ENDBRANCH  16  17
ENDBRANCH  15  16
ENDBRANCH  14  15
ENDBRANCH  13  14
ENDBRANCH  12  13
ENDBRANCH  11  12
ENDBRANCH   1  11
TORSDOF 15
ENDMDL
MODEL 7
REMARK VINA RESULT:    -1.512      2.086      3.149
REMARK INTER + INTRA:          -5.094
REMARK INTER:                  -2.882
REMARK INTRA:                  -2.212
REMARK UNBOUND:                -2.255
REMARK SMILES O=C([O-])CCCCCCCCCCCCCCC(=O)[O-]
REMARK SMILES IDX 10 1 9 2 8 3 7 4 6 5 5 6 4 7 2 8 1 9 3 10 11 11 12 12 13 13
REMARK SMILES IDX 14 14 15 15 16 16 17 17 18 18 19 19 20 20
REMARK H PARENT
REMARK Flexibility Score: inf
ROOT
ATOM      1  C   UNL     1     -15.359 -25.344  31.495  1.00  0.00     0.000 C 
ENDROOT
BRANCH   1   2
ATOM      2  C   UNL     1     -16.140 -25.471  30.178  1.00  0.00     0.000 C 
BRANCH   2   3
ATOM      3  C   UNL     1     -17.239 -26.544  30.238  1.00  0.00     0.000 C 
BRANCH   3   4
ATOM      4  C   UNL     1     -18.296 -26.369  29.134  1.00  0.00     0.000 C 
BRANCH   4   5
ATOM      5  C   UNL     1     -19.456 -25.457  29.566  1.00  0.00     0.000 C 
BRANCH   5   6
ATOM      6  C   UNL     1     -19.567 -25.323  31.095  1.00  0.00     0.006 C 
BRANCH   6   7
ATOM      7  C   UNL     1     -19.749 -23.864  31.535  1.00  0.00     0.053 C 
BRANCH   7   8
ATOM      8  C   UNL     1     -21.192 -23.526  31.758  1.00  0.00     0.041 C 
ATOM      9  O   UNL     1     -21.590 -22.337  31.640  1.00  0.00    -0.550 OA
ATOM     10  O   UNL     1     -22.091 -24.520  32.125  1.00  0.00    -0.550 OA
ENDBRANCH   7   8
ENDBRANCH   6   7
ENDBRANCH   5   6
ENDBRANCH   4   5
ENDBRANCH   3   4
ENDBRANCH   2   3
ENDBRANCH   1   2
BRANCH   1  11
ATOM     11  C   UNL     1     -14.982 -23.881  31.769  1.00  0.00     0.000 C 
BRANCH  11  12
ATOM     12  C   UNL     1     -16.197 -23.006  32.125  1.00  0.00     0.000 C 
BRANCH  12  13
ATOM     13  C   UNL     1     -16.441 -21.810  31.182  1.00  0.00     0.000 C 
BRANCH  13  14
ATOM     14  C   UNL     1     -15.679 -21.860  29.847  1.00  0.00     0.000 C 
BRANCH  14  15
ATOM     15  C   UNL     1     -16.560 -21.490  28.642  1.00  0.00     0.000 C 
BRANCH  15  16
ATOM     16  C   UNL     1     -17.669 -22.523  28.384  1.00  0.00     0.006 C 
BRANCH  16  17
ATOM     17  C   UNL     1     -19.065 -21.891  28.332  1.00  0.00     0.053 C 
BRANCH  17  18
ATOM     18  C   UNL     1     -19.465 -21.628  26.913  1.00  0.00     0.041 C 
ATOM     19  O   UNL     1     -19.349 -20.472  26.427  1.00  0.00    -0.550 OA
ATOM     20  O   UNL     1     -19.918 -22.669  26.114  1.00  0.00    -0.550 OA
ENDBRANCH  17  18
ENDBRANCH  16  17
ENDBRANCH  15  16
ENDBRANCH  14  15
ENDBRANCH  13  14
ENDBRANCH  12  13
ENDBRANCH  11  12
ENDBRANCH   1  11
TORSDOF 15
ENDMDL
MODEL 8
REMARK VINA RESULT:    -1.500      2.572      4.517
REMARK INTER + INTRA:          -5.071
REMARK INTER:                  -2.712
REMARK INTRA:                  -2.359
REMARK UNBOUND:                -2.255
REMARK SMILES O=C([O-])CCCCCCCCCCCCCCC(=O)[O-]
REMARK SMILES IDX 10 1 9 2 8 3 7 4 6 5 5 6 4 7 2 8 1 9 3 10 11 11 12 12 13 13
REMARK SMILES IDX 14 14 15 15 16 16 17 17 18 18 19 19 20 20
REMARK H PARENT
REMARK Flexibility Score: inf
ROOT
ATOM      1  C   UNL     1     -16.980 -22.121  30.957  1.00  0.00     0.000 C 
ENDROOT
BRANCH   1   2
ATOM      2  C   UNL     1     -16.021 -21.634  29.860  1.00  0.00     0.000 C 
BRANCH   2   3
ATOM      3  C   UNL     1     -16.463 -22.059  28.450  1.00  0.00     0.000 C 
BRANCH   3   4
ATOM      4  C   UNL     1     -17.411 -23.270  28.470  1.00  0.00     0.000 C 
BRANCH   4   5
ATOM      5  C   UNL     1     -18.716 -23.012  27.697  1.00  0.00     0.000 C 
BRANCH   5   6
ATOM      6  C   UNL     1     -19.945 -22.934  28.620  1.00  0.00     0.006 C 
BRANCH   6   7
ATOM      7  C   UNL     1     -20.188 -21.511  29.140  1.00  0.00     0.053 C 
BRANCH   7   8
ATOM      8  C   UNL     1     -20.510 -21.500  30.604  1.00  0.00     0.041 C 
ATOM      9  O   UNL     1     -20.562 -22.580  31.249  1.00  0.00    -0.550 OA
ATOM     10  O   UNL     1     -20.782 -20.299  31.247  1.00  0.00    -0.550 OA
ENDBRANCH   7   8
ENDBRANCH   6   7
ENDBRANCH   5   6
ENDBRANCH   4   5
ENDBRANCH   3   4
ENDBRANCH   2   3
ENDBRANCH   1   2
BRANCH   1  11
ATOM     11  C   UNL     1     -16.204 -22.746  32.125  1.00  0.00     0.000 C 
BRANCH  11  12
ATOM     12  C   UNL     1     -15.033 -23.630  31.660  1.00  0.00     0.000 C 
BRANCH  12  13
ATOM     13  C   UNL     1     -15.280 -25.150  31.760  1.00  0.00     0.000 C 
BRANCH  13  14
ATOM     14  C   UNL     1     -15.592 -25.853  30.428  1.00  0.00     0.000 C 
BRANCH  14  15
ATOM     15  C   UNL     1     -16.710 -26.903  30.554  1.00  0.00     0.000 C 
BRANCH  15  16
ATOM     16  C   UNL     1     -18.052 -26.404  29.994  1.00  0.00     0.006 C 
BRANCH  16  17
ATOM     17  C   UNL     1     -18.929 -25.739  31.062  1.00  0.00     0.053 C 
BRANCH  17  18
ATOM     18  C   UNL     1     -20.316 -26.301  31.020  1.00  0.00     0.041 C 
ATOM     19  O   UNL     1     -20.626 -27.277  31.753  1.00  0.00    -0.550 OA
ATOM     20  O   UNL     1     -21.279 -25.714  30.209  1.00  0.00    -0.550 OA
ENDBRANCH  17  18
ENDBRANCH  16  17
ENDBRANCH  15  16
ENDBRANCH  14  15
ENDBRANCH  13  14
ENDBRANCH  12  13
ENDBRANCH  11  12
ENDBRANCH   1  11
TORSDOF 15
ENDMDL
