MODEL 1
REMARK VINA RESULT:    -3.447      0.000      0.000
REMARK INTER + INTRA:          -6.360
REMARK INTER:                  -5.261
REMARK INTRA:                  -1.100
REMARK UNBOUND:                -1.100
REMARK SMILES CCCCCCCCCCC(=O)[O-]
REMARK SMILES IDX 7 1 8 2 9 3 10 4 11 5 12 6 13 7 6 8 5 9 4 10 3 11 2 12 1 13
REMARK H PARENT
REMARK Flexibility Score: inf
ROOT
ATOM      1  C   UNL     1     -18.306  33.043 -39.999  1.00  0.00     0.000 C 
ENDROOT
BRANCH   1   2
ATOM      2  C   UNL     1     -19.644  32.605 -39.378  1.00  0.00     0.000 C 
BRANCH   2   3
ATOM      3  C   UNL     1     -20.860  33.458 -39.784  1.00  0.00     0.006 C 
BRANCH   3   4
ATOM      4  C   UNL     1     -22.162  32.998 -39.118  1.00  0.00     0.053 C 
BRANCH   4   5
ATOM      5  C   UNL     1     -22.716  34.084 -38.249  1.00  0.00     0.041 C 
ATOM      6  O   UNL     1     -23.958  34.277 -38.190  1.00  0.00    -0.550 OA
ATOM      7  O   UNL     1     -21.856  34.914 -37.541  1.00  0.00    -0.550 OA
ENDBRANCH   4   5
ENDBRANCH   3   4
ENDBRANCH   2   3
ENDBRANCH   1   2
BRANCH   1   8
ATOM      8  C   UNL     1     -17.614  31.920 -40.785  1.00  0.00     0.000 C 
BRANCH   8   9
ATOM      9  C   UNL     1     -17.506  32.277 -42.274  1.00  0.00    -0.000 C 
BRANCH   9  10
ATOM     10  C   UNL     1     -18.720  31.757 -43.054  1.00  0.00    -0.000 C 
BRANCH  10  11
ATOM     11  C   UNL     1     -19.274  30.473 -42.417  1.00  0.00    -0.000 C 
BRANCH  11  12
ATOM     12  C   UNL     1     -20.809  30.458 -42.361  1.00  0.00    -0.003 C 
ATOM     13  C   UNL     1     -21.349  29.707 -41.143  1.00  0.00     0.004 C 
ENDBRANCH  11  12
ENDBRANCH  10  11
ENDBRANCH   9  10
ENDBRANCH   8   9
ENDBRANCH   1   8
TORSDOF 9
ENDMDL
MODEL 2
REMARK VINA RESULT:    -3.285      3.591      5.974
REMARK INTER + INTRA:          -6.113
REMARK INTER:                  -5.150
REMARK INTRA:                  -0.963
REMARK UNBOUND:                -1.100
REMARK SMILES CCCCCCCCCCC(=O)[O-]
REMARK SMILES IDX 7 1 8 2 9 3 10 4 11 5 12 6 13 7 6 8 5 9 4 10 3 11 2 12 1 13
REMARK H PARENT
REMARK Flexibility Score: inf
ROOT
ATOM      1  C   UNL     1     -22.347  28.657 -40.832  1.00  0.00     0.000 C 
ENDROOT
BRANCH   1   2
ATOM      2  C   UNL     1     -21.214  29.679 -40.638  1.00  0.00     0.000 C 
BRANCH   2   3
ATOM      3  C   UNL     1     -21.115  30.756 -41.735  1.00  0.00     0.006 C 
BRANCH   3   4
ATOM      4  C   UNL     1     -19.933  30.534 -42.687  1.00  0.00     0.053 C 
BRANCH   4   5
ATOM      5  C   UNL     1     -18.959  31.665 -42.583  1.00  0.00     0.041 C 
ATOM      6  O   UNL     1     -18.784  32.252 -41.484  1.00  0.00    -0.550 OA
ATOM      7  O   UNL     1     -18.280  32.103 -43.713  1.00  0.00    -0.550 OA
ENDBRANCH   4   5
ENDBRANCH   3   4
ENDBRANCH   2   3
ENDBRANCH   1   2
BRANCH   1   8
ATOM      8  C   UNL     1     -23.281  29.010 -41.998  1.00  0.00     0.000 C 
BRANCH   8   9
ATOM      9  C   UNL     1     -24.706  28.507 -41.734  1.00  0.00    -0.000 C 
BRANCH   9  10
ATOM     10  C   UNL     1     -25.698  29.674 -41.663  1.00  0.00    -0.000 C 
BRANCH  10  11
ATOM     11  C   UNL     1     -24.980  30.985 -41.307  1.00  0.00    -0.000 C 
BRANCH  11  12
ATOM     12  C   UNL     1     -25.334  31.488 -39.899  1.00  0.00    -0.003 C 
ATOM     13  C   UNL     1     -24.270  31.136 -38.860  1.00  0.00     0.004 C 
ENDBRANCH  11  12
ENDBRANCH  10  11
ENDBRANCH   9  10
ENDBRANCH   8   9
ENDBRANCH   1   8
TORSDOF 9
ENDMDL
MODEL 3
REMARK VINA RESULT:    -3.272     16.930     18.579
REMARK INTER + INTRA:          -6.093
REMARK INTER:                  -4.963
REMARK INTRA:                  -1.131
REMARK UNBOUND:                -1.100
REMARK SMILES CCCCCCCCCCC(=O)[O-]
REMARK SMILES IDX 7 1 8 2 9 3 10 4 11 5 12 6 13 7 6 8 5 9 4 10 3 11 2 12 1 13
REMARK H PARENT
REMARK Flexibility Score: inf
ROOT
ATOM      1  C   UNL     1     -23.955  20.882 -28.363  1.00  0.00     0.000 C 
ENDROOT
BRANCH   1   2
ATOM      2  C   UNL     1     -24.120  20.374 -29.806  1.00  0.00     0.000 C 
BRANCH   2   3
ATOM      3  C   UNL     1     -23.988  18.849 -29.978  1.00  0.00     0.006 C 
BRANCH   3   4
ATOM      4  C   UNL     1     -24.026  18.408 -31.446  1.00  0.00     0.053 C 
BRANCH   4   5
ATOM      5  C   UNL     1     -22.638  18.227 -31.973  1.00  0.00     0.041 C 
ATOM      6  O   UNL     1     -21.998  19.212 -32.425  1.00  0.00    -0.550 OA
ATOM      7  O   UNL     1     -22.068  16.960 -32.011  1.00  0.00    -0.550 OA
ENDBRANCH   4   5
ENDBRANCH   3   4
ENDBRANCH   2   3
ENDBRANCH   1   2
BRANCH   1   8
ATOM      8  C   UNL     1     -24.714  20.028 -27.336  1.00  0.00     0.000 C 
BRANCH   8   9
ATOM      9  C   UNL     1     -23.789  19.591 -26.193  1.00  0.00    -0.000 C 
BRANCH   9  10
ATOM     10  C   UNL     1     -23.638  18.065 -26.160  1.00  0.00    -0.000 C 
BRANCH  10  11
ATOM     11  C   UNL     1     -22.337  17.627 -26.849  1.00  0.00    -0.000 C 
BRANCH  11  12
ATOM     12  C   UNL     1     -21.254  18.716 -26.813  1.00  0.00    -0.003 C 
ATOM     13  C   UNL     1     -20.643  18.991 -28.188  1.00  0.00     0.004 C 
ENDBRANCH  11  12
ENDBRANCH  10  11
ENDBRANCH   9  10
ENDBRANCH   8   9
ENDBRANCH   1   8
TORSDOF 9
ENDMDL
MODEL 4
REMARK VINA RESULT:    -3.245     13.872     15.792
REMARK INTER + INTRA:          -6.053
REMARK INTER:                  -5.271
REMARK INTRA:                  -0.782
REMARK UNBOUND:                -1.100
REMARK SMILES CCCCCCCCCCC(=O)[O-]
REMARK SMILES IDX 7 1 8 2 9 3 10 4 11 5 12 6 13 7 6 8 5 9 4 10 3 11 2 12 1 13
REMARK H PARENT
REMARK Flexibility Score: inf
ROOT
ATOM      1  C   UNL     1     -25.469  19.063 -36.054  1.00  0.00     0.000 C 
ENDROOT
BRANCH   1   2
ATOM      2  C   UNL     1     -25.900  19.484 -34.638  1.00  0.00     0.000 C 
BRANCH   2   3
ATOM      3  C   UNL     1     -26.235  18.320 -33.687  1.00  0.00     0.006 C 
BRANCH   3   4
ATOM      4  C   UNL     1     -25.124  17.265 -33.619  1.00  0.00     0.053 C 
BRANCH   4   5
ATOM      5  C   UNL     1     -24.217  17.536 -32.461  1.00  0.00     0.041 C 
ATOM      6  O   UNL     1     -24.573  18.325 -31.548  1.00  0.00    -0.550 OA
ATOM      7  O   UNL     1     -22.956  16.954 -32.415  1.00  0.00    -0.550 OA
ENDBRANCH   4   5
ENDBRANCH   3   4
ENDBRANCH   2   3
ENDBRANCH   1   2
BRANCH   1   8
ATOM      8  C   UNL     1     -26.598  18.391 -36.850  1.00  0.00     0.000 C 
BRANCH   8   9
ATOM      9  C   UNL     1     -26.402  18.589 -38.358  1.00  0.00    -0.000 C 
BRANCH   9  10
ATOM     10  C   UNL     1     -27.430  19.577 -38.923  1.00  0.00    -0.000 C 
BRANCH  10  11
ATOM     11  C   UNL     1     -26.847  20.998 -38.988  1.00  0.00    -0.000 C 
BRANCH  11  12
ATOM     12  C   UNL     1     -27.714  22.025 -38.244  1.00  0.00    -0.003 C 
ATOM     13  C   UNL     1     -27.230  22.284 -36.817  1.00  0.00     0.004 C 
ENDBRANCH  11  12
ENDBRANCH  10  11
ENDBRANCH   9  10
ENDBRANCH   8   9
ENDBRANCH   1   8
TORSDOF 9
ENDMDL
MODEL 5
REMARK VINA RESULT:    -3.205      3.262      5.653
REMARK INTER + INTRA:          -5.990
REMARK INTER:                  -4.728
REMARK INTRA:                  -1.263
REMARK UNBOUND:                -1.100
REMARK SMILES CCCCCCCCCCC(=O)[O-]
REMARK SMILES IDX 7 1 8 2 9 3 10 4 11 5 12 6 13 7 6 8 5 9 4 10 3 11 2 12 1 13
REMARK H PARENT
REMARK Flexibility Score: inf
ROOT
ATOM      1  C   UNL     1     -22.910  29.271 -42.222  1.00  0.00     0.000 C 
ENDROOT
BRANCH   1   2
ATOM      2  C   UNL     1     -21.956  30.396 -42.661  1.00  0.00     0.000 C 
BRANCH   2   3
ATOM      3  C   UNL     1     -20.498  30.232 -42.191  1.00  0.00     0.006 C 
BRANCH   3   4
ATOM      4  C   UNL     1     -19.937  31.498 -41.532  1.00  0.00     0.053 C 
BRANCH   4   5
ATOM      5  C   UNL     1     -18.712  31.963 -42.255  1.00  0.00     0.041 C 
ATOM      6  O   UNL     1     -18.654  31.901 -43.511  1.00  0.00    -0.550 OA
ATOM      7  O   UNL     1     -17.613  32.421 -41.538  1.00  0.00    -0.550 OA
ENDBRANCH   4   5
ENDBRANCH   3   4
ENDBRANCH   2   3
ENDBRANCH   1   2
BRANCH   1   8
ATOM      8  C   UNL     1     -24.210  29.798 -41.598  1.00  0.00     0.000 C 
BRANCH   8   9
ATOM      9  C   UNL     1     -24.149  31.318 -41.400  1.00  0.00    -0.000 C 
BRANCH   9  10
ATOM     10  C   UNL     1     -24.144  31.680 -39.909  1.00  0.00    -0.000 C 
BRANCH  10  11
ATOM     11  C   UNL     1     -22.933  32.559 -39.561  1.00  0.00    -0.000 C 
BRANCH  11  12
ATOM     12  C   UNL     1     -22.027  31.920 -38.498  1.00  0.00    -0.003 C 
ATOM     13  C   UNL     1     -22.027  30.392 -38.561  1.00  0.00     0.004 C 
ENDBRANCH  11  12
ENDBRANCH  10  11
ENDBRANCH   9  10
ENDBRANCH   8   9
ENDBRANCH   1   8
TORSDOF 9
ENDMDL
MODEL 6
REMARK VINA RESULT:    -3.164      2.251      3.942
REMARK INTER + INTRA:          -5.928
REMARK INTER:                  -4.841
REMARK INTRA:                  -1.087
REMARK UNBOUND:                -1.100
REMARK SMILES CCCCCCCCCCC(=O)[O-]
REMARK SMILES IDX 7 1 8 2 9 3 10 4 11 5 12 6 13 7 6 8 5 9 4 10 3 11 2 12 1 13
REMARK H PARENT
REMARK Flexibility Score: inf
ROOT
ATOM      1  C   UNL     1     -19.316  30.411 -42.424  1.00  0.00     0.000 C 
ENDROOT
BRANCH   1   2
ATOM      2  C   UNL     1     -20.836  30.502 -42.202  1.00  0.00     0.000 C 
BRANCH   2   3
ATOM      3  C   UNL     1     -21.354  29.776 -40.946  1.00  0.00     0.006 C 
BRANCH   3   4
ATOM      4  C   UNL     1     -22.574  30.463 -40.320  1.00  0.00     0.053 C 
BRANCH   4   5
ATOM      5  C   UNL     1     -23.604  30.753 -41.365  1.00  0.00     0.041 C 
ATOM      6  O   UNL     1     -23.919  31.942 -41.634  1.00  0.00    -0.550 OA
ATOM      7  O   UNL     1     -24.253  29.707 -42.010  1.00  0.00    -0.550 OA
ENDBRANCH   4   5
ENDBRANCH   3   4
ENDBRANCH   2   3
ENDBRANCH   1   2
BRANCH   1   8
ATOM      8  C   UNL     1     -18.717  31.700 -43.005  1.00  0.00     0.000 C 
BRANCH   8   9
ATOM      9  C   UNL     1     -17.559  32.209 -42.136  1.00  0.00    -0.000 C 
BRANCH   9  10
ATOM     10  C   UNL     1     -17.845  31.980 -40.647  1.00  0.00    -0.000 C 
BRANCH  10  11
ATOM     11  C   UNL     1     -18.416  33.249 -39.996  1.00  0.00    -0.000 C 
BRANCH  11  12
ATOM     12  C   UNL     1     -19.776  33.006 -39.323  1.00  0.00    -0.003 C 
ATOM     13  C   UNL     1     -19.729  31.884 -38.285  1.00  0.00     0.004 C 
ENDBRANCH  11  12
ENDBRANCH  10  11
ENDBRANCH   9  10
ENDBRANCH   8   9
ENDBRANCH   1   8
TORSDOF 9
ENDMDL
MODEL 7
REMARK VINA RESULT:    -3.158     11.856     14.383
REMARK INTER + INTRA:          -5.920
REMARK INTER:                  -4.543
REMARK INTRA:                  -1.377
REMARK UNBOUND:                -1.100
REMARK SMILES CCCCCCCCCCC(=O)[O-]
REMARK SMILES IDX 7 1 8 2 9 3 10 4 11 5 12 6 13 7 6 8 5 9 4 10 3 11 2 12 1 13
REMARK H PARENT
REMARK Flexibility Score: inf
ROOT
ATOM      1  C   UNL     1     -33.042  29.087 -37.388  1.00  0.00     0.000 C 
ENDROOT
BRANCH   1   2
ATOM      2  C   UNL     1     -31.926  29.830 -36.634  1.00  0.00     0.000 C 
BRANCH   2   3
ATOM      3  C   UNL     1     -31.352  29.081 -35.416  1.00  0.00     0.006 C 
BRANCH   3   4
ATOM      4  C   UNL     1     -31.262  29.959 -34.162  1.00  0.00     0.053 C 
BRANCH   4   5
ATOM      5  C   UNL     1     -29.955  30.687 -34.127  1.00  0.00     0.041 C 
ATOM      6  O   UNL     1     -29.869  31.809 -33.564  1.00  0.00    -0.550 OA
ATOM      7  O   UNL     1     -28.842  30.148 -34.760  1.00  0.00    -0.550 OA
ENDBRANCH   4   5
ENDBRANCH   3   4
ENDBRANCH   2   3
ENDBRANCH   1   2
BRANCH   1   8
ATOM      8  C   UNL     1     -33.753  28.035 -36.523  1.00  0.00     0.000 C 
BRANCH   8   9
ATOM      9  C   UNL     1     -35.073  28.583 -35.965  1.00  0.00    -0.000 C 
BRANCH   9  10
ATOM     10  C   UNL     1     -34.989  28.780 -34.446  1.00  0.00    -0.000 C 
BRANCH  10  11
ATOM     11  C   UNL     1     -34.987  30.273 -34.085  1.00  0.00    -0.000 C 
BRANCH  11  12
ATOM     12  C   UNL     1     -35.470  31.161 -35.243  1.00  0.00    -0.003 C 
ATOM     13  C   UNL     1     -34.486  32.281 -35.581  1.00  0.00     0.004 C 
ENDBRANCH  11  12
ENDBRANCH  10  11
ENDBRANCH   9  10
ENDBRANCH   8   9
ENDBRANCH   1   8
TORSDOF 9
ENDMDL
MODEL 8
REMARK VINA RESULT:    -3.151      3.264      5.609
REMARK INTER + INTRA:          -5.909
REMARK INTER:                  -4.980
REMARK INTRA:                  -0.929
REMARK UNBOUND:                -1.100
REMARK SMILES CCCCCCCCCCC(=O)[O-]
REMARK SMILES IDX 7 1 8 2 9 3 10 4 11 5 12 6 13 7 6 8 5 9 4 10 3 11 2 12 1 13
REMARK H PARENT
REMARK Flexibility Score: inf
ROOT
ATOM      1  C   UNL     1     -20.449  32.336 -38.924  1.00  0.00     0.000 C 
ENDROOT
BRANCH   1   2
ATOM      2  C   UNL     1     -21.188  32.148 -40.260  1.00  0.00     0.000 C 
BRANCH   2   3
ATOM      3  C   UNL     1     -21.038  30.754 -40.897  1.00  0.00     0.006 C 
BRANCH   3   4
ATOM      4  C   UNL     1     -20.705  30.812 -42.393  1.00  0.00     0.053 C 
BRANCH   4   5
ATOM      5  C   UNL     1     -19.232  30.983 -42.593  1.00  0.00     0.041 C 
ATOM      6  O   UNL     1     -18.797  31.857 -43.388  1.00  0.00    -0.550 OA
ATOM      7  O   UNL     1     -18.339  30.143 -41.938  1.00  0.00    -0.550 OA
ENDBRANCH   4   5
ENDBRANCH   3   4
ENDBRANCH   2   3
ENDBRANCH   1   2
BRANCH   1   8
ATOM      8  C   UNL     1     -20.585  33.757 -38.358  1.00  0.00     0.000 C 
BRANCH   8   9
ATOM      9  C   UNL     1     -22.037  34.245 -38.441  1.00  0.00    -0.000 C 
BRANCH   9  10
ATOM     10  C   UNL     1     -22.879  33.670 -37.296  1.00  0.00    -0.000 C 
BRANCH  10  11
ATOM     11  C   UNL     1     -24.355  33.546 -37.708  1.00  0.00    -0.000 C 
BRANCH  11  12
ATOM     12  C   UNL     1     -24.614  32.337 -38.619  1.00  0.00    -0.003 C 
ATOM     13  C   UNL     1     -23.949  31.058 -38.109  1.00  0.00     0.004 C 
ENDBRANCH  11  12
ENDBRANCH  10  11
ENDBRANCH   9  10
ENDBRANCH   8   9
ENDBRANCH   1   8
TORSDOF 9
ENDMDL
MODEL 9
REMARK VINA RESULT:    -3.133      2.742      4.920
REMARK INTER + INTRA:          -5.882
REMARK INTER:                  -4.925
REMARK INTRA:                  -0.957
REMARK UNBOUND:                -1.100
REMARK SMILES CCCCCCCCCCC(=O)[O-]
REMARK SMILES IDX 7 1 8 2 9 3 10 4 11 5 12 6 13 7 6 8 5 9 4 10 3 11 2 12 1 13
REMARK H PARENT
REMARK Flexibility Score: inf
ROOT
ATOM      1  C   UNL     1     -20.236  30.833 -40.594  1.00  0.00     0.000 C 
ENDROOT
BRANCH   1   2
ATOM      2  C   UNL     1     -20.373  30.708 -42.121  1.00  0.00     0.000 C 
BRANCH   2   3
ATOM      3  C   UNL     1     -21.666  30.027 -42.606  1.00  0.00     0.006 C 
BRANCH   3   4
ATOM      4  C   UNL     1     -22.413  29.296 -41.484  1.00  0.00     0.053 C 
BRANCH   4   5
ATOM      5  C   UNL     1     -23.890  29.351 -41.717  1.00  0.00     0.041 C 
ATOM      6  O   UNL     1     -24.530  28.299 -41.980  1.00  0.00    -0.550 OA
ATOM      7  O   UNL     1     -24.553  30.571 -41.692  1.00  0.00    -0.550 OA
ENDBRANCH   4   5
ENDBRANCH   3   4
ENDBRANCH   2   3
ENDBRANCH   1   2
BRANCH   1   8
ATOM      8  C   UNL     1     -19.657  32.185 -40.152  1.00  0.00     0.000 C 
BRANCH   8   9
ATOM      9  C   UNL     1     -20.752  33.257 -40.081  1.00  0.00    -0.000 C 
BRANCH   9  10
ATOM     10  C   UNL     1     -20.888  33.813 -38.658  1.00  0.00    -0.000 C 
BRANCH  10  11
ATOM     11  C   UNL     1     -22.341  33.716 -38.168  1.00  0.00    -0.000 C 
BRANCH  11  12
ATOM     12  C   UNL     1     -23.186  32.750 -39.012  1.00  0.00    -0.003 C 
ATOM     13  C   UNL     1     -23.452  31.421 -38.303  1.00  0.00     0.004 C 
ENDBRANCH  11  12
ENDBRANCH  10  11
ENDBRANCH   9  10
ENDBRANCH   8   9
ENDBRANCH   1   8
TORSDOF 9
ENDMDL
