MODEL 1
REMARK VINA RESULT:    -2.813      0.000      0.000
REMARK INTER + INTRA:          -2.813
REMARK INTER:                  -2.813
REMARK INTRA:                   0.000
REMARK UNBOUND:                 0.000
REMARK SMILES CC1(C)O[C@]2(C)CC[C@H]1CC2
REMARK SMILES IDX 1 1 2 2 9 3 8 4 7 5 5 6 4 7 11 8 10 9 6 10 3 11
REMARK H PARENT
REMARK Flexibility Score: inf
ROOT
ATOM      1  C   UNL     1     109.498 112.472 109.704  1.00  0.00     0.042 C 
ATOM      2  C   UNL     1     110.503 113.464 109.080  1.00  0.00     0.066 C 
ATOM      3  C   UNL     1     110.621 113.236 107.524  1.00  0.00     0.021 C 
ATOM      4  C   UNL     1     111.598 114.288 106.948  1.00  0.00     0.009 C 
ATOM      5  C   UNL     1     111.161 115.698 107.415  1.00  0.00     0.035 C 
ATOM      6  C   UNL     1     109.839 115.596 108.229  1.00  0.00     0.066 C 
ATOM      7  O   UNL     1     110.064 114.796 109.391  1.00  0.00    -0.369 OA
ATOM      8  C   UNL     1     108.751 114.919 107.346  1.00  0.00     0.035 C 
ATOM      9  C   UNL     1     109.246 113.529 106.880  1.00  0.00     0.009 C 
ATOM     10  C   UNL     1     109.377 116.989 108.670  1.00  0.00     0.042 C 
ATOM     11  C   UNL     1     111.865 113.235 109.771  1.00  0.00     0.042 C 
ENDROOT
TORSDOF 0
ENDMDL
MODEL 2
REMARK VINA RESULT:    -2.810     10.989     12.418
REMARK INTER + INTRA:          -2.810
REMARK INTER:                  -2.810
REMARK INTRA:                   0.000
REMARK UNBOUND:                 0.000
REMARK SMILES CC1(C)O[C@]2(C)CC[C@H]1CC2
REMARK SMILES IDX 1 1 2 2 9 3 8 4 7 5 5 6 4 7 11 8 10 9 6 10 3 11
REMARK H PARENT
REMARK Flexibility Score: inf
ROOT
ATOM      1  C   UNL     1     122.510 119.516 109.717  1.00  0.00     0.042 C 
ATOM      2  C   UNL     1     121.503 118.537 109.076  1.00  0.00     0.066 C 
ATOM      3  C   UNL     1     121.396 118.784 107.522  1.00  0.00     0.021 C 
ATOM      4  C   UNL     1     120.417 117.745 106.927  1.00  0.00     0.009 C 
ATOM      5  C   UNL     1     120.842 116.327 107.380  1.00  0.00     0.035 C 
ATOM      6  C   UNL     1     122.159 116.411 108.203  1.00  0.00     0.066 C 
ATOM      7  O   UNL     1     121.932 117.199 109.373  1.00  0.00    -0.369 OA
ATOM      8  C   UNL     1     123.256 117.091 107.335  1.00  0.00     0.035 C 
ATOM      9  C   UNL     1     122.774 118.490 106.882  1.00  0.00     0.009 C 
ATOM     10  C   UNL     1     122.610 115.010 108.631  1.00  0.00     0.042 C 
ATOM     11  C   UNL     1     120.139 118.766 109.761  1.00  0.00     0.042 C 
ENDROOT
TORSDOF 0
ENDMDL
MODEL 3
REMARK VINA RESULT:    -2.799      7.224      8.829
REMARK INTER + INTRA:          -2.799
REMARK INTER:                  -2.799
REMARK INTRA:                   0.000
REMARK UNBOUND:                 0.000
REMARK SMILES CC1(C)O[C@]2(C)CC[C@H]1CC2
REMARK SMILES IDX 1 1 2 2 9 3 8 4 7 5 5 6 4 7 11 8 10 9 6 10 3 11
REMARK H PARENT
REMARK Flexibility Score: inf
ROOT
ATOM      1  C   UNL     1     119.560 109.420 109.694  1.00  0.00     0.042 C 
ATOM      2  C   UNL     1     118.614 110.460 109.055  1.00  0.00     0.066 C 
ATOM      3  C   UNL     1     118.854 110.552 107.499  1.00  0.00     0.021 C 
ATOM      4  C   UNL     1     117.847 111.566 106.907  1.00  0.00     0.009 C 
ATOM      5  C   UNL     1     116.418 111.196 107.373  1.00  0.00     0.035 C 
ATOM      6  C   UNL     1     116.459 109.880 108.201  1.00  0.00     0.066 C 
ATOM      7  O   UNL     1     117.264 110.082 109.364  1.00  0.00    -0.369 OA
ATOM      8  C   UNL     1     117.092 108.754 107.333  1.00  0.00     0.035 C 
ATOM      9  C   UNL     1     118.504 109.183 106.867  1.00  0.00     0.009 C 
ATOM     10  C   UNL     1     115.046 109.483 108.641  1.00  0.00     0.042 C 
ATOM     11  C   UNL     1     118.899 111.818 109.733  1.00  0.00     0.042 C 
ENDROOT
TORSDOF 0
ENDMDL
MODEL 4
REMARK VINA RESULT:    -2.765      7.123      8.705
REMARK INTER + INTRA:          -2.765
REMARK INTER:                  -2.765
REMARK INTRA:                   0.000
REMARK UNBOUND:                 0.000
REMARK SMILES CC1(C)O[C@]2(C)CC[C@H]1CC2
REMARK SMILES IDX 1 1 2 2 9 3 8 4 7 5 5 6 4 7 11 8 10 9 6 10 3 11
REMARK H PARENT
REMARK Flexibility Score: inf
ROOT
ATOM      1  C   UNL     1     112.407 122.534 109.551  1.00  0.00     0.042 C 
ATOM      2  C   UNL     1     113.408 121.477 109.036  1.00  0.00     0.066 C 
ATOM      3  C   UNL     1     113.246 121.265 107.481  1.00  0.00     0.021 C 
ATOM      4  C   UNL     1     114.305 120.239 107.015  1.00  0.00     0.009 C 
ATOM      5  C   UNL     1     115.701 120.683 107.518  1.00  0.00     0.035 C 
ATOM      6  C   UNL     1     115.586 122.054 108.243  1.00  0.00     0.066 C 
ATOM      7  O   UNL     1     114.732 121.914 109.379  1.00  0.00    -0.369 OA
ATOM      8  C   UNL     1     114.969 123.095 107.264  1.00  0.00     0.035 C 
ATOM      9  C   UNL     1     113.592 122.593 106.767  1.00  0.00     0.009 C 
ATOM     10  C   UNL     1     116.966 122.522 108.717  1.00  0.00     0.042 C 
ATOM     11  C   UNL     1     113.124 120.165 109.799  1.00  0.00     0.042 C 
ENDROOT
TORSDOF 0
ENDMDL
MODEL 5
REMARK VINA RESULT:    -2.603      6.480      8.330
REMARK INTER + INTRA:          -2.603
REMARK INTER:                  -2.603
REMARK INTRA:                   0.000
REMARK UNBOUND:                 0.000
REMARK SMILES CC1(C)O[C@]2(C)CC[C@H]1CC2
REMARK SMILES IDX 1 1 2 2 9 3 8 4 7 5 5 6 4 7 11 8 10 9 6 10 3 11
REMARK H PARENT
REMARK Flexibility Score: inf
ROOT
ATOM      1  C   UNL     1     112.074 122.996 109.604  1.00  0.00     0.042 C 
ATOM      2  C   UNL     1     113.174 122.630 108.585  1.00  0.00     0.066 C 
ATOM      3  C   UNL     1     114.302 121.764 109.265  1.00  0.00     0.021 C 
ATOM      4  C   UNL     1     115.346 121.385 108.189  1.00  0.00     0.009 C 
ATOM      5  C   UNL     1     114.619 120.756 106.974  1.00  0.00     0.035 C 
ATOM      6  C   UNL     1     113.099 120.631 107.278  1.00  0.00     0.066 C 
ATOM      7  O   UNL     1     112.554 121.934 107.492  1.00  0.00    -0.369 OA
ATOM      8  C   UNL     1     112.908 119.780 108.567  1.00  0.00     0.035 C 
ATOM      9  C   UNL     1     113.676 120.432 109.743  1.00  0.00     0.009 C 
ATOM     10  C   UNL     1     112.371 119.979 106.097  1.00  0.00     0.042 C 
ATOM     11  C   UNL     1     113.755 123.954 108.041  1.00  0.00     0.042 C 
ENDROOT
TORSDOF 0
ENDMDL
MODEL 6
REMARK VINA RESULT:    -2.597      1.416      3.214
REMARK INTER + INTRA:          -2.597
REMARK INTER:                  -2.597
REMARK INTRA:                   0.000
REMARK UNBOUND:                 0.000
REMARK SMILES CC1(C)O[C@]2(C)CC[C@H]1CC2
REMARK SMILES IDX 1 1 2 2 9 3 8 4 7 5 5 6 4 7 11 8 10 9 6 10 3 11
REMARK H PARENT
REMARK Flexibility Score: inf
ROOT
ATOM      1  C   UNL     1     108.924 112.109 109.528  1.00  0.00     0.042 C 
ATOM      2  C   UNL     1     109.339 113.208 108.527  1.00  0.00     0.066 C 
ATOM      3  C   UNL     1     110.206 114.316 109.240  1.00  0.00     0.021 C 
ATOM      4  C   UNL     1     110.634 115.359 108.181  1.00  0.00     0.009 C 
ATOM      5  C   UNL     1     111.285 114.629 106.980  1.00  0.00     0.035 C 
ATOM      6  C   UNL     1     111.373 113.104 107.278  1.00  0.00     0.066 C 
ATOM      7  O   UNL     1     110.055 112.583 107.451  1.00  0.00    -0.369 OA
ATOM      8  C   UNL     1     112.183 112.891 108.590  1.00  0.00     0.035 C 
ATOM      9  C   UNL     1     111.511 113.663 109.751  1.00  0.00     0.009 C 
ATOM     10  C   UNL     1     112.046 112.372 106.112  1.00  0.00     0.042 C 
ATOM     11  C   UNL     1     108.042 113.817 107.949  1.00  0.00     0.042 C 
ENDROOT
TORSDOF 0
ENDMDL
MODEL 7
REMARK VINA RESULT:    -2.543      7.920      9.506
REMARK INTER + INTRA:          -2.543
REMARK INTER:                  -2.543
REMARK INTRA:                   0.000
REMARK UNBOUND:                 0.000
REMARK SMILES CC1(C)O[C@]2(C)CC[C@H]1CC2
REMARK SMILES IDX 1 1 2 2 9 3 8 4 7 5 5 6 4 7 11 8 10 9 6 10 3 11
REMARK H PARENT
REMARK Flexibility Score: inf
ROOT
ATOM      1  C   UNL     1     119.771 109.001 109.572  1.00  0.00     0.042 C 
ATOM      2  C   UNL     1     118.736 109.428 108.510  1.00  0.00     0.066 C 
ATOM      3  C   UNL     1     117.634 110.359 109.147  1.00  0.00     0.021 C 
ATOM      4  C   UNL     1     116.657 110.796 108.030  1.00  0.00     0.009 C 
ATOM      5  C   UNL     1     117.466 111.380 106.845  1.00  0.00     0.035 C 
ATOM      6  C   UNL     1     118.978 111.417 107.209  1.00  0.00     0.066 C 
ATOM      7  O   UNL     1     119.437 110.085 107.444  1.00  0.00    -0.369 OA
ATOM      8  C   UNL     1     119.167 112.257 108.505  1.00  0.00     0.035 C 
ATOM      9  C   UNL     1     118.317 111.653 109.649  1.00  0.00     0.009 C 
ATOM     10  C   UNL     1     119.788 112.024 106.059  1.00  0.00     0.042 C 
ATOM     11  C   UNL     1     118.101 108.139 107.944  1.00  0.00     0.042 C 
ENDROOT
TORSDOF 0
ENDMDL
MODEL 8
REMARK VINA RESULT:    -2.481      1.408      3.404
REMARK INTER + INTRA:          -2.481
REMARK INTER:                  -2.481
REMARK INTRA:                   0.000
REMARK UNBOUND:                 0.000
REMARK SMILES CC1(C)O[C@]2(C)CC[C@H]1CC2
REMARK SMILES IDX 1 1 2 2 9 3 8 4 7 5 5 6 4 7 11 8 10 9 6 10 3 11
REMARK H PARENT
REMARK Flexibility Score: inf
ROOT
ATOM      1  C   UNL     1     109.894 115.904 108.591  1.00  0.00     0.042 C 
ATOM      2  C   UNL     1     109.493 114.741 107.660  1.00  0.00     0.066 C 
ATOM      3  C   UNL     1     110.643 113.664 107.583  1.00  0.00     0.021 C 
ATOM      4  C   UNL     1     110.166 112.501 106.681  1.00  0.00     0.009 C 
ATOM      5  C   UNL     1     108.781 112.011 107.172  1.00  0.00     0.035 C 
ATOM      6  C   UNL     1     108.375 112.786 108.458  1.00  0.00     0.066 C 
ATOM      7  O   UNL     1     108.268 114.177 108.154  1.00  0.00    -0.369 OA
ATOM      8  C   UNL     1     109.474 112.583 109.540  1.00  0.00     0.035 C 
ATOM      9  C   UNL     1     110.842 113.058 108.993  1.00  0.00     0.009 C 
ATOM     10  C   UNL     1     107.021 112.288 108.974  1.00  0.00     0.042 C 
ATOM     11  C   UNL     1     109.215 115.343 106.265  1.00  0.00     0.042 C 
ENDROOT
TORSDOF 0
ENDMDL
MODEL 9
REMARK VINA RESULT:    -2.478     12.108     13.325
REMARK INTER + INTRA:          -2.478
REMARK INTER:                  -2.478
REMARK INTRA:                   0.000
REMARK UNBOUND:                 0.000
REMARK SMILES CC1(C)O[C@]2(C)CC[C@H]1CC2
REMARK SMILES IDX 1 1 2 2 9 3 8 4 7 5 5 6 4 7 11 8 10 9 6 10 3 11
REMARK H PARENT
REMARK Flexibility Score: inf
ROOT
ATOM      1  C   UNL     1     122.107 116.102 108.563  1.00  0.00     0.042 C 
ATOM      2  C   UNL     1     122.517 117.281 107.654  1.00  0.00     0.066 C 
ATOM      3  C   UNL     1     121.355 118.344 107.558  1.00  0.00     0.021 C 
ATOM      4  C   UNL     1     121.840 119.522 106.681  1.00  0.00     0.009 C 
ATOM      5  C   UNL     1     123.205 120.025 107.213  1.00  0.00     0.035 C 
ATOM      6  C   UNL     1     123.587 119.242 108.502  1.00  0.00     0.066 C 
ATOM      7  O   UNL     1     123.721 117.855 108.186  1.00  0.00    -0.369 OA
ATOM      8  C   UNL     1     122.457 119.419 109.556  1.00  0.00     0.035 C 
ATOM      9  C   UNL     1     121.111 118.932 108.969  1.00  0.00     0.009 C 
ATOM     10  C   UNL     1     124.921 119.752 109.059  1.00  0.00     0.042 C 
ATOM     11  C   UNL     1     122.839 116.697 106.262  1.00  0.00     0.042 C 
ENDROOT
TORSDOF 0
ENDMDL
