MODEL 1
REMARK VINA RESULT:    22.958      0.000      0.000
REMARK INTER + INTRA:          39.242
REMARK INTER:                  33.695
REMARK INTRA:                   5.547
REMARK UNBOUND:                 5.547
REMARK SMILES Cc1cc2c(C(C)C)c(O)c(O)c(C=O)c2c(O)c1-c1c(C)cc2c(C(C)C)c(O)c(O)c(C=O)c2c1O
REMARK SMILES IDX 1 1 2 2 3 3 4 4 16 5 13 6 11 7 9 8 5 9 17 10 19 11 20 12
REMARK SMILES IDX 37 13 21 14 36 15 23 16 22 17 24 18 33 19 25 20 31 21 29 22
REMARK SMILES IDX 38 23 34 25 35 26 26 27 27 28 28 29 32 30 30 32 18 34 6 36
REMARK SMILES IDX 7 37 8 38 14 39 15 40 10 41 12 43
REMARK H PARENT 38 24 32 31 30 33 18 35 10 42 12 44
REMARK Flexibility Score: inf
ROOT
ATOM      1  C   UNL     1      -6.158   8.632  -1.479  1.00  0.00     0.045 C 
ATOM      2  C   UNL     1      -5.236   9.118  -0.385  1.00  0.00    -0.039 A 
ATOM      3  C   UNL     1      -5.767   9.416   0.872  1.00  0.00     0.013 A 
ATOM      4  C   UNL     1      -4.960   9.889   1.930  1.00  0.00    -0.006 A 
ATOM      5  C   UNL     1      -3.549   9.991   1.726  1.00  0.00     0.039 A 
ATOM      6  C   UNL     1      -2.726  10.445   2.799  1.00  0.00     0.072 A 
ATOM      7  C   UNL     1      -3.273  10.584   4.089  1.00  0.00     0.169 A 
ATOM      8  C   UNL     1      -4.650  10.395   4.302  1.00  0.00     0.162 A 
ATOM      9  C   UNL     1      -5.522  10.211   3.205  1.00  0.00     0.008 A 
ATOM     10  C   UNL     1      -3.003   9.589   0.469  1.00  0.00     0.132 A 
ATOM     11  C   UNL     1      -3.850   9.198  -0.590  1.00  0.00     0.031 A 
ENDROOT
BRANCH  11  12
ATOM     12  C   UNL     1      -3.277   8.821  -1.911  1.00  0.00     0.031 A 
ATOM     13  C   UNL     1      -3.598   7.575  -2.499  1.00  0.00     0.132 A 
ATOM     14  C   UNL     1      -2.378   9.689  -2.553  1.00  0.00    -0.039 A 
ATOM     15  C   UNL     1      -3.033   7.203  -3.755  1.00  0.00     0.039 A 
ATOM     16  C   UNL     1      -1.831   9.331  -3.786  1.00  0.00     0.013 A 
ATOM     17  C   UNL     1      -1.978  11.001  -1.919  1.00  0.00     0.045 C 
ATOM     18  C   UNL     1      -2.163   8.114  -4.427  1.00  0.00    -0.006 A 
ATOM     19  C   UNL     1      -3.276   5.928  -4.346  1.00  0.00     0.072 A 
ATOM     20  C   UNL     1      -1.616   7.782  -5.705  1.00  0.00     0.008 A 
ATOM     21  C   UNL     1      -2.582   5.543  -5.498  1.00  0.00     0.169 A 
ATOM     22  C   UNL     1      -1.724   6.438  -6.151  1.00  0.00     0.162 A 
BRANCH  13  23
ATOM     23  O   UNL     1      -4.466   6.706  -1.825  1.00  0.00    -0.507 OA
ATOM     24  H   UNL     1      -5.268   6.263  -2.256  1.00  0.00     0.293 HD
ENDBRANCH  13  23
BRANCH  19  25
ATOM     25  C   UNL     1      -4.226   4.953  -3.780  1.00  0.00     0.264 C 
ATOM     26  O   UNL     1      -5.348   4.769  -4.326  1.00  0.00    -0.298 OA
ENDBRANCH  19  25
BRANCH  20  27
ATOM     27  C   UNL     1      -1.006   8.873  -6.608  1.00  0.00     0.017 C 
ATOM     28  C   UNL     1      -1.467   8.745  -8.067  1.00  0.00     0.012 C 
ATOM     29  C   UNL     1      -1.169  10.305  -6.065  1.00  0.00     0.012 C 
ENDBRANCH  20  27
BRANCH  21  30
ATOM     30  O   UNL     1      -2.762   4.248  -6.005  1.00  0.00    -0.504 OA
ATOM     31  H   UNL     1      -3.496   3.630  -5.683  1.00  0.00     0.293 HD
ENDBRANCH  21  30
BRANCH  22  32
ATOM     32  O   UNL     1      -0.989   5.941  -7.228  1.00  0.00    -0.504 OA
ATOM     33  H   UNL     1      -0.436   6.517  -7.846  1.00  0.00     0.293 HD
ENDBRANCH  22  32
ENDBRANCH  11  12
BRANCH  10  34
ATOM     34  O   UNL     1      -1.617   9.529   0.290  1.00  0.00    -0.507 OA
ATOM     35  H   UNL     1      -1.135   9.905  -0.517  1.00  0.00     0.293 HD
ENDBRANCH  10  34
BRANCH   9  36
ATOM     36  C   UNL     1      -7.046  10.296   3.420  1.00  0.00     0.017 C 
ATOM     37  C   UNL     1      -7.691   8.905   3.347  1.00  0.00     0.012 C 
ATOM     38  C   UNL     1      -7.456  11.037   4.708  1.00  0.00     0.012 C 
ENDBRANCH   9  36
BRANCH   6  39
ATOM     39  C   UNL     1      -1.316  10.859   2.589  1.00  0.00     0.264 C 
ATOM     40  O   UNL     1      -0.876  11.125   1.438  1.00  0.00    -0.298 OA
ENDBRANCH   6  39
BRANCH   8  41
ATOM     41  O   UNL     1      -5.174  10.374   5.597  1.00  0.00    -0.504 OA
ATOM     42  H   UNL     1      -5.587  11.171   6.059  1.00  0.00     0.293 HD
ENDBRANCH   8  41
BRANCH   7  43
ATOM     43  O   UNL     1      -2.430  10.965   5.141  1.00  0.00    -0.504 OA
ATOM     44  H   UNL     1      -1.794  11.749   5.105  1.00  0.00     0.293 HD
ENDBRANCH   7  43
TORSDOF 11
ENDMDL
