MODEL 1
REMARK VINA RESULT:    -2.969      0.000      0.000
REMARK INTER + INTRA:          -4.109
REMARK INTER:                  -3.837
REMARK INTRA:                  -0.272
REMARK UNBOUND:                -0.272
REMARK SMILES CCCCCCC(=O)[O-]
REMARK SMILES IDX 5 1 6 2 7 3 8 4 9 5 4 6 3 7 2 8 1 9
REMARK H PARENT
REMARK Flexibility Score: inf
ROOT
ATOM      1  C   UNL     1     -95.361 147.805 240.786  1.00  0.00     0.006 C 
ENDROOT
BRANCH   1   2
ATOM      2  C   UNL     1     -95.399 148.274 242.249  1.00  0.00     0.053 C 
BRANCH   2   3
ATOM      3  C   UNL     1     -96.098 147.289 243.136  1.00  0.00     0.041 C 
ATOM      4  O   UNL     1     -95.767 146.074 243.117  1.00  0.00    -0.550 OA
ATOM      5  O   UNL     1     -97.089 147.719 244.009  1.00  0.00    -0.550 OA
ENDBRANCH   2   3
ENDBRANCH   1   2
BRANCH   1   6
ATOM      6  C   UNL     1     -93.943 147.616 240.210  1.00  0.00     0.000 C 
BRANCH   6   7
ATOM      7  C   UNL     1     -92.894 147.104 241.215  1.00  0.00    -0.000 C 
BRANCH   7   8
ATOM      8  C   UNL     1     -92.760 145.575 241.211  1.00  0.00    -0.003 C 
ATOM      9  C   UNL     1     -91.433 145.141 240.595  1.00  0.00     0.004 C 
ENDBRANCH   7   8
ENDBRANCH   6   7
ENDBRANCH   1   6
TORSDOF 5
ENDMDL
MODEL 2
REMARK VINA RESULT:    -2.951      2.112      4.410
REMARK INTER + INTRA:          -4.086
REMARK INTER:                  -3.898
REMARK INTRA:                  -0.188
REMARK UNBOUND:                -0.272
REMARK SMILES CCCCCCC(=O)[O-]
REMARK SMILES IDX 5 1 6 2 7 3 8 4 9 5 4 6 3 7 2 8 1 9
REMARK H PARENT
REMARK Flexibility Score: inf
ROOT
ATOM      1  C   UNL     1     -94.019 147.475 240.161  1.00  0.00     0.006 C 
ENDROOT
BRANCH   1   2
ATOM      2  C   UNL     1     -92.874 147.163 241.137  1.00  0.00     0.053 C 
BRANCH   2   3
ATOM      3  C   UNL     1     -92.575 145.696 241.201  1.00  0.00     0.041 C 
ATOM      4  O   UNL     1     -91.649 145.208 240.501  1.00  0.00    -0.550 OA
ATOM      5  O   UNL     1     -93.296 144.875 242.058  1.00  0.00    -0.550 OA
ENDBRANCH   2   3
ENDBRANCH   1   2
BRANCH   1   6
ATOM      6  C   UNL     1     -95.319 147.963 240.833  1.00  0.00     0.000 C 
BRANCH   6   7
ATOM      7  C   UNL     1     -95.184 148.331 242.322  1.00  0.00    -0.000 C 
BRANCH   7   8
ATOM      8  C   UNL     1     -96.510 148.213 243.089  1.00  0.00    -0.003 C 
ATOM      9  C   UNL     1     -97.311 149.509 243.003  1.00  0.00     0.004 C 
ENDBRANCH   7   8
ENDBRANCH   6   7
ENDBRANCH   1   6
TORSDOF 5
ENDMDL
MODEL 3
REMARK VINA RESULT:    -2.914      2.865      3.673
REMARK INTER + INTRA:          -4.037
REMARK INTER:                  -3.591
REMARK INTRA:                  -0.446
REMARK UNBOUND:                -0.272
REMARK SMILES CCCCCCC(=O)[O-]
REMARK SMILES IDX 5 1 6 2 7 3 8 4 9 5 4 6 3 7 2 8 1 9
REMARK H PARENT
REMARK Flexibility Score: inf
ROOT
ATOM      1  C   UNL     1     -94.555 147.857 240.333  1.00  0.00     0.006 C 
ENDROOT
BRANCH   1   2
ATOM      2  C   UNL     1     -94.420 147.794 238.804  1.00  0.00     0.053 C 
BRANCH   2   3
ATOM      3  C   UNL     1     -94.149 146.401 238.322  1.00  0.00     0.041 C 
ATOM      4  O   UNL     1     -93.165 146.171 237.571  1.00  0.00    -0.550 OA
ATOM      5  O   UNL     1     -94.963 145.352 238.730  1.00  0.00    -0.550 OA
ENDBRANCH   2   3
ENDBRANCH   1   2
BRANCH   1   6
ATOM      6  C   UNL     1     -93.328 147.333 241.107  1.00  0.00     0.000 C 
BRANCH   6   7
ATOM      7  C   UNL     1     -93.616 146.167 242.072  1.00  0.00    -0.000 C 
BRANCH   7   8
ATOM      8  C   UNL     1     -92.791 144.912 241.754  1.00  0.00    -0.003 C 
ATOM      9  C   UNL     1     -91.679 145.223 240.756  1.00  0.00     0.004 C 
ENDBRANCH   7   8
ENDBRANCH   6   7
ENDBRANCH   1   6
TORSDOF 5
ENDMDL
MODEL 4
REMARK VINA RESULT:    -2.907      1.398      1.965
REMARK INTER + INTRA:          -4.028
REMARK INTER:                  -3.824
REMARK INTRA:                  -0.204
REMARK UNBOUND:                -0.272
REMARK SMILES CCCCCCC(=O)[O-]
REMARK SMILES IDX 5 1 6 2 7 3 8 4 9 5 4 6 3 7 2 8 1 9
REMARK H PARENT
REMARK Flexibility Score: inf
ROOT
ATOM      1  C   UNL     1     -95.164 148.292 242.272  1.00  0.00     0.006 C 
ENDROOT
BRANCH   1   2
ATOM      2  C   UNL     1     -96.300 147.702 243.122  1.00  0.00     0.053 C 
BRANCH   2   3
ATOM      3  C   UNL     1     -97.082 148.766 243.830  1.00  0.00     0.041 C 
ATOM      4  O   UNL     1     -97.528 149.754 243.192  1.00  0.00    -0.550 OA
ATOM      5  O   UNL     1     -97.346 148.647 245.189  1.00  0.00    -0.550 OA
ENDBRANCH   2   3
ENDBRANCH   1   2
BRANCH   1   6
ATOM      6  C   UNL     1     -95.238 147.945 240.771  1.00  0.00     0.000 C 
BRANCH   6   7
ATOM      7  C   UNL     1     -93.897 147.550 240.126  1.00  0.00    -0.000 C 
BRANCH   7   8
ATOM      8  C   UNL     1     -92.867 147.051 241.148  1.00  0.00    -0.003 C 
ATOM      9  C   UNL     1     -92.297 145.696 240.738  1.00  0.00     0.004 C 
ENDBRANCH   7   8
ENDBRANCH   6   7
ENDBRANCH   1   6
TORSDOF 5
ENDMDL
MODEL 5
REMARK VINA RESULT:    -2.906      2.775      4.752
REMARK INTER + INTRA:          -4.027
REMARK INTER:                  -3.786
REMARK INTRA:                  -0.242
REMARK UNBOUND:                -0.272
REMARK SMILES CCCCCCC(=O)[O-]
REMARK SMILES IDX 5 1 6 2 7 3 8 4 9 5 4 6 3 7 2 8 1 9
REMARK H PARENT
REMARK Flexibility Score: inf
ROOT
ATOM      1  C   UNL     1     -92.932 144.933 241.855  1.00  0.00     0.006 C 
ENDROOT
BRANCH   1   2
ATOM      2  C   UNL     1     -91.984 145.507 240.790  1.00  0.00     0.053 C 
BRANCH   2   3
ATOM      3  C   UNL     1     -92.478 145.245 239.400  1.00  0.00     0.041 C 
ATOM      4  O   UNL     1     -91.676 144.875 238.503  1.00  0.00    -0.550 OA
ATOM      5  O   UNL     1     -93.829 145.374 239.105  1.00  0.00    -0.550 OA
ENDBRANCH   2   3
ENDBRANCH   1   2
BRANCH   1   6
ATOM      6  C   UNL     1     -93.794 145.986 242.581  1.00  0.00     0.000 C 
BRANCH   6   7
ATOM      7  C   UNL     1     -93.646 147.425 242.054  1.00  0.00    -0.000 C 
BRANCH   7   8
ATOM      8  C   UNL     1     -94.964 148.002 241.517  1.00  0.00    -0.003 C 
ATOM      9  C   UNL     1     -95.833 148.538 242.651  1.00  0.00     0.004 C 
ENDBRANCH   7   8
ENDBRANCH   6   7
ENDBRANCH   1   6
TORSDOF 5
ENDMDL
MODEL 6
REMARK VINA RESULT:    -2.847      2.984      4.350
REMARK INTER + INTRA:          -3.951
REMARK INTER:                  -3.596
REMARK INTRA:                  -0.355
REMARK UNBOUND:                -0.272
REMARK SMILES CCCCCCC(=O)[O-]
REMARK SMILES IDX 5 1 6 2 7 3 8 4 9 5 4 6 3 7 2 8 1 9
REMARK H PARENT
REMARK Flexibility Score: inf
ROOT
ATOM      1  C   UNL     1     -93.555 146.066 242.610  1.00  0.00     0.006 C 
ENDROOT
BRANCH   1   2
ATOM      2  C   UNL     1     -93.380 144.912 241.610  1.00  0.00     0.053 C 
BRANCH   2   3
ATOM      3  C   UNL     1     -92.317 145.206 240.595  1.00  0.00     0.041 C 
ATOM      4  O   UNL     1     -91.104 145.209 240.931  1.00  0.00    -0.550 OA
ATOM      5  O   UNL     1     -92.665 145.442 239.271  1.00  0.00    -0.550 OA
ENDBRANCH   2   3
ENDBRANCH   1   2
BRANCH   1   6
ATOM      6  C   UNL     1     -93.635 147.465 241.967  1.00  0.00     0.000 C 
BRANCH   6   7
ATOM      7  C   UNL     1     -95.052 148.062 241.880  1.00  0.00    -0.000 C 
BRANCH   7   8
ATOM      8  C   UNL     1     -95.671 147.930 240.481  1.00  0.00    -0.003 C 
ATOM      9  C   UNL     1     -94.654 148.268 239.395  1.00  0.00     0.004 C 
ENDBRANCH   7   8
ENDBRANCH   6   7
ENDBRANCH   1   6
TORSDOF 5
ENDMDL
MODEL 7
REMARK VINA RESULT:    -2.761      1.526      2.172
REMARK INTER + INTRA:          -3.840
REMARK INTER:                  -3.742
REMARK INTRA:                  -0.098
REMARK UNBOUND:                -0.272
REMARK SMILES CCCCCCC(=O)[O-]
REMARK SMILES IDX 5 1 6 2 7 3 8 4 9 5 4 6 3 7 2 8 1 9
REMARK H PARENT
REMARK Flexibility Score: inf
ROOT
ATOM      1  C   UNL     1     -96.435 148.058 242.617  1.00  0.00     0.006 C 
ENDROOT
BRANCH   1   2
ATOM      2  C   UNL     1     -97.016 149.067 243.620  1.00  0.00     0.053 C 
BRANCH   2   3
ATOM      3  C   UNL     1     -97.376 148.420 244.922  1.00  0.00     0.041 C 
ATOM      4  O   UNL     1     -97.336 147.167 245.039  1.00  0.00    -0.550 OA
ATOM      5  O   UNL     1     -97.723 149.202 246.016  1.00  0.00    -0.550 OA
ENDBRANCH   2   3
ENDBRANCH   1   2
BRANCH   1   6
ATOM      6  C   UNL     1     -94.935 148.249 242.312  1.00  0.00     0.000 C 
BRANCH   6   7
ATOM      7  C   UNL     1     -94.412 147.461 241.096  1.00  0.00    -0.000 C 
BRANCH   7   8
ATOM      8  C   UNL     1     -92.897 147.218 241.149  1.00  0.00    -0.003 C 
ATOM      9  C   UNL     1     -92.554 145.792 240.726  1.00  0.00     0.004 C 
ENDBRANCH   7   8
ENDBRANCH   6   7
ENDBRANCH   1   6
TORSDOF 5
ENDMDL
MODEL 8
REMARK VINA RESULT:    -2.751      2.719      4.594
REMARK INTER + INTRA:          -3.827
REMARK INTER:                  -3.579
REMARK INTRA:                  -0.248
REMARK UNBOUND:                -0.272
REMARK SMILES CCCCCCC(=O)[O-]
REMARK SMILES IDX 5 1 6 2 7 3 8 4 9 5 4 6 3 7 2 8 1 9
REMARK H PARENT
REMARK Flexibility Score: inf
ROOT
ATOM      1  C   UNL     1     -94.286 146.488 242.421  1.00  0.00     0.006 C 
ENDROOT
BRANCH   1   2
ATOM      2  C   UNL     1     -93.293 147.310 241.583  1.00  0.00     0.053 C 
BRANCH   2   3
ATOM      3  C   UNL     1     -93.559 147.180 240.114  1.00  0.00     0.041 C 
ATOM      4  O   UNL     1     -93.173 146.158 239.488  1.00  0.00    -0.550 OA
ATOM      5  O   UNL     1     -94.261 148.173 239.443  1.00  0.00    -0.550 OA
ENDBRANCH   2   3
ENDBRANCH   1   2
BRANCH   1   6
ATOM      6  C   UNL     1     -95.718 147.060 242.461  1.00  0.00     0.000 C 
BRANCH   6   7
ATOM      7  C   UNL     1     -95.806 148.584 242.662  1.00  0.00    -0.000 C 
BRANCH   7   8
ATOM      8  C   UNL     1     -96.959 148.998 243.587  1.00  0.00    -0.003 C 
ATOM      9  C   UNL     1     -97.299 147.885 244.575  1.00  0.00     0.004 C 
ENDBRANCH   7   8
ENDBRANCH   6   7
ENDBRANCH   1   6
TORSDOF 5
ENDMDL
MODEL 9
REMARK VINA RESULT:    -2.725      3.857      4.408
REMARK INTER + INTRA:          -3.793
REMARK INTER:                  -3.661
REMARK INTRA:                  -0.132
REMARK UNBOUND:                -0.272
REMARK SMILES CCCCCCC(=O)[O-]
REMARK SMILES IDX 5 1 6 2 7 3 8 4 9 5 4 6 3 7 2 8 1 9
REMARK H PARENT
REMARK Flexibility Score: inf
ROOT
ATOM      1  C   UNL     1     -94.261 147.809 239.132  1.00  0.00     0.006 C 
ENDROOT
BRANCH   1   2
ATOM      2  C   UNL     1     -95.334 148.721 238.517  1.00  0.00     0.053 C 
BRANCH   2   3
ATOM      3  C   UNL     1     -94.838 149.419 237.287  1.00  0.00     0.041 C 
ATOM      4  O   UNL     1     -94.360 148.755 236.331  1.00  0.00    -0.550 OA
ATOM      5  O   UNL     1     -94.938 150.801 237.183  1.00  0.00    -0.550 OA
ENDBRANCH   2   3
ENDBRANCH   1   2
BRANCH   1   6
ATOM      6  C   UNL     1     -94.355 147.652 240.664  1.00  0.00     0.000 C 
BRANCH   6   7
ATOM      7  C   UNL     1     -93.060 147.181 241.351  1.00  0.00    -0.000 C 
BRANCH   7   8
ATOM      8  C   UNL     1     -92.912 145.653 241.364  1.00  0.00    -0.003 C 
ATOM      9  C   UNL     1     -91.612 145.220 240.692  1.00  0.00     0.004 C 
ENDBRANCH   7   8
ENDBRANCH   6   7
ENDBRANCH   1   6
TORSDOF 5
ENDMDL
