MODEL 1
REMARK VINA RESULT:    -3.635      0.000      0.000
REMARK INTER + INTRA:         -10.069
REMARK INTER:                  -7.036
REMARK INTRA:                  -3.033
REMARK UNBOUND:                -3.033
REMARK SMILES CCCCCCCCCCCCCCCCCC(=O)[O-]
REMARK SMILES IDX 10 1 11 2 12 3 13 4 14 5 15 6 16 7 17 8 18 9 19 10 20 11
REMARK SMILES IDX 9 12 8 13 7 14 6 15 5 16 4 17 3 18 2 19 1 20
REMARK H PARENT
REMARK Flexibility Score: inf
ROOT
ATOM      1  C   UNL     1       1.835   7.044  38.149  1.00  0.00     0.000 C 
ENDROOT
BRANCH   1   2
ATOM      2  C   UNL     1       1.478   8.487  37.753  1.00  0.00     0.000 C 
BRANCH   2   3
ATOM      3  C   UNL     1       1.452   9.443  38.959  1.00  0.00     0.000 C 
BRANCH   3   4
ATOM      4  C   UNL     1       0.082  10.125  39.143  1.00  0.00     0.000 C 
BRANCH   4   5
ATOM      5  C   UNL     1      -0.848  10.029  37.920  1.00  0.00     0.000 C 
BRANCH   5   6
ATOM      6  C   UNL     1      -2.230   9.449  38.269  1.00  0.00     0.000 C 
BRANCH   6   7
ATOM      7  C   UNL     1      -2.141   8.066  38.933  1.00  0.00     0.006 C 
BRANCH   7   8
ATOM      8  C   UNL     1      -3.010   7.956  40.193  1.00  0.00     0.053 C 
BRANCH   8   9
ATOM      9  C   UNL     1      -2.187   7.514  41.361  1.00  0.00     0.041 C 
ATOM     10  O   UNL     1      -2.380   6.383  41.880  1.00  0.00    -0.550 OA
ATOM     11  O   UNL     1      -1.180   8.335  41.854  1.00  0.00    -0.550 OA
ENDBRANCH   8   9
ENDBRANCH   7   8
ENDBRANCH   6   7
ENDBRANCH   5   6
ENDBRANCH   4   5
ENDBRANCH   3   4
ENDBRANCH   2   3
ENDBRANCH   1   2
BRANCH   1  12
ATOM     12  C   UNL     1       1.406   6.703  39.586  1.00  0.00     0.000 C 
BRANCH  12  13
ATOM     13  C   UNL     1       0.445   5.502  39.655  1.00  0.00    -0.000 C 
BRANCH  13  14
ATOM     14  C   UNL     1      -0.014   4.950  38.289  1.00  0.00    -0.000 C 
BRANCH  14  15
ATOM     15  C   UNL     1      -1.521   4.654  38.178  1.00  0.00    -0.000 C 
BRANCH  15  16
ATOM     16  C   UNL     1      -2.143   4.944  36.797  1.00  0.00    -0.000 C 
BRANCH  16  17
ATOM     17  C   UNL     1      -1.171   5.517  35.751  1.00  0.00    -0.000 C 
BRANCH  17  18
ATOM     18  C   UNL     1      -1.291   7.043  35.598  1.00  0.00    -0.000 C 
BRANCH  18  19
ATOM     19  C   UNL     1      -0.178   7.635  34.718  1.00  0.00    -0.003 C 
ATOM     20  C   UNL     1       0.429   6.612  33.760  1.00  0.00     0.004 C 
ENDBRANCH  18  19
ENDBRANCH  17  18
ENDBRANCH  16  17
ENDBRANCH  15  16
ENDBRANCH  14  15
ENDBRANCH  13  14
ENDBRANCH  12  13
ENDBRANCH   1  12
TORSDOF 16
ENDMDL
MODEL 2
REMARK VINA RESULT:    -3.622      2.669      5.425
REMARK INTER + INTRA:         -10.043
REMARK INTER:                  -7.088
REMARK INTRA:                  -2.955
REMARK UNBOUND:                -3.033
REMARK SMILES CCCCCCCCCCCCCCCCCC(=O)[O-]
REMARK SMILES IDX 10 1 11 2 12 3 13 4 14 5 15 6 16 7 17 8 18 9 19 10 20 11
REMARK SMILES IDX 9 12 8 13 7 14 6 15 5 16 4 17 3 18 2 19 1 20
REMARK H PARENT
REMARK Flexibility Score: inf
ROOT
ATOM      1  C   UNL     1      -2.018   9.682  38.194  1.00  0.00     0.000 C 
ENDROOT
BRANCH   1   2
ATOM      2  C   UNL     1      -2.346   8.262  38.684  1.00  0.00     0.000 C 
BRANCH   2   3
ATOM      3  C   UNL     1      -2.962   8.250  40.096  1.00  0.00     0.000 C 
BRANCH   3   4
ATOM      4  C   UNL     1      -2.895   6.859  40.757  1.00  0.00     0.000 C 
BRANCH   4   5
ATOM      5  C   UNL     1      -3.124   5.682  39.792  1.00  0.00     0.000 C 
BRANCH   5   6
ATOM      6  C   UNL     1      -1.829   4.911  39.479  1.00  0.00     0.000 C 
BRANCH   6   7
ATOM      7  C   UNL     1      -1.447   4.974  37.992  1.00  0.00     0.006 C 
BRANCH   7   8
ATOM      8  C   UNL     1      -0.447   3.882  37.589  1.00  0.00     0.053 C 
BRANCH   8   9
ATOM      9  C   UNL     1      -0.106   3.994  36.137  1.00  0.00     0.041 C 
ATOM     10  O   UNL     1      -0.946   4.461  35.323  1.00  0.00    -0.550 OA
ATOM     11  O   UNL     1       1.154   3.619  35.687  1.00  0.00    -0.550 OA
ENDBRANCH   8   9
ENDBRANCH   7   8
ENDBRANCH   6   7
ENDBRANCH   5   6
ENDBRANCH   4   5
ENDBRANCH   3   4
ENDBRANCH   2   3
ENDBRANCH   1   2
BRANCH   1  12
ATOM     12  C   UNL     1      -1.481   9.698  36.752  1.00  0.00     0.000 C 
BRANCH  12  13
ATOM     13  C   UNL     1      -1.390   8.291  36.131  1.00  0.00    -0.000 C 
BRANCH  13  14
ATOM     14  C   UNL     1       0.027   7.847  35.717  1.00  0.00    -0.000 C 
BRANCH  14  15
ATOM     15  C   UNL     1       1.133   8.152  36.745  1.00  0.00    -0.000 C 
BRANCH  15  16
ATOM     16  C   UNL     1       1.806   6.911  37.366  1.00  0.00    -0.000 C 
BRANCH  16  17
ATOM     17  C   UNL     1       1.826   6.881  38.905  1.00  0.00    -0.000 C 
BRANCH  17  18
ATOM     18  C   UNL     1       1.119   8.092  39.535  1.00  0.00    -0.000 C 
BRANCH  18  19
ATOM     19  C   UNL     1       0.672   7.826  40.981  1.00  0.00    -0.003 C 
ATOM     20  C   UNL     1       0.268   9.100  41.722  1.00  0.00     0.004 C 
ENDBRANCH  18  19
ENDBRANCH  17  18
ENDBRANCH  16  17
ENDBRANCH  15  16
ENDBRANCH  14  15
ENDBRANCH  13  14
ENDBRANCH  12  13
ENDBRANCH   1  12
TORSDOF 16
ENDMDL
MODEL 3
REMARK VINA RESULT:    -3.575      3.029      6.232
REMARK INTER + INTRA:          -9.951
REMARK INTER:                  -7.046
REMARK INTRA:                  -2.905
REMARK UNBOUND:                -3.033
REMARK SMILES CCCCCCCCCCCCCCCCCC(=O)[O-]
REMARK SMILES IDX 10 1 11 2 12 3 13 4 14 5 15 6 16 7 17 8 18 9 19 10 20 11
REMARK SMILES IDX 9 12 8 13 7 14 6 15 5 16 4 17 3 18 2 19 1 20
REMARK H PARENT
REMARK Flexibility Score: inf
ROOT
ATOM      1  C   UNL     1      -2.477   7.381  40.160  1.00  0.00     0.000 C 
ENDROOT
BRANCH   1   2
ATOM      2  C   UNL     1      -3.266   6.133  39.730  1.00  0.00     0.000 C 
BRANCH   2   3
ATOM      3  C   UNL     1      -2.518   5.292  38.679  1.00  0.00     0.000 C 
BRANCH   3   4
ATOM      4  C   UNL     1      -0.990   5.479  38.753  1.00  0.00     0.000 C 
BRANCH   4   5
ATOM      5  C   UNL     1      -0.307   5.700  37.391  1.00  0.00     0.000 C 
BRANCH   5   6
ATOM      6  C   UNL     1      -1.304   5.676  36.218  1.00  0.00     0.000 C 
BRANCH   6   7
ATOM      7  C   UNL     1      -1.098   6.845  35.242  1.00  0.00     0.006 C 
BRANCH   7   8
ATOM      8  C   UNL     1      -0.137   6.499  34.097  1.00  0.00     0.053 C 
BRANCH   8   9
ATOM      9  C   UNL     1       0.850   7.604  33.889  1.00  0.00     0.041 C 
ATOM     10  O   UNL     1       1.045   8.457  34.795  1.00  0.00    -0.550 OA
ATOM     11  O   UNL     1       1.584   7.670  32.711  1.00  0.00    -0.550 OA
ENDBRANCH   8   9
ENDBRANCH   7   8
ENDBRANCH   6   7
ENDBRANCH   5   6
ENDBRANCH   4   5
ENDBRANCH   3   4
ENDBRANCH   2   3
ENDBRANCH   1   2
BRANCH   1  12
ATOM     12  C   UNL     1      -2.954   8.656  39.445  1.00  0.00     0.000 C 
BRANCH  12  13
ATOM     13  C   UNL     1      -2.216   8.909  38.117  1.00  0.00    -0.000 C 
BRANCH  13  14
ATOM     14  C   UNL     1      -1.032   9.894  38.202  1.00  0.00    -0.000 C 
BRANCH  14  15
ATOM     15  C   UNL     1       0.363   9.240  38.211  1.00  0.00    -0.000 C 
BRANCH  15  16
ATOM     16  C   UNL     1       1.187   9.479  39.492  1.00  0.00    -0.000 C 
BRANCH  16  17
ATOM     17  C   UNL     1       0.362   9.807  40.748  1.00  0.00    -0.000 C 
BRANCH  17  18
ATOM     18  C   UNL     1       0.552   8.776  41.873  1.00  0.00    -0.000 C 
BRANCH  18  19
ATOM     19  C   UNL     1       0.979   7.398  41.343  1.00  0.00    -0.003 C 
ATOM     20  C   UNL     1       0.428   6.243  42.178  1.00  0.00     0.004 C 
ENDBRANCH  18  19
ENDBRANCH  17  18
ENDBRANCH  16  17
ENDBRANCH  15  16
ENDBRANCH  14  15
ENDBRANCH  13  14
ENDBRANCH  12  13
ENDBRANCH   1  12
TORSDOF 16
ENDMDL
MODEL 4
REMARK VINA RESULT:    -3.553      2.880      5.887
REMARK INTER + INTRA:          -9.909
REMARK INTER:                  -7.200
REMARK INTRA:                  -2.709
REMARK UNBOUND:                -3.033
REMARK SMILES CCCCCCCCCCCCCCCCCC(=O)[O-]
REMARK SMILES IDX 10 1 11 2 12 3 13 4 14 5 15 6 16 7 17 8 18 9 19 10 20 11
REMARK SMILES IDX 9 12 8 13 7 14 6 15 5 16 4 17 3 18 2 19 1 20
REMARK H PARENT
REMARK Flexibility Score: inf
ROOT
ATOM      1  C   UNL     1      -1.860   8.171  39.502  1.00  0.00     0.000 C 
ENDROOT
BRANCH   1   2
ATOM      2  C   UNL     1      -3.090   7.465  40.097  1.00  0.00     0.000 C 
BRANCH   2   3
ATOM      3  C   UNL     1      -3.394   6.122  39.409  1.00  0.00     0.000 C 
BRANCH   3   4
ATOM      4  C   UNL     1      -2.128   5.451  38.840  1.00  0.00     0.000 C 
BRANCH   4   5
ATOM      5  C   UNL     1      -2.171   5.191  37.323  1.00  0.00     0.000 C 
BRANCH   5   6
ATOM      6  C   UNL     1      -0.862   5.586  36.617  1.00  0.00     0.000 C 
BRANCH   6   7
ATOM      7  C   UNL     1      -1.100   6.204  35.230  1.00  0.00     0.006 C 
BRANCH   7   8
ATOM      8  C   UNL     1      -0.179   5.617  34.152  1.00  0.00     0.053 C 
BRANCH   8   9
ATOM      9  C   UNL     1       1.131   6.340  34.132  1.00  0.00     0.041 C 
ATOM     10  O   UNL     1       1.242   7.431  33.514  1.00  0.00    -0.550 OA
ATOM     11  O   UNL     1       2.219   5.827  34.827  1.00  0.00    -0.550 OA
ENDBRANCH   8   9
ENDBRANCH   7   8
ENDBRANCH   6   7
ENDBRANCH   5   6
ENDBRANCH   4   5
ENDBRANCH   3   4
ENDBRANCH   2   3
ENDBRANCH   1   2
BRANCH   1  12
ATOM     12  C   UNL     1      -2.240   9.361  38.605  1.00  0.00     0.000 C 
BRANCH  12  13
ATOM     13  C   UNL     1      -1.873   9.136  37.125  1.00  0.00    -0.000 C 
BRANCH  13  14
ATOM     14  C   UNL     1      -0.840  10.125  36.548  1.00  0.00    -0.000 C 
BRANCH  14  15
ATOM     15  C   UNL     1       0.561   9.534  36.299  1.00  0.00    -0.000 C 
BRANCH  15  16
ATOM     16  C   UNL     1       1.602   9.842  37.393  1.00  0.00    -0.000 C 
BRANCH  16  17
ATOM     17  C   UNL     1       1.693   8.799  38.521  1.00  0.00    -0.000 C 
BRANCH  17  18
ATOM     18  C   UNL     1       1.828   7.360  37.994  1.00  0.00    -0.000 C 
BRANCH  18  19
ATOM     19  C   UNL     1       2.230   6.366  39.094  1.00  0.00    -0.003 C 
ATOM     20  C   UNL     1       1.209   6.290  40.229  1.00  0.00     0.004 C 
ENDBRANCH  18  19
ENDBRANCH  17  18
ENDBRANCH  16  17
ENDBRANCH  15  16
ENDBRANCH  14  15
ENDBRANCH  13  14
ENDBRANCH  12  13
ENDBRANCH   1  12
TORSDOF 16
ENDMDL
MODEL 5
REMARK VINA RESULT:    -3.535      1.786      4.259
REMARK INTER + INTRA:          -9.875
REMARK INTER:                  -6.847
REMARK INTRA:                  -3.027
REMARK UNBOUND:                -3.033
REMARK SMILES CCCCCCCCCCCCCCCCCC(=O)[O-]
REMARK SMILES IDX 10 1 11 2 12 3 13 4 14 5 15 6 16 7 17 8 18 9 19 10 20 11
REMARK SMILES IDX 9 12 8 13 7 14 6 15 5 16 4 17 3 18 2 19 1 20
REMARK H PARENT
REMARK Flexibility Score: inf
ROOT
ATOM      1  C   UNL     1       1.555   6.860  39.041  1.00  0.00     0.000 C 
ENDROOT
BRANCH   1   2
ATOM      2  C   UNL     1       1.794   8.325  38.639  1.00  0.00     0.000 C 
BRANCH   2   3
ATOM      3  C   UNL     1       1.502   8.586  37.150  1.00  0.00     0.000 C 
BRANCH   3   4
ATOM      4  C   UNL     1       0.857   7.373  36.453  1.00  0.00     0.000 C 
BRANCH   4   5
ATOM      5  C   UNL     1      -0.145   7.734  35.341  1.00  0.00     0.000 C 
BRANCH   5   6
ATOM      6  C   UNL     1      -1.478   6.977  35.475  1.00  0.00     0.000 C 
BRANCH   6   7
ATOM      7  C   UNL     1      -1.283   5.464  35.666  1.00  0.00     0.006 C 
BRANCH   7   8
ATOM      8  C   UNL     1      -2.072   4.911  36.861  1.00  0.00     0.053 C 
BRANCH   8   9
ATOM      9  C   UNL     1      -1.140   4.460  37.941  1.00  0.00     0.041 C 
ATOM     10  O   UNL     1      -1.491   4.528  39.149  1.00  0.00    -0.550 OA
ATOM     11  O   UNL     1       0.101   3.931  37.613  1.00  0.00    -0.550 OA
ENDBRANCH   8   9
ENDBRANCH   7   8
ENDBRANCH   6   7
ENDBRANCH   5   6
ENDBRANCH   4   5
ENDBRANCH   3   4
ENDBRANCH   2   3
ENDBRANCH   1   2
BRANCH   1  12
ATOM     12  C   UNL     1       1.037   6.720  40.483  1.00  0.00     0.000 C 
BRANCH  12  13
ATOM     13  C   UNL     1       0.856   8.078  41.187  1.00  0.00    -0.000 C 
BRANCH  13  14
ATOM     14  C   UNL     1      -0.305   8.141  42.200  1.00  0.00    -0.000 C 
BRANCH  14  15
ATOM     15  C   UNL     1      -0.979   6.790  42.506  1.00  0.00    -0.000 C 
BRANCH  15  16
ATOM     16  C   UNL     1      -2.400   6.625  41.932  1.00  0.00    -0.000 C 
BRANCH  16  17
ATOM     17  C   UNL     1      -2.934   7.839  41.151  1.00  0.00    -0.000 C 
BRANCH  17  18
ATOM     18  C   UNL     1      -3.081   7.563  39.645  1.00  0.00    -0.000 C 
BRANCH  18  19
ATOM     19  C   UNL     1      -1.933   8.166  38.821  1.00  0.00    -0.003 C 
ATOM     20  C   UNL     1      -2.269   9.545  38.256  1.00  0.00     0.004 C 
ENDBRANCH  18  19
ENDBRANCH  17  18
ENDBRANCH  16  17
ENDBRANCH  15  16
ENDBRANCH  14  15
ENDBRANCH  13  14
ENDBRANCH  12  13
ENDBRANCH   1  12
TORSDOF 16
ENDMDL
MODEL 6
REMARK VINA RESULT:    -3.516      3.054      5.069
REMARK INTER + INTRA:          -9.839
REMARK INTER:                  -6.911
REMARK INTRA:                  -2.927
REMARK UNBOUND:                -3.033
REMARK SMILES CCCCCCCCCCCCCCCCCC(=O)[O-]
REMARK SMILES IDX 10 1 11 2 12 3 13 4 14 5 15 6 16 7 17 8 18 9 19 10 20 11
REMARK SMILES IDX 9 12 8 13 7 14 6 15 5 16 4 17 3 18 2 19 1 20
REMARK H PARENT
REMARK Flexibility Score: inf
ROOT
ATOM      1  C   UNL     1       0.490   7.624  41.423  1.00  0.00     0.000 C 
ENDROOT
BRANCH   1   2
ATOM      2  C   UNL     1       1.075   8.403  40.232  1.00  0.00     0.000 C 
BRANCH   2   3
ATOM      3  C   UNL     1       0.591   9.863  40.184  1.00  0.00     0.000 C 
BRANCH   3   4
ATOM      4  C   UNL     1      -0.401  10.119  39.032  1.00  0.00     0.000 C 
BRANCH   4   5
ATOM      5  C   UNL     1      -0.357   9.068  37.908  1.00  0.00     0.000 C 
BRANCH   5   6
ATOM      6  C   UNL     1      -1.539   9.196  36.930  1.00  0.00     0.000 C 
BRANCH   6   7
ATOM      7  C   UNL     1      -1.462   8.189  35.772  1.00  0.00     0.006 C 
BRANCH   7   8
ATOM      8  C   UNL     1      -0.141   7.408  35.752  1.00  0.00     0.053 C 
BRANCH   8   9
ATOM      9  C   UNL     1       0.682   7.801  34.567  1.00  0.00     0.041 C 
ATOM     10  O   UNL     1       0.700   8.998  34.176  1.00  0.00    -0.550 OA
ATOM     11  O   UNL     1       1.461   6.852  33.915  1.00  0.00    -0.550 OA
ENDBRANCH   8   9
ENDBRANCH   7   8
ENDBRANCH   6   7
ENDBRANCH   5   6
ENDBRANCH   4   5
ENDBRANCH   3   4
ENDBRANCH   2   3
ENDBRANCH   1   2
BRANCH   1  12
ATOM     12  C   UNL     1      -0.594   8.418  42.171  1.00  0.00     0.000 C 
BRANCH  12  13
ATOM     13  C   UNL     1      -1.798   7.548  42.579  1.00  0.00    -0.000 C 
BRANCH  13  14
ATOM     14  C   UNL     1      -3.115   7.864  41.841  1.00  0.00    -0.000 C 
BRANCH  14  15
ATOM     15  C   UNL     1      -3.011   7.894  40.304  1.00  0.00    -0.000 C 
BRANCH  15  16
ATOM     16  C   UNL     1      -3.162   6.525  39.613  1.00  0.00    -0.000 C 
BRANCH  16  17
ATOM     17  C   UNL     1      -1.896   6.007  38.908  1.00  0.00    -0.000 C 
BRANCH  17  18
ATOM     18  C   UNL     1      -1.448   4.628  39.422  1.00  0.00    -0.000 C 
BRANCH  18  19
ATOM     19  C   UNL     1      -1.962   4.334  40.840  1.00  0.00    -0.003 C 
ATOM     20  C   UNL     1      -0.883   3.755  41.754  1.00  0.00     0.004 C 
ENDBRANCH  18  19
ENDBRANCH  17  18
ENDBRANCH  16  17
ENDBRANCH  15  16
ENDBRANCH  14  15
ENDBRANCH  13  14
ENDBRANCH  12  13
ENDBRANCH   1  12
TORSDOF 16
ENDMDL
MODEL 7
REMARK VINA RESULT:    -3.500      2.795      5.452
REMARK INTER + INTRA:          -9.807
REMARK INTER:                  -6.754
REMARK INTRA:                  -3.053
REMARK UNBOUND:                -3.033
REMARK SMILES CCCCCCCCCCCCCCCCCC(=O)[O-]
REMARK SMILES IDX 10 1 11 2 12 3 13 4 14 5 15 6 16 7 17 8 18 9 19 10 20 11
REMARK SMILES IDX 9 12 8 13 7 14 6 15 5 16 4 17 3 18 2 19 1 20
REMARK H PARENT
REMARK Flexibility Score: inf
ROOT
ATOM      1  C   UNL     1       1.399   9.037  37.819  1.00  0.00     0.000 C 
ENDROOT
BRANCH   1   2
ATOM      2  C   UNL     1       1.425   8.555  39.279  1.00  0.00     0.000 C 
BRANCH   2   3
ATOM      3  C   UNL     1       1.435   7.020  39.397  1.00  0.00     0.000 C 
BRANCH   3   4
ATOM      4  C   UNL     1       1.452   6.323  38.022  1.00  0.00     0.000 C 
BRANCH   4   5
ATOM      5  C   UNL     1       0.348   5.268  37.828  1.00  0.00     0.000 C 
BRANCH   5   6
ATOM      6  C   UNL     1      -1.045   5.895  37.640  1.00  0.00     0.000 C 
BRANCH   6   7
ATOM      7  C   UNL     1      -1.507   5.884  36.175  1.00  0.00     0.006 C 
BRANCH   7   8
ATOM      8  C   UNL     1      -1.273   7.226  35.468  1.00  0.00     0.053 C 
BRANCH   8   9
ATOM      9  C   UNL     1      -0.140   7.117  34.498  1.00  0.00     0.041 C 
ATOM     10  O   UNL     1      -0.101   6.165  33.673  1.00  0.00    -0.550 OA
ATOM     11  O   UNL     1       0.855   8.086  34.478  1.00  0.00    -0.550 OA
ENDBRANCH   8   9
ENDBRANCH   7   8
ENDBRANCH   6   7
ENDBRANCH   5   6
ENDBRANCH   4   5
ENDBRANCH   3   4
ENDBRANCH   2   3
ENDBRANCH   1   2
BRANCH   1  12
ATOM     12  C   UNL     1       0.245  10.016  37.542  1.00  0.00     0.000 C 
BRANCH  12  13
ATOM     13  C   UNL     1      -0.813  10.026  38.662  1.00  0.00    -0.000 C 
BRANCH  13  14
ATOM     14  C   UNL     1      -2.188   9.449  38.270  1.00  0.00    -0.000 C 
BRANCH  14  15
ATOM     15  C   UNL     1      -2.813   8.492  39.303  1.00  0.00    -0.000 C 
BRANCH  15  16
ATOM     16  C   UNL     1      -1.926   8.183  40.526  1.00  0.00    -0.000 C 
BRANCH  16  17
ATOM     17  C   UNL     1      -2.663   7.564  41.727  1.00  0.00    -0.000 C 
BRANCH  17  18
ATOM     18  C   UNL     1      -2.145   6.162  42.087  1.00  0.00    -0.000 C 
BRANCH  18  19
ATOM     19  C   UNL     1      -2.507   5.110  41.026  1.00  0.00    -0.003 C 
ATOM     20  C   UNL     1      -1.431   4.039  40.860  1.00  0.00     0.004 C 
ENDBRANCH  18  19
ENDBRANCH  17  18
ENDBRANCH  16  17
ENDBRANCH  15  16
ENDBRANCH  14  15
ENDBRANCH  13  14
ENDBRANCH  12  13
ENDBRANCH   1  12
TORSDOF 16
ENDMDL
MODEL 8
REMARK VINA RESULT:    -3.500      2.632      5.086
REMARK INTER + INTRA:          -9.807
REMARK INTER:                  -6.548
REMARK INTRA:                  -3.259
REMARK UNBOUND:                -3.033
REMARK SMILES CCCCCCCCCCCCCCCCCC(=O)[O-]
REMARK SMILES IDX 10 1 11 2 12 3 13 4 14 5 15 6 16 7 17 8 18 9 19 10 20 11
REMARK SMILES IDX 9 12 8 13 7 14 6 15 5 16 4 17 3 18 2 19 1 20
REMARK H PARENT
REMARK Flexibility Score: inf
ROOT
ATOM      1  C   UNL     1      -1.600   6.638  38.712  1.00  0.00     0.000 C 
ENDROOT
BRANCH   1   2
ATOM      2  C   UNL     1      -2.565   7.802  38.993  1.00  0.00     0.000 C 
BRANCH   2   3
ATOM      3  C   UNL     1      -1.887   9.178  38.859  1.00  0.00     0.000 C 
BRANCH   3   4
ATOM      4  C   UNL     1      -0.684   9.339  39.809  1.00  0.00     0.000 C 
BRANCH   4   5
ATOM      5  C   UNL     1       0.501  10.119  39.212  1.00  0.00     0.000 C 
BRANCH   5   6
ATOM      6  C   UNL     1       1.599   9.195  38.656  1.00  0.00     0.000 C 
BRANCH   6   7
ATOM      7  C   UNL     1       1.744   9.300  37.129  1.00  0.00     0.006 C 
BRANCH   7   8
ATOM      8  C   UNL     1       1.136   8.100  36.391  1.00  0.00     0.053 C 
BRANCH   8   9
ATOM      9  C   UNL     1      -0.168   8.477  35.762  1.00  0.00     0.041 C 
ATOM     10  O   UNL     1      -0.975   7.583  35.393  1.00  0.00    -0.550 OA
ATOM     11  O   UNL     1      -0.510   9.815  35.618  1.00  0.00    -0.550 OA
ENDBRANCH   8   9
ENDBRANCH   7   8
ENDBRANCH   6   7
ENDBRANCH   5   6
ENDBRANCH   4   5
ENDBRANCH   3   4
ENDBRANCH   2   3
ENDBRANCH   1   2
BRANCH   1  12
ATOM     12  C   UNL     1      -2.169   5.280  39.158  1.00  0.00     0.000 C 
BRANCH  12  13
ATOM     13  C   UNL     1      -3.245   5.413  40.252  1.00  0.00    -0.000 C 
BRANCH  13  14
ATOM     14  C   UNL     1      -2.740   5.219  41.696  1.00  0.00    -0.000 C 
BRANCH  14  15
ATOM     15  C   UNL     1      -2.749   6.489  42.568  1.00  0.00    -0.000 C 
BRANCH  15  16
ATOM     16  C   UNL     1      -1.384   7.192  42.711  1.00  0.00    -0.000 C 
BRANCH  16  17
ATOM     17  C   UNL     1      -0.162   6.257  42.680  1.00  0.00    -0.000 C 
BRANCH  17  18
ATOM     18  C   UNL     1       0.793   6.563  41.515  1.00  0.00    -0.000 C 
BRANCH  18  19
ATOM     19  C   UNL     1       1.204   5.298  40.744  1.00  0.00    -0.003 C 
ATOM     20  C   UNL     1       1.872   5.609  39.405  1.00  0.00     0.004 C 
ENDBRANCH  18  19
ENDBRANCH  17  18
ENDBRANCH  16  17
ENDBRANCH  15  16
ENDBRANCH  14  15
ENDBRANCH  13  14
ENDBRANCH  12  13
ENDBRANCH   1  12
TORSDOF 16
ENDMDL
MODEL 9
REMARK VINA RESULT:    -3.449      2.620      4.688
REMARK INTER + INTRA:          -9.709
REMARK INTER:                  -6.649
REMARK INTRA:                  -3.060
REMARK UNBOUND:                -3.033
REMARK SMILES CCCCCCCCCCCCCCCCCC(=O)[O-]
REMARK SMILES IDX 10 1 11 2 12 3 13 4 14 5 15 6 16 7 17 8 18 9 19 10 20 11
REMARK SMILES IDX 9 12 8 13 7 14 6 15 5 16 4 17 3 18 2 19 1 20
REMARK H PARENT
REMARK Flexibility Score: inf
ROOT
ATOM      1  C   UNL     1       1.223   9.110  39.397  1.00  0.00     0.000 C 
ENDROOT
BRANCH   1   2
ATOM      2  C   UNL     1       0.315  10.000  38.531  1.00  0.00     0.000 C 
BRANCH   2   3
ATOM      3  C   UNL     1      -1.176   9.838  38.876  1.00  0.00     0.000 C 
BRANCH   3   4
ATOM      4  C   UNL     1      -2.012   9.356  37.674  1.00  0.00     0.000 C 
BRANCH   4   5
ATOM      5  C   UNL     1      -1.198   9.107  36.391  1.00  0.00     0.000 C 
BRANCH   5   6
ATOM      6  C   UNL     1      -1.484   7.729  35.767  1.00  0.00     0.000 C 
BRANCH   6   7
ATOM      7  C   UNL     1      -0.215   7.048  35.230  1.00  0.00     0.006 C 
BRANCH   7   8
ATOM      8  C   UNL     1       0.973   7.162  36.194  1.00  0.00     0.053 C 
BRANCH   8   9
ATOM      9  C   UNL     1       1.695   5.855  36.293  1.00  0.00     0.041 C 
ATOM     10  O   UNL     1       2.928   5.830  36.548  1.00  0.00    -0.550 OA
ATOM     11  O   UNL     1       0.999   4.662  36.141  1.00  0.00    -0.550 OA
ENDBRANCH   8   9
ENDBRANCH   7   8
ENDBRANCH   6   7
ENDBRANCH   5   6
ENDBRANCH   4   5
ENDBRANCH   3   4
ENDBRANCH   2   3
ENDBRANCH   1   2
BRANCH   1  12
ATOM     12  C   UNL     1       0.519   7.825  39.863  1.00  0.00     0.000 C 
BRANCH  12  13
ATOM     13  C   UNL     1       0.613   7.609  41.386  1.00  0.00    -0.000 C 
BRANCH  13  14
ATOM     14  C   UNL     1      -0.514   8.262  42.212  1.00  0.00    -0.000 C 
BRANCH  14  15
ATOM     15  C   UNL     1      -1.942   7.841  41.816  1.00  0.00    -0.000 C 
BRANCH  15  16
ATOM     16  C   UNL     1      -2.336   6.408  42.225  1.00  0.00    -0.000 C 
BRANCH  16  17
ATOM     17  C   UNL     1      -2.764   5.492  41.064  1.00  0.00    -0.000 C 
BRANCH  17  18
ATOM     18  C   UNL     1      -3.060   6.267  39.770  1.00  0.00    -0.000 C 
BRANCH  18  19
ATOM     19  C   UNL     1      -2.310   5.695  38.556  1.00  0.00    -0.003 C 
ATOM     20  C   UNL     1      -1.221   4.698  38.948  1.00  0.00     0.004 C 
ENDBRANCH  18  19
ENDBRANCH  17  18
ENDBRANCH  16  17
ENDBRANCH  15  16
ENDBRANCH  14  15
ENDBRANCH  13  14
ENDBRANCH  12  13
ENDBRANCH   1  12
TORSDOF 16
ENDMDL
