MODEL 1
REMARK VINA RESULT:    -4.789      0.000      0.000
REMARK INTER + INTRA:         -16.381
REMARK INTER:                 -12.628
REMARK INTRA:                  -3.753
REMARK UNBOUND:                -3.753
REMARK SMILES CCCCCCCCCCCCCCCCCCCCCCCCCCCCCC(=O)[O-]
REMARK SMILES IDX 16 1 17 2 18 3 19 4 20 5 21 6 22 7 23 8 24 9 25 10 26 11
REMARK SMILES IDX 27 12 28 13 29 14 30 15 31 16 32 17 15 18 14 19 13 20 12 21
REMARK SMILES IDX 11 22 10 23 9 24 8 25 7 26 6 27 5 28 4 29 3 30 2 31 1 32
REMARK H PARENT
REMARK Flexibility Score: inf
ROOT
ATOM      1  C   UNL     1     -46.046  27.285 -14.094  1.00  0.00     0.000 C 
ENDROOT
BRANCH   1   2
ATOM      2  C   UNL     1     -46.513  26.122 -13.199  1.00  0.00     0.000 C 
BRANCH   2   3
ATOM      3  C   UNL     1     -47.215  25.000 -13.985  1.00  0.00     0.000 C 
BRANCH   3   4
ATOM      4  C   UNL     1     -48.422  25.450 -14.833  1.00  0.00     0.000 C 
BRANCH   4   5
ATOM      5  C   UNL     1     -49.202  24.312 -15.517  1.00  0.00     0.000 C 
BRANCH   5   6
ATOM      6  C   UNL     1     -50.459  23.840 -14.761  1.00  0.00     0.000 C 
BRANCH   6   7
ATOM      7  C   UNL     1     -51.691  24.756 -14.904  1.00  0.00     0.000 C 
BRANCH   7   8
ATOM      8  C   UNL     1     -52.891  24.382 -14.016  1.00  0.00     0.000 C 
BRANCH   8   9
ATOM      9  C   UNL     1     -52.526  23.383 -12.900  1.00  0.00     0.000 C 
BRANCH   9  10
ATOM     10  C   UNL     1     -53.766  22.855 -12.161  1.00  0.00     0.000 C 
BRANCH  10  11
ATOM     11  C   UNL     1     -54.333  23.886 -11.168  1.00  0.00     0.000 C 
BRANCH  11  12
ATOM     12  C   UNL     1     -55.871  23.899 -11.131  1.00  0.00     0.000 C 
BRANCH  12  13
ATOM     13  C   UNL     1     -56.533  25.100 -11.838  1.00  0.00     0.006 C 
BRANCH  13  14
ATOM     14  C   UNL     1     -55.552  26.197 -12.280  1.00  0.00     0.053 C 
BRANCH  14  15
ATOM     15  C   UNL     1     -56.118  27.571 -12.083  1.00  0.00     0.041 C 
ATOM     16  O   UNL     1     -57.255  27.862 -12.543  1.00  0.00    -0.550 OA
ATOM     17  O   UNL     1     -55.402  28.522 -11.366  1.00  0.00    -0.550 OA
ENDBRANCH  14  15
ENDBRANCH  13  14
ENDBRANCH  12  13
ENDBRANCH  11  12
ENDBRANCH  10  11
ENDBRANCH   9  10
ENDBRANCH   8   9
ENDBRANCH   7   8
ENDBRANCH   6   7
ENDBRANCH   5   6
ENDBRANCH   4   5
ENDBRANCH   3   4
ENDBRANCH   2   3
ENDBRANCH   1   2
BRANCH   1  18
ATOM     18  C   UNL     1     -46.595  28.635 -13.603  1.00  0.00     0.000 C 
BRANCH  18  19
ATOM     19  C   UNL     1     -47.838  29.081 -14.395  1.00  0.00     0.000 C 
BRANCH  19  20
ATOM     20  C   UNL     1     -49.156  28.812 -13.644  1.00  0.00     0.000 C 
BRANCH  20  21
ATOM     21  C   UNL     1     -50.297  28.272 -14.534  1.00  0.00     0.000 C 
BRANCH  21  22
ATOM     22  C   UNL     1     -50.359  28.888 -15.948  1.00  0.00     0.000 C 
BRANCH  22  23
ATOM     23  C   UNL     1     -50.195  27.866 -17.088  1.00  0.00     0.000 C 
BRANCH  23  24
ATOM     24  C   UNL     1     -48.804  27.934 -17.742  1.00  0.00    -0.000 C 
BRANCH  24  25
ATOM     25  C   UNL     1     -48.239  26.544 -18.083  1.00  0.00    -0.000 C 
BRANCH  25  26
ATOM     26  C   UNL     1     -46.699  26.516 -18.181  1.00  0.00    -0.000 C 
BRANCH  26  27
ATOM     27  C   UNL     1     -46.044  27.704 -17.451  1.00  0.00    -0.000 C 
BRANCH  27  28
ATOM     28  C   UNL     1     -44.551  27.478 -17.170  1.00  0.00    -0.000 C 
BRANCH  28  29
ATOM     29  C   UNL     1     -43.664  28.595 -17.738  1.00  0.00    -0.000 C 
BRANCH  29  30
ATOM     30  C   UNL     1     -42.738  28.054 -18.837  1.00  0.00    -0.000 C 
BRANCH  30  31
ATOM     31  C   UNL     1     -43.244  28.382 -20.250  1.00  0.00    -0.003 C 
ATOM     32  C   UNL     1     -43.513  27.132 -21.090  1.00  0.00     0.004 C 
ENDBRANCH  30  31
ENDBRANCH  29  30
ENDBRANCH  28  29
ENDBRANCH  27  28
ENDBRANCH  26  27
ENDBRANCH  25  26
ENDBRANCH  24  25
ENDBRANCH  23  24
ENDBRANCH  22  23
ENDBRANCH  21  22
ENDBRANCH  20  21
ENDBRANCH  19  20
ENDBRANCH  18  19
ENDBRANCH   1  18
TORSDOF 28
ENDMDL
MODEL 2
REMARK VINA RESULT:    -4.752      1.256      2.302
REMARK INTER + INTRA:         -16.283
REMARK INTER:                 -12.164
REMARK INTRA:                  -4.119
REMARK UNBOUND:                -3.753
REMARK SMILES CCCCCCCCCCCCCCCCCCCCCCCCCCCCCC(=O)[O-]
REMARK SMILES IDX 16 1 17 2 18 3 19 4 20 5 21 6 22 7 23 8 24 9 25 10 26 11
REMARK SMILES IDX 27 12 28 13 29 14 30 15 31 16 32 17 15 18 14 19 13 20 12 21
REMARK SMILES IDX 11 22 10 23 9 24 8 25 7 26 6 27 5 28 4 29 3 30 2 31 1 32
REMARK H PARENT
REMARK Flexibility Score: inf
ROOT
ATOM      1  C   UNL     1     -46.050  26.178 -14.093  1.00  0.00     0.000 C 
ENDROOT
BRANCH   1   2
ATOM      2  C   UNL     1     -47.127  25.180 -13.630  1.00  0.00     0.000 C 
BRANCH   2   3
ATOM      3  C   UNL     1     -47.993  24.648 -14.785  1.00  0.00     0.000 C 
BRANCH   3   4
ATOM      4  C   UNL     1     -49.489  25.013 -14.705  1.00  0.00     0.000 C 
BRANCH   4   5
ATOM      5  C   UNL     1     -50.461  23.881 -15.086  1.00  0.00     0.000 C 
BRANCH   5   6
ATOM      6  C   UNL     1     -51.943  24.164 -14.777  1.00  0.00     0.000 C 
BRANCH   6   7
ATOM      7  C   UNL     1     -52.461  23.574 -13.451  1.00  0.00     0.000 C 
BRANCH   7   8
ATOM      8  C   UNL     1     -53.903  23.963 -13.080  1.00  0.00     0.000 C 
BRANCH   8   9
ATOM      9  C   UNL     1     -54.185  23.859 -11.568  1.00  0.00     0.000 C 
BRANCH   9  10
ATOM     10  C   UNL     1     -55.590  23.311 -11.273  1.00  0.00     0.000 C 
BRANCH  10  11
ATOM     11  C   UNL     1     -56.506  24.373 -10.639  1.00  0.00     0.000 C 
BRANCH  11  12
ATOM     12  C   UNL     1     -57.460  25.026 -11.654  1.00  0.00     0.000 C 
BRANCH  12  13
ATOM     13  C   UNL     1     -57.426  26.568 -11.687  1.00  0.00     0.006 C 
BRANCH  13  14
ATOM     14  C   UNL     1     -56.016  27.172 -11.776  1.00  0.00     0.053 C 
BRANCH  14  15
ATOM     15  C   UNL     1     -55.922  28.233 -12.830  1.00  0.00     0.041 C 
ATOM     16  O   UNL     1     -56.970  28.719 -13.336  1.00  0.00    -0.550 OA
ATOM     17  O   UNL     1     -54.680  28.705 -13.235  1.00  0.00    -0.550 OA
ENDBRANCH  14  15
ENDBRANCH  13  14
ENDBRANCH  12  13
ENDBRANCH  11  12
ENDBRANCH  10  11
ENDBRANCH   9  10
ENDBRANCH   8   9
ENDBRANCH   7   8
ENDBRANCH   6   7
ENDBRANCH   5   6
ENDBRANCH   4   5
ENDBRANCH   3   4
ENDBRANCH   2   3
ENDBRANCH   1   2
BRANCH   1  18
ATOM     18  C   UNL     1     -46.058  27.458 -13.241  1.00  0.00     0.000 C 
BRANCH  18  19
ATOM     19  C   UNL     1     -46.586  28.675 -14.022  1.00  0.00     0.000 C 
BRANCH  19  20
ATOM     20  C   UNL     1     -48.008  29.089 -13.597  1.00  0.00     0.000 C 
BRANCH  20  21
ATOM     21  C   UNL     1     -49.137  28.323 -14.321  1.00  0.00     0.000 C 
BRANCH  21  22
ATOM     22  C   UNL     1     -50.564  28.699 -13.870  1.00  0.00     0.000 C 
BRANCH  22  23
ATOM     23  C   UNL     1     -51.681  27.965 -14.635  1.00  0.00     0.000 C 
BRANCH  23  24
ATOM     24  C   UNL     1     -51.747  28.377 -16.116  1.00  0.00    -0.000 C 
BRANCH  24  25
ATOM     25  C   UNL     1     -51.312  27.248 -17.067  1.00  0.00    -0.000 C 
BRANCH  25  26
ATOM     26  C   UNL     1     -50.067  27.601 -17.907  1.00  0.00    -0.000 C 
BRANCH  26  27
ATOM     27  C   UNL     1     -48.909  26.609 -17.683  1.00  0.00    -0.000 C 
BRANCH  27  28
ATOM     28  C   UNL     1     -47.584  27.310 -17.348  1.00  0.00    -0.000 C 
BRANCH  28  29
ATOM     29  C   UNL     1     -46.455  26.942 -18.320  1.00  0.00    -0.000 C 
BRANCH  29  30
ATOM     30  C   UNL     1     -45.106  26.864 -17.588  1.00  0.00    -0.000 C 
BRANCH  30  31
ATOM     31  C   UNL     1     -44.267  28.140 -17.759  1.00  0.00    -0.003 C 
ATOM     32  C   UNL     1     -43.938  28.818 -16.428  1.00  0.00     0.004 C 
ENDBRANCH  30  31
ENDBRANCH  29  30
ENDBRANCH  28  29
ENDBRANCH  27  28
ENDBRANCH  26  27
ENDBRANCH  25  26
ENDBRANCH  24  25
ENDBRANCH  23  24
ENDBRANCH  22  23
ENDBRANCH  21  22
ENDBRANCH  20  21
ENDBRANCH  19  20
ENDBRANCH  18  19
ENDBRANCH   1  18
TORSDOF 28
ENDMDL
MODEL 3
REMARK VINA RESULT:    -4.139     15.164     18.327
REMARK INTER + INTRA:         -14.668
REMARK INTER:                 -10.156
REMARK INTRA:                  -4.512
REMARK UNBOUND:                -3.753
REMARK SMILES CCCCCCCCCCCCCCCCCCCCCCCCCCCCCC(=O)[O-]
REMARK SMILES IDX 16 1 17 2 18 3 19 4 20 5 21 6 22 7 23 8 24 9 25 10 26 11
REMARK SMILES IDX 27 12 28 13 29 14 30 15 31 16 32 17 15 18 14 19 13 20 12 21
REMARK SMILES IDX 11 22 10 23 9 24 8 25 7 26 6 27 5 28 4 29 3 30 2 31 1 32
REMARK H PARENT
REMARK Flexibility Score: inf
ROOT
ATOM      1  C   UNL     1     -51.578  11.953 -24.029  1.00  0.00     0.000 C 
ENDROOT
BRANCH   1   2
ATOM      2  C   UNL     1     -50.649  10.748 -23.797  1.00  0.00     0.000 C 
BRANCH   2   3
ATOM      3  C   UNL     1     -49.535  10.632 -24.852  1.00  0.00     0.000 C 
BRANCH   3   4
ATOM      4  C   UNL     1     -48.805   9.274 -24.889  1.00  0.00     0.000 C 
BRANCH   4   5
ATOM      5  C   UNL     1     -47.290   9.353 -25.150  1.00  0.00     0.000 C 
BRANCH   5   6
ATOM      6  C   UNL     1     -46.881   9.284 -26.634  1.00  0.00     0.000 C 
BRANCH   6   7
ATOM      7  C   UNL     1     -46.612  10.646 -27.304  1.00  0.00     0.000 C 
BRANCH   7   8
ATOM      8  C   UNL     1     -45.598  11.544 -26.575  1.00  0.00     0.000 C 
BRANCH   8   9
ATOM      9  C   UNL     1     -46.166  12.934 -26.225  1.00  0.00     0.000 C 
BRANCH   9  10
ATOM     10  C   UNL     1     -46.725  12.993 -24.794  1.00  0.00     0.000 C 
BRANCH  10  11
ATOM     11  C   UNL     1     -47.450  14.320 -24.508  1.00  0.00     0.000 C 
BRANCH  11  12
ATOM     12  C   UNL     1     -47.511  15.246 -25.735  1.00  0.00     0.000 C 
BRANCH  12  13
ATOM     13  C   UNL     1     -48.928  15.707 -26.138  1.00  0.00     0.006 C 
BRANCH  13  14
ATOM     14  C   UNL     1     -49.073  17.224 -26.325  1.00  0.00     0.053 C 
BRANCH  14  15
ATOM     15  C   UNL     1     -48.794  17.647 -27.736  1.00  0.00     0.041 C 
ATOM     16  O   UNL     1     -49.712  18.142 -28.444  1.00  0.00    -0.550 OA
ATOM     17  O   UNL     1     -47.513  17.522 -28.260  1.00  0.00    -0.550 OA
ENDBRANCH  14  15
ENDBRANCH  13  14
ENDBRANCH  12  13
ENDBRANCH  11  12
ENDBRANCH  10  11
ENDBRANCH   9  10
ENDBRANCH   8   9
ENDBRANCH   7   8
ENDBRANCH   6   7
ENDBRANCH   5   6
ENDBRANCH   4   5
ENDBRANCH   3   4
ENDBRANCH   2   3
ENDBRANCH   1   2
BRANCH   1  18
ATOM     18  C   UNL     1     -52.113  12.521 -22.703  1.00  0.00     0.000 C 
BRANCH  18  19
ATOM     19  C   UNL     1     -51.326  12.002 -21.487  1.00  0.00     0.000 C 
BRANCH  19  20
ATOM     20  C   UNL     1     -51.117  13.078 -20.404  1.00  0.00     0.000 C 
BRANCH  20  21
ATOM     21  C   UNL     1     -49.640  13.320 -20.023  1.00  0.00     0.000 C 
BRANCH  21  22
ATOM     22  C   UNL     1     -48.638  13.143 -21.183  1.00  0.00     0.000 C 
BRANCH  22  23
ATOM     23  C   UNL     1     -47.479  12.177 -20.873  1.00  0.00     0.000 C 
BRANCH  23  24
ATOM     24  C   UNL     1     -47.442  10.976 -21.833  1.00  0.00    -0.000 C 
BRANCH  24  25
ATOM     25  C   UNL     1     -47.657   9.633 -21.113  1.00  0.00    -0.000 C 
BRANCH  25  26
ATOM     26  C   UNL     1     -49.085   9.460 -20.555  1.00  0.00    -0.000 C 
BRANCH  26  27
ATOM     27  C   UNL     1     -49.088   9.015 -19.080  1.00  0.00    -0.000 C 
BRANCH  27  28
ATOM     28  C   UNL     1     -48.809  10.174 -18.110  1.00  0.00    -0.000 C 
BRANCH  28  29
ATOM     29  C   UNL     1     -47.423  10.081 -17.457  1.00  0.00    -0.000 C 
BRANCH  29  30
ATOM     30  C   UNL     1     -47.394  10.845 -16.124  1.00  0.00    -0.000 C 
BRANCH  30  31
ATOM     31  C   UNL     1     -46.110  11.669 -15.944  1.00  0.00    -0.003 C 
ATOM     32  C   UNL     1     -46.366  13.034 -15.303  1.00  0.00     0.004 C 
ENDBRANCH  30  31
ENDBRANCH  29  30
ENDBRANCH  28  29
ENDBRANCH  27  28
ENDBRANCH  26  27
ENDBRANCH  25  26
ENDBRANCH  24  25
ENDBRANCH  23  24
ENDBRANCH  22  23
ENDBRANCH  21  22
ENDBRANCH  20  21
ENDBRANCH  19  20
ENDBRANCH  18  19
ENDBRANCH   1  18
TORSDOF 28
ENDMDL
MODEL 4
REMARK VINA RESULT:    -4.127      1.428      7.225
REMARK INTER + INTRA:         -14.635
REMARK INTER:                 -11.708
REMARK INTRA:                  -2.926
REMARK UNBOUND:                -3.753
REMARK SMILES CCCCCCCCCCCCCCCCCCCCCCCCCCCCCC(=O)[O-]
REMARK SMILES IDX 16 1 17 2 18 3 19 4 20 5 21 6 22 7 23 8 24 9 25 10 26 11
REMARK SMILES IDX 27 12 28 13 29 14 30 15 31 16 32 17 15 18 14 19 13 20 12 21
REMARK SMILES IDX 11 22 10 23 9 24 8 25 7 26 6 27 5 28 4 29 3 30 2 31 1 32
REMARK H PARENT
REMARK Flexibility Score: inf
ROOT
ATOM      1  C   UNL     1     -43.763  27.982 -17.102  1.00  0.00     0.000 C 
ENDROOT
BRANCH   1   2
ATOM      2  C   UNL     1     -43.256  28.368 -18.503  1.00  0.00     0.000 C 
BRANCH   2   3
ATOM      3  C   UNL     1     -44.247  28.006 -19.624  1.00  0.00     0.000 C 
BRANCH   3   4
ATOM      4  C   UNL     1     -44.519  26.498 -19.798  1.00  0.00     0.000 C 
BRANCH   4   5
ATOM      5  C   UNL     1     -45.066  25.783 -18.549  1.00  0.00     0.000 C 
BRANCH   5   6
ATOM      6  C   UNL     1     -46.589  25.907 -18.344  1.00  0.00     0.000 C 
BRANCH   6   7
ATOM      7  C   UNL     1     -47.098  27.335 -18.064  1.00  0.00     0.000 C 
BRANCH   7   8
ATOM      8  C   UNL     1     -48.559  27.427 -17.591  1.00  0.00     0.000 C 
BRANCH   8   9
ATOM      9  C   UNL     1     -49.003  28.871 -17.284  1.00  0.00     0.000 C 
BRANCH   9  10
ATOM     10  C   UNL     1     -50.511  28.972 -17.009  1.00  0.00     0.000 C 
BRANCH  10  11
ATOM     11  C   UNL     1     -50.895  28.370 -15.645  1.00  0.00     0.000 C 
BRANCH  11  12
ATOM     12  C   UNL     1     -52.351  27.875 -15.597  1.00  0.00     0.000 C 
BRANCH  12  13
ATOM     13  C   UNL     1     -53.017  27.933 -14.206  1.00  0.00     0.006 C 
BRANCH  13  14
ATOM     14  C   UNL     1     -54.195  28.912 -14.105  1.00  0.00     0.053 C 
BRANCH  14  15
ATOM     15  C   UNL     1     -55.334  28.345 -13.311  1.00  0.00     0.041 C 
ATOM     16  O   UNL     1     -55.176  27.289 -12.642  1.00  0.00    -0.550 OA
ATOM     17  O   UNL     1     -56.560  28.998 -13.288  1.00  0.00    -0.550 OA
ENDBRANCH  14  15
ENDBRANCH  13  14
ENDBRANCH  12  13
ENDBRANCH  11  12
ENDBRANCH  10  11
ENDBRANCH   9  10
ENDBRANCH   8   9
ENDBRANCH   7   8
ENDBRANCH   6   7
ENDBRANCH   5   6
ENDBRANCH   4   5
ENDBRANCH   3   4
ENDBRANCH   2   3
ENDBRANCH   1   2
BRANCH   1  18
ATOM     18  C   UNL     1     -43.566  29.125 -16.092  1.00  0.00     0.000 C 
BRANCH  18  19
ATOM     19  C   UNL     1     -44.286  28.855 -14.758  1.00  0.00     0.000 C 
BRANCH  19  20
ATOM     20  C   UNL     1     -45.682  28.232 -14.946  1.00  0.00     0.000 C 
BRANCH  20  21
ATOM     21  C   UNL     1     -46.051  27.166 -13.891  1.00  0.00     0.000 C 
BRANCH  21  22
ATOM     22  C   UNL     1     -47.539  26.756 -13.882  1.00  0.00     0.000 C 
BRANCH  22  23
ATOM     23  C   UNL     1     -47.773  25.234 -13.939  1.00  0.00     0.000 C 
BRANCH  23  24
ATOM     24  C   UNL     1     -48.057  24.737 -15.367  1.00  0.00    -0.000 C 
BRANCH  24  25
ATOM     25  C   UNL     1     -49.541  24.405 -15.596  1.00  0.00    -0.000 C 
BRANCH  25  26
ATOM     26  C   UNL     1     -50.388  24.463 -14.307  1.00  0.00    -0.000 C 
BRANCH  26  27
ATOM     27  C   UNL     1     -51.635  23.560 -14.384  1.00  0.00    -0.000 C 
BRANCH  27  28
ATOM     28  C   UNL     1     -52.947  24.359 -14.366  1.00  0.00    -0.000 C 
BRANCH  28  29
ATOM     29  C   UNL     1     -53.909  23.895 -13.263  1.00  0.00    -0.000 C 
BRANCH  29  30
ATOM     30  C   UNL     1     -53.193  22.972 -12.265  1.00  0.00    -0.000 C 
BRANCH  30  31
ATOM     31  C   UNL     1     -53.236  23.511 -10.827  1.00  0.00    -0.003 C 
ATOM     32  C   UNL     1     -54.656  23.824 -10.352  1.00  0.00     0.004 C 
ENDBRANCH  30  31
ENDBRANCH  29  30
ENDBRANCH  28  29
ENDBRANCH  27  28
ENDBRANCH  26  27
ENDBRANCH  25  26
ENDBRANCH  24  25
ENDBRANCH  23  24
ENDBRANCH  22  23
ENDBRANCH  21  22
ENDBRANCH  20  21
ENDBRANCH  19  20
ENDBRANCH  18  19
ENDBRANCH   1  18
TORSDOF 28
ENDMDL
MODEL 5
REMARK VINA RESULT:    -4.122     16.310     19.684
REMARK INTER + INTRA:         -14.621
REMARK INTER:                  -9.007
REMARK INTRA:                  -5.614
REMARK UNBOUND:                -3.753
REMARK SMILES CCCCCCCCCCCCCCCCCCCCCCCCCCCCCC(=O)[O-]
REMARK SMILES IDX 16 1 17 2 18 3 19 4 20 5 21 6 22 7 23 8 24 9 25 10 26 11
REMARK SMILES IDX 27 12 28 13 29 14 30 15 31 16 32 17 15 18 14 19 13 20 12 21
REMARK SMILES IDX 11 22 10 23 9 24 8 25 7 26 6 27 5 28 4 29 3 30 2 31 1 32
REMARK H PARENT
REMARK Flexibility Score: inf
ROOT
ATOM      1  C   UNL     1     -48.907  17.795 -26.882  1.00  0.00     0.000 C 
ENDROOT
BRANCH   1   2
ATOM      2  C   UNL     1     -49.491  18.091 -28.275  1.00  0.00     0.000 C 
BRANCH   2   3
ATOM      3  C   UNL     1     -48.654  17.492 -29.420  1.00  0.00     0.000 C 
BRANCH   3   4
ATOM      4  C   UNL     1     -47.132  17.456 -29.170  1.00  0.00     0.000 C 
BRANCH   4   5
ATOM      5  C   UNL     1     -46.457  16.098 -29.439  1.00  0.00     0.000 C 
BRANCH   5   6
ATOM      6  C   UNL     1     -45.693  15.503 -28.240  1.00  0.00     0.000 C 
BRANCH   6   7
ATOM      7  C   UNL     1     -45.732  13.966 -28.136  1.00  0.00     0.000 C 
BRANCH   7   8
ATOM      8  C   UNL     1     -46.933  13.294 -28.823  1.00  0.00     0.000 C 
BRANCH   8   9
ATOM      9  C   UNL     1     -46.855  11.755 -28.803  1.00  0.00     0.000 C 
BRANCH   9  10
ATOM     10  C   UNL     1     -47.877  11.131 -27.839  1.00  0.00     0.000 C 
BRANCH  10  11
ATOM     11  C   UNL     1     -47.354   9.834 -27.197  1.00  0.00     0.000 C 
BRANCH  11  12
ATOM     12  C   UNL     1     -45.943   9.453 -27.680  1.00  0.00     0.000 C 
BRANCH  12  13
ATOM     13  C   UNL     1     -44.855   9.446 -26.585  1.00  0.00     0.006 C 
BRANCH  13  14
ATOM     14  C   UNL     1     -43.992  10.716 -26.540  1.00  0.00     0.053 C 
BRANCH  14  15
ATOM     15  C   UNL     1     -42.871  10.600 -25.551  1.00  0.00     0.041 C 
ATOM     16  O   UNL     1     -41.683  10.816 -25.910  1.00  0.00    -0.550 OA
ATOM     17  O   UNL     1     -43.142  10.281 -24.226  1.00  0.00    -0.550 OA
ENDBRANCH  14  15
ENDBRANCH  13  14
ENDBRANCH  12  13
ENDBRANCH  11  12
ENDBRANCH  10  11
ENDBRANCH   9  10
ENDBRANCH   8   9
ENDBRANCH   7   8
ENDBRANCH   6   7
ENDBRANCH   5   6
ENDBRANCH   4   5
ENDBRANCH   3   4
ENDBRANCH   2   3
ENDBRANCH   1   2
BRANCH   1  18
ATOM     18  C   UNL     1     -49.318  16.402 -26.377  1.00  0.00     0.000 C 
BRANCH  18  19
ATOM     19  C   UNL     1     -48.137  15.634 -25.759  1.00  0.00     0.000 C 
BRANCH  19  20
ATOM     20  C   UNL     1     -48.441  14.139 -25.543  1.00  0.00     0.000 C 
BRANCH  20  21
ATOM     21  C   UNL     1     -47.707  13.507 -24.340  1.00  0.00     0.000 C 
BRANCH  21  22
ATOM     22  C   UNL     1     -46.633  12.464 -24.714  1.00  0.00     0.000 C 
BRANCH  22  23
ATOM     23  C   UNL     1     -46.279  11.488 -23.576  1.00  0.00     0.000 C 
BRANCH  23  24
ATOM     24  C   UNL     1     -47.266  10.312 -23.482  1.00  0.00    -0.000 C 
BRANCH  24  25
ATOM     25  C   UNL     1     -47.635   9.961 -22.030  1.00  0.00    -0.000 C 
BRANCH  25  26
ATOM     26  C   UNL     1     -47.711  11.193 -21.103  1.00  0.00    -0.000 C 
BRANCH  26  27
ATOM     27  C   UNL     1     -49.135  11.436 -20.567  1.00  0.00    -0.000 C 
BRANCH  27  28
ATOM     28  C   UNL     1     -50.025  12.189 -21.567  1.00  0.00    -0.000 C 
BRANCH  28  29
ATOM     29  C   UNL     1     -50.927  11.252 -22.382  1.00  0.00    -0.000 C 
BRANCH  29  30
ATOM     30  C   UNL     1     -51.294  11.884 -23.733  1.00  0.00    -0.000 C 
BRANCH  30  31
ATOM     31  C   UNL     1     -50.555  11.229 -24.911  1.00  0.00    -0.003 C 
ATOM     32  C   UNL     1     -50.875   9.741 -25.060  1.00  0.00     0.004 C 
ENDBRANCH  30  31
ENDBRANCH  29  30
ENDBRANCH  28  29
ENDBRANCH  27  28
ENDBRANCH  26  27
ENDBRANCH  25  26
ENDBRANCH  24  25
ENDBRANCH  23  24
ENDBRANCH  22  23
ENDBRANCH  21  22
ENDBRANCH  20  21
ENDBRANCH  19  20
ENDBRANCH  18  19
ENDBRANCH   1  18
TORSDOF 28
ENDMDL
MODEL 6
REMARK VINA RESULT:    -4.059     16.067     19.653
REMARK INTER + INTRA:         -14.455
REMARK INTER:                  -9.213
REMARK INTRA:                  -5.242
REMARK UNBOUND:                -3.753
REMARK SMILES CCCCCCCCCCCCCCCCCCCCCCCCCCCCCC(=O)[O-]
REMARK SMILES IDX 16 1 17 2 18 3 19 4 20 5 21 6 22 7 23 8 24 9 25 10 26 11
REMARK SMILES IDX 27 12 28 13 29 14 30 15 31 16 32 17 15 18 14 19 13 20 12 21
REMARK SMILES IDX 11 22 10 23 9 24 8 25 7 26 6 27 5 28 4 29 3 30 2 31 1 32
REMARK H PARENT
REMARK Flexibility Score: inf
ROOT
ATOM      1  C   UNL     1     -48.986  17.756 -26.122  1.00  0.00     0.000 C 
ENDROOT
BRANCH   1   2
ATOM      2  C   UNL     1     -49.461  18.631 -27.296  1.00  0.00     0.000 C 
BRANCH   2   3
ATOM      3  C   UNL     1     -49.931  17.810 -28.510  1.00  0.00     0.000 C 
BRANCH   3   4
ATOM      4  C   UNL     1     -49.061  17.953 -29.775  1.00  0.00     0.000 C 
BRANCH   4   5
ATOM      5  C   UNL     1     -47.869  16.982 -29.864  1.00  0.00     0.000 C 
BRANCH   5   6
ATOM      6  C   UNL     1     -46.597  17.445 -29.127  1.00  0.00     0.000 C 
BRANCH   6   7
ATOM      7  C   UNL     1     -45.745  16.315 -28.518  1.00  0.00     0.000 C 
BRANCH   7   8
ATOM      8  C   UNL     1     -45.930  14.932 -29.168  1.00  0.00     0.000 C 
BRANCH   8   9
ATOM      9  C   UNL     1     -45.670  13.768 -28.192  1.00  0.00     0.000 C 
BRANCH   9  10
ATOM     10  C   UNL     1     -46.512  12.527 -28.527  1.00  0.00     0.000 C 
BRANCH  10  11
ATOM     11  C   UNL     1     -45.641  11.331 -28.953  1.00  0.00     0.000 C 
BRANCH  11  12
ATOM     12  C   UNL     1     -45.756  10.135 -27.993  1.00  0.00     0.000 C 
BRANCH  12  13
ATOM     13  C   UNL     1     -44.465   9.789 -27.220  1.00  0.00     0.006 C 
BRANCH  13  14
ATOM     14  C   UNL     1     -43.716  11.007 -26.657  1.00  0.00     0.053 C 
BRANCH  14  15
ATOM     15  C   UNL     1     -42.737  10.622 -25.589  1.00  0.00     0.041 C 
ATOM     16  O   UNL     1     -41.501  10.608 -25.836  1.00  0.00    -0.550 OA
ATOM     17  O   UNL     1     -43.187  10.305 -24.313  1.00  0.00    -0.550 OA
ENDBRANCH  14  15
ENDBRANCH  13  14
ENDBRANCH  12  13
ENDBRANCH  11  12
ENDBRANCH  10  11
ENDBRANCH   9  10
ENDBRANCH   8   9
ENDBRANCH   7   8
ENDBRANCH   6   7
ENDBRANCH   5   6
ENDBRANCH   4   5
ENDBRANCH   3   4
ENDBRANCH   2   3
ENDBRANCH   1   2
BRANCH   1  18
ATOM     18  C   UNL     1     -49.237  16.263 -26.389  1.00  0.00     0.000 C 
BRANCH  18  19
ATOM     19  C   UNL     1     -48.021  15.393 -26.024  1.00  0.00     0.000 C 
BRANCH  19  20
ATOM     20  C   UNL     1     -48.412  14.082 -25.315  1.00  0.00     0.000 C 
BRANCH  20  21
ATOM     21  C   UNL     1     -47.350  13.552 -24.327  1.00  0.00     0.000 C 
BRANCH  21  22
ATOM     22  C   UNL     1     -46.558  12.326 -24.828  1.00  0.00     0.000 C 
BRANCH  22  23
ATOM     23  C   UNL     1     -46.626  11.106 -23.890  1.00  0.00     0.000 C 
BRANCH  23  24
ATOM     24  C   UNL     1     -47.360   9.914 -24.530  1.00  0.00    -0.000 C 
BRANCH  24  25
ATOM     25  C   UNL     1     -48.402  10.350 -25.574  1.00  0.00    -0.000 C 
BRANCH  25  26
ATOM     26  C   UNL     1     -49.846   9.954 -25.200  1.00  0.00    -0.000 C 
BRANCH  26  27
ATOM     27  C   UNL     1     -50.757  11.182 -25.003  1.00  0.00    -0.000 C 
BRANCH  27  28
ATOM     28  C   UNL     1     -50.751  11.698 -23.556  1.00  0.00    -0.000 C 
BRANCH  28  29
ATOM     29  C   UNL     1     -50.462  10.592 -22.532  1.00  0.00    -0.000 C 
BRANCH  29  30
ATOM     30  C   UNL     1     -49.920  11.186 -21.223  1.00  0.00    -0.000 C 
BRANCH  30  31
ATOM     31  C   UNL     1     -49.241  12.549 -21.429  1.00  0.00    -0.003 C 
ATOM     32  C   UNL     1     -49.235  13.407 -20.164  1.00  0.00     0.004 C 
ENDBRANCH  30  31
ENDBRANCH  29  30
ENDBRANCH  28  29
ENDBRANCH  27  28
ENDBRANCH  26  27
ENDBRANCH  25  26
ENDBRANCH  24  25
ENDBRANCH  23  24
ENDBRANCH  22  23
ENDBRANCH  21  22
ENDBRANCH  20  21
ENDBRANCH  19  20
ENDBRANCH  18  19
ENDBRANCH   1  18
TORSDOF 28
ENDMDL
MODEL 7
REMARK VINA RESULT:    -4.019     15.286     18.763
REMARK INTER + INTRA:         -14.350
REMARK INTER:                 -10.149
REMARK INTRA:                  -4.201
REMARK UNBOUND:                -3.753
REMARK SMILES CCCCCCCCCCCCCCCCCCCCCCCCCCCCCC(=O)[O-]
REMARK SMILES IDX 16 1 17 2 18 3 19 4 20 5 21 6 22 7 23 8 24 9 25 10 26 11
REMARK SMILES IDX 27 12 28 13 29 14 30 15 31 16 32 17 15 18 14 19 13 20 12 21
REMARK SMILES IDX 11 22 10 23 9 24 8 25 7 26 6 27 5 28 4 29 3 30 2 31 1 32
REMARK H PARENT
REMARK Flexibility Score: inf
ROOT
ATOM      1  C   UNL     1     -51.558  11.897 -23.320  1.00  0.00     0.000 C 
ENDROOT
BRANCH   1   2
ATOM      2  C   UNL     1     -50.503  10.856 -23.735  1.00  0.00     0.000 C 
BRANCH   2   3
ATOM      3  C   UNL     1     -49.429  11.428 -24.678  1.00  0.00     0.000 C 
BRANCH   3   4
ATOM      4  C   UNL     1     -48.128  10.605 -24.765  1.00  0.00     0.000 C 
BRANCH   4   5
ATOM      5  C   UNL     1     -47.964   9.522 -23.683  1.00  0.00     0.000 C 
BRANCH   5   6
ATOM      6  C   UNL     1     -46.534   9.365 -23.131  1.00  0.00     0.000 C 
BRANCH   6   7
ATOM      7  C   UNL     1     -45.542  10.463 -23.560  1.00  0.00     0.000 C 
BRANCH   7   8
ATOM      8  C   UNL     1     -44.116   9.973 -23.868  1.00  0.00     0.000 C 
BRANCH   8   9
ATOM      9  C   UNL     1     -43.605  10.433 -25.247  1.00  0.00     0.000 C 
BRANCH   9  10
ATOM     10  C   UNL     1     -44.717  10.446 -26.307  1.00  0.00     0.000 C 
BRANCH  10  11
ATOM     11  C   UNL     1     -44.903  11.838 -26.937  1.00  0.00     0.000 C 
BRANCH  11  12
ATOM     12  C   UNL     1     -46.205  11.959 -27.749  1.00  0.00     0.000 C 
BRANCH  12  13
ATOM     13  C   UNL     1     -47.192  13.035 -27.249  1.00  0.00     0.006 C 
BRANCH  13  14
ATOM     14  C   UNL     1     -46.537  14.181 -26.463  1.00  0.00     0.053 C 
BRANCH  14  15
ATOM     15  C   UNL     1     -47.429  14.699 -25.374  1.00  0.00     0.041 C 
ATOM     16  O   UNL     1     -48.329  15.540 -25.638  1.00  0.00    -0.550 OA
ATOM     17  O   UNL     1     -47.284  14.230 -24.074  1.00  0.00    -0.550 OA
ENDBRANCH  14  15
ENDBRANCH  13  14
ENDBRANCH  12  13
ENDBRANCH  11  12
ENDBRANCH  10  11
ENDBRANCH   9  10
ENDBRANCH   8   9
ENDBRANCH   7   8
ENDBRANCH   6   7
ENDBRANCH   5   6
ENDBRANCH   4   5
ENDBRANCH   3   4
ENDBRANCH   2   3
ENDBRANCH   1   2
BRANCH   1  18
ATOM     18  C   UNL     1     -51.497  12.198 -21.813  1.00  0.00     0.000 C 
BRANCH  18  19
ATOM     19  C   UNL     1     -50.199  11.680 -21.167  1.00  0.00     0.000 C 
BRANCH  19  20
ATOM     20  C   UNL     1     -49.161  12.795 -20.930  1.00  0.00     0.000 C 
BRANCH  20  21
ATOM     21  C   UNL     1     -47.693  12.319 -20.983  1.00  0.00     0.000 C 
BRANCH  21  22
ATOM     22  C   UNL     1     -47.364  11.135 -20.050  1.00  0.00     0.000 C 
BRANCH  22  23
ATOM     23  C   UNL     1     -47.765  11.363 -18.580  1.00  0.00     0.000 C 
BRANCH  23  24
ATOM     24  C   UNL     1     -46.892  12.426 -17.891  1.00  0.00    -0.000 C 
BRANCH  24  25
ATOM     25  C   UNL     1     -46.223  11.904 -16.608  1.00  0.00    -0.000 C 
BRANCH  25  26
ATOM     26  C   UNL     1     -46.166  12.953 -15.477  1.00  0.00    -0.000 C 
BRANCH  26  27
ATOM     27  C   UNL     1     -45.943  12.312 -14.094  1.00  0.00    -0.000 C 
BRANCH  27  28
ATOM     28  C   UNL     1     -45.327  10.907 -14.184  1.00  0.00    -0.000 C 
BRANCH  28  29
ATOM     29  C   UNL     1     -46.132   9.856 -13.407  1.00  0.00    -0.000 C 
BRANCH  29  30
ATOM     30  C   UNL     1     -47.639  10.028 -13.654  1.00  0.00    -0.000 C 
BRANCH  30  31
ATOM     31  C   UNL     1     -48.126   9.263 -14.894  1.00  0.00    -0.003 C 
ATOM     32  C   UNL     1     -49.354   9.903 -15.543  1.00  0.00     0.004 C 
ENDBRANCH  30  31
ENDBRANCH  29  30
ENDBRANCH  28  29
ENDBRANCH  27  28
ENDBRANCH  26  27
ENDBRANCH  25  26
ENDBRANCH  24  25
ENDBRANCH  23  24
ENDBRANCH  22  23
ENDBRANCH  21  22
ENDBRANCH  20  21
ENDBRANCH  19  20
ENDBRANCH  18  19
ENDBRANCH   1  18
TORSDOF 28
ENDMDL
MODEL 8
REMARK VINA RESULT:    -3.997     15.452     19.116
REMARK INTER + INTRA:         -14.294
REMARK INTER:                  -9.708
REMARK INTRA:                  -4.586
REMARK UNBOUND:                -3.753
REMARK SMILES CCCCCCCCCCCCCCCCCCCCCCCCCCCCCC(=O)[O-]
REMARK SMILES IDX 16 1 17 2 18 3 19 4 20 5 21 6 22 7 23 8 24 9 25 10 26 11
REMARK SMILES IDX 27 12 28 13 29 14 30 15 31 16 32 17 15 18 14 19 13 20 12 21
REMARK SMILES IDX 11 22 10 23 9 24 8 25 7 26 6 27 5 28 4 29 3 30 2 31 1 32
REMARK H PARENT
REMARK Flexibility Score: inf
ROOT
ATOM      1  C   UNL     1     -47.160  13.124 -23.804  1.00  0.00     0.000 C 
ENDROOT
BRANCH   1   2
ATOM      2  C   UNL     1     -46.888  13.624 -25.234  1.00  0.00     0.000 C 
BRANCH   2   3
ATOM      3  C   UNL     1     -48.103  14.320 -25.872  1.00  0.00     0.000 C 
BRANCH   3   4
ATOM      4  C   UNL     1     -48.018  15.859 -25.937  1.00  0.00     0.000 C 
BRANCH   4   5
ATOM      5  C   UNL     1     -49.325  16.570 -26.336  1.00  0.00     0.000 C 
BRANCH   5   6
ATOM      6  C   UNL     1     -49.142  17.974 -26.944  1.00  0.00     0.000 C 
BRANCH   6   7
ATOM      7  C   UNL     1     -49.540  18.102 -28.427  1.00  0.00     0.000 C 
BRANCH   7   8
ATOM      8  C   UNL     1     -48.528  17.522 -29.430  1.00  0.00     0.000 C 
BRANCH   8   9
ATOM      9  C   UNL     1     -47.076  17.565 -28.914  1.00  0.00     0.000 C 
BRANCH   9  10
ATOM     10  C   UNL     1     -46.183  16.517 -29.595  1.00  0.00     0.000 C 
BRANCH  10  11
ATOM     11  C   UNL     1     -46.608  15.078 -29.249  1.00  0.00     0.000 C 
BRANCH  11  12
ATOM     12  C   UNL     1     -45.419  14.107 -29.163  1.00  0.00     0.000 C 
BRANCH  12  13
ATOM     13  C   UNL     1     -45.791  12.609 -29.212  1.00  0.00     0.006 C 
BRANCH  13  14
ATOM     14  C   UNL     1     -47.247  12.304 -28.832  1.00  0.00     0.053 C 
BRANCH  14  15
ATOM     15  C   UNL     1     -47.350  11.171 -27.856  1.00  0.00     0.041 C 
ATOM     16  O   UNL     1     -46.312  10.561 -27.481  1.00  0.00    -0.550 OA
ATOM     17  O   UNL     1     -48.587  10.808 -27.337  1.00  0.00    -0.550 OA
ENDBRANCH  14  15
ENDBRANCH  13  14
ENDBRANCH  12  13
ENDBRANCH  11  12
ENDBRANCH  10  11
ENDBRANCH   9  10
ENDBRANCH   8   9
ENDBRANCH   7   8
ENDBRANCH   6   7
ENDBRANCH   5   6
ENDBRANCH   4   5
ENDBRANCH   3   4
ENDBRANCH   2   3
ENDBRANCH   1   2
BRANCH   1  18
ATOM     18  C   UNL     1     -46.504  11.757 -23.547  1.00  0.00     0.000 C 
BRANCH  18  19
ATOM     19  C   UNL     1     -47.402  10.587 -23.987  1.00  0.00     0.000 C 
BRANCH  19  20
ATOM     20  C   UNL     1     -47.184   9.314 -23.148  1.00  0.00     0.000 C 
BRANCH  20  21
ATOM     21  C   UNL     1     -46.599   9.571 -21.742  1.00  0.00     0.000 C 
BRANCH  21  22
ATOM     22  C   UNL     1     -47.512   9.141 -20.575  1.00  0.00     0.000 C 
BRANCH  22  23
ATOM     23  C   UNL     1     -47.093   9.708 -19.205  1.00  0.00     0.000 C 
BRANCH  23  24
ATOM     24  C   UNL     1     -48.035  10.822 -18.717  1.00  0.00    -0.000 C 
BRANCH  24  25
ATOM     25  C   UNL     1     -47.502  12.231 -19.032  1.00  0.00    -0.000 C 
BRANCH  25  26
ATOM     26  C   UNL     1     -48.069  12.821 -20.340  1.00  0.00    -0.000 C 
BRANCH  26  27
ATOM     27  C   UNL     1     -49.468  13.438 -20.146  1.00  0.00    -0.000 C 
BRANCH  27  28
ATOM     28  C   UNL     1     -50.585  12.576 -20.755  1.00  0.00    -0.000 C 
BRANCH  28  29
ATOM     29  C   UNL     1     -50.066  11.588 -21.809  1.00  0.00    -0.000 C 
BRANCH  29  30
ATOM     30  C   UNL     1     -51.220  10.774 -22.411  1.00  0.00    -0.000 C 
BRANCH  30  31
ATOM     31  C   UNL     1     -51.753  11.382 -23.718  1.00  0.00    -0.003 C 
ATOM     32  C   UNL     1     -50.683  12.149 -24.496  1.00  0.00     0.004 C 
ENDBRANCH  30  31
ENDBRANCH  29  30
ENDBRANCH  28  29
ENDBRANCH  27  28
ENDBRANCH  26  27
ENDBRANCH  25  26
ENDBRANCH  24  25
ENDBRANCH  23  24
ENDBRANCH  22  23
ENDBRANCH  21  22
ENDBRANCH  20  21
ENDBRANCH  19  20
ENDBRANCH  18  19
ENDBRANCH   1  18
TORSDOF 28
ENDMDL
MODEL 9
REMARK VINA RESULT:    -3.963     15.419     19.010
REMARK INTER + INTRA:         -14.203
REMARK INTER:                  -9.955
REMARK INTRA:                  -4.248
REMARK UNBOUND:                -3.753
REMARK SMILES CCCCCCCCCCCCCCCCCCCCCCCCCCCCCC(=O)[O-]
REMARK SMILES IDX 16 1 17 2 18 3 19 4 20 5 21 6 22 7 23 8 24 9 25 10 26 11
REMARK SMILES IDX 27 12 28 13 29 14 30 15 31 16 32 17 15 18 14 19 13 20 12 21
REMARK SMILES IDX 11 22 10 23 9 24 8 25 7 26 6 27 5 28 4 29 3 30 2 31 1 32
REMARK H PARENT
REMARK Flexibility Score: inf
ROOT
ATOM      1  C   UNL     1     -51.232  11.833 -23.852  1.00  0.00     0.000 C 
ENDROOT
BRANCH   1   2
ATOM      2  C   UNL     1     -50.394  10.556 -23.665  1.00  0.00     0.000 C 
BRANCH   2   3
ATOM      3  C   UNL     1     -48.921  10.734 -24.076  1.00  0.00     0.000 C 
BRANCH   3   4
ATOM      4  C   UNL     1     -48.416  12.192 -24.088  1.00  0.00     0.000 C 
BRANCH   4   5
ATOM      5  C   UNL     1     -46.901  12.361 -23.875  1.00  0.00     0.000 C 
BRANCH   5   6
ATOM      6  C   UNL     1     -46.127  11.050 -23.639  1.00  0.00     0.000 C 
BRANCH   6   7
ATOM      7  C   UNL     1     -44.992  10.768 -24.643  1.00  0.00     0.000 C 
BRANCH   7   8
ATOM      8  C   UNL     1     -45.105  11.514 -25.984  1.00  0.00     0.000 C 
BRANCH   8   9
ATOM      9  C   UNL     1     -45.720  10.652 -27.104  1.00  0.00     0.000 C 
BRANCH   9  10
ATOM     10  C   UNL     1     -47.193  11.002 -27.367  1.00  0.00     0.000 C 
BRANCH  10  11
ATOM     11  C   UNL     1     -47.369  12.455 -27.843  1.00  0.00     0.000 C 
BRANCH  11  12
ATOM     12  C   UNL     1     -47.138  12.623 -29.354  1.00  0.00     0.000 C 
BRANCH  12  13
ATOM     13  C   UNL     1     -46.278  13.841 -29.754  1.00  0.00     0.006 C 
BRANCH  13  14
ATOM     14  C   UNL     1     -45.749  14.662 -28.569  1.00  0.00     0.053 C 
BRANCH  14  15
ATOM     15  C   UNL     1     -46.437  15.989 -28.452  1.00  0.00     0.041 C 
ATOM     16  O   UNL     1     -46.099  16.947 -29.200  1.00  0.00    -0.550 OA
ATOM     17  O   UNL     1     -47.469  16.161 -27.538  1.00  0.00    -0.550 OA
ENDBRANCH  14  15
ENDBRANCH  13  14
ENDBRANCH  12  13
ENDBRANCH  11  12
ENDBRANCH  10  11
ENDBRANCH   9  10
ENDBRANCH   8   9
ENDBRANCH   7   8
ENDBRANCH   6   7
ENDBRANCH   5   6
ENDBRANCH   4   5
ENDBRANCH   3   4
ENDBRANCH   2   3
ENDBRANCH   1   2
BRANCH   1  18
ATOM     18  C   UNL     1     -51.954  12.233 -22.554  1.00  0.00     0.000 C 
BRANCH  18  19
ATOM     19  C   UNL     1     -51.066  12.045 -21.311  1.00  0.00     0.000 C 
BRANCH  19  20
ATOM     20  C   UNL     1     -51.094  13.260 -20.365  1.00  0.00     0.000 C 
BRANCH  20  21
ATOM     21  C   UNL     1     -49.699  13.778 -19.952  1.00  0.00     0.000 C 
BRANCH  21  22
ATOM     22  C   UNL     1     -48.516  13.046 -20.620  1.00  0.00     0.000 C 
BRANCH  22  23
ATOM     23  C   UNL     1     -47.695  12.168 -19.657  1.00  0.00     0.000 C 
BRANCH  23  24
ATOM     24  C   UNL     1     -47.511  10.734 -20.183  1.00  0.00    -0.000 C 
BRANCH  24  25
ATOM     25  C   UNL     1     -48.534   9.749 -19.591  1.00  0.00    -0.000 C 
BRANCH  25  26
ATOM     26  C   UNL     1     -49.374  10.352 -18.446  1.00  0.00    -0.000 C 
BRANCH  26  27
ATOM     27  C   UNL     1     -49.485   9.402 -17.238  1.00  0.00    -0.000 C 
BRANCH  27  28
ATOM     28  C   UNL     1     -48.889  10.001 -15.955  1.00  0.00    -0.000 C 
BRANCH  28  29
ATOM     29  C   UNL     1     -47.362   9.858 -15.887  1.00  0.00    -0.000 C 
BRANCH  29  30
ATOM     30  C   UNL     1     -46.905   9.553 -14.453  1.00  0.00    -0.000 C 
BRANCH  30  31
ATOM     31  C   UNL     1     -46.849  10.809 -13.570  1.00  0.00    -0.003 C 
ATOM     32  C   UNL     1     -45.839  11.843 -14.071  1.00  0.00     0.004 C 
ENDBRANCH  30  31
ENDBRANCH  29  30
ENDBRANCH  28  29
ENDBRANCH  27  28
ENDBRANCH  26  27
ENDBRANCH  25  26
ENDBRANCH  24  25
ENDBRANCH  23  24
ENDBRANCH  22  23
ENDBRANCH  21  22
ENDBRANCH  20  21
ENDBRANCH  19  20
ENDBRANCH  18  19
ENDBRANCH   1  18
TORSDOF 28
ENDMDL
