MODEL 1
REMARK VINA RESULT:    -5.617      0.000      0.000
REMARK INTER + INTRA:          -6.491
REMARK INTER:                  -6.438
REMARK INTRA:                  -0.053
REMARK UNBOUND:                -0.053
REMARK SMILES O=C([O-])c1cc(O)c(O)c(O)c1
REMARK SMILES IDX 4 1 5 2 12 3 6 4 10 5 8 6 2 7 1 8 3 9 7 10 11 12 9 14
REMARK H PARENT 7 11 11 13 9 15
REMARK Flexibility Score: inf
ROOT
ATOM      1  C   UNL     1     -32.913  11.497 -36.123  1.00  0.00     0.005 A 
ATOM      2  C   UNL     1     -33.687  12.217 -37.048  1.00  0.00     0.060 A 
ATOM      3  C   UNL     1     -32.110  10.442 -36.580  1.00  0.00     0.060 A 
ATOM      4  C   UNL     1     -33.665  11.893 -38.411  1.00  0.00     0.162 A 
ATOM      5  C   UNL     1     -32.079  10.109 -37.940  1.00  0.00     0.162 A 
ATOM      6  C   UNL     1     -32.852  10.828 -38.863  1.00  0.00     0.200 A 
ENDROOT
BRANCH   1   7
ATOM      7  C   UNL     1     -32.942  11.845 -34.683  1.00  0.00     0.072 C 
ATOM      8  O   UNL     1     -33.715  12.743 -34.256  1.00  0.00    -0.545 OA
ATOM      9  O   UNL     1     -32.115  11.184 -33.782  1.00  0.00    -0.545 OA
ENDBRANCH   1   7
BRANCH   4  10
ATOM     10  O   UNL     1     -34.461  12.653 -39.271  1.00  0.00    -0.504 OA
ATOM     11  H   UNL     1     -35.420  12.906 -39.080  1.00  0.00     0.293 HD
ENDBRANCH   4  10
BRANCH   5  12
ATOM     12  O   UNL     1     -31.278   9.059 -38.386  1.00  0.00    -0.504 OA
ATOM     13  H   UNL     1     -30.778   9.108 -39.266  1.00  0.00     0.293 HD
ENDBRANCH   5  12
BRANCH   6  14
ATOM     14  O   UNL     1     -32.784  10.454 -40.208  1.00  0.00    -0.502 OA
ATOM     15  H   UNL     1     -32.464  11.061 -40.948  1.00  0.00     0.293 HD
ENDBRANCH   6  14
TORSDOF 4
ENDMDL
MODEL 2
REMARK VINA RESULT:    -5.565      1.114      4.764
REMARK INTER + INTRA:          -6.431
REMARK INTER:                  -6.378
REMARK INTRA:                  -0.053
REMARK UNBOUND:                -0.053
REMARK SMILES O=C([O-])c1cc(O)c(O)c(O)c1
REMARK SMILES IDX 4 1 5 2 12 3 6 4 10 5 8 6 2 7 1 8 3 9 7 10 11 12 9 14
REMARK H PARENT 7 11 11 13 9 15
REMARK Flexibility Score: inf
ROOT
ATOM      1  C   UNL     1     -33.334  11.315 -37.484  1.00  0.00     0.005 A 
ATOM      2  C   UNL     1     -32.597  10.197 -37.060  1.00  0.00     0.060 A 
ATOM      3  C   UNL     1     -33.758  12.252 -36.531  1.00  0.00     0.060 A 
ATOM      4  C   UNL     1     -32.285  10.010 -35.707  1.00  0.00     0.162 A 
ATOM      5  C   UNL     1     -33.452  12.078 -35.175  1.00  0.00     0.162 A 
ATOM      6  C   UNL     1     -32.716  10.962 -34.754  1.00  0.00     0.200 A 
ENDROOT
BRANCH   1   7
ATOM      7  C   UNL     1     -33.661  11.505 -38.916  1.00  0.00     0.072 C 
ATOM      8  O   UNL     1     -33.286  10.665 -39.775  1.00  0.00    -0.545 OA
ATOM      9  O   UNL     1     -34.388  12.615 -39.331  1.00  0.00    -0.545 OA
ENDBRANCH   1   7
BRANCH   4  10
ATOM     10  O   UNL     1     -31.549   8.875 -35.362  1.00  0.00    -0.504 OA
ATOM     11  H   UNL     1     -30.989   8.343 -36.013  1.00  0.00     0.293 HD
ENDBRANCH   4  10
BRANCH   5  12
ATOM     12  O   UNL     1     -33.877  13.015 -34.235  1.00  0.00    -0.504 OA
ATOM     13  H   UNL     1     -33.638  13.996 -34.316  1.00  0.00     0.293 HD
ENDBRANCH   5  12
BRANCH   6  14
ATOM     14  O   UNL     1     -32.438  10.836 -33.390  1.00  0.00    -0.502 OA
ATOM     15  H   UNL     1     -32.803  10.099 -32.804  1.00  0.00     0.293 HD
ENDBRANCH   6  14
TORSDOF 4
ENDMDL
MODEL 3
REMARK VINA RESULT:    -5.549      1.128      4.167
REMARK INTER + INTRA:          -6.412
REMARK INTER:                  -6.360
REMARK INTRA:                  -0.053
REMARK UNBOUND:                -0.053
REMARK SMILES O=C([O-])c1cc(O)c(O)c(O)c1
REMARK SMILES IDX 4 1 5 2 12 3 6 4 10 5 8 6 2 7 1 8 3 9 7 10 11 12 9 14
REMARK H PARENT 7 11 11 13 9 15
REMARK Flexibility Score: inf
ROOT
ATOM      1  C   UNL     1     -33.352  11.326 -37.482  1.00  0.00     0.005 A 
ATOM      2  C   UNL     1     -33.795  12.244 -36.516  1.00  0.00     0.060 A 
ATOM      3  C   UNL     1     -32.616  10.206 -37.069  1.00  0.00     0.060 A 
ATOM      4  C   UNL     1     -33.512  12.054 -35.158  1.00  0.00     0.162 A 
ATOM      5  C   UNL     1     -32.327  10.003 -35.715  1.00  0.00     0.162 A 
ATOM      6  C   UNL     1     -32.769  10.920 -34.751  1.00  0.00     0.200 A 
ENDROOT
BRANCH   1   7
ATOM      7  C   UNL     1     -33.655  11.535 -38.917  1.00  0.00     0.072 C 
ATOM      8  O   UNL     1     -33.258  10.711 -39.782  1.00  0.00    -0.545 OA
ATOM      9  O   UNL     1     -34.385  12.645 -39.328  1.00  0.00    -0.545 OA
ENDBRANCH   1   7
BRANCH   4  10
ATOM     10  O   UNL     1     -33.986  13.009 -34.256  1.00  0.00    -0.504 OA
ATOM     11  H   UNL     1     -33.399  13.681 -33.782  1.00  0.00     0.293 HD
ENDBRANCH   4  10
BRANCH   5  12
ATOM     12  O   UNL     1     -31.595   8.887 -35.314  1.00  0.00    -0.504 OA
ATOM     13  H   UNL     1     -30.678   8.687 -35.696  1.00  0.00     0.293 HD
ENDBRANCH   5  12
BRANCH   6  14
ATOM     14  O   UNL     1     -32.453  10.671 -33.413  1.00  0.00    -0.502 OA
ATOM     15  H   UNL     1     -33.138  10.581 -32.677  1.00  0.00     0.293 HD
ENDBRANCH   6  14
TORSDOF 4
ENDMDL
MODEL 4
REMARK VINA RESULT:    -5.516      0.272      2.622
REMARK INTER + INTRA:          -6.374
REMARK INTER:                  -6.322
REMARK INTRA:                  -0.053
REMARK UNBOUND:                -0.053
REMARK SMILES O=C([O-])c1cc(O)c(O)c(O)c1
REMARK SMILES IDX 4 1 5 2 12 3 6 4 10 5 8 6 2 7 1 8 3 9 7 10 11 12 9 14
REMARK H PARENT 7 11 11 13 9 15
REMARK Flexibility Score: inf
ROOT
ATOM      1  C   UNL     1     -32.864  11.615 -35.904  1.00  0.00     0.005 A 
ATOM      2  C   UNL     1     -32.061  10.574 -36.399  1.00  0.00     0.060 A 
ATOM      3  C   UNL     1     -33.662  12.343 -36.797  1.00  0.00     0.060 A 
ATOM      4  C   UNL     1     -32.047  10.262 -37.764  1.00  0.00     0.162 A 
ATOM      5  C   UNL     1     -33.659  12.041 -38.165  1.00  0.00     0.162 A 
ATOM      6  C   UNL     1     -32.856  11.003 -38.658  1.00  0.00     0.200 A 
ENDROOT
BRANCH   1   7
ATOM      7  C   UNL     1     -32.872  11.939 -34.459  1.00  0.00     0.072 C 
ATOM      8  O   UNL     1     -32.094  11.347 -33.665  1.00  0.00    -0.545 OA
ATOM      9  O   UNL     1     -33.739  12.904 -33.958  1.00  0.00    -0.545 OA
ENDBRANCH   1   7
BRANCH   4  10
ATOM     10  O   UNL     1     -31.224   9.214 -38.182  1.00  0.00    -0.504 OA
ATOM     11  H   UNL     1     -31.512   8.247 -38.218  1.00  0.00     0.293 HD
ENDBRANCH   4  10
BRANCH   5  12
ATOM     12  O   UNL     1     -34.454  12.771 -39.046  1.00  0.00    -0.504 OA
ATOM     13  H   UNL     1     -34.871  12.343 -39.865  1.00  0.00     0.293 HD
ENDBRANCH   5  12
BRANCH   6  14
ATOM     14  O   UNL     1     -32.890  10.742 -40.030  1.00  0.00    -0.502 OA
ATOM     15  H   UNL     1     -32.561  11.384 -40.736  1.00  0.00     0.293 HD
ENDBRANCH   6  14
TORSDOF 4
ENDMDL
MODEL 5
REMARK VINA RESULT:    -4.800      1.301      3.962
REMARK INTER + INTRA:          -5.554
REMARK INTER:                  -5.505
REMARK INTRA:                  -0.049
REMARK UNBOUND:                -0.053
REMARK SMILES O=C([O-])c1cc(O)c(O)c(O)c1
REMARK SMILES IDX 4 1 5 2 12 3 6 4 10 5 8 6 2 7 1 8 3 9 7 10 11 12 9 14
REMARK H PARENT 7 11 11 13 9 15
REMARK Flexibility Score: inf
ROOT
ATOM      1  C   UNL     1     -33.638  11.317 -38.814  1.00  0.00     0.005 A 
ATOM      2  C   UNL     1     -33.709  11.859 -37.519  1.00  0.00     0.060 A 
ATOM      3  C   UNL     1     -32.690  10.320 -39.083  1.00  0.00     0.060 A 
ATOM      4  C   UNL     1     -32.850  11.418 -36.505  1.00  0.00     0.162 A 
ATOM      5  C   UNL     1     -31.825   9.869 -38.078  1.00  0.00     0.162 A 
ATOM      6  C   UNL     1     -31.897  10.411 -36.787  1.00  0.00     0.200 A 
ENDROOT
BRANCH   1   7
ATOM      7  C   UNL     1     -34.550  11.790 -39.880  1.00  0.00     0.072 C 
ATOM      8  O   UNL     1     -34.787  13.019 -40.023  1.00  0.00    -0.545 OA
ATOM      9  O   UNL     1     -35.157  10.883 -40.741  1.00  0.00    -0.545 OA
ENDBRANCH   1   7
BRANCH   4  10
ATOM     10  O   UNL     1     -32.980  12.003 -35.244  1.00  0.00    -0.504 OA
ATOM     11  H   UNL     1     -32.357  11.823 -34.470  1.00  0.00     0.293 HD
ENDBRANCH   4  10
BRANCH   5  12
ATOM     12  O   UNL     1     -30.885   8.878 -38.355  1.00  0.00    -0.504 OA
ATOM     13  H   UNL     1     -30.799   8.470 -39.279  1.00  0.00     0.293 HD
ENDBRANCH   5  12
BRANCH   6  14
ATOM     14  O   UNL     1     -31.011   9.925 -35.821  1.00  0.00    -0.502 OA
ATOM     15  H   UNL     1     -31.001   8.971 -35.491  1.00  0.00     0.293 HD
ENDBRANCH   6  14
TORSDOF 4
ENDMDL
MODEL 6
REMARK VINA RESULT:    -4.770      1.966      2.550
REMARK INTER + INTRA:          -5.520
REMARK INTER:                  -5.475
REMARK INTRA:                  -0.045
REMARK UNBOUND:                -0.053
REMARK SMILES O=C([O-])c1cc(O)c(O)c(O)c1
REMARK SMILES IDX 4 1 5 2 12 3 6 4 10 5 8 6 2 7 1 8 3 9 7 10 11 12 9 14
REMARK H PARENT 7 11 11 13 9 15
REMARK Flexibility Score: inf
ROOT
ATOM      1  C   UNL     1     -32.617  12.286 -34.016  1.00  0.00     0.005 A 
ATOM      2  C   UNL     1     -33.239  12.786 -35.172  1.00  0.00     0.060 A 
ATOM      3  C   UNL     1     -32.117  10.976 -34.025  1.00  0.00     0.060 A 
ATOM      4  C   UNL     1     -33.363  11.997 -36.322  1.00  0.00     0.162 A 
ATOM      5  C   UNL     1     -32.234  10.176 -35.168  1.00  0.00     0.162 A 
ATOM      6  C   UNL     1     -32.855  10.677 -36.321  1.00  0.00     0.200 A 
ENDROOT
BRANCH   1   7
ATOM      7  C   UNL     1     -32.490  13.127 -32.804  1.00  0.00     0.072 C 
ATOM      8  O   UNL     1     -33.333  13.041 -31.872  1.00  0.00    -0.545 OA
ATOM      9  O   UNL     1     -31.436  14.026 -32.678  1.00  0.00    -0.545 OA
ENDBRANCH   1   7
BRANCH   4  10
ATOM     10  O   UNL     1     -33.993  12.563 -37.433  1.00  0.00    -0.504 OA
ATOM     11  H   UNL     1     -34.994  12.613 -37.551  1.00  0.00     0.293 HD
ENDBRANCH   4  10
BRANCH   5  12
ATOM     12  O   UNL     1     -31.735   8.875 -35.167  1.00  0.00    -0.504 OA
ATOM     13  H   UNL     1     -31.663   8.334 -34.313  1.00  0.00     0.293 HD
ENDBRANCH   5  12
BRANCH   6  14
ATOM     14  O   UNL     1     -32.946   9.837 -37.434  1.00  0.00    -0.502 OA
ATOM     15  H   UNL     1     -33.029  10.165 -38.385  1.00  0.00     0.293 HD
ENDBRANCH   6  14
TORSDOF 4
ENDMDL
MODEL 7
REMARK VINA RESULT:    -4.704      2.004      3.532
REMARK INTER + INTRA:          -5.444
REMARK INTER:                  -5.399
REMARK INTRA:                  -0.045
REMARK UNBOUND:                -0.053
REMARK SMILES O=C([O-])c1cc(O)c(O)c(O)c1
REMARK SMILES IDX 4 1 5 2 12 3 6 4 10 5 8 6 2 7 1 8 3 9 7 10 11 12 9 14
REMARK H PARENT 7 11 11 13 9 15
REMARK Flexibility Score: inf
ROOT
ATOM      1  C   UNL     1     -32.610  12.253 -33.942  1.00  0.00     0.005 A 
ATOM      2  C   UNL     1     -32.120  10.938 -34.004  1.00  0.00     0.060 A 
ATOM      3  C   UNL     1     -33.239  12.799 -35.069  1.00  0.00     0.060 A 
ATOM      4  C   UNL     1     -32.252  10.175 -35.171  1.00  0.00     0.162 A 
ATOM      5  C   UNL     1     -33.377  12.047 -36.242  1.00  0.00     0.162 A 
ATOM      6  C   UNL     1     -32.888  10.735 -36.304  1.00  0.00     0.200 A 
ENDROOT
BRANCH   1   7
ATOM      7  C   UNL     1     -32.466  13.053 -32.704  1.00  0.00     0.072 C 
ATOM      8  O   UNL     1     -31.440  13.756 -32.510  1.00  0.00    -0.545 OA
ATOM      9  O   UNL     1     -33.465  13.040 -31.737  1.00  0.00    -0.545 OA
ENDBRANCH   1   7
BRANCH   4  10
ATOM     10  O   UNL     1     -31.740   8.875 -35.158  1.00  0.00    -0.504 OA
ATOM     11  H   UNL     1     -32.257   8.067 -34.842  1.00  0.00     0.293 HD
ENDBRANCH   4  10
BRANCH   5  12
ATOM     12  O   UNL     1     -34.003  12.599 -37.359  1.00  0.00    -0.504 OA
ATOM     13  H   UNL     1     -34.792  12.144 -37.805  1.00  0.00     0.293 HD
ENDBRANCH   5  12
BRANCH   6  14
ATOM     14  O   UNL     1     -33.052  10.028 -37.498  1.00  0.00    -0.502 OA
ATOM     15  H   UNL     1     -32.900   9.034 -37.593  1.00  0.00     0.293 HD
ENDBRANCH   6  14
TORSDOF 4
ENDMDL
MODEL 8
REMARK VINA RESULT:    -4.510      1.712      4.385
REMARK INTER + INTRA:          -5.222
REMARK INTER:                  -5.177
REMARK INTRA:                  -0.045
REMARK UNBOUND:                -0.053
REMARK SMILES O=C([O-])c1cc(O)c(O)c(O)c1
REMARK SMILES IDX 4 1 5 2 12 3 6 4 10 5 8 6 2 7 1 8 3 9 7 10 11 12 9 14
REMARK H PARENT 7 11 11 13 9 15
REMARK Flexibility Score: inf
ROOT
ATOM      1  C   UNL     1     -33.489  10.913 -38.183  1.00  0.00     0.005 A 
ATOM      2  C   UNL     1     -32.095  10.743 -38.141  1.00  0.00     0.060 A 
ATOM      3  C   UNL     1     -34.250  10.570 -37.056  1.00  0.00     0.060 A 
ATOM      4  C   UNL     1     -31.465  10.238 -36.997  1.00  0.00     0.162 A 
ATOM      5  C   UNL     1     -33.633  10.065 -35.905  1.00  0.00     0.162 A 
ATOM      6  C   UNL     1     -32.242   9.895 -35.865  1.00  0.00     0.200 A 
ENDROOT
BRANCH   1   7
ATOM      7  C   UNL     1     -34.148  11.446 -39.397  1.00  0.00     0.072 C 
ATOM      8  O   UNL     1     -34.429  12.670 -39.488  1.00  0.00    -0.545 OA
ATOM      9  O   UNL     1     -34.464  10.602 -40.455  1.00  0.00    -0.545 OA
ENDBRANCH   1   7
BRANCH   4  10
ATOM     10  O   UNL     1     -30.076  10.097 -37.030  1.00  0.00    -0.504 OA
ATOM     11  H   UNL     1     -29.508   9.895 -36.219  1.00  0.00     0.293 HD
ENDBRANCH   4  10
BRANCH   5  12
ATOM     12  O   UNL     1     -34.398   9.727 -34.791  1.00  0.00    -0.504 OA
ATOM     13  H   UNL     1     -34.604   8.761 -34.561  1.00  0.00     0.293 HD
ENDBRANCH   5  12
BRANCH   6  14
ATOM     14  O   UNL     1     -31.676   9.387 -34.693  1.00  0.00    -0.502 OA
ATOM     15  H   UNL     1     -31.626   8.404 -34.468  1.00  0.00     0.293 HD
ENDBRANCH   6  14
TORSDOF 4
ENDMDL
MODEL 9
REMARK VINA RESULT:    -4.398      2.031      4.603
REMARK INTER + INTRA:          -5.093
REMARK INTER:                  -5.046
REMARK INTRA:                  -0.047
REMARK UNBOUND:                -0.053
REMARK SMILES O=C([O-])c1cc(O)c(O)c(O)c1
REMARK SMILES IDX 4 1 5 2 12 3 6 4 10 5 8 6 2 7 1 8 3 9 7 10 11 12 9 14
REMARK H PARENT 7 11 11 13 9 15
REMARK Flexibility Score: inf
ROOT
ATOM      1  C   UNL     1     -33.204   9.749 -38.179  1.00  0.00     0.005 A 
ATOM      2  C   UNL     1     -34.331   9.405 -37.415  1.00  0.00     0.060 A 
ATOM      3  C   UNL     1     -32.003  10.053 -37.523  1.00  0.00     0.060 A 
ATOM      4  C   UNL     1     -34.267   9.364 -36.016  1.00  0.00     0.162 A 
ATOM      5  C   UNL     1     -31.925  10.015 -36.125  1.00  0.00     0.162 A 
ATOM      6  C   UNL     1     -33.051   9.672 -35.363  1.00  0.00     0.200 A 
ENDROOT
BRANCH   1   7
ATOM      7  C   UNL     1     -33.280   9.791 -39.658  1.00  0.00     0.072 C 
ATOM      8  O   UNL     1     -32.459   9.144 -40.360  1.00  0.00    -0.545 OA
ATOM      9  O   UNL     1     -34.260  10.546 -40.292  1.00  0.00    -0.545 OA
ENDBRANCH   1   7
BRANCH   4  10
ATOM     10  O   UNL     1     -35.428   9.014 -35.324  1.00  0.00    -0.504 OA
ATOM     11  H   UNL     1     -36.272   8.678 -35.766  1.00  0.00     0.293 HD
ENDBRANCH   4  10
BRANCH   5  12
ATOM     12  O   UNL     1     -30.727  10.319 -35.482  1.00  0.00    -0.504 OA
ATOM     13  H   UNL     1     -29.831  10.042 -35.867  1.00  0.00     0.293 HD
ENDBRANCH   5  12
BRANCH   6  14
ATOM     14  O   UNL     1     -32.919   9.650 -33.972  1.00  0.00    -0.502 OA
ATOM     15  H   UNL     1     -33.664   9.879 -33.330  1.00  0.00     0.293 HD
ENDBRANCH   6  14
TORSDOF 4
ENDMDL
