MODEL 1
REMARK VINA RESULT:    -3.574      0.000      0.000
REMARK INTER + INTRA:          -5.397
REMARK INTER:                  -5.245
REMARK INTRA:                  -0.152
REMARK UNBOUND:                -0.152
REMARK SMILES O=C([O-])CCCCCCCC(=O)[O-]
REMARK SMILES IDX 7 1 6 2 5 3 4 4 2 5 1 6 3 7 8 8 9 9 10 10 11 11 12 12 13 13
REMARK H PARENT
REMARK Flexibility Score: inf
ROOT
ATOM      1  C   UNL     1      42.473  20.408  78.571  1.00  0.00     0.000 C 
ENDROOT
BRANCH   1   2
ATOM      2  C   UNL     1      43.987  20.495  78.823  1.00  0.00     0.000 C 
BRANCH   2   3
ATOM      3  C   UNL     1      44.817  20.104  77.587  1.00  0.00     0.006 C 
BRANCH   3   4
ATOM      4  C   UNL     1      45.690  18.869  77.845  1.00  0.00     0.053 C 
BRANCH   4   5
ATOM      5  C   UNL     1      45.830  18.018  76.620  1.00  0.00     0.041 C 
ATOM      6  O   UNL     1      45.934  18.553  75.485  1.00  0.00    -0.550 OA
ATOM      7  O   UNL     1      45.815  16.633  76.728  1.00  0.00    -0.550 OA
ENDBRANCH   4   5
ENDBRANCH   3   4
ENDBRANCH   2   3
ENDBRANCH   1   2
BRANCH   1   8
ATOM      8  C   UNL     1      41.648  20.618  79.852  1.00  0.00     0.000 C 
BRANCH   8   9
ATOM      9  C   UNL     1      40.470  19.633  79.971  1.00  0.00     0.006 C 
BRANCH   9  10
ATOM     10  C   UNL     1      39.095  20.303  80.125  1.00  0.00     0.053 C 
BRANCH  10  11
ATOM     11  C   UNL     1      38.021  19.311  80.453  1.00  0.00     0.041 C 
ATOM     12  O   UNL     1      37.066  19.636  81.206  1.00  0.00    -0.550 OA
ATOM     13  O   UNL     1      38.060  18.036  79.902  1.00  0.00    -0.550 OA
ENDBRANCH  10  11
ENDBRANCH   9  10
ENDBRANCH   8   9
ENDBRANCH   1   8
TORSDOF 8
ENDMDL
MODEL 2
REMARK VINA RESULT:    -3.514      0.948      7.129
REMARK INTER + INTRA:          -5.309
REMARK INTER:                  -5.015
REMARK INTRA:                  -0.294
REMARK UNBOUND:                -0.152
REMARK SMILES O=C([O-])CCCCCCCC(=O)[O-]
REMARK SMILES IDX 7 1 6 2 5 3 4 4 2 5 1 6 3 7 8 8 9 9 10 10 11 11 12 12 13 13
REMARK H PARENT
REMARK Flexibility Score: inf
ROOT
ATOM      1  C   UNL     1      42.817  21.176  79.653  1.00  0.00     0.000 C 
ENDROOT
BRANCH   1   2
ATOM      2  C   UNL     1      41.860  20.019  79.324  1.00  0.00     0.000 C 
BRANCH   2   3
ATOM      3  C   UNL     1      40.515  20.506  78.755  1.00  0.00     0.006 C 
BRANCH   3   4
ATOM      4  C   UNL     1      39.608  21.098  79.842  1.00  0.00     0.053 C 
BRANCH   4   5
ATOM      5  C   UNL     1      38.460  20.191  80.167  1.00  0.00     0.041 C 
ATOM      6  O   UNL     1      38.667  18.978  80.433  1.00  0.00    -0.550 OA
ATOM      7  O   UNL     1      37.160  20.679  80.144  1.00  0.00    -0.550 OA
ENDBRANCH   4   5
ENDBRANCH   3   4
ENDBRANCH   2   3
ENDBRANCH   1   2
BRANCH   1   8
ATOM      8  C   UNL     1      44.152  21.073  78.895  1.00  0.00     0.000 C 
BRANCH   8   9
ATOM      9  C   UNL     1      44.349  19.704  78.218  1.00  0.00     0.006 C 
BRANCH   9  10
ATOM     10  C   UNL     1      45.800  19.397  77.815  1.00  0.00     0.053 C 
BRANCH  10  11
ATOM     11  C   UNL     1      45.874  18.371  76.726  1.00  0.00     0.041 C 
ATOM     12  O   UNL     1      46.115  18.721  75.540  1.00  0.00    -0.550 OA
ATOM     13  O   UNL     1      45.708  17.025  77.026  1.00  0.00    -0.550 OA
ENDBRANCH  10  11
ENDBRANCH   9  10
ENDBRANCH   8   9
ENDBRANCH   1   8
TORSDOF 8
ENDMDL
MODEL 3
REMARK VINA RESULT:    -3.458      3.146      6.760
REMARK INTER + INTRA:          -5.227
REMARK INTER:                  -4.856
REMARK INTRA:                  -0.371
REMARK UNBOUND:                -0.152
REMARK SMILES O=C([O-])CCCCCCCC(=O)[O-]
REMARK SMILES IDX 7 1 6 2 5 3 4 4 2 5 1 6 3 7 8 8 9 9 10 10 11 11 12 12 13 13
REMARK H PARENT
REMARK Flexibility Score: inf
ROOT
ATOM      1  C   UNL     1      42.215  20.725  79.020  1.00  0.00     0.000 C 
ENDROOT
BRANCH   1   2
ATOM      2  C   UNL     1      41.278  19.991  79.992  1.00  0.00     0.000 C 
BRANCH   2   3
ATOM      3  C   UNL     1      39.882  19.739  79.395  1.00  0.00     0.006 C 
BRANCH   3   4
ATOM      4  C   UNL     1      38.774  20.425  80.205  1.00  0.00     0.053 C 
BRANCH   4   5
ATOM      5  C   UNL     1      37.831  19.432  80.814  1.00  0.00     0.041 C 
ATOM      6  O   UNL     1      37.562  18.360  80.210  1.00  0.00    -0.550 OA
ATOM      7  O   UNL     1      37.225  19.705  82.034  1.00  0.00    -0.550 OA
ENDBRANCH   4   5
ENDBRANCH   3   4
ENDBRANCH   2   3
ENDBRANCH   1   2
BRANCH   1   8
ATOM      8  C   UNL     1      41.484  21.795  78.190  1.00  0.00     0.000 C 
BRANCH   8   9
ATOM      9  C   UNL     1      41.832  21.727  76.691  1.00  0.00     0.006 C 
BRANCH   9  10
ATOM     10  C   UNL     1      40.617  21.810  75.753  1.00  0.00     0.053 C 
BRANCH  10  11
ATOM     11  C   UNL     1      40.836  21.046  74.483  1.00  0.00     0.041 C 
ATOM     12  O   UNL     1      41.910  21.181  73.839  1.00  0.00    -0.550 OA
ATOM     13  O   UNL     1      39.867  20.161  74.029  1.00  0.00    -0.550 OA
ENDBRANCH  10  11
ENDBRANCH   9  10
ENDBRANCH   8   9
ENDBRANCH   1   8
TORSDOF 8
ENDMDL
MODEL 4
REMARK VINA RESULT:    -3.321     17.449     19.304
REMARK INTER + INTRA:          -5.026
REMARK INTER:                  -4.623
REMARK INTRA:                  -0.403
REMARK UNBOUND:                -0.152
REMARK SMILES O=C([O-])CCCCCCCC(=O)[O-]
REMARK SMILES IDX 7 1 6 2 5 3 4 4 2 5 1 6 3 7 8 8 9 9 10 10 11 11 12 12 13 13
REMARK H PARENT
REMARK Flexibility Score: inf
ROOT
ATOM      1  C   UNL     1      47.365  31.726  89.296  1.00  0.00     0.000 C 
ENDROOT
BRANCH   1   2
ATOM      2  C   UNL     1      45.987  31.619  89.968  1.00  0.00     0.000 C 
BRANCH   2   3
ATOM      3  C   UNL     1      45.594  30.166  90.287  1.00  0.00     0.006 C 
BRANCH   3   4
ATOM      4  C   UNL     1      45.387  29.939  91.790  1.00  0.00     0.053 C 
BRANCH   4   5
ATOM      5  C   UNL     1      44.135  30.595  92.287  1.00  0.00     0.041 C 
ATOM      6  O   UNL     1      43.008  30.114  91.994  1.00  0.00    -0.550 OA
ATOM      7  O   UNL     1      44.211  31.755  93.047  1.00  0.00    -0.550 OA
ENDBRANCH   4   5
ENDBRANCH   3   4
ENDBRANCH   2   3
ENDBRANCH   1   2
BRANCH   1   8
ATOM      8  C   UNL     1      48.323  30.602  89.727  1.00  0.00     0.000 C 
BRANCH   8   9
ATOM      9  C   UNL     1      49.162  30.977  90.964  1.00  0.00     0.006 C 
BRANCH   9  10
ATOM     10  C   UNL     1      50.582  31.468  90.642  1.00  0.00     0.053 C 
BRANCH  10  11
ATOM     11  C   UNL     1      51.346  31.824  91.881  1.00  0.00     0.041 C 
ATOM     12  O   UNL     1      50.753  32.342  92.865  1.00  0.00    -0.550 OA
ATOM     13  O   UNL     1      52.706  31.556  91.961  1.00  0.00    -0.550 OA
ENDBRANCH  10  11
ENDBRANCH   9  10
ENDBRANCH   8   9
ENDBRANCH   1   8
TORSDOF 8
ENDMDL
MODEL 5
REMARK VINA RESULT:    -3.300      3.192      4.044
REMARK INTER + INTRA:          -4.995
REMARK INTER:                  -4.502
REMARK INTRA:                  -0.493
REMARK UNBOUND:                -0.152
REMARK SMILES O=C([O-])CCCCCCCC(=O)[O-]
REMARK SMILES IDX 7 1 6 2 5 3 4 4 2 5 1 6 3 7 8 8 9 9 10 10 11 11 12 12 13 13
REMARK H PARENT
REMARK Flexibility Score: inf
ROOT
ATOM      1  C   UNL     1      42.668  21.701  78.311  1.00  0.00     0.000 C 
ENDROOT
BRANCH   1   2
ATOM      2  C   UNL     1      41.391  22.361  77.766  1.00  0.00     0.000 C 
BRANCH   2   3
ATOM      3  C   UNL     1      40.728  21.539  76.647  1.00  0.00     0.006 C 
BRANCH   3   4
ATOM      4  C   UNL     1      40.907  22.188  75.268  1.00  0.00     0.053 C 
BRANCH   4   5
ATOM      5  C   UNL     1      40.963  21.167  74.173  1.00  0.00     0.041 C 
ATOM      6  O   UNL     1      41.843  21.247  73.277  1.00  0.00    -0.550 OA
ATOM      7  O   UNL     1      40.024  20.144  74.126  1.00  0.00    -0.550 OA
ENDBRANCH   4   5
ENDBRANCH   3   4
ENDBRANCH   2   3
ENDBRANCH   1   2
BRANCH   1   8
ATOM      8  C   UNL     1      42.397  20.327  78.948  1.00  0.00     0.000 C 
BRANCH   8   9
ATOM      9  C   UNL     1      41.332  20.386  80.060  1.00  0.00     0.006 C 
BRANCH   9  10
ATOM     10  C   UNL     1      40.069  19.557  79.774  1.00  0.00     0.053 C 
BRANCH  10  11
ATOM     11  C   UNL     1      38.820  20.283  80.170  1.00  0.00     0.041 C 
ATOM     12  O   UNL     1      38.511  21.366  79.606  1.00  0.00    -0.550 OA
ATOM     13  O   UNL     1      37.982  19.748  81.140  1.00  0.00    -0.550 OA
ENDBRANCH  10  11
ENDBRANCH   9  10
ENDBRANCH   8   9
ENDBRANCH   1   8
TORSDOF 8
ENDMDL
MODEL 6
REMARK VINA RESULT:    -3.284      5.400      7.722
REMARK INTER + INTRA:          -4.972
REMARK INTER:                  -4.296
REMARK INTRA:                  -0.676
REMARK UNBOUND:                -0.152
REMARK SMILES O=C([O-])CCCCCCCC(=O)[O-]
REMARK SMILES IDX 7 1 6 2 5 3 4 4 2 5 1 6 3 7 8 8 9 9 10 10 11 11 12 12 13 13
REMARK H PARENT
REMARK Flexibility Score: inf
ROOT
ATOM      1  C   UNL     1      47.685  22.200  74.749  1.00  0.00     0.000 C 
ENDROOT
BRANCH   1   2
ATOM      2  C   UNL     1      46.659  21.252  74.108  1.00  0.00     0.000 C 
BRANCH   2   3
ATOM      3  C   UNL     1      45.767  20.552  75.150  1.00  0.00     0.006 C 
BRANCH   3   4
ATOM      4  C   UNL     1      46.227  19.117  75.435  1.00  0.00     0.053 C 
BRANCH   4   5
ATOM      5  C   UNL     1      45.699  18.610  76.742  1.00  0.00     0.041 C 
ATOM      6  O   UNL     1      45.341  19.419  77.638  1.00  0.00    -0.550 OA
ATOM      7  O   UNL     1      45.630  17.243  76.983  1.00  0.00    -0.550 OA
ENDBRANCH   4   5
ENDBRANCH   3   4
ENDBRANCH   2   3
ENDBRANCH   1   2
BRANCH   1   8
ATOM      8  C   UNL     1      49.014  21.497  75.078  1.00  0.00     0.000 C 
BRANCH   8   9
ATOM      9  C   UNL     1      49.453  21.708  76.539  1.00  0.00     0.006 C 
BRANCH   9  10
ATOM     10  C   UNL     1      48.409  21.284  77.584  1.00  0.00     0.053 C 
BRANCH  10  11
ATOM     11  C   UNL     1      48.993  20.379  78.625  1.00  0.00     0.041 C 
ATOM     12  O   UNL     1      48.251  19.594  79.273  1.00  0.00    -0.550 OA
ATOM     13  O   UNL     1      50.363  20.380  78.858  1.00  0.00    -0.550 OA
ENDBRANCH  10  11
ENDBRANCH   9  10
ENDBRANCH   8   9
ENDBRANCH   1   8
TORSDOF 8
ENDMDL
MODEL 7
REMARK VINA RESULT:    -3.277      2.241      6.589
REMARK INTER + INTRA:          -4.963
REMARK INTER:                  -4.367
REMARK INTRA:                  -0.595
REMARK UNBOUND:                -0.152
REMARK SMILES O=C([O-])CCCCCCCC(=O)[O-]
REMARK SMILES IDX 7 1 6 2 5 3 4 4 2 5 1 6 3 7 8 8 9 9 10 10 11 11 12 12 13 13
REMARK H PARENT
REMARK Flexibility Score: inf
ROOT
ATOM      1  C   UNL     1      44.012  22.115  78.091  1.00  0.00     0.000 C 
ENDROOT
BRANCH   1   2
ATOM      2  C   UNL     1      43.207  21.635  79.309  1.00  0.00     0.000 C 
BRANCH   2   3
ATOM      3  C   UNL     1      42.487  20.298  79.055  1.00  0.00     0.006 C 
BRANCH   3   4
ATOM      4  C   UNL     1      40.963  20.428  79.187  1.00  0.00     0.053 C 
BRANCH   4   5
ATOM      5  C   UNL     1      40.385  21.318  78.130  1.00  0.00     0.041 C 
ATOM      6  O   UNL     1      40.699  21.154  76.922  1.00  0.00    -0.550 OA
ATOM      7  O   UNL     1      39.523  22.349  78.483  1.00  0.00    -0.550 OA
ENDBRANCH   4   5
ENDBRANCH   3   4
ENDBRANCH   2   3
ENDBRANCH   1   2
BRANCH   1   8
ATOM      8  C   UNL     1      44.292  20.985  77.085  1.00  0.00     0.000 C 
BRANCH   8   9
ATOM      9  C   UNL     1      45.679  20.344  77.279  1.00  0.00     0.006 C 
BRANCH   9  10
ATOM     10  C   UNL     1      45.643  18.873  77.722  1.00  0.00     0.053 C 
BRANCH  10  11
ATOM     11  C   UNL     1      45.869  17.936  76.575  1.00  0.00     0.041 C 
ATOM     12  O   UNL     1      46.074  18.389  75.417  1.00  0.00    -0.550 OA
ATOM     13  O   UNL     1      45.884  16.564  76.789  1.00  0.00    -0.550 OA
ENDBRANCH  10  11
ENDBRANCH   9  10
ENDBRANCH   8   9
ENDBRANCH   1   8
TORSDOF 8
ENDMDL
MODEL 8
REMARK VINA RESULT:    -3.264      1.958      7.107
REMARK INTER + INTRA:          -4.942
REMARK INTER:                  -4.474
REMARK INTRA:                  -0.468
REMARK UNBOUND:                -0.152
REMARK SMILES O=C([O-])CCCCCCCC(=O)[O-]
REMARK SMILES IDX 7 1 6 2 5 3 4 4 2 5 1 6 3 7 8 8 9 9 10 10 11 11 12 12 13 13
REMARK H PARENT
REMARK Flexibility Score: inf
ROOT
ATOM      1  C   UNL     1      40.361  20.506  78.610  1.00  0.00     0.000 C 
ENDROOT
BRANCH   1   2
ATOM      2  C   UNL     1      39.717  21.817  79.088  1.00  0.00     0.000 C 
BRANCH   2   3
ATOM      3  C   UNL     1      38.851  21.628  80.346  1.00  0.00     0.006 C 
BRANCH   3   4
ATOM      4  C   UNL     1      37.543  20.885  80.042  1.00  0.00     0.053 C 
BRANCH   4   5
ATOM      5  C   UNL     1      37.436  19.604  80.811  1.00  0.00     0.041 C 
ATOM      6  O   UNL     1      37.411  19.622  82.070  1.00  0.00    -0.550 OA
ATOM      7  O   UNL     1      37.394  18.389  80.139  1.00  0.00    -0.550 OA
ENDBRANCH   4   5
ENDBRANCH   3   4
ENDBRANCH   2   3
ENDBRANCH   1   2
BRANCH   1   8
ATOM      8  C   UNL     1      41.488  20.026  79.541  1.00  0.00     0.000 C 
BRANCH   8   9
ATOM      9  C   UNL     1      42.769  20.872  79.409  1.00  0.00     0.006 C 
BRANCH   9  10
ATOM     10  C   UNL     1      43.857  20.242  78.525  1.00  0.00     0.053 C 
BRANCH  10  11
ATOM     11  C   UNL     1      44.014  20.971  77.225  1.00  0.00     0.041 C 
ATOM     12  O   UNL     1      44.930  20.649  76.424  1.00  0.00    -0.550 OA
ATOM     13  O   UNL     1      43.127  21.984  76.885  1.00  0.00    -0.550 OA
ENDBRANCH  10  11
ENDBRANCH   9  10
ENDBRANCH   8   9
ENDBRANCH   1   8
TORSDOF 8
ENDMDL
