MODEL 1
REMARK VINA RESULT:    -3.736      0.000      0.000
REMARK INTER + INTRA:          -4.338
REMARK INTER:                  -4.282
REMARK INTRA:                  -0.056
REMARK UNBOUND:                -0.056
REMARK SMILES CC(C)[C@@H]([NH3+])C(=O)[O-]
REMARK SMILES IDX 4 1 5 2 6 6 7 7 8 8 2 9 1 10 3 11
REMARK H PARENT 5 3 5 4 5 5
REMARK Flexibility Score: inf
ROOT
ATOM      1  C   UNL     1     122.126 145.325 135.221  1.00  0.00     0.230 C 
ENDROOT
BRANCH   1   2
ATOM      2  N   UNL     1     123.570 145.610 135.235  1.00  0.00    -0.350 N 
ATOM      3  H   UNL     1     123.989 145.421 134.298  1.00  0.00     0.345 HD
ATOM      4  H   UNL     1     124.041 144.981 135.925  1.00  0.00     0.345 HD
ATOM      5  H   UNL     1     123.762 146.601 135.508  1.00  0.00     0.345 HD
ENDBRANCH   1   2
BRANCH   1   6
ATOM      6  C   UNL     1     121.489 145.823 133.946  1.00  0.00     0.099 C 
ATOM      7  O   UNL     1     120.611 146.726 133.971  1.00  0.00    -0.544 OA
ATOM      8  O   UNL     1     121.910 145.315 132.723  1.00  0.00    -0.544 OA
ENDBRANCH   1   6
BRANCH   1   9
ATOM      9  C   UNL     1     121.799 143.818 135.453  1.00  0.00     0.047 C 
ATOM     10  C   UNL     1     122.301 143.280 136.803  1.00  0.00     0.014 C 
ATOM     11  C   UNL     1     120.300 143.527 135.291  1.00  0.00     0.014 C 
ENDBRANCH   1   9
TORSDOF 3
ENDMDL
MODEL 2
REMARK VINA RESULT:    -3.582      2.143      3.298
REMARK INTER + INTRA:          -4.161
REMARK INTER:                  -4.102
REMARK INTRA:                  -0.058
REMARK UNBOUND:                -0.056
REMARK SMILES CC(C)[C@@H]([NH3+])C(=O)[O-]
REMARK SMILES IDX 4 1 5 2 6 6 7 7 8 8 2 9 1 10 3 11
REMARK H PARENT 5 3 5 4 5 5
REMARK Flexibility Score: inf
ROOT
ATOM      1  C   UNL     1     121.744 145.440 133.682  1.00  0.00     0.230 C 
ENDROOT
BRANCH   1   2
ATOM      2  N   UNL     1     123.032 145.953 133.185  1.00  0.00    -0.350 N 
ATOM      3  H   UNL     1     123.200 145.631 132.206  1.00  0.00     0.345 HD
ATOM      4  H   UNL     1     123.807 145.577 133.778  1.00  0.00     0.345 HD
ATOM      5  H   UNL     1     123.067 146.997 133.219  1.00  0.00     0.345 HD
ENDBRANCH   1   2
BRANCH   1   6
ATOM      6  C   UNL     1     121.936 144.619 134.934  1.00  0.00     0.099 C 
ATOM      7  O   UNL     1     122.588 145.074 135.911  1.00  0.00    -0.544 OA
ATOM      8  O   UNL     1     121.347 143.365 135.030  1.00  0.00    -0.544 OA
ENDBRANCH   1   6
BRANCH   1   9
ATOM      9  C   UNL     1     120.687 146.564 133.910  1.00  0.00     0.047 C 
ATOM     10  C   UNL     1     120.753 147.693 132.868  1.00  0.00     0.014 C 
ATOM     11  C   UNL     1     119.261 146.000 133.990  1.00  0.00     0.014 C 
ENDBRANCH   1   9
TORSDOF 3
ENDMDL
MODEL 3
REMARK VINA RESULT:    -3.341     17.315     18.246
REMARK INTER + INTRA:          -3.885
REMARK INTER:                  -3.839
REMARK INTRA:                  -0.046
REMARK UNBOUND:                -0.056
REMARK SMILES CC(C)[C@@H]([NH3+])C(=O)[O-]
REMARK SMILES IDX 4 1 5 2 6 6 7 7 8 8 2 9 1 10 3 11
REMARK H PARENT 5 3 5 4 5 5
REMARK Flexibility Score: inf
ROOT
ATOM      1  C   UNL     1     130.026 161.306 134.504  1.00  0.00     0.230 C 
ENDROOT
BRANCH   1   2
ATOM      2  N   UNL     1     130.135 161.296 133.036  1.00  0.00    -0.350 N 
ATOM      3  H   UNL     1     129.209 161.504 132.599  1.00  0.00     0.345 HD
ATOM      4  H   UNL     1     130.428 160.344 132.717  1.00  0.00     0.345 HD
ATOM      5  H   UNL     1     130.842 161.989 132.699  1.00  0.00     0.345 HD
ENDBRANCH   1   2
BRANCH   1   6
ATOM      6  C   UNL     1     128.886 160.433 134.968  1.00  0.00     0.099 C 
ATOM      7  O   UNL     1     128.440 159.510 134.236  1.00  0.00    -0.544 OA
ATOM      8  O   UNL     1     128.352 160.616 136.237  1.00  0.00    -0.544 OA
ENDBRANCH   1   6
BRANCH   1   9
ATOM      9  C   UNL     1     131.355 160.911 135.217  1.00  0.00     0.047 C 
ATOM     10  C   UNL     1     132.555 160.794 134.263  1.00  0.00     0.014 C 
ATOM     11  C   UNL     1     131.689 161.865 136.373  1.00  0.00     0.014 C 
ENDBRANCH   1   9
TORSDOF 3
ENDMDL
MODEL 4
REMARK VINA RESULT:    -3.337      3.582      4.671
REMARK INTER + INTRA:          -3.880
REMARK INTER:                  -3.820
REMARK INTRA:                  -0.060
REMARK UNBOUND:                -0.056
REMARK SMILES CC(C)[C@@H]([NH3+])C(=O)[O-]
REMARK SMILES IDX 4 1 5 2 6 6 7 7 8 8 2 9 1 10 3 11
REMARK H PARENT 5 3 5 4 5 5
REMARK Flexibility Score: inf
ROOT
ATOM      1  C   UNL     1     120.085 146.507 133.182  1.00  0.00     0.230 C 
ENDROOT
BRANCH   1   2
ATOM      2  N   UNL     1     120.772 147.169 134.304  1.00  0.00    -0.350 N 
ATOM      3  H   UNL     1     120.079 147.494 135.015  1.00  0.00     0.345 HD
ATOM      4  H   UNL     1     121.281 148.011 133.951  1.00  0.00     0.345 HD
ATOM      5  H   UNL     1     121.464 146.532 134.759  1.00  0.00     0.345 HD
ENDBRANCH   1   2
BRANCH   1   6
ATOM      6  C   UNL     1     118.701 146.059 133.584  1.00  0.00     0.099 C 
ATOM      7  O   UNL     1     117.758 146.047 132.749  1.00  0.00    -0.544 OA
ATOM      8  O   UNL     1     118.474 145.608 134.878  1.00  0.00    -0.544 OA
ENDBRANCH   1   6
BRANCH   1   9
ATOM      9  C   UNL     1     120.033 147.385 131.895  1.00  0.00     0.047 C 
ATOM     10  C   UNL     1     119.966 148.895 132.181  1.00  0.00     0.014 C 
ATOM     11  C   UNL     1     121.201 147.078 130.945  1.00  0.00     0.014 C 
ENDBRANCH   1   9
TORSDOF 3
ENDMDL
MODEL 5
REMARK VINA RESULT:    -3.296      3.336      3.763
REMARK INTER + INTRA:          -3.834
REMARK INTER:                  -3.759
REMARK INTRA:                  -0.075
REMARK UNBOUND:                -0.056
REMARK SMILES CC(C)[C@@H]([NH3+])C(=O)[O-]
REMARK SMILES IDX 4 1 5 2 6 6 7 7 8 8 2 9 1 10 3 11
REMARK H PARENT 5 3 5 4 5 5
REMARK Flexibility Score: inf
ROOT
ATOM      1  C   UNL     1     119.982 147.392 133.209  1.00  0.00     0.230 C 
ENDROOT
BRANCH   1   2
ATOM      2  N   UNL     1     120.970 147.395 134.301  1.00  0.00    -0.350 N 
ATOM      3  H   UNL     1     120.832 148.227 134.916  1.00  0.00     0.345 HD
ATOM      4  H   UNL     1     121.933 147.456 133.897  1.00  0.00     0.345 HD
ATOM      5  H   UNL     1     120.908 146.524 134.875  1.00  0.00     0.345 HD
ENDBRANCH   1   2
BRANCH   1   6
ATOM      6  C   UNL     1     120.617 147.806 131.904  1.00  0.00     0.099 C 
ATOM      7  O   UNL     1     120.282 148.877 131.332  1.00  0.00    -0.544 OA
ATOM      8  O   UNL     1     121.619 147.020 131.348  1.00  0.00    -0.544 OA
ENDBRANCH   1   6
BRANCH   1   9
ATOM      9  C   UNL     1     119.242 146.028 133.059  1.00  0.00     0.047 C 
ATOM     10  C   UNL     1     118.587 145.535 134.360  1.00  0.00     0.014 C 
ATOM     11  C   UNL     1     118.207 146.060 131.925  1.00  0.00     0.014 C 
ENDBRANCH   1   9
TORSDOF 3
ENDMDL
MODEL 6
REMARK VINA RESULT:    -3.212      3.398      4.230
REMARK INTER + INTRA:          -3.738
REMARK INTER:                  -3.662
REMARK INTRA:                  -0.076
REMARK UNBOUND:                -0.056
REMARK SMILES CC(C)[C@@H]([NH3+])C(=O)[O-]
REMARK SMILES IDX 4 1 5 2 6 6 7 7 8 8 2 9 1 10 3 11
REMARK H PARENT 5 3 5 4 5 5
REMARK Flexibility Score: inf
ROOT
ATOM      1  C   UNL     1     119.289 146.475 132.354  1.00  0.00     0.230 C 
ENDROOT
BRANCH   1   2
ATOM      2  N   UNL     1     117.879 146.608 131.950  1.00  0.00    -0.350 N 
ATOM      3  H   UNL     1     117.513 145.696 131.598  1.00  0.00     0.345 HD
ATOM      4  H   UNL     1     117.806 147.301 131.170  1.00  0.00     0.345 HD
ATOM      5  H   UNL     1     117.284 146.940 132.743  1.00  0.00     0.345 HD
ENDBRANCH   1   2
BRANCH   1   6
ATOM      6  C   UNL     1     120.103 147.651 131.872  1.00  0.00     0.099 C 
ATOM      7  O   UNL     1     120.973 147.510 130.972  1.00  0.00    -0.544 OA
ATOM      8  O   UNL     1     119.857 148.916 132.392  1.00  0.00    -0.544 OA
ENDBRANCH   1   6
BRANCH   1   9
ATOM      9  C   UNL     1     119.467 146.268 133.889  1.00  0.00     0.047 C 
ATOM     10  C   UNL     1     118.465 145.272 134.497  1.00  0.00     0.014 C 
ATOM     11  C   UNL     1     120.904 145.858 134.247  1.00  0.00     0.014 C 
ENDBRANCH   1   9
TORSDOF 3
ENDMDL
MODEL 7
REMARK VINA RESULT:    -3.166     18.256     19.143
REMARK INTER + INTRA:          -3.684
REMARK INTER:                  -3.638
REMARK INTRA:                  -0.046
REMARK UNBOUND:                -0.056
REMARK SMILES CC(C)[C@@H]([NH3+])C(=O)[O-]
REMARK SMILES IDX 4 1 5 2 6 6 7 7 8 8 2 9 1 10 3 11
REMARK H PARENT 5 3 5 4 5 5
REMARK Flexibility Score: inf
ROOT
ATOM      1  C   UNL     1     131.462 160.865 135.068  1.00  0.00     0.230 C 
ENDROOT
BRANCH   1   2
ATOM      2  N   UNL     1     132.644 160.597 134.232  1.00  0.00    -0.350 N 
ATOM      3  H   UNL     1     133.194 161.472 134.085  1.00  0.00     0.345 HD
ATOM      4  H   UNL     1     132.334 160.257 133.292  1.00  0.00     0.345 HD
ATOM      5  H   UNL     1     133.259 159.868 134.660  1.00  0.00     0.345 HD
ENDBRANCH   1   2
BRANCH   1   6
ATOM      6  C   UNL     1     131.731 161.989 136.039  1.00  0.00     0.099 C 
ATOM      7  O   UNL     1     131.325 161.927 137.229  1.00  0.00    -0.544 OA
ATOM      8  O   UNL     1     132.478 163.087 135.629  1.00  0.00    -0.544 OA
ENDBRANCH   1   6
BRANCH   1   9
ATOM      9  C   UNL     1     130.175 161.147 134.234  1.00  0.00     0.047 C 
ATOM     10  C   UNL     1     130.440 161.308 132.728  1.00  0.00     0.014 C 
ATOM     11  C   UNL     1     129.095 160.081 134.472  1.00  0.00     0.014 C 
ENDBRANCH   1   9
TORSDOF 3
ENDMDL
MODEL 8
REMARK VINA RESULT:    -3.133     17.958     18.784
REMARK INTER + INTRA:          -3.647
REMARK INTER:                  -3.587
REMARK INTRA:                  -0.060
REMARK UNBOUND:                -0.056
REMARK SMILES CC(C)[C@@H]([NH3+])C(=O)[O-]
REMARK SMILES IDX 4 1 5 2 6 6 7 7 8 8 2 9 1 10 3 11
REMARK H PARENT 5 3 5 4 5 5
REMARK Flexibility Score: inf
ROOT
ATOM      1  C   UNL     1     130.490 161.268 133.646  1.00  0.00     0.230 C 
ENDROOT
BRANCH   1   2
ATOM      2  N   UNL     1     129.859 162.542 133.263  1.00  0.00    -0.350 N 
ATOM      3  H   UNL     1     129.695 162.573 132.233  1.00  0.00     0.345 HD
ATOM      4  H   UNL     1     130.500 163.332 133.505  1.00  0.00     0.345 HD
ATOM      5  H   UNL     1     128.953 162.686 133.764  1.00  0.00     0.345 HD
ENDBRANCH   1   2
BRANCH   1   6
ATOM      6  C   UNL     1     131.956 161.460 133.951  1.00  0.00     0.099 C 
ATOM      7  O   UNL     1     132.688 160.480 134.252  1.00  0.00    -0.544 OA
ATOM      8  O   UNL     1     132.517 162.727 133.854  1.00  0.00    -0.544 OA
ENDBRANCH   1   6
BRANCH   1   9
ATOM      9  C   UNL     1     129.764 160.559 134.831  1.00  0.00     0.047 C 
ATOM     10  C   UNL     1     129.379 161.511 135.975  1.00  0.00     0.014 C 
ATOM     11  C   UNL     1     128.532 159.774 134.359  1.00  0.00     0.014 C 
ENDBRANCH   1   9
TORSDOF 3
ENDMDL
MODEL 9
REMARK VINA RESULT:    -3.108      2.192      2.730
REMARK INTER + INTRA:          -3.618
REMARK INTER:                  -3.550
REMARK INTRA:                  -0.068
REMARK UNBOUND:                -0.056
REMARK SMILES CC(C)[C@@H]([NH3+])C(=O)[O-]
REMARK SMILES IDX 4 1 5 2 6 6 7 7 8 8 2 9 1 10 3 11
REMARK H PARENT 5 3 5 4 5 5
REMARK Flexibility Score: inf
ROOT
ATOM      1  C   UNL     1     120.294 146.609 133.256  1.00  0.00     0.230 C 
ENDROOT
BRANCH   1   2
ATOM      2  N   UNL     1     120.931 147.433 134.296  1.00  0.00    -0.350 N 
ATOM      3  H   UNL     1     120.533 147.208 135.235  1.00  0.00     0.345 HD
ATOM      4  H   UNL     1     120.739 148.443 134.105  1.00  0.00     0.345 HD
ATOM      5  H   UNL     1     121.967 147.291 134.315  1.00  0.00     0.345 HD
ENDBRANCH   1   2
BRANCH   1   6
ATOM      6  C   UNL     1     121.229 146.388 132.092  1.00  0.00     0.099 C 
ATOM      7  O   UNL     1     122.384 146.892 132.087  1.00  0.00    -0.544 OA
ATOM      8  O   UNL     1     120.831 145.581 131.034  1.00  0.00    -0.544 OA
ENDBRANCH   1   6
BRANCH   1   9
ATOM      9  C   UNL     1     119.753 145.251 133.799  1.00  0.00     0.047 C 
ATOM     10  C   UNL     1     120.770 144.480 134.656  1.00  0.00     0.014 C 
ATOM     11  C   UNL     1     118.437 145.427 134.571  1.00  0.00     0.014 C 
ENDBRANCH   1   9
TORSDOF 3
ENDMDL
