MODEL 1
REMARK VINA RESULT:    -5.635      0.000      0.000
REMARK INTER + INTRA:          -6.193
REMARK INTER:                  -6.129
REMARK INTRA:                  -0.064
REMARK UNBOUND:                -0.064
REMARK SMILES COc1cc2ccc(=O)oc2cc1O
REMARK SMILES IDX 3 1 13 2 12 3 11 4 5 5 4 6 6 7 7 8 8 9 9 10 10 11 2 12 1 13
REMARK SMILES IDX 14 14
REMARK H PARENT 14 15
REMARK Flexibility Score: inf
ROOT
ATOM      1  C   UNL     1      28.771  -3.927  30.079  1.00  0.00     0.161 A 
ATOM      2  C   UNL     1      27.421  -3.613  30.305  1.00  0.00     0.161 A 
ATOM      3  C   UNL     1      27.038  -2.294  30.585  1.00  0.00     0.098 A 
ATOM      4  C   UNL     1      27.997  -1.279  30.642  1.00  0.00     0.142 A 
ATOM      5  C   UNL     1      29.355  -1.584  30.416  1.00  0.00     0.022 A 
ATOM      6  C   UNL     1      29.739  -2.903  30.136  1.00  0.00     0.062 A 
ATOM      7  C   UNL     1      30.291  -0.547  30.479  1.00  0.00     0.019 A 
ATOM      8  C   UNL     1      29.859   0.748  30.762  1.00  0.00     0.094 A 
ATOM      9  C   UNL     1      28.495   0.977  30.974  1.00  0.00     0.336 A 
ATOM     10  O   UNL     1      28.085   2.139  31.230  1.00  0.00    -0.246 OA
ATOM     11  O   UNL     1      27.626  -0.028  30.908  1.00  0.00    -0.423 OA
ENDROOT
BRANCH   1  12
ATOM     12  O   UNL     1      29.109  -5.260  29.803  1.00  0.00    -0.493 OA
ATOM     13  C   UNL     1      29.626  -6.176  30.762  1.00  0.00     0.278 C 
ENDBRANCH   1  12
BRANCH   2  14
ATOM     14  O   UNL     1      26.463  -4.624  30.249  1.00  0.00    -0.504 OA
ATOM     15  H   UNL     1      25.513  -4.437  29.952  1.00  0.00     0.293 HD
ENDBRANCH   2  14
TORSDOF 2
ENDMDL
MODEL 2
REMARK VINA RESULT:    -5.586      1.492      2.472
REMARK INTER + INTRA:          -6.140
REMARK INTER:                  -6.084
REMARK INTRA:                  -0.056
REMARK UNBOUND:                -0.064
REMARK SMILES COc1cc2ccc(=O)oc2cc1O
REMARK SMILES IDX 3 1 13 2 12 3 11 4 5 5 4 6 6 7 7 8 8 9 9 10 10 11 2 12 1 13
REMARK SMILES IDX 14 14
REMARK H PARENT 14 15
REMARK Flexibility Score: inf
ROOT
ATOM      1  C   UNL     1      28.206  -4.126  30.536  1.00  0.00     0.161 A 
ATOM      2  C   UNL     1      29.515  -3.654  30.355  1.00  0.00     0.161 A 
ATOM      3  C   UNL     1      29.747  -2.300  30.074  1.00  0.00     0.098 A 
ATOM      4  C   UNL     1      28.677  -1.408  29.971  1.00  0.00     0.142 A 
ATOM      5  C   UNL     1      27.357  -1.873  30.151  1.00  0.00     0.022 A 
ATOM      6  C   UNL     1      27.124  -3.227  30.432  1.00  0.00     0.062 A 
ATOM      7  C   UNL     1      26.306  -0.957  30.041  1.00  0.00     0.019 A 
ATOM      8  C   UNL     1      26.590   0.378  29.760  1.00  0.00     0.094 A 
ATOM      9  C   UNL     1      27.924   0.768  29.594  1.00  0.00     0.336 A 
ATOM     10  O   UNL     1      28.200   1.970  29.340  1.00  0.00    -0.246 OA
ATOM     11  O   UNL     1      28.904  -0.124  29.704  1.00  0.00    -0.423 OA
ENDROOT
BRANCH   1  12
ATOM     12  O   UNL     1      28.020  -5.489  30.815  1.00  0.00    -0.493 OA
ATOM     13  C   UNL     1      27.738  -6.482  29.835  1.00  0.00     0.278 C 
ENDBRANCH   1  12
BRANCH   2  14
ATOM     14  O   UNL     1      30.585  -4.541  30.458  1.00  0.00    -0.504 OA
ATOM     15  H   UNL     1      30.614  -5.401  29.923  1.00  0.00     0.293 HD
ENDBRANCH   2  14
TORSDOF 2
ENDMDL
MODEL 3
REMARK VINA RESULT:    -5.577      1.202      4.903
REMARK INTER + INTRA:          -6.130
REMARK INTER:                  -6.095
REMARK INTRA:                  -0.036
REMARK UNBOUND:                -0.064
REMARK SMILES COc1cc2ccc(=O)oc2cc1O
REMARK SMILES IDX 3 1 13 2 12 3 11 4 5 5 4 6 6 7 7 8 8 9 9 10 10 11 2 12 1 13
REMARK SMILES IDX 14 14
REMARK H PARENT 14 15
REMARK Flexibility Score: inf
ROOT
ATOM      1  C   UNL     1      28.427  -0.284  30.336  1.00  0.00     0.161 A 
ATOM      2  C   UNL     1      27.084  -0.664  30.488  1.00  0.00     0.161 A 
ATOM      3  C   UNL     1      26.731  -2.021  30.509  1.00  0.00     0.098 A 
ATOM      4  C   UNL     1      27.712  -3.007  30.379  1.00  0.00     0.142 A 
ATOM      5  C   UNL     1      29.064  -2.634  30.225  1.00  0.00     0.022 A 
ATOM      6  C   UNL     1      29.419  -1.277  30.204  1.00  0.00     0.062 A 
ATOM      7  C   UNL     1      30.024  -3.643  30.097  1.00  0.00     0.019 A 
ATOM      8  C   UNL     1      29.620  -4.977  30.124  1.00  0.00     0.094 A 
ATOM      9  C   UNL     1      28.262  -5.273  30.280  1.00  0.00     0.336 A 
ATOM     10  O   UNL     1      27.878  -6.471  30.307  1.00  0.00    -0.246 OA
ATOM     11  O   UNL     1      27.370  -4.293  30.400  1.00  0.00    -0.423 OA
ENDROOT
BRANCH   1  12
ATOM     12  O   UNL     1      28.735   1.085  30.319  1.00  0.00    -0.493 OA
ATOM     13  C   UNL     1      29.044   1.857  31.476  1.00  0.00     0.278 C 
ENDBRANCH   1  12
BRANCH   2  14
ATOM     14  O   UNL     1      26.104   0.318  30.619  1.00  0.00    -0.504 OA
ATOM     15  H   UNL     1      25.819   0.891  29.834  1.00  0.00     0.293 HD
ENDBRANCH   2  14
TORSDOF 2
ENDMDL
MODEL 4
REMARK VINA RESULT:    -5.572      1.383      5.380
REMARK INTER + INTRA:          -6.125
REMARK INTER:                  -6.105
REMARK INTRA:                  -0.020
REMARK UNBOUND:                -0.064
REMARK SMILES COc1cc2ccc(=O)oc2cc1O
REMARK SMILES IDX 3 1 13 2 12 3 11 4 5 5 4 6 6 7 7 8 8 9 9 10 10 11 2 12 1 13
REMARK SMILES IDX 14 14
REMARK H PARENT 14 15
REMARK Flexibility Score: inf
ROOT
ATOM      1  C   UNL     1      28.064  -0.198  30.345  1.00  0.00     0.161 A 
ATOM      2  C   UNL     1      29.448  -0.375  30.189  1.00  0.00     0.161 A 
ATOM      3  C   UNL     1      29.997  -1.664  30.155  1.00  0.00     0.098 A 
ATOM      4  C   UNL     1      29.172  -2.785  30.276  1.00  0.00     0.142 A 
ATOM      5  C   UNL     1      27.780  -2.617  30.434  1.00  0.00     0.022 A 
ATOM      6  C   UNL     1      27.230  -1.328  30.469  1.00  0.00     0.062 A 
ATOM      7  C   UNL     1      26.980  -3.758  30.553  1.00  0.00     0.019 A 
ATOM      8  C   UNL     1      27.576  -5.018  30.514  1.00  0.00     0.094 A 
ATOM      9  C   UNL     1      28.963  -5.108  30.354  1.00  0.00     0.336 A 
ATOM     10  O   UNL     1      29.519  -6.237  30.315  1.00  0.00    -0.246 OA
ATOM     11  O   UNL     1      29.701  -4.006  30.243  1.00  0.00    -0.423 OA
ENDROOT
BRANCH   1  12
ATOM     12  O   UNL     1      27.557   1.111  30.375  1.00  0.00    -0.493 OA
ATOM     13  C   UNL     1      27.195   1.862  29.221  1.00  0.00     0.278 C 
ENDBRANCH   1  12
BRANCH   2  14
ATOM     14  O   UNL     1      30.272   0.742  30.067  1.00  0.00    -0.504 OA
ATOM     15  H   UNL     1      29.909   1.683  30.167  1.00  0.00     0.293 HD
ENDBRANCH   2  14
TORSDOF 2
ENDMDL
MODEL 5
REMARK VINA RESULT:    -5.470      1.378      5.528
REMARK INTER + INTRA:          -6.013
REMARK INTER:                  -5.966
REMARK INTRA:                  -0.046
REMARK UNBOUND:                -0.064
REMARK SMILES COc1cc2ccc(=O)oc2cc1O
REMARK SMILES IDX 3 1 13 2 12 3 11 4 5 5 4 6 6 7 7 8 8 9 9 10 10 11 2 12 1 13
REMARK SMILES IDX 14 14
REMARK H PARENT 14 15
REMARK Flexibility Score: inf
ROOT
ATOM      1  C   UNL     1      28.374  -1.319  30.785  1.00  0.00     0.161 A 
ATOM      2  C   UNL     1      29.701  -1.585  30.412  1.00  0.00     0.161 A 
ATOM      3  C   UNL     1      30.083  -2.878  30.027  1.00  0.00     0.098 A 
ATOM      4  C   UNL     1      29.146  -3.914  30.012  1.00  0.00     0.142 A 
ATOM      5  C   UNL     1      27.810  -3.656  30.385  1.00  0.00     0.022 A 
ATOM      6  C   UNL     1      27.427  -2.364  30.771  1.00  0.00     0.062 A 
ATOM      7  C   UNL     1      26.895  -4.714  30.360  1.00  0.00     0.019 A 
ATOM      8  C   UNL     1      27.325  -5.981  29.970  1.00  0.00     0.094 A 
ATOM      9  C   UNL     1      28.665  -6.163  29.612  1.00  0.00     0.336 A 
ATOM     10  O   UNL     1      29.073  -7.299  29.256  1.00  0.00    -0.246 OA
ATOM     11  O   UNL     1      29.515  -5.139  29.645  1.00  0.00    -0.423 OA
ENDROOT
BRANCH   1  12
ATOM     12  O   UNL     1      28.036  -0.011  31.165  1.00  0.00    -0.493 OA
ATOM     13  C   UNL     1      27.540   0.984  30.276  1.00  0.00     0.278 C 
ENDBRANCH   1  12
BRANCH   2  14
ATOM     14  O   UNL     1      30.637  -0.553  30.426  1.00  0.00    -0.504 OA
ATOM     15  H   UNL     1      31.606  -0.712  30.177  1.00  0.00     0.293 HD
ENDBRANCH   2  14
TORSDOF 2
ENDMDL
MODEL 6
REMARK VINA RESULT:    -5.238      2.232      6.099
REMARK INTER + INTRA:          -5.761
REMARK INTER:                  -5.696
REMARK INTRA:                  -0.065
REMARK UNBOUND:                -0.064
REMARK SMILES COc1cc2ccc(=O)oc2cc1O
REMARK SMILES IDX 3 1 13 2 12 3 11 4 5 5 4 6 6 7 7 8 8 9 9 10 10 11 2 12 1 13
REMARK SMILES IDX 14 14
REMARK H PARENT 14 15
REMARK Flexibility Score: inf
ROOT
ATOM      1  C   UNL     1      28.238   2.930  30.852  1.00  0.00     0.161 A 
ATOM      2  C   UNL     1      29.101   2.476  31.862  1.00  0.00     0.161 A 
ATOM      3  C   UNL     1      29.545   1.146  31.869  1.00  0.00     0.098 A 
ATOM      4  C   UNL     1      29.131   0.260  30.871  1.00  0.00     0.142 A 
ATOM      5  C   UNL     1      28.264   0.707  29.852  1.00  0.00     0.022 A 
ATOM      6  C   UNL     1      27.819   2.036  29.844  1.00  0.00     0.062 A 
ATOM      7  C   UNL     1      27.867  -0.204  28.867  1.00  0.00     0.019 A 
ATOM      8  C   UNL     1      28.336  -1.516  28.920  1.00  0.00     0.094 A 
ATOM      9  C   UNL     1      29.195  -1.888  29.960  1.00  0.00     0.336 A 
ATOM     10  O   UNL     1      29.630  -3.067  30.024  1.00  0.00    -0.246 OA
ATOM     11  O   UNL     1      29.556  -1.002  30.884  1.00  0.00    -0.423 OA
ENDROOT
BRANCH   1  12
ATOM     12  O   UNL     1      27.818   4.268  30.884  1.00  0.00    -0.493 OA
ATOM     13  C   UNL     1      28.366   5.306  30.077  1.00  0.00     0.278 C 
ENDBRANCH   1  12
BRANCH   2  14
ATOM     14  O   UNL     1      29.515   3.358  32.857  1.00  0.00    -0.504 OA
ATOM     15  H   UNL     1      29.495   4.362  32.718  1.00  0.00     0.293 HD
ENDBRANCH   2  14
TORSDOF 2
ENDMDL
MODEL 7
REMARK VINA RESULT:    -5.183      2.294      5.849
REMARK INTER + INTRA:          -5.702
REMARK INTER:                  -5.640
REMARK INTRA:                  -0.061
REMARK UNBOUND:                -0.064
REMARK SMILES COc1cc2ccc(=O)oc2cc1O
REMARK SMILES IDX 3 1 13 2 12 3 11 4 5 5 4 6 6 7 7 8 8 9 9 10 10 11 2 12 1 13
REMARK SMILES IDX 14 14
REMARK H PARENT 14 15
REMARK Flexibility Score: inf
ROOT
ATOM      1  C   UNL     1      27.821   2.778  29.882  1.00  0.00     0.161 A 
ATOM      2  C   UNL     1      27.027   2.263  28.845  1.00  0.00     0.161 A 
ATOM      3  C   UNL     1      26.755   0.890  28.777  1.00  0.00     0.098 A 
ATOM      4  C   UNL     1      27.273   0.020  29.740  1.00  0.00     0.142 A 
ATOM      5  C   UNL     1      28.073   0.528  30.786  1.00  0.00     0.022 A 
ATOM      6  C   UNL     1      28.345   1.902  30.855  1.00  0.00     0.062 A 
ATOM      7  C   UNL     1      28.578  -0.366  31.735  1.00  0.00     0.019 A 
ATOM      8  C   UNL     1      28.278  -1.723  31.622  1.00  0.00     0.094 A 
ATOM      9  C   UNL     1      27.478  -2.156  30.559  1.00  0.00     0.336 A 
ATOM     10  O   UNL     1      27.197  -3.377  30.440  1.00  0.00    -0.246 OA
ATOM     11  O   UNL     1      27.011  -1.283  29.669  1.00  0.00    -0.423 OA
ENDROOT
BRANCH   1  12
ATOM     12  O   UNL     1      28.068   4.159  29.911  1.00  0.00    -0.493 OA
ATOM     13  C   UNL     1      27.345   5.092  30.707  1.00  0.00     0.278 C 
ENDBRANCH   1  12
BRANCH   2  14
ATOM     14  O   UNL     1      26.508   3.129  27.884  1.00  0.00    -0.504 OA
ATOM     15  H   UNL     1      27.025   3.358  27.043  1.00  0.00     0.293 HD
ENDBRANCH   2  14
TORSDOF 2
ENDMDL
MODEL 8
REMARK VINA RESULT:    -5.171      2.293      3.984
REMARK INTER + INTRA:          -5.688
REMARK INTER:                  -5.680
REMARK INTRA:                  -0.008
REMARK UNBOUND:                -0.064
REMARK SMILES COc1cc2ccc(=O)oc2cc1O
REMARK SMILES IDX 3 1 13 2 12 3 11 4 5 5 4 6 6 7 7 8 8 9 9 10 10 11 2 12 1 13
REMARK SMILES IDX 14 14
REMARK H PARENT 14 15
REMARK Flexibility Score: inf
ROOT
ATOM      1  C   UNL     1      28.119  -0.564  30.091  1.00  0.00     0.161 A 
ATOM      2  C   UNL     1      28.794  -0.190  31.263  1.00  0.00     0.161 A 
ATOM      3  C   UNL     1      28.894   1.162  31.622  1.00  0.00     0.098 A 
ATOM      4  C   UNL     1      28.322   2.149  30.815  1.00  0.00     0.142 A 
ATOM      5  C   UNL     1      27.643   1.782  29.634  1.00  0.00     0.022 A 
ATOM      6  C   UNL     1      27.543   0.431  29.275  1.00  0.00     0.062 A 
ATOM      7  C   UNL     1      27.082   2.792  28.847  1.00  0.00     0.019 A 
ATOM      8  C   UNL     1      27.209   4.122  29.247  1.00  0.00     0.094 A 
ATOM      9  C   UNL     1      27.897   4.411  30.431  1.00  0.00     0.336 A 
ATOM     10  O   UNL     1      28.022   5.605  30.809  1.00  0.00    -0.246 OA
ATOM     11  O   UNL     1      28.421   3.430  31.161  1.00  0.00    -0.423 OA
ENDROOT
BRANCH   1  12
ATOM     12  O   UNL     1      28.045  -1.929  29.770  1.00  0.00    -0.493 OA
ATOM     13  C   UNL     1      27.058  -2.823  30.274  1.00  0.00     0.278 C 
ENDBRANCH   1  12
BRANCH   2  14
ATOM     14  O   UNL     1      29.364  -1.173  32.071  1.00  0.00    -0.504 OA
ATOM     15  H   UNL     1      28.971  -1.411  32.974  1.00  0.00     0.293 HD
ENDBRANCH   2  14
TORSDOF 2
ENDMDL
MODEL 9
REMARK VINA RESULT:    -5.104      2.156      3.406
REMARK INTER + INTRA:          -5.615
REMARK INTER:                  -5.613
REMARK INTRA:                  -0.001
REMARK UNBOUND:                -0.064
REMARK SMILES COc1cc2ccc(=O)oc2cc1O
REMARK SMILES IDX 3 1 13 2 12 3 11 4 5 5 4 6 6 7 7 8 8 9 9 10 10 11 2 12 1 13
REMARK SMILES IDX 14 14
REMARK H PARENT 14 15
REMARK Flexibility Score: inf
ROOT
ATOM      1  C   UNL     1      28.404  -0.803  30.502  1.00  0.00     0.161 A 
ATOM      2  C   UNL     1      27.674  -0.489  29.345  1.00  0.00     0.161 A 
ATOM      3  C   UNL     1      27.396   0.847  29.024  1.00  0.00     0.098 A 
ATOM      4  C   UNL     1      27.843   1.879  29.854  1.00  0.00     0.142 A 
ATOM      5  C   UNL     1      28.577   1.572  31.020  1.00  0.00     0.022 A 
ATOM      6  C   UNL     1      28.855   0.237  31.341  1.00  0.00     0.062 A 
ATOM      7  C   UNL     1      29.010   2.626  31.831  1.00  0.00     0.019 A 
ATOM      8  C   UNL     1      28.706   3.938  31.468  1.00  0.00     0.094 A 
ATOM      9  C   UNL     1      27.975   4.166  30.298  1.00  0.00     0.336 A 
ATOM     10  O   UNL     1      27.692   5.343  29.953  1.00  0.00    -0.246 OA
ATOM     11  O   UNL     1      27.575   3.145  29.544  1.00  0.00    -0.423 OA
ENDROOT
BRANCH   1  12
ATOM     12  O   UNL     1      28.659  -2.154  30.785  1.00  0.00    -0.493 OA
ATOM     13  C   UNL     1      29.737  -2.904  30.235  1.00  0.00     0.278 C 
ENDBRANCH   1  12
BRANCH   2  14
ATOM     14  O   UNL     1      27.229  -1.516  28.515  1.00  0.00    -0.504 OA
ATOM     15  H   UNL     1      27.107  -1.378  27.519  1.00  0.00     0.293 HD
ENDBRANCH   2  14
TORSDOF 2
ENDMDL
