MODEL 1
REMARK VINA RESULT:    -5.277      0.000      0.000
REMARK INTER + INTRA:          -9.123
REMARK INTER:                  -8.053
REMARK INTRA:                  -1.070
REMARK UNBOUND:                -1.070
REMARK SMILES C=CCCCCCCCCCC
REMARK SMILES IDX 7 1 8 2 9 3 10 4 11 5 12 6 6 7 5 8 4 9 3 10 2 11 1 12
REMARK H PARENT
REMARK Flexibility Score: inf
ROOT
ATOM      1  C   UNL     1     137.693 135.634 125.662  1.00  0.00     0.000 C 
ENDROOT
BRANCH   1   2
ATOM      2  C   UNL     1     139.169 135.292 125.407  1.00  0.00    -0.000 C 
BRANCH   2   3
ATOM      3  C   UNL     1     139.738 136.018 124.177  1.00  0.00    -0.000 C 
BRANCH   3   4
ATOM      4  C   UNL     1     140.069 135.059 123.018  1.00  0.00    -0.000 C 
BRANCH   4   5
ATOM      5  C   UNL     1     139.022 135.027 121.890  1.00  0.00    -0.003 C 
ATOM      6  C   UNL     1     138.547 136.419 121.476  1.00  0.00     0.004 C 
ENDBRANCH   4   5
ENDBRANCH   3   4
ENDBRANCH   2   3
ENDBRANCH   1   2
BRANCH   1   7
ATOM      7  C   UNL     1     136.746 134.922 124.680  1.00  0.00     0.000 C 
BRANCH   7   8
ATOM      8  C   UNL     1     135.963 135.902 123.787  1.00  0.00     0.000 C 
BRANCH   8   9
ATOM      9  C   UNL     1     136.166 137.390 124.127  1.00  0.00     0.004 C 
BRANCH   9  10
ATOM     10  C   UNL     1     135.588 138.330 123.060  1.00  0.00     0.027 C 
BRANCH  10  11
ATOM     11  C   UNL     1     135.074 139.602 123.679  1.00  0.00    -0.035 C 
ATOM     12  C   UNL     1     135.606 140.104 124.798  1.00  0.00     0.004 C 
ENDBRANCH  10  11
ENDBRANCH   9  10
ENDBRANCH   8   9
ENDBRANCH   7   8
ENDBRANCH   1   7
TORSDOF 9
ENDMDL
MODEL 2
REMARK VINA RESULT:    -5.176      0.722      4.539
REMARK INTER + INTRA:          -8.968
REMARK INTER:                  -7.649
REMARK INTRA:                  -1.319
REMARK UNBOUND:                -1.070
REMARK SMILES C=CCCCCCCCCCC
REMARK SMILES IDX 7 1 8 2 9 3 10 4 11 5 12 6 6 7 5 8 4 9 3 10 2 11 1 12
REMARK H PARENT
REMARK Flexibility Score: inf
ROOT
ATOM      1  C   UNL     1     137.366 135.842 125.645  1.00  0.00     0.000 C 
ENDROOT
BRANCH   1   2
ATOM      2  C   UNL     1     136.339 135.467 124.565  1.00  0.00    -0.000 C 
BRANCH   2   3
ATOM      3  C   UNL     1     135.929 136.671 123.700  1.00  0.00    -0.000 C 
BRANCH   3   4
ATOM      4  C   UNL     1     136.728 137.945 124.031  1.00  0.00    -0.000 C 
BRANCH   4   5
ATOM      5  C   UNL     1     135.877 139.126 124.530  1.00  0.00    -0.003 C 
ATOM      6  C   UNL     1     134.875 139.624 123.489  1.00  0.00     0.004 C 
ENDBRANCH   4   5
ENDBRANCH   3   4
ENDBRANCH   2   3
ENDBRANCH   1   2
BRANCH   1   7
ATOM      7  C   UNL     1     138.583 134.900 125.651  1.00  0.00     0.000 C 
BRANCH   7   8
ATOM      8  C   UNL     1     139.903 135.627 125.336  1.00  0.00     0.000 C 
BRANCH   8   9
ATOM      9  C   UNL     1     140.031 136.138 123.889  1.00  0.00     0.004 C 
BRANCH   9  10
ATOM     10  C   UNL     1     139.993 135.006 122.851  1.00  0.00     0.027 C 
BRANCH  10  11
ATOM     11  C   UNL     1     138.855 135.196 121.885  1.00  0.00    -0.035 C 
ATOM     12  C   UNL     1     138.599 136.382 121.324  1.00  0.00     0.004 C 
ENDBRANCH  10  11
ENDBRANCH   9  10
ENDBRANCH   8   9
ENDBRANCH   7   8
ENDBRANCH   1   7
TORSDOF 9
ENDMDL
MODEL 3
REMARK VINA RESULT:    -5.076      0.934      2.698
REMARK INTER + INTRA:          -8.816
REMARK INTER:                  -7.841
REMARK INTRA:                  -0.975
REMARK UNBOUND:                -1.070
REMARK SMILES C=CCCCCCCCCCC
REMARK SMILES IDX 7 1 8 2 9 3 10 4 11 5 12 6 6 7 5 8 4 9 3 10 2 11 1 12
REMARK H PARENT
REMARK Flexibility Score: inf
ROOT
ATOM      1  C   UNL     1     139.382 135.652 121.885  1.00  0.00     0.000 C 
ENDROOT
BRANCH   1   2
ATOM      2  C   UNL     1     140.002 135.109 123.182  1.00  0.00    -0.000 C 
BRANCH   2   3
ATOM      3  C   UNL     1     139.831 136.076 124.366  1.00  0.00    -0.000 C 
BRANCH   3   4
ATOM      4  C   UNL     1     139.252 135.390 125.618  1.00  0.00    -0.000 C 
BRANCH   4   5
ATOM      5  C   UNL     1     137.810 134.876 125.460  1.00  0.00    -0.003 C 
ATOM      6  C   UNL     1     136.758 135.944 125.759  1.00  0.00     0.004 C 
ENDBRANCH   4   5
ENDBRANCH   3   4
ENDBRANCH   2   3
ENDBRANCH   1   2
BRANCH   1   7
ATOM      7  C   UNL     1     137.881 135.960 122.034  1.00  0.00     0.000 C 
BRANCH   7   8
ATOM      8  C   UNL     1     137.550 137.445 121.804  1.00  0.00     0.000 C 
BRANCH   8   9
ATOM      9  C   UNL     1     137.042 138.195 123.049  1.00  0.00     0.004 C 
BRANCH   9  10
ATOM     10  C   UNL     1     135.517 138.115 123.213  1.00  0.00     0.027 C 
BRANCH  10  11
ATOM     11  C   UNL     1     134.946 139.446 123.621  1.00  0.00    -0.035 C 
ATOM     12  C   UNL     1     135.476 140.164 124.616  1.00  0.00     0.004 C 
ENDBRANCH  10  11
ENDBRANCH   9  10
ENDBRANCH   8   9
ENDBRANCH   7   8
ENDBRANCH   1   7
TORSDOF 9
ENDMDL
MODEL 4
REMARK VINA RESULT:    -4.850      0.953      4.542
REMARK INTER + INTRA:          -8.472
REMARK INTER:                  -7.213
REMARK INTRA:                  -1.259
REMARK UNBOUND:                -1.070
REMARK SMILES C=CCCCCCCCCCC
REMARK SMILES IDX 7 1 8 2 9 3 10 4 11 5 12 6 6 7 5 8 4 9 3 10 2 11 1 12
REMARK H PARENT
REMARK Flexibility Score: inf
ROOT
ATOM      1  C   UNL     1     138.406 135.278 122.098  1.00  0.00     0.000 C 
ENDROOT
BRANCH   1   2
ATOM      2  C   UNL     1     138.249 136.754 121.702  1.00  0.00    -0.000 C 
BRANCH   2   3
ATOM      3  C   UNL     1     136.968 137.384 122.273  1.00  0.00    -0.000 C 
BRANCH   3   4
ATOM      4  C   UNL     1     137.250 138.415 123.381  1.00  0.00    -0.000 C 
BRANCH   4   5
ATOM      5  C   UNL     1     136.084 138.644 124.359  1.00  0.00    -0.003 C 
ATOM      6  C   UNL     1     135.208 139.836 123.977  1.00  0.00     0.004 C 
ENDBRANCH   4   5
ENDBRANCH   3   4
ENDBRANCH   2   3
ENDBRANCH   1   2
BRANCH   1   7
ATOM      7  C   UNL     1     139.738 135.000 122.817  1.00  0.00     0.000 C 
BRANCH   7   8
ATOM      8  C   UNL     1     140.182 136.162 123.724  1.00  0.00     0.000 C 
BRANCH   8   9
ATOM      9  C   UNL     1     139.789 136.012 125.205  1.00  0.00     0.004 C 
BRANCH   9  10
ATOM     10  C   UNL     1     138.785 134.875 125.445  1.00  0.00     0.027 C 
BRANCH  10  11
ATOM     11  C   UNL     1     137.388 135.411 125.607  1.00  0.00    -0.035 C 
ATOM     12  C   UNL     1     136.368 134.947 124.880  1.00  0.00     0.004 C 
ENDBRANCH  10  11
ENDBRANCH   9  10
ENDBRANCH   8   9
ENDBRANCH   7   8
ENDBRANCH   1   7
TORSDOF 9
ENDMDL
MODEL 5
REMARK VINA RESULT:    -4.628     14.265     16.565
REMARK INTER + INTRA:          -8.132
REMARK INTER:                  -6.956
REMARK INTRA:                  -1.177
REMARK UNBOUND:                -1.070
REMARK SMILES C=CCCCCCCCCCC
REMARK SMILES IDX 7 1 8 2 9 3 10 4 11 5 12 6 6 7 5 8 4 9 3 10 2 11 1 12
REMARK H PARENT
REMARK Flexibility Score: inf
ROOT
ATOM      1  C   UNL     1     136.270 151.186 124.808  1.00  0.00     0.000 C 
ENDROOT
BRANCH   1   2
ATOM      2  C   UNL     1     135.838 150.544 123.481  1.00  0.00    -0.000 C 
BRANCH   2   3
ATOM      3  C   UNL     1     134.875 151.437 122.680  1.00  0.00    -0.000 C 
BRANCH   3   4
ATOM      4  C   UNL     1     135.557 152.132 121.487  1.00  0.00    -0.000 C 
BRANCH   4   5
ATOM      5  C   UNL     1     137.018 152.549 121.735  1.00  0.00    -0.003 C 
ATOM      6  C   UNL     1     137.769 152.890 120.448  1.00  0.00     0.004 C 
ENDBRANCH   4   5
ENDBRANCH   3   4
ENDBRANCH   2   3
ENDBRANCH   1   2
BRANCH   1   7
ATOM      7  C   UNL     1     135.157 152.042 125.437  1.00  0.00     0.000 C 
BRANCH   7   8
ATOM      8  C   UNL     1     135.578 153.507 125.651  1.00  0.00     0.000 C 
BRANCH   8   9
ATOM      9  C   UNL     1     135.335 154.433 124.445  1.00  0.00     0.004 C 
BRANCH   9  10
ATOM     10  C   UNL     1     136.630 155.049 123.895  1.00  0.00     0.027 C 
BRANCH  10  11
ATOM     11  C   UNL     1     137.831 154.552 124.652  1.00  0.00    -0.035 C 
ATOM     12  C   UNL     1     139.069 154.669 124.163  1.00  0.00     0.004 C 
ENDBRANCH  10  11
ENDBRANCH   9  10
ENDBRANCH   8   9
ENDBRANCH   7   8
ENDBRANCH   1   7
TORSDOF 9
ENDMDL
MODEL 6
REMARK VINA RESULT:    -4.396     14.291     16.846
REMARK INTER + INTRA:          -7.778
REMARK INTER:                  -6.593
REMARK INTRA:                  -1.186
REMARK UNBOUND:                -1.070
REMARK SMILES C=CCCCCCCCCCC
REMARK SMILES IDX 7 1 8 2 9 3 10 4 11 5 12 6 6 7 5 8 4 9 3 10 2 11 1 12
REMARK H PARENT
REMARK Flexibility Score: inf
ROOT
ATOM      1  C   UNL     1     136.123 153.498 125.946  1.00  0.00     0.000 C 
ENDROOT
BRANCH   1   2
ATOM      2  C   UNL     1     135.517 154.221 124.733  1.00  0.00    -0.000 C 
BRANCH   2   3
ATOM      3  C   UNL     1     136.549 155.081 123.984  1.00  0.00    -0.000 C 
BRANCH   3   4
ATOM      4  C   UNL     1     137.772 154.271 123.512  1.00  0.00    -0.000 C 
BRANCH   4   5
ATOM      5  C   UNL     1     139.105 155.039 123.551  1.00  0.00    -0.003 C 
ATOM      6  C   UNL     1     139.717 155.105 124.950  1.00  0.00     0.004 C 
ENDBRANCH   4   5
ENDBRANCH   3   4
ENDBRANCH   2   3
ENDBRANCH   1   2
BRANCH   1   7
ATOM      7  C   UNL     1     135.666 152.032 126.045  1.00  0.00     0.000 C 
BRANCH   7   8
ATOM      8  C   UNL     1     134.932 151.547 124.782  1.00  0.00     0.000 C 
BRANCH   8   9
ATOM      9  C   UNL     1     135.731 150.565 123.906  1.00  0.00     0.004 C 
BRANCH   9  10
ATOM     10  C   UNL     1     135.319 150.613 122.427  1.00  0.00     0.027 C 
BRANCH  10  11
ATOM     11  C   UNL     1     135.762 151.899 121.783  1.00  0.00    -0.035 C 
ATOM     12  C   UNL     1     134.893 152.864 121.471  1.00  0.00     0.004 C 
ENDBRANCH  10  11
ENDBRANCH   9  10
ENDBRANCH   8   9
ENDBRANCH   7   8
ENDBRANCH   1   7
TORSDOF 9
ENDMDL
MODEL 7
REMARK VINA RESULT:    -4.222      0.912      2.853
REMARK INTER + INTRA:          -7.513
REMARK INTER:                  -6.746
REMARK INTRA:                  -0.767
REMARK UNBOUND:                -1.070
REMARK SMILES C=CCCCCCCCCCC
REMARK SMILES IDX 7 1 8 2 9 3 10 4 11 5 12 6 6 7 5 8 4 9 3 10 2 11 1 12
REMARK H PARENT
REMARK Flexibility Score: inf
ROOT
ATOM      1  C   UNL     1     140.250 135.300 123.152  1.00  0.00     0.000 C 
ENDROOT
BRANCH   1   2
ATOM      2  C   UNL     1     140.155 136.470 124.142  1.00  0.00    -0.000 C 
BRANCH   2   3
ATOM      3  C   UNL     1     139.642 136.033 125.524  1.00  0.00    -0.000 C 
BRANCH   3   4
ATOM      4  C   UNL     1     138.629 134.875 125.447  1.00  0.00    -0.000 C 
BRANCH   4   5
ATOM      5  C   UNL     1     137.165 135.285 125.686  1.00  0.00    -0.003 C 
ATOM      6  C   UNL     1     136.293 135.145 124.438  1.00  0.00     0.004 C 
ENDBRANCH   4   5
ENDBRANCH   3   4
ENDBRANCH   2   3
ENDBRANCH   1   2
BRANCH   1   7
ATOM      7  C   UNL     1     139.006 135.188 122.252  1.00  0.00     0.000 C 
BRANCH   7   8
ATOM      8  C   UNL     1     138.704 136.488 121.485  1.00  0.00     0.000 C 
BRANCH   8   9
ATOM      9  C   UNL     1     137.364 137.155 121.844  1.00  0.00     0.004 C 
BRANCH   9  10
ATOM     10  C   UNL     1     137.481 138.136 123.020  1.00  0.00     0.027 C 
BRANCH  10  11
ATOM     11  C   UNL     1     136.221 138.943 123.179  1.00  0.00    -0.035 C 
ATOM     12  C   UNL     1     135.713 139.223 124.383  1.00  0.00     0.004 C 
ENDBRANCH  10  11
ENDBRANCH   9  10
ENDBRANCH   8   9
ENDBRANCH   7   8
ENDBRANCH   1   7
TORSDOF 9
ENDMDL
MODEL 8
REMARK VINA RESULT:    -4.053     14.454     16.726
REMARK INTER + INTRA:          -7.255
REMARK INTER:                  -6.170
REMARK INTRA:                  -1.085
REMARK UNBOUND:                -1.070
REMARK SMILES C=CCCCCCCCCCC
REMARK SMILES IDX 7 1 8 2 9 3 10 4 11 5 12 6 6 7 5 8 4 9 3 10 2 11 1 12
REMARK H PARENT
REMARK Flexibility Score: inf
ROOT
ATOM      1  C   UNL     1     138.494 154.005 123.630  1.00  0.00     0.000 C 
ENDROOT
BRANCH   1   2
ATOM      2  C   UNL     1     137.841 152.751 123.029  1.00  0.00    -0.000 C 
BRANCH   2   3
ATOM      3  C   UNL     1     137.559 152.898 121.524  1.00  0.00    -0.000 C 
BRANCH   3   4
ATOM      4  C   UNL     1     136.348 152.067 121.060  1.00  0.00    -0.000 C 
BRANCH   4   5
ATOM      5  C   UNL     1     135.199 151.981 122.079  1.00  0.00    -0.003 C 
ATOM      6  C   UNL     1     134.971 150.563 122.605  1.00  0.00     0.004 C 
ENDBRANCH   4   5
ENDBRANCH   3   4
ENDBRANCH   2   3
ENDBRANCH   1   2
BRANCH   1   7
ATOM      7  C   UNL     1     137.503 154.847 124.453  1.00  0.00     0.000 C 
BRANCH   7   8
ATOM      8  C   UNL     1     136.135 155.004 123.764  1.00  0.00     0.000 C 
BRANCH   8   9
ATOM      9  C   UNL     1     134.940 154.463 124.570  1.00  0.00     0.004 C 
BRANCH   9  10
ATOM     10  C   UNL     1     135.367 153.599 125.765  1.00  0.00     0.027 C 
BRANCH  10  11
ATOM     11  C   UNL     1     134.875 152.185 125.614  1.00  0.00    -0.035 C 
ATOM     12  C   UNL     1     135.465 151.164 126.244  1.00  0.00     0.004 C 
ENDBRANCH  10  11
ENDBRANCH   9  10
ENDBRANCH   8   9
ENDBRANCH   7   8
ENDBRANCH   1   7
TORSDOF 9
ENDMDL
