MODEL 1
REMARK VINA RESULT:    -3.483      0.000      0.000
REMARK INTER + INTRA:          -4.362
REMARK INTER:                  -4.297
REMARK INTRA:                  -0.065
REMARK UNBOUND:                -0.065
REMARK SMILES CCCCCC(=O)[O-]
REMARK SMILES IDX 4 1 5 2 6 3 7 4 8 5 3 6 2 7 1 8
REMARK H PARENT
REMARK Flexibility Score: inf
ROOT
ATOM      1  C   UNL     1      -7.825 -14.257  15.002  1.00  0.00     0.006 C 
ENDROOT
BRANCH   1   2
ATOM      2  C   UNL     1      -8.001 -15.121  16.254  1.00  0.00     0.053 C 
BRANCH   2   3
ATOM      3  C   UNL     1      -7.851 -14.292  17.489  1.00  0.00     0.041 C 
ATOM      4  O   UNL     1      -7.064 -13.309  17.501  1.00  0.00    -0.550 OA
ATOM      5  O   UNL     1      -8.544 -14.632  18.644  1.00  0.00    -0.550 OA
ENDBRANCH   2   3
ENDBRANCH   1   2
BRANCH   1   6
ATOM      6  C   UNL     1      -8.647 -14.809  13.831  1.00  0.00     0.000 C 
BRANCH   6   7
ATOM      7  C   UNL     1      -7.864 -15.881  13.066  1.00  0.00    -0.003 C 
ATOM      8  C   UNL     1      -8.707 -16.487  11.947  1.00  0.00     0.004 C 
ENDBRANCH   6   7
ENDBRANCH   1   6
TORSDOF 4
ENDMDL
MODEL 2
REMARK VINA RESULT:    -3.438      2.036      2.310
REMARK INTER + INTRA:          -4.307
REMARK INTER:                  -4.174
REMARK INTRA:                  -0.133
REMARK UNBOUND:                -0.065
REMARK SMILES CCCCCC(=O)[O-]
REMARK SMILES IDX 4 1 5 2 6 3 7 4 8 5 3 6 2 7 1 8
REMARK H PARENT
REMARK Flexibility Score: inf
ROOT
ATOM      1  C   UNL     1      -7.505 -14.113  14.644  1.00  0.00     0.006 C 
ENDROOT
BRANCH   1   2
ATOM      2  C   UNL     1      -8.822 -14.055  15.423  1.00  0.00     0.053 C 
BRANCH   2   3
ATOM      3  C   UNL     1      -9.305 -12.644  15.531  1.00  0.00     0.041 C 
ATOM      4  O   UNL     1      -9.686 -12.024  14.503  1.00  0.00    -0.550 OA
ATOM      5  O   UNL     1      -9.289 -11.994  16.758  1.00  0.00    -0.550 OA
ENDBRANCH   2   3
ENDBRANCH   1   2
BRANCH   1   6
ATOM      6  C   UNL     1      -7.448 -15.359  13.751  1.00  0.00     0.000 C 
BRANCH   6   7
ATOM      7  C   UNL     1      -8.699 -15.463  12.872  1.00  0.00    -0.003 C 
ATOM      8  C   UNL     1      -8.579 -16.614  11.876  1.00  0.00     0.004 C 
ENDBRANCH   6   7
ENDBRANCH   1   6
TORSDOF 4
ENDMDL
MODEL 3
REMARK VINA RESULT:    -3.410      1.518      2.112
REMARK INTER + INTRA:          -4.273
REMARK INTER:                  -4.078
REMARK INTRA:                  -0.194
REMARK UNBOUND:                -0.065
REMARK SMILES CCCCCC(=O)[O-]
REMARK SMILES IDX 4 1 5 2 6 3 7 4 8 5 3 6 2 7 1 8
REMARK H PARENT
REMARK Flexibility Score: inf
ROOT
ATOM      1  C   UNL     1      -8.675 -12.901  16.355  1.00  0.00     0.006 C 
ENDROOT
BRANCH   1   2
ATOM      2  C   UNL     1      -7.529 -13.489  17.183  1.00  0.00     0.053 C 
BRANCH   2   3
ATOM      3  C   UNL     1      -7.985 -14.709  17.917  1.00  0.00     0.041 C 
ATOM      4  O   UNL     1      -8.671 -14.597  18.968  1.00  0.00    -0.550 OA
ATOM      5  O   UNL     1      -7.613 -15.970  17.471  1.00  0.00    -0.550 OA
ENDBRANCH   2   3
ENDBRANCH   1   2
BRANCH   1   6
ATOM      6  C   UNL     1      -8.273 -12.757  14.882  1.00  0.00     0.000 C 
BRANCH   6   7
ATOM      7  C   UNL     1      -7.572 -14.024  14.377  1.00  0.00    -0.003 C 
ATOM      8  C   UNL     1      -8.585 -15.087  13.963  1.00  0.00     0.004 C 
ENDBRANCH   6   7
ENDBRANCH   1   6
TORSDOF 4
ENDMDL
MODEL 4
REMARK VINA RESULT:    -3.263      2.444      3.936
REMARK INTER + INTRA:          -4.091
REMARK INTER:                  -3.871
REMARK INTRA:                  -0.220
REMARK UNBOUND:                -0.065
REMARK SMILES CCCCCC(=O)[O-]
REMARK SMILES IDX 4 1 5 2 6 3 7 4 8 5 3 6 2 7 1 8
REMARK H PARENT
REMARK Flexibility Score: inf
ROOT
ATOM      1  C   UNL     1      -7.830 -13.850  14.903  1.00  0.00     0.006 C 
ENDROOT
BRANCH   1   2
ATOM      2  C   UNL     1      -9.241 -13.564  14.381  1.00  0.00     0.053 C 
BRANCH   2   3
ATOM      3  C   UNL     1      -9.778 -12.306  14.985  1.00  0.00     0.041 C 
ATOM      4  O   UNL     1      -9.584 -12.055  16.204  1.00  0.00    -0.550 OA
ATOM      5  O   UNL     1     -10.536 -11.433  14.216  1.00  0.00    -0.550 OA
ENDBRANCH   2   3
ENDBRANCH   1   2
BRANCH   1   6
ATOM      6  C   UNL     1      -7.740 -15.257  15.507  1.00  0.00     0.000 C 
BRANCH   6   7
ATOM      7  C   UNL     1      -8.535 -15.345  16.815  1.00  0.00    -0.003 C 
ATOM      8  C   UNL     1      -7.785 -14.673  17.962  1.00  0.00     0.004 C 
ENDBRANCH   6   7
ENDBRANCH   1   6
TORSDOF 4
ENDMDL
MODEL 5
REMARK VINA RESULT:    -3.253      2.759      3.148
REMARK INTER + INTRA:          -4.078
REMARK INTER:                  -3.843
REMARK INTRA:                  -0.236
REMARK UNBOUND:                -0.065
REMARK SMILES CCCCCC(=O)[O-]
REMARK SMILES IDX 4 1 5 2 6 3 7 4 8 5 3 6 2 7 1 8
REMARK H PARENT
REMARK Flexibility Score: inf
ROOT
ATOM      1  C   UNL     1      -9.131 -14.275  16.358  1.00  0.00     0.006 C 
ENDROOT
BRANCH   1   2
ATOM      2  C   UNL     1      -9.001 -12.750  16.346  1.00  0.00     0.053 C 
BRANCH   2   3
ATOM      3  C   UNL     1     -10.171 -12.130  15.651  1.00  0.00     0.041 C 
ATOM      4  O   UNL     1     -10.251 -12.158  14.395  1.00  0.00    -0.550 OA
ATOM      5  O   UNL     1     -11.152 -11.476  16.387  1.00  0.00    -0.550 OA
ENDBRANCH   2   3
ENDBRANCH   1   2
BRANCH   1   6
ATOM      6  C   UNL     1      -7.834 -14.942  15.882  1.00  0.00     0.000 C 
BRANCH   6   7
ATOM      7  C   UNL     1      -7.520 -14.561  14.431  1.00  0.00    -0.003 C 
ATOM      8  C   UNL     1      -8.531 -15.177  13.468  1.00  0.00     0.004 C 
ENDBRANCH   6   7
ENDBRANCH   1   6
TORSDOF 4
ENDMDL
MODEL 6
REMARK VINA RESULT:    -3.252     13.321     15.364
REMARK INTER + INTRA:          -4.077
REMARK INTER:                  -4.016
REMARK INTRA:                  -0.061
REMARK UNBOUND:                -0.065
REMARK SMILES CCCCCC(=O)[O-]
REMARK SMILES IDX 4 1 5 2 6 3 7 4 8 5 3 6 2 7 1 8
REMARK H PARENT
REMARK Flexibility Score: inf
ROOT
ATOM      1  C   UNL     1       0.000 -17.111  28.379  1.00  0.00     0.006 C 
ENDROOT
BRANCH   1   2
ATOM      2  C   UNL     1      -0.724 -17.192  27.032  1.00  0.00     0.053 C 
BRANCH   2   3
ATOM      3  C   UNL     1      -1.814 -16.170  26.961  1.00  0.00     0.041 C 
ATOM      4  O   UNL     1      -2.169 -15.549  27.997  1.00  0.00    -0.550 OA
ATOM      5  O   UNL     1      -2.472 -15.938  25.760  1.00  0.00    -0.550 OA
ENDBRANCH   2   3
ENDBRANCH   1   2
BRANCH   1   6
ATOM      6  C   UNL     1       1.512 -17.299  28.203  1.00  0.00     0.000 C 
BRANCH   6   7
ATOM      7  C   UNL     1       1.993 -18.574  28.906  1.00  0.00    -0.003 C 
ATOM      8  C   UNL     1       3.505 -18.737  28.778  1.00  0.00     0.004 C 
ENDBRANCH   6   7
ENDBRANCH   1   6
TORSDOF 4
ENDMDL
MODEL 7
REMARK VINA RESULT:    -3.173     13.038     13.939
REMARK INTER + INTRA:          -3.980
REMARK INTER:                  -3.890
REMARK INTRA:                  -0.090
REMARK UNBOUND:                -0.065
REMARK SMILES CCCCCC(=O)[O-]
REMARK SMILES IDX 4 1 5 2 6 3 7 4 8 5 3 6 2 7 1 8
REMARK H PARENT
REMARK Flexibility Score: inf
ROOT
ATOM      1  C   UNL     1     -11.797  -8.298  26.019  1.00  0.00     0.006 C 
ENDROOT
BRANCH   1   2
ATOM      2  C   UNL     1     -12.590  -8.459  27.319  1.00  0.00     0.053 C 
BRANCH   2   3
ATOM      3  C   UNL     1     -11.666  -8.544  28.491  1.00  0.00     0.041 C 
ATOM      4  O   UNL     1     -11.272  -9.665  28.908  1.00  0.00    -0.550 OA
ATOM      5  O   UNL     1     -11.276  -7.388  29.155  1.00  0.00    -0.550 OA
ENDBRANCH   2   3
ENDBRANCH   1   2
BRANCH   1   6
ATOM      6  C   UNL     1     -12.731  -8.256  24.804  1.00  0.00     0.000 C 
BRANCH   6   7
ATOM      7  C   UNL     1     -12.674  -6.890  24.113  1.00  0.00    -0.003 C 
ATOM      8  C   UNL     1     -13.981  -6.123  24.295  1.00  0.00     0.004 C 
ENDBRANCH   6   7
ENDBRANCH   1   6
TORSDOF 4
ENDMDL
MODEL 8
REMARK VINA RESULT:    -3.153      2.230      3.239
REMARK INTER + INTRA:          -3.955
REMARK INTER:                  -3.814
REMARK INTRA:                  -0.140
REMARK UNBOUND:                -0.065
REMARK SMILES CCCCCC(=O)[O-]
REMARK SMILES IDX 4 1 5 2 6 3 7 4 8 5 3 6 2 7 1 8
REMARK H PARENT
REMARK Flexibility Score: inf
ROOT
ATOM      1  C   UNL     1      -8.991 -14.035  14.973  1.00  0.00     0.006 C 
ENDROOT
BRANCH   1   2
ATOM      2  C   UNL     1      -7.712 -14.430  15.715  1.00  0.00     0.053 C 
BRANCH   2   3
ATOM      3  C   UNL     1      -7.840 -14.134  17.176  1.00  0.00     0.041 C 
ATOM      4  O   UNL     1      -8.891 -14.447  17.796  1.00  0.00    -0.550 OA
ATOM      5  O   UNL     1      -6.820 -13.469  17.844  1.00  0.00    -0.550 OA
ENDBRANCH   2   3
ENDBRANCH   1   2
BRANCH   1   6
ATOM      6  C   UNL     1      -9.069 -12.515  14.780  1.00  0.00     0.000 C 
BRANCH   6   7
ATOM      7  C   UNL     1     -10.475 -11.992  15.096  1.00  0.00    -0.003 C 
ATOM      8  C   UNL     1     -10.947 -11.003  14.034  1.00  0.00     0.004 C 
ENDBRANCH   6   7
ENDBRANCH   1   6
TORSDOF 4
ENDMDL
