MODEL 1
REMARK VINA RESULT:    -3.438      0.000      0.000
REMARK INTER + INTRA:          -4.480
REMARK INTER:                  -4.845
REMARK INTRA:                   0.364
REMARK UNBOUND:                 0.364
REMARK SMILES CC1=CCC(=C(C)C)C(=O)CC(C)=CCC1
REMARK SMILES IDX 12 1 14 2 13 3 15 4 16 5 2 6 1 7 3 8 11 10 9 11 10 12 5 13
REMARK SMILES IDX 6 14 7 15 8 16 4 17
REMARK H PARENT
REMARK Flexibility Score: 60.00
ROOT
ATOM      1  C   UNL     1      -3.292 -38.853 215.806  1.00  0.00    -0.070 C 
ATOM      2  C   UNL     1      -2.023 -39.093 215.404  1.00  0.00    -0.027 C 
ATOM      3  C   UNL     1      -3.988 -37.636 215.251  1.00  0.00     0.039 C 
ENDROOT
BRANCH   2   4
ATOM      4  C   UNL     1      -1.130 -40.200 215.919  1.00  0.00     0.032 C 
BRANCH   4   5
ATOM      5  C   UNL     1      -1.315 -41.562 215.217  1.00  0.00     0.034 C 
BRANCH   5   6
ATOM      6  C   UNL     1      -1.954 -41.444 213.845  1.00  0.00    -0.077 C 
ATOM      7  C   UNL     1      -1.073 -41.026 212.695  1.00  0.00     0.039 C 
ATOM      8  C   UNL     1      -3.276 -41.624 213.600  1.00  0.00    -0.023 CG0
ATOM      9  G   UNL     1      -4.338 -42.061 214.589  1.00  0.00     0.000 G0
ENDBRANCH   5   6
ENDBRANCH   4   5
ENDBRANCH   2   4
BRANCH   1  10
ATOM     10  C   UNL     1      -4.006 -39.688 216.848  1.00  0.00     0.111 C 
BRANCH  10  11
ATOM     11  C   UNL     1      -5.250 -40.327 216.292  1.00  0.00     0.163 C 
ATOM     12  O   UNL     1      -6.255 -40.427 217.046  1.00  0.00    -0.294 OA
BRANCH  11  13
ATOM     13  C   UNL     1      -5.311 -40.894 214.911  1.00  0.00    -0.002 C 
ATOM     14  C   UNL     1      -6.242 -40.450 214.013  1.00  0.00    -0.069 C 
ATOM     15  C   UNL     1      -7.134 -39.269 214.326  1.00  0.00     0.039 C 
ATOM     16  C   UNL     1      -6.432 -41.112 212.667  1.00  0.00     0.039 C 
BRANCH  13  17
ATOM     17  C   UNL     1      -4.366 -42.040 214.590  1.00  0.00     0.066 CG0
ATOM     18  G   UNL     1      -3.282 -41.635 213.610  1.00  0.00     0.000 G0
ENDBRANCH  13  17
ENDBRANCH  11  13
ENDBRANCH  10  11
ENDBRANCH   1  10
TORSDOF 0
ENDMDL
MODEL 2
REMARK VINA RESULT:    -3.376      2.351      4.013
REMARK INTER + INTRA:          -4.393
REMARK INTER:                  -4.916
REMARK INTRA:                   0.524
REMARK UNBOUND:                 0.364
REMARK SMILES CC1=CCC(=C(C)C)C(=O)CC(C)=CCC1
REMARK SMILES IDX 12 1 14 2 13 3 15 4 16 5 2 6 1 7 3 8 11 10 9 11 10 12 5 13
REMARK SMILES IDX 6 14 7 15 8 16 4 17
REMARK H PARENT
REMARK Flexibility Score: 60.00
ROOT
ATOM      1  C   UNL     1      -5.046 -38.677 215.512  1.00  0.00    -0.070 C 
ATOM      2  C   UNL     1      -3.895 -38.802 214.814  1.00  0.00    -0.027 C 
ATOM      3  C   UNL     1      -6.345 -38.760 214.750  1.00  0.00     0.039 C 
ENDROOT
BRANCH   2   4
ATOM      4  C   UNL     1      -2.499 -38.651 215.379  1.00  0.00     0.032 C 
BRANCH   4   5
ATOM      5  C   UNL     1      -1.674 -39.954 215.426  1.00  0.00     0.034 C 
BRANCH   5   6
ATOM      6  C   UNL     1      -2.506 -41.175 215.778  1.00  0.00    -0.077 C 
ATOM      7  C   UNL     1      -2.873 -42.119 214.661  1.00  0.00     0.039 C 
ATOM      8  C   UNL     1      -2.995 -41.434 217.015  1.00  0.00    -0.023 CG0
ATOM      9  G   UNL     1      -2.744 -40.642 218.283  1.00  0.00     0.000 G0
ENDBRANCH   5   6
ENDBRANCH   4   5
ENDBRANCH   2   4
BRANCH   1  10
ATOM     10  C   UNL     1      -5.090 -38.365 216.993  1.00  0.00     0.111 C 
BRANCH  10  11
ATOM     11  C   UNL     1      -5.041 -39.618 217.826  1.00  0.00     0.163 C 
ATOM     12  O   UNL     1      -5.994 -40.438 217.723  1.00  0.00    -0.294 OA
BRANCH  11  13
ATOM     13  C   UNL     1      -3.945 -39.889 218.804  1.00  0.00    -0.002 C 
ATOM     14  C   UNL     1      -4.007 -39.398 220.078  1.00  0.00    -0.069 C 
ATOM     15  C   UNL     1      -5.249 -38.702 220.591  1.00  0.00     0.039 C 
ATOM     16  C   UNL     1      -2.846 -39.519 221.039  1.00  0.00     0.039 C 
BRANCH  13  17
ATOM     17  C   UNL     1      -2.729 -40.644 218.292  1.00  0.00     0.066 CG0
ATOM     18  G   UNL     1      -3.024 -41.418 217.022  1.00  0.00     0.000 G0
ENDBRANCH  13  17
ENDBRANCH  11  13
ENDBRANCH  10  11
ENDBRANCH   1  10
TORSDOF 0
ENDMDL
MODEL 3
REMARK VINA RESULT:    -3.321      2.324      3.270
REMARK INTER + INTRA:          -4.316
REMARK INTER:                  -4.485
REMARK INTRA:                   0.169
REMARK UNBOUND:                 0.364
REMARK SMILES CC1=CCC(=C(C)C)C(=O)CC(C)=CCC1
REMARK SMILES IDX 12 1 14 2 13 3 15 4 16 5 2 6 1 7 3 8 11 10 9 11 10 12 5 13
REMARK SMILES IDX 6 14 7 15 8 16 4 17
REMARK H PARENT
REMARK Flexibility Score: 60.00
ROOT
ATOM      1  C   UNL     1      -5.162 -38.913 219.627  1.00  0.00    -0.070 C 
ATOM      2  C   UNL     1      -4.162 -39.488 220.333  1.00  0.00    -0.027 C 
ATOM      3  C   UNL     1      -6.402 -38.493 220.375  1.00  0.00     0.039 C 
ENDROOT
BRANCH   2   4
ATOM      4  C   UNL     1      -2.888 -40.061 219.751  1.00  0.00     0.032 C 
BRANCH   4   5
ATOM      5  C   UNL     1      -3.050 -41.430 219.058  1.00  0.00     0.034 C 
BRANCH   5   6
ATOM      6  C   UNL     1      -2.394 -41.485 217.689  1.00  0.00    -0.077 C 
ATOM      7  C   UNL     1      -0.900 -41.295 217.619  1.00  0.00     0.039 C 
ATOM      8  C   UNL     1      -3.072 -41.626 216.523  1.00  0.00    -0.023 CG0
ATOM      9  G   UNL     1      -4.562 -41.849 216.352  1.00  0.00     0.000 G0
ENDBRANCH   5   6
ENDBRANCH   4   5
ENDBRANCH   2   4
BRANCH   1  10
ATOM     10  C   UNL     1      -5.134 -38.757 218.121  1.00  0.00     0.111 C 
BRANCH  10  11
ATOM     11  C   UNL     1      -5.848 -39.890 217.432  1.00  0.00     0.163 C 
ATOM     12  O   UNL     1      -6.894 -40.346 217.968  1.00  0.00    -0.294 OA
BRANCH  11  13
ATOM     13  C   UNL     1      -5.329 -40.523 216.183  1.00  0.00    -0.002 C 
ATOM     14  C   UNL     1      -5.600 -39.978 214.958  1.00  0.00    -0.069 C 
ATOM     15  C   UNL     1      -6.294 -38.640 214.831  1.00  0.00     0.039 C 
ATOM     16  C   UNL     1      -5.225 -40.679 213.671  1.00  0.00     0.039 C 
BRANCH  13  17
ATOM     17  C   UNL     1      -4.579 -41.836 216.330  1.00  0.00     0.066 CG0
ATOM     18  G   UNL     1      -3.090 -41.630 216.531  1.00  0.00     0.000 G0
ENDBRANCH  13  17
ENDBRANCH  11  13
ENDBRANCH  10  11
ENDBRANCH   1  10
TORSDOF 0
ENDMDL
MODEL 4
REMARK VINA RESULT:    -3.229      1.550      4.061
REMARK INTER + INTRA:          -4.186
REMARK INTER:                  -4.812
REMARK INTRA:                   0.626
REMARK UNBOUND:                 0.364
REMARK SMILES CC1=CCC(=C(C)C)C(=O)CC(C)=CCC1
REMARK SMILES IDX 12 1 14 2 13 3 15 4 16 5 2 6 1 7 3 8 11 10 9 11 10 12 5 13
REMARK SMILES IDX 6 14 7 15 8 16 4 17
REMARK H PARENT
REMARK Flexibility Score: 60.00
ROOT
ATOM      1  C   UNL     1      -4.574 -39.060 216.597  1.00  0.00    -0.070 C 
ATOM      2  C   UNL     1      -5.823 -38.789 216.160  1.00  0.00    -0.027 C 
ATOM      3  C   UNL     1      -4.368 -39.236 218.081  1.00  0.00     0.039 C 
ENDROOT
BRANCH   2   4
ATOM      4  C   UNL     1      -6.211 -38.485 214.729  1.00  0.00     0.032 C 
BRANCH   4   5
ATOM      5  C   UNL     1      -6.980 -39.614 214.011  1.00  0.00     0.034 C 
BRANCH   5   6
ATOM      6  C   UNL     1      -6.590 -41.000 214.492  1.00  0.00    -0.077 C 
ATOM      7  C   UNL     1      -7.480 -41.666 215.510  1.00  0.00     0.039 C 
ATOM      8  C   UNL     1      -5.459 -41.648 214.117  1.00  0.00    -0.023 CG0
ATOM      9  G   UNL     1      -4.433 -41.185 213.102  1.00  0.00     0.000 G0
ENDBRANCH   5   6
ENDBRANCH   4   5
ENDBRANCH   2   4
BRANCH   1  10
ATOM     10  C   UNL     1      -3.364 -39.102 215.686  1.00  0.00     0.111 C 
BRANCH  10  11
ATOM     11  C   UNL     1      -3.092 -40.496 215.188  1.00  0.00     0.163 C 
ATOM     12  O   UNL     1      -2.804 -41.384 216.035  1.00  0.00    -0.294 OA
BRANCH  11  13
ATOM     13  C   UNL     1      -3.092 -40.843 213.735  1.00  0.00    -0.002 C 
ATOM     14  C   UNL     1      -1.943 -40.767 212.998  1.00  0.00    -0.069 C 
ATOM     15  C   UNL     1      -0.609 -40.483 213.651  1.00  0.00     0.039 C 
ATOM     16  C   UNL     1      -1.942 -40.957 211.497  1.00  0.00     0.039 C 
BRANCH  13  17
ATOM     17  C   UNL     1      -4.431 -41.188 213.104  1.00  0.00     0.066 CG0
ATOM     18  G   UNL     1      -5.448 -41.653 214.128  1.00  0.00     0.000 G0
ENDBRANCH  13  17
ENDBRANCH  11  13
ENDBRANCH  10  11
ENDBRANCH   1  10
TORSDOF 0
ENDMDL
MODEL 5
REMARK VINA RESULT:    -3.120      1.946      3.980
REMARK INTER + INTRA:          -4.032
REMARK INTER:                  -4.415
REMARK INTRA:                   0.382
REMARK UNBOUND:                 0.364
REMARK SMILES CC1=CCC(=C(C)C)C(=O)CC(C)=CCC1
REMARK SMILES IDX 12 1 14 2 13 3 15 4 16 5 2 6 1 7 3 8 11 10 9 11 10 12 5 13
REMARK SMILES IDX 6 14 7 15 8 16 4 17
REMARK H PARENT
REMARK Flexibility Score: 60.00
ROOT
ATOM      1  C   UNL     1      -4.744 -38.690 215.830  1.00  0.00    -0.070 C 
ATOM      2  C   UNL     1      -4.908 -38.698 217.172  1.00  0.00    -0.027 C 
ATOM      3  C   UNL     1      -3.731 -37.734 215.250  1.00  0.00     0.039 C 
ENDROOT
BRANCH   2   4
ATOM      4  C   UNL     1      -5.936 -39.510 217.929  1.00  0.00     0.032 C 
BRANCH   4   5
ATOM      5  C   UNL     1      -5.480 -40.932 218.320  1.00  0.00     0.034 C 
BRANCH   5   6
ATOM      6  C   UNL     1      -3.970 -41.087 218.348  1.00  0.00    -0.077 C 
ATOM      7  C   UNL     1      -3.239 -40.606 219.576  1.00  0.00     0.039 C 
ATOM      8  C   UNL     1      -3.232 -41.565 217.316  1.00  0.00    -0.023 CG0
ATOM      9  G   UNL     1      -3.747 -42.118 216.002  1.00  0.00     0.000 G0
ENDBRANCH   5   6
ENDBRANCH   4   5
ENDBRANCH   2   4
BRANCH   1  10
ATOM     10  C   UNL     1      -5.586 -39.519 214.883  1.00  0.00     0.111 C 
BRANCH  10  11
ATOM     11  C   UNL     1      -4.773 -40.594 214.213  1.00  0.00     0.163 C 
ATOM     12  O   UNL     1      -5.188 -41.055 213.115  1.00  0.00    -0.294 OA
BRANCH  11  13
ATOM     13  C   UNL     1      -3.540 -41.169 214.829  1.00  0.00    -0.002 C 
ATOM     14  C   UNL     1      -2.306 -40.907 214.301  1.00  0.00    -0.069 C 
ATOM     15  C   UNL     1      -2.130 -39.908 213.177  1.00  0.00     0.039 C 
ATOM     16  C   UNL     1      -1.058 -41.598 214.802  1.00  0.00     0.039 C 
BRANCH  13  17
ATOM     17  C   UNL     1      -3.727 -42.123 215.998  1.00  0.00     0.066 CG0
ATOM     18  G   UNL     1      -3.214 -41.544 217.302  1.00  0.00     0.000 G0
ENDBRANCH  13  17
ENDBRANCH  11  13
ENDBRANCH  10  11
ENDBRANCH   1  10
TORSDOF 0
ENDMDL
MODEL 6
REMARK VINA RESULT:    -3.027      2.253      5.041
REMARK INTER + INTRA:          -3.901
REMARK INTER:                  -4.538
REMARK INTRA:                   0.637
REMARK UNBOUND:                 0.364
REMARK SMILES CC1=CCC(=C(C)C)C(=O)CC(C)=CCC1
REMARK SMILES IDX 12 1 14 2 13 3 15 4 16 5 2 6 1 7 3 8 11 10 9 11 10 12 5 13
REMARK SMILES IDX 6 14 7 15 8 16 4 17
REMARK H PARENT
REMARK Flexibility Score: 60.00
ROOT
ATOM      1  C   UNL     1      -6.245 -39.752 214.972  1.00  0.00    -0.070 C 
ATOM      2  C   UNL     1      -6.872 -40.144 216.104  1.00  0.00    -0.027 C 
ATOM      3  C   UNL     1      -7.000 -38.857 214.023  1.00  0.00     0.039 C 
ENDROOT
BRANCH   2   4
ATOM      4  C   UNL     1      -6.320 -41.113 217.127  1.00  0.00     0.032 C 
BRANCH   4   5
ATOM      5  C   UNL     1      -6.336 -40.599 218.582  1.00  0.00     0.034 C 
BRANCH   5   6
ATOM      6  C   UNL     1      -5.298 -39.523 218.846  1.00  0.00    -0.077 C 
ATOM      7  C   UNL     1      -5.728 -38.312 219.634  1.00  0.00     0.039 C 
ATOM      8  C   UNL     1      -4.032 -39.549 218.361  1.00  0.00    -0.023 CG0
ATOM      9  G   UNL     1      -3.379 -40.662 217.567  1.00  0.00     0.000 G0
ENDBRANCH   5   6
ENDBRANCH   4   5
ENDBRANCH   2   4
BRANCH   1  10
ATOM     10  C   UNL     1      -4.869 -40.242 214.571  1.00  0.00     0.111 C 
BRANCH  10  11
ATOM     11  C   UNL     1      -3.781 -39.497 215.297  1.00  0.00     0.163 C 
ATOM     12  O   UNL     1      -3.649 -38.264 215.067  1.00  0.00    -0.294 OA
BRANCH  11  13
ATOM     13  C   UNL     1      -2.825 -40.175 216.223  1.00  0.00    -0.002 C 
ATOM     14  C   UNL     1      -1.535 -40.418 215.841  1.00  0.00    -0.069 C 
ATOM     15  C   UNL     1      -0.986 -39.875 214.539  1.00  0.00     0.039 C 
ATOM     16  C   UNL     1      -0.591 -41.240 216.690  1.00  0.00     0.039 C 
BRANCH  13  17
ATOM     17  C   UNL     1      -3.374 -40.660 217.554  1.00  0.00     0.066 CG0
ATOM     18  G   UNL     1      -4.025 -39.546 218.350  1.00  0.00     0.000 G0
ENDBRANCH  13  17
ENDBRANCH  11  13
ENDBRANCH  10  11
ENDBRANCH   1  10
TORSDOF 0
ENDMDL
MODEL 7
REMARK VINA RESULT:    -2.807      2.168      3.442
REMARK INTER + INTRA:          -3.592
REMARK INTER:                  -4.020
REMARK INTRA:                   0.428
REMARK UNBOUND:                 0.364
REMARK SMILES CC1=CCC(=C(C)C)C(=O)CC(C)=CCC1
REMARK SMILES IDX 12 1 14 2 13 3 15 4 16 5 2 6 1 7 3 8 11 10 9 11 10 12 5 13
REMARK SMILES IDX 6 14 7 15 8 16 4 17
REMARK H PARENT
REMARK Flexibility Score: 60.00
ROOT
ATOM      1  C   UNL     1      -2.464 -39.764 215.436  1.00  0.00    -0.070 C 
ATOM      2  C   UNL     1      -1.990 -40.618 216.371  1.00  0.00    -0.027 C 
ATOM      3  C   UNL     1      -1.742 -38.454 215.246  1.00  0.00     0.039 C 
ENDROOT
BRANCH   2   4
ATOM      4  C   UNL     1      -2.629 -41.928 216.774  1.00  0.00     0.032 C 
BRANCH   4   5
ATOM      5  C   UNL     1      -3.121 -41.988 218.236  1.00  0.00     0.034 C 
BRANCH   5   6
ATOM      6  C   UNL     1      -3.963 -40.789 218.631  1.00  0.00    -0.077 C 
ATOM      7  C   UNL     1      -3.447 -39.903 219.736  1.00  0.00     0.039 C 
ATOM      8  C   UNL     1      -5.179 -40.502 218.103  1.00  0.00    -0.023 CG0
ATOM      9  G   UNL     1      -5.883 -41.235 216.978  1.00  0.00     0.000 G0
ENDBRANCH   5   6
ENDBRANCH   4   5
ENDBRANCH   2   4
BRANCH   1  10
ATOM     10  C   UNL     1      -3.730 -40.017 214.645  1.00  0.00     0.111 C 
BRANCH  10  11
ATOM     11  C   UNL     1      -4.944 -39.470 215.347  1.00  0.00     0.163 C 
ATOM     12  O   UNL     1      -4.959 -38.243 215.639  1.00  0.00    -0.294 OA
BRANCH  11  13
ATOM     13  C   UNL     1      -6.090 -40.334 215.760  1.00  0.00    -0.002 C 
ATOM     14  C   UNL     1      -7.291 -40.261 215.111  1.00  0.00    -0.069 C 
ATOM     15  C   UNL     1      -7.458 -39.423 213.861  1.00  0.00     0.039 C 
ATOM     16  C   UNL     1      -8.513 -41.004 215.603  1.00  0.00     0.039 C 
BRANCH  13  17
ATOM     17  C   UNL     1      -5.888 -41.218 216.980  1.00  0.00     0.066 CG0
ATOM     18  G   UNL     1      -5.185 -40.490 218.109  1.00  0.00     0.000 G0
ENDBRANCH  13  17
ENDBRANCH  11  13
ENDBRANCH  10  11
ENDBRANCH   1  10
TORSDOF 0
ENDMDL
MODEL 8
REMARK VINA RESULT:    -2.806     13.061     15.325
REMARK INTER + INTRA:          -3.590
REMARK INTER:                  -4.368
REMARK INTRA:                   0.778
REMARK UNBOUND:                 0.364
REMARK SMILES CC1=CCC(=C(C)C)C(=O)CC(C)=CCC1
REMARK SMILES IDX 12 1 14 2 13 3 15 4 16 5 2 6 1 7 3 8 11 10 9 11 10 12 5 13
REMARK SMILES IDX 6 14 7 15 8 16 4 17
REMARK H PARENT
REMARK Flexibility Score: 60.00
ROOT
ATOM      1  C   UNL     1     -16.454 -39.756 207.276  1.00  0.00    -0.070 C 
ATOM      2  C   UNL     1     -15.394 -39.526 208.082  1.00  0.00    -0.027 C 
ATOM      3  C   UNL     1     -16.408 -39.199 205.875  1.00  0.00     0.039 C 
ENDROOT
BRANCH   2   4
ATOM      4  C   UNL     1     -15.294 -39.916 209.541  1.00  0.00     0.032 C 
BRANCH   4   5
ATOM      5  C   UNL     1     -15.312 -38.733 210.532  1.00  0.00     0.034 C 
BRANCH   5   6
ATOM      6  C   UNL     1     -16.632 -38.594 211.269  1.00  0.00    -0.077 C 
ATOM      7  C   UNL     1     -16.754 -39.253 212.620  1.00  0.00     0.039 C 
ATOM      8  C   UNL     1     -17.727 -37.975 210.764  1.00  0.00    -0.023 CG0
ATOM      9  G   UNL     1     -17.833 -37.233 209.446  1.00  0.00     0.000 G0
ENDBRANCH   5   6
ENDBRANCH   4   5
ENDBRANCH   2   4
BRANCH   1  10
ATOM     10  C   UNL     1     -17.714 -40.457 207.738  1.00  0.00     0.111 C 
BRANCH  10  11
ATOM     11  C   UNL     1     -18.582 -39.551 208.569  1.00  0.00     0.163 C 
ATOM     12  O   UNL     1     -19.370 -40.080 209.400  1.00  0.00    -0.294 OA
BRANCH  11  13
ATOM     13  C   UNL     1     -18.586 -38.067 208.401  1.00  0.00    -0.002 C 
ATOM     14  C   UNL     1     -19.158 -37.490 207.302  1.00  0.00    -0.069 C 
ATOM     15  C   UNL     1     -19.942 -38.311 206.302  1.00  0.00     0.039 C 
ATOM     16  C   UNL     1     -19.039 -36.007 207.024  1.00  0.00     0.039 C 
BRANCH  13  17
ATOM     17  C   UNL     1     -17.848 -37.248 209.447  1.00  0.00     0.066 CG0
ATOM     18  G   UNL     1     -17.724 -37.979 210.769  1.00  0.00     0.000 G0
ENDBRANCH  13  17
ENDBRANCH  11  13
ENDBRANCH  10  11
ENDBRANCH   1  10
TORSDOF 0
ENDMDL
MODEL 9
REMARK VINA RESULT:    -2.791     12.373     14.313
REMARK INTER + INTRA:          -3.568
REMARK INTER:                  -4.953
REMARK INTRA:                   1.386
REMARK UNBOUND:                 0.364
REMARK SMILES CC1=CCC(=C(C)C)C(=O)CC(C)=CCC1
REMARK SMILES IDX 12 1 14 2 13 3 15 4 16 5 2 6 1 7 3 8 11 10 9 11 10 12 5 13
REMARK SMILES IDX 6 14 7 15 8 16 4 17
REMARK H PARENT
REMARK Flexibility Score: 60.00
ROOT
ATOM      1  C   UNL     1     -16.759 -38.781 211.712  1.00  0.00    -0.070 C 
ATOM      2  C   UNL     1     -16.752 -39.954 212.384  1.00  0.00    -0.027 C 
ATOM      3  C   UNL     1     -17.484 -37.615 212.337  1.00  0.00     0.039 C 
ENDROOT
BRANCH   2   4
ATOM      4  C   UNL     1     -16.166 -41.255 211.881  1.00  0.00     0.032 C 
BRANCH   4   5
ATOM      5  C   UNL     1     -16.707 -41.725 210.514  1.00  0.00     0.034 C 
BRANCH   5   6
ATOM      6  C   UNL     1     -15.694 -41.585 209.392  1.00  0.00    -0.077 C 
ATOM      7  C   UNL     1     -14.282 -42.041 209.661  1.00  0.00     0.039 C 
ATOM      8  C   UNL     1     -15.959 -41.016 208.191  1.00  0.00    -0.023 CG0
ATOM      9  G   UNL     1     -17.298 -40.506 207.695  1.00  0.00     0.000 G0
ENDBRANCH   5   6
ENDBRANCH   4   5
ENDBRANCH   2   4
BRANCH   1  10
ATOM     10  C   UNL     1     -16.160 -38.609 210.332  1.00  0.00     0.111 C 
BRANCH  10  11
ATOM     11  C   UNL     1     -17.225 -38.463 209.278  1.00  0.00     0.163 C 
ATOM     12  O   UNL     1     -17.510 -37.302 208.878  1.00  0.00    -0.294 OA
BRANCH  11  13
ATOM     13  C   UNL     1     -17.989 -39.630 208.742  1.00  0.00    -0.002 C 
ATOM     14  C   UNL     1     -19.222 -39.947 209.240  1.00  0.00    -0.069 C 
ATOM     15  C   UNL     1     -19.923 -39.046 210.233  1.00  0.00     0.039 C 
ATOM     16  C   UNL     1     -19.948 -41.209 208.832  1.00  0.00     0.039 C 
BRANCH  13  17
ATOM     17  C   UNL     1     -17.297 -40.491 207.699  1.00  0.00     0.066 CG0
ATOM     18  G   UNL     1     -15.949 -40.999 208.172  1.00  0.00     0.000 G0
ENDBRANCH  13  17
ENDBRANCH  11  13
ENDBRANCH  10  11
ENDBRANCH   1  10
TORSDOF 0
ENDMDL
