MODEL 1
REMARK VINA RESULT:    45.664      0.000      0.000
REMARK INTER + INTRA:          50.327
REMARK INTER:                  49.669
REMARK INTRA:                   0.659
REMARK UNBOUND:                 0.659
REMARK SMILES C[C@H]1[C@H]2C3=CC[C@@H]4[C@@]5(C)CC[C@H](O)C(C)(C)[C@H]5CC[C@]4(C)[C@@]3(C)CC[C@@]2(C(=O)[O-])CC[C@@H]1C
REMARK SMILES IDX 26 1 30 2 25 3 3 4 31 5 24 6 4 7 2 8 32 9 22 10 5 11 1 12
REMARK SMILES IDX 33 13 23 14 20 15 6 16 7 17 19 18 21 19 8 20 18 21 17 22
REMARK SMILES IDX 10 23 9 24 14 25 11 26 12 27 15 28 16 29 27 30 28 31 29 32
REMARK SMILES IDX 13 33
REMARK H PARENT 13 34
REMARK Flexibility Score: inf
ROOT
ATOM      1  C   UNL     1     167.075 163.651 149.171  1.00  0.00     0.017 C 
ATOM      2  C   UNL     1     166.296 163.491 147.821  1.00  0.00     0.014 C 
ATOM      3  C   UNL     1     166.753 162.430 150.110  1.00  0.00     0.014 C 
ATOM      4  C   UNL     1     166.724 165.051 149.832  1.00  0.00     0.030 C 
ATOM      5  C   UNL     1     166.193 164.818 147.065  1.00  0.00     0.004 C 
ATOM      6  C   UNL     1     166.292 162.776 151.537  1.00  0.00     0.013 C 
ATOM      7  C   UNL     1     166.997 165.144 151.345  1.00  0.00    -0.063 C 
ATOM      8  C   UNL     1     165.353 165.668 149.380  1.00  0.00    -0.003 C 
ATOM      9  C   UNL     1     165.290 165.827 147.819  1.00  0.00    -0.011 C 
ATOM     10  C   UNL     1     167.115 163.905 152.244  1.00  0.00    -0.006 C 
ATOM     11  C   UNL     1     167.252 166.355 151.865  1.00  0.00    -0.027 C 
ATOM     12  C   UNL     1     164.103 164.941 149.902  1.00  0.00     0.008 C 
ATOM     13  C   UNL     1     165.641 167.262 147.395  1.00  0.00     0.008 C 
ATOM     14  C   UNL     1     168.604 163.454 152.307  1.00  0.00     0.017 C 
ATOM     15  C   UNL     1     166.572 164.243 153.742  1.00  0.00    -0.020 C 
ATOM     16  C   UNL     1     167.857 166.502 153.219  1.00  0.00     0.032 C 
ATOM     17  C   UNL     1     167.148 165.642 154.309  1.00  0.00     0.006 C 
ATOM     18  C   UNL     1     166.823 163.045 154.719  1.00  0.00     0.008 C 
ATOM     19  C   UNL     1     165.018 164.400 153.690  1.00  0.00     0.012 C 
ATOM     20  C   UNL     1     167.879 165.722 155.762  1.00  0.00    -0.025 C 
ATOM     21  C   UNL     1     168.046 163.174 155.608  1.00  0.00     0.005 C 
ATOM     22  C   UNL     1     167.958 164.359 156.579  1.00  0.00     0.003 C 
ATOM     23  C   UNL     1     167.159 166.819 156.604  1.00  0.00     0.010 C 
ATOM     24  C   UNL     1     169.355 166.223 155.626  1.00  0.00     0.012 C 
ATOM     25  C   UNL     1     167.000 164.211 157.853  1.00  0.00    -0.006 C 
ATOM     26  C   UNL     1     165.771 166.416 157.129  1.00  0.00     0.033 C 
ATOM     27  C   UNL     1     165.646 164.948 157.613  1.00  0.00     0.120 C 
ATOM     28  C   UNL     1     167.720 164.767 159.125  1.00  0.00     0.014 C 
ATOM     29  C   UNL     1     166.705 162.720 158.203  1.00  0.00     0.014 C 
ENDROOT
BRANCH   1  30
ATOM     30  C   UNL     1     168.563 163.576 148.801  1.00  0.00     0.048 C 
ATOM     31  O   UNL     1     169.466 163.472 149.676  1.00  0.00    -0.550 OA
ATOM     32  O   UNL     1     168.944 163.614 147.464  1.00  0.00    -0.550 OA
ENDBRANCH   1  30
BRANCH  27  33
ATOM     33  O   UNL     1     164.800 164.857 158.741  1.00  0.00    -0.393 OA
ATOM     34  H   UNL     1     164.959 163.977 159.180  1.00  0.00     0.210 HD
ENDBRANCH  27  33
TORSDOF 2
ENDMDL
