MODEL 1
REMARK VINA RESULT:    -4.148      0.000      0.000
REMARK INTER + INTRA:          -5.745
REMARK INTER:                  -5.361
REMARK INTRA:                  -0.384
REMARK UNBOUND:                -0.384
REMARK SMILES CCCCCCC(=O)[O-]
REMARK SMILES IDX 5 1 6 2 7 3 8 4 9 5 4 6 3 7 2 8 1 9
REMARK H PARENT
REMARK Flexibility Score: inf
ROOT
ATOM      1  C   UNL     1      44.255  57.358  47.279  1.00  0.00     0.006 C 
ENDROOT
BRANCH   1   2
ATOM      2  C   UNL     1      43.725  58.201  46.115  1.00  0.00     0.053 C 
BRANCH   2   3
ATOM      3  C   UNL     1      42.683  57.445  45.353  1.00  0.00     0.041 C 
ATOM      4  O   UNL     1      42.972  56.897  44.255  1.00  0.00    -0.550 OA
ATOM      5  O   UNL     1      41.405  57.301  45.878  1.00  0.00    -0.550 OA
ENDBRANCH   2   3
ENDBRANCH   1   2
BRANCH   1   6
ATOM      6  C   UNL     1      43.937  58.021  48.628  1.00  0.00     0.000 C 
BRANCH   6   7
ATOM      7  C   UNL     1      42.582  57.557  49.203  1.00  0.00    -0.000 C 
BRANCH   7   8
ATOM      8  C   UNL     1      41.477  58.622  49.112  1.00  0.00    -0.003 C 
ATOM      9  C   UNL     1      42.014  60.016  48.791  1.00  0.00     0.004 C 
ENDBRANCH   7   8
ENDBRANCH   6   7
ENDBRANCH   1   6
TORSDOF 5
ENDMDL
MODEL 2
REMARK VINA RESULT:    -4.117      2.202      2.807
REMARK INTER + INTRA:          -5.704
REMARK INTER:                  -5.274
REMARK INTRA:                  -0.430
REMARK UNBOUND:                -0.384
REMARK SMILES CCCCCCC(=O)[O-]
REMARK SMILES IDX 5 1 6 2 7 3 8 4 9 5 4 6 3 7 2 8 1 9
REMARK H PARENT
REMARK Flexibility Score: inf
ROOT
ATOM      1  C   UNL     1      42.333  58.492  46.393  1.00  0.00     0.006 C 
ENDROOT
BRANCH   1   2
ATOM      2  C   UNL     1      43.476  57.473  46.352  1.00  0.00     0.053 C 
BRANCH   2   3
ATOM      3  C   UNL     1      43.836  57.034  47.737  1.00  0.00     0.041 C 
ATOM      4  O   UNL     1      45.043  56.853  48.051  1.00  0.00    -0.550 OA
ATOM      5  O   UNL     1      42.844  56.875  48.696  1.00  0.00    -0.550 OA
ENDBRANCH   2   3
ENDBRANCH   1   2
BRANCH   1   6
ATOM      6  C   UNL     1      42.821  59.847  46.928  1.00  0.00     0.000 C 
BRANCH   6   7
ATOM      7  C   UNL     1      42.018  60.312  48.162  1.00  0.00    -0.000 C 
BRANCH   7   8
ATOM      8  C   UNL     1      42.895  60.616  49.388  1.00  0.00    -0.003 C 
ATOM      9  C   UNL     1      44.387  60.440  49.116  1.00  0.00     0.004 C 
ENDBRANCH   7   8
ENDBRANCH   6   7
ENDBRANCH   1   6
TORSDOF 5
ENDMDL
MODEL 3
REMARK VINA RESULT:    -4.107      1.747      2.351
REMARK INTER + INTRA:          -5.692
REMARK INTER:                  -5.219
REMARK INTRA:                  -0.473
REMARK UNBOUND:                -0.384
REMARK SMILES CCCCCCC(=O)[O-]
REMARK SMILES IDX 5 1 6 2 7 3 8 4 9 5 4 6 3 7 2 8 1 9
REMARK H PARENT
REMARK Flexibility Score: inf
ROOT
ATOM      1  C   UNL     1      43.788  58.217  49.107  1.00  0.00     0.006 C 
ENDROOT
BRANCH   1   2
ATOM      2  C   UNL     1      44.607  58.096  47.818  1.00  0.00     0.053 C 
BRANCH   2   3
ATOM      3  C   UNL     1      43.859  58.687  46.664  1.00  0.00     0.041 C 
ATOM      4  O   UNL     1      43.793  58.070  45.568  1.00  0.00    -0.550 OA
ATOM      5  O   UNL     1      43.191  59.896  46.815  1.00  0.00    -0.550 OA
ENDBRANCH   2   3
ENDBRANCH   1   2
BRANCH   1   6
ATOM      6  C   UNL     1      42.586  57.260  49.088  1.00  0.00     0.000 C 
BRANCH   6   7
ATOM      7  C   UNL     1      41.246  58.000  49.281  1.00  0.00    -0.000 C 
BRANCH   7   8
ATOM      8  C   UNL     1      40.346  57.977  48.034  1.00  0.00    -0.003 C 
ATOM      9  C   UNL     1      40.640  56.802  47.103  1.00  0.00     0.004 C 
ENDBRANCH   7   8
ENDBRANCH   6   7
ENDBRANCH   1   6
TORSDOF 5
ENDMDL
MODEL 4
REMARK VINA RESULT:    -4.103      2.828      4.337
REMARK INTER + INTRA:          -5.686
REMARK INTER:                  -5.290
REMARK INTRA:                  -0.395
REMARK UNBOUND:                -0.384
REMARK SMILES CCCCCCC(=O)[O-]
REMARK SMILES IDX 5 1 6 2 7 3 8 4 9 5 4 6 3 7 2 8 1 9
REMARK H PARENT
REMARK Flexibility Score: inf
ROOT
ATOM      1  C   UNL     1      41.374  58.800  48.834  1.00  0.00     0.006 C 
ENDROOT
BRANCH   1   2
ATOM      2  C   UNL     1      41.886  60.154  48.333  1.00  0.00     0.053 C 
BRANCH   2   3
ATOM      3  C   UNL     1      42.920  60.701  49.267  1.00  0.00     0.041 C 
ATOM      4  O   UNL     1      42.697  61.761  49.909  1.00  0.00    -0.550 OA
ATOM      5  O   UNL     1      44.110  60.013  49.467  1.00  0.00    -0.550 OA
ENDBRANCH   2   3
ENDBRANCH   1   2
BRANCH   1   6
ATOM      6  C   UNL     1      41.656  57.691  47.810  1.00  0.00     0.000 C 
BRANCH   6   7
ATOM      7  C   UNL     1      42.959  56.924  48.122  1.00  0.00    -0.000 C 
BRANCH   7   8
ATOM      8  C   UNL     1      44.135  57.314  47.212  1.00  0.00    -0.003 C 
ATOM      9  C   UNL     1      43.693  58.004  45.923  1.00  0.00     0.004 C 
ENDBRANCH   7   8
ENDBRANCH   6   7
ENDBRANCH   1   6
TORSDOF 5
ENDMDL
MODEL 5
REMARK VINA RESULT:    -4.079      2.845      4.255
REMARK INTER + INTRA:          -5.655
REMARK INTER:                  -5.258
REMARK INTRA:                  -0.397
REMARK UNBOUND:                -0.384
REMARK SMILES CCCCCCC(=O)[O-]
REMARK SMILES IDX 5 1 6 2 7 3 8 4 9 5 4 6 3 7 2 8 1 9
REMARK H PARENT
REMARK Flexibility Score: inf
ROOT
ATOM      1  C   UNL     1      41.455  58.759  48.950  1.00  0.00     0.006 C 
ENDROOT
BRANCH   1   2
ATOM      2  C   UNL     1      41.950  60.116  48.442  1.00  0.00     0.053 C 
BRANCH   2   3
ATOM      3  C   UNL     1      43.055  60.630  49.310  1.00  0.00     0.041 C 
ATOM      4  O   UNL     1      44.097  59.944  49.481  1.00  0.00    -0.550 OA
ATOM      5  O   UNL     1      42.956  61.888  49.890  1.00  0.00    -0.550 OA
ENDBRANCH   2   3
ENDBRANCH   1   2
BRANCH   1   6
ATOM      6  C   UNL     1      41.708  57.656  47.912  1.00  0.00     0.000 C 
BRANCH   6   7
ATOM      7  C   UNL     1      43.007  56.872  48.196  1.00  0.00    -0.000 C 
BRANCH   7   8
ATOM      8  C   UNL     1      44.169  57.249  47.261  1.00  0.00    -0.003 C 
ATOM      9  C   UNL     1      43.710  57.965  45.993  1.00  0.00     0.004 C 
ENDBRANCH   7   8
ENDBRANCH   6   7
ENDBRANCH   1   6
TORSDOF 5
ENDMDL
MODEL 6
REMARK VINA RESULT:    -4.070      1.703      3.574
REMARK INTER + INTRA:          -5.643
REMARK INTER:                  -5.326
REMARK INTRA:                  -0.317
REMARK UNBOUND:                -0.384
REMARK SMILES CCCCCCC(=O)[O-]
REMARK SMILES IDX 5 1 6 2 7 3 8 4 9 5 4 6 3 7 2 8 1 9
REMARK H PARENT
REMARK Flexibility Score: inf
ROOT
ATOM      1  C   UNL     1      41.968  59.738  47.604  1.00  0.00     0.006 C 
ENDROOT
BRANCH   1   2
ATOM      2  C   UNL     1      41.506  58.765  48.694  1.00  0.00     0.053 C 
BRANCH   2   3
ATOM      3  C   UNL     1      40.440  57.857  48.168  1.00  0.00     0.041 C 
ATOM      4  O   UNL     1      39.329  57.776  48.756  1.00  0.00    -0.550 OA
ATOM      5  O   UNL     1      40.654  57.137  46.999  1.00  0.00    -0.550 OA
ENDBRANCH   2   3
ENDBRANCH   1   2
BRANCH   1   6
ATOM      6  C   UNL     1      43.489  59.662  47.406  1.00  0.00     0.000 C 
BRANCH   6   7
ATOM      7  C   UNL     1      43.918  58.382  46.656  1.00  0.00    -0.000 C 
BRANCH   7   8
ATOM      8  C   UNL     1      44.618  57.349  47.555  1.00  0.00    -0.003 C 
ATOM      9  C   UNL     1      45.391  57.984  48.709  1.00  0.00     0.004 C 
ENDBRANCH   7   8
ENDBRANCH   6   7
ENDBRANCH   1   6
TORSDOF 5
ENDMDL
MODEL 7
REMARK VINA RESULT:    -4.047      2.725      3.437
REMARK INTER + INTRA:          -5.613
REMARK INTER:                  -5.276
REMARK INTRA:                  -0.338
REMARK UNBOUND:                -0.384
REMARK SMILES CCCCCCC(=O)[O-]
REMARK SMILES IDX 5 1 6 2 7 3 8 4 9 5 4 6 3 7 2 8 1 9
REMARK H PARENT
REMARK Flexibility Score: inf
ROOT
ATOM      1  C   UNL     1      43.773  58.468  46.372  1.00  0.00     0.006 C 
ENDROOT
BRANCH   1   2
ATOM      2  C   UNL     1      44.182  57.375  47.365  1.00  0.00     0.053 C 
BRANCH   2   3
ATOM      3  C   UNL     1      45.109  57.928  48.401  1.00  0.00     0.041 C 
ATOM      4  O   UNL     1      44.751  58.902  49.116  1.00  0.00    -0.550 OA
ATOM      5  O   UNL     1      46.348  57.338  48.612  1.00  0.00    -0.550 OA
ENDBRANCH   2   3
ENDBRANCH   1   2
BRANCH   1   6
ATOM      6  C   UNL     1      42.292  58.839  46.541  1.00  0.00     0.000 C 
BRANCH   6   7
ATOM      7  C   UNL     1      41.382  57.594  46.616  1.00  0.00    -0.000 C 
BRANCH   7   8
ATOM      8  C   UNL     1      40.453  57.585  47.842  1.00  0.00    -0.003 C 
ATOM      9  C   UNL     1      41.036  58.328  49.042  1.00  0.00     0.004 C 
ENDBRANCH   7   8
ENDBRANCH   6   7
ENDBRANCH   1   6
TORSDOF 5
ENDMDL
MODEL 8
REMARK VINA RESULT:    -4.023      1.203      2.504
REMARK INTER + INTRA:          -5.583
REMARK INTER:                  -5.191
REMARK INTRA:                  -0.392
REMARK UNBOUND:                -0.384
REMARK SMILES CCCCCCC(=O)[O-]
REMARK SMILES IDX 5 1 6 2 7 3 8 4 9 5 4 6 3 7 2 8 1 9
REMARK H PARENT
REMARK Flexibility Score: inf
ROOT
ATOM      1  C   UNL     1      41.653  59.124  48.052  1.00  0.00     0.006 C 
ENDROOT
BRANCH   1   2
ATOM      2  C   UNL     1      42.098  59.126  46.586  1.00  0.00     0.053 C 
BRANCH   2   3
ATOM      3  C   UNL     1      41.752  57.826  45.932  1.00  0.00     0.041 C 
ATOM      4  O   UNL     1      42.590  57.247  45.191  1.00  0.00    -0.550 OA
ATOM      5  O   UNL     1      40.524  57.227  46.181  1.00  0.00    -0.550 OA
ENDBRANCH   2   3
ENDBRANCH   1   2
BRANCH   1   6
ATOM      6  C   UNL     1      42.647  58.348  48.929  1.00  0.00     0.000 C 
BRANCH   6   7
ATOM      7  C   UNL     1      44.014  59.058  49.031  1.00  0.00    -0.000 C 
BRANCH   7   8
ATOM      8  C   UNL     1      45.209  58.138  48.732  1.00  0.00    -0.003 C 
ATOM      9  C   UNL     1      44.826  56.902  47.919  1.00  0.00     0.004 C 
ENDBRANCH   7   8
ENDBRANCH   6   7
ENDBRANCH   1   6
TORSDOF 5
ENDMDL
MODEL 9
REMARK VINA RESULT:    -3.980      1.523      1.831
REMARK INTER + INTRA:          -5.527
REMARK INTER:                  -5.126
REMARK INTRA:                  -0.400
REMARK UNBOUND:                -0.384
REMARK SMILES CCCCCCC(=O)[O-]
REMARK SMILES IDX 5 1 6 2 7 3 8 4 9 5 4 6 3 7 2 8 1 9
REMARK H PARENT
REMARK Flexibility Score: inf
ROOT
ATOM      1  C   UNL     1      43.991  56.970  47.642  1.00  0.00     0.006 C 
ENDROOT
BRANCH   1   2
ATOM      2  C   UNL     1      43.316  57.648  46.445  1.00  0.00     0.053 C 
BRANCH   2   3
ATOM      3  C   UNL     1      41.829  57.641  46.609  1.00  0.00     0.041 C 
ATOM      4  O   UNL     1      41.079  57.687  45.598  1.00  0.00    -0.550 OA
ATOM      5  O   UNL     1      41.270  57.533  47.876  1.00  0.00    -0.550 OA
ENDBRANCH   2   3
ENDBRANCH   1   2
BRANCH   1   6
ATOM      6  C   UNL     1      45.042  57.893  48.277  1.00  0.00     0.000 C 
BRANCH   6   7
ATOM      7  C   UNL     1      44.467  58.711  49.453  1.00  0.00    -0.000 C 
BRANCH   7   8
ATOM      8  C   UNL     1      44.176  60.179  49.097  1.00  0.00    -0.003 C 
ATOM      9  C   UNL     1      42.686  60.513  49.102  1.00  0.00     0.004 C 
ENDBRANCH   7   8
ENDBRANCH   6   7
ENDBRANCH   1   6
TORSDOF 5
ENDMDL
