MODEL 1
REMARK VINA RESULT:    -3.337      0.000      0.000
REMARK INTER + INTRA:          -5.306
REMARK INTER:                  -5.092
REMARK INTRA:                  -0.214
REMARK UNBOUND:                -0.214
REMARK SMILES CC1=CCC[C@H](C)C(=O)C[C@H](C(C)C)C(=O)C1
REMARK SMILES IDX 8 1 9 2 6 3 7 4 5 5 4 6 3 7 2 8 1 9 10 11 11 12 15 13 16 14
REMARK SMILES IDX 17 15 12 17 13 18 14 19
REMARK H PARENT
REMARK Flexibility Score: 70.00
ROOT
ATOM      1  C   UNL     1      16.274  23.845  32.210  1.00  0.00     0.136 C 
ATOM      2  O   UNL     1      17.115  24.481  31.584  1.00  0.00    -0.299 OA
ENDROOT
BRANCH   1   3
ATOM      3  C   UNL     1      16.701  22.608  32.999  1.00  0.00     0.053 C 
ATOM      4  C   UNL     1      17.055  21.447  32.048  1.00  0.00     0.016 C 
BRANCH   3   5
ATOM      5  C   UNL     1      17.895  22.889  33.948  1.00  0.00     0.015 C 
BRANCH   5   6
ATOM      6  C   UNL     1      17.624  23.910  35.072  1.00  0.00     0.028 C 
BRANCH   6   7
ATOM      7  C   UNL     1      18.064  25.308  34.699  1.00  0.00    -0.028 C 
ATOM      8  C   UNL     1      17.315  26.440  34.769  1.00  0.00    -0.070 CG0
ATOM      9  C   UNL     1      18.007  27.766  34.535  1.00  0.00     0.039 C 
ATOM     10  G   UNL     1      15.826  26.463  35.073  1.00  0.00     0.000 G0
ENDBRANCH   6   7
ENDBRANCH   5   6
ENDBRANCH   3   5
ENDBRANCH   1   3
BRANCH   1  11
ATOM     11  C   UNL     1      14.838  24.336  32.166  1.00  0.00     0.087 C 
BRANCH  11  12
ATOM     12  C   UNL     1      14.336  24.895  33.537  1.00  0.00     0.066 C 
BRANCH  12  13
ATOM     13  C   UNL     1      14.950  26.260  33.865  1.00  0.00     0.140 C 
ATOM     14  O   UNL     1      14.685  27.236  33.181  1.00  0.00    -0.299 OA
BRANCH  13  15
ATOM     15  C   UNL     1      15.816  26.488  35.090  1.00  0.00     0.106 CG0
ATOM     16  G   UNL     1      17.301  26.430  34.770  1.00  0.00     0.000 G0
ENDBRANCH  13  15
ENDBRANCH  12  13
BRANCH  12  17
ATOM     17  C   UNL     1      12.766  24.837  33.605  1.00  0.00    -0.006 C 
ATOM     18  C   UNL     1      12.199  25.736  34.708  1.00  0.00     0.008 C 
ATOM     19  C   UNL     1      12.061  25.135  32.265  1.00  0.00     0.008 C 
ENDBRANCH  12  17
ENDBRANCH  11  12
ENDBRANCH   1  11
TORSDOF 1
ENDMDL
MODEL 2
REMARK VINA RESULT:    -3.279      2.357      4.818
REMARK INTER + INTRA:          -5.218
REMARK INTER:                  -4.875
REMARK INTRA:                  -0.343
REMARK UNBOUND:                -0.214
REMARK SMILES CC1=CCC[C@H](C)C(=O)C[C@H](C(C)C)C(=O)C1
REMARK SMILES IDX 8 1 9 2 6 3 7 4 5 5 4 6 3 7 2 8 1 9 10 11 11 12 15 13 16 14
REMARK SMILES IDX 17 15 12 17 13 18 14 19
REMARK H PARENT
REMARK Flexibility Score: 70.00
ROOT
ATOM      1  C   UNL     1      14.443  25.394  33.848  1.00  0.00     0.136 C 
ATOM      2  O   UNL     1      14.409  26.437  34.492  1.00  0.00    -0.299 OA
ENDROOT
BRANCH   1   3
ATOM      3  C   UNL     1      13.275  25.038  32.929  1.00  0.00     0.053 C 
ATOM      4  C   UNL     1      11.991  24.790  33.745  1.00  0.00     0.016 C 
BRANCH   3   5
ATOM      5  C   UNL     1      13.011  26.125  31.854  1.00  0.00     0.015 C 
BRANCH   5   6
ATOM      6  C   UNL     1      13.972  26.114  30.649  1.00  0.00     0.028 C 
BRANCH   6   7
ATOM      7  C   UNL     1      14.982  27.239  30.705  1.00  0.00    -0.028 C 
ATOM      8  C   UNL     1      16.334  27.119  30.651  1.00  0.00    -0.070 CG0
ATOM      9  C   UNL     1      17.155  28.384  30.527  1.00  0.00     0.039 C 
ATOM     10  G   UNL     1      17.078  25.795  30.704  1.00  0.00     0.000 G0
ENDBRANCH   6   7
ENDBRANCH   5   6
ENDBRANCH   3   5
ENDBRANCH   1   3
BRANCH   1  11
ATOM     11  C   UNL     1      15.666  24.507  34.004  1.00  0.00     0.087 C 
BRANCH  11  12
ATOM     12  C   UNL     1      16.329  24.129  32.639  1.00  0.00     0.066 C 
BRANCH  12  13
ATOM     13  C   UNL     1      17.245  25.239  32.114  1.00  0.00     0.140 C 
ATOM     14  O   UNL     1      18.169  25.653  32.798  1.00  0.00    -0.299 OA
BRANCH  13  15
ATOM     15  C   UNL     1      17.122  25.797  30.707  1.00  0.00     0.106 CG0
ATOM     16  G   UNL     1      16.337  27.098  30.666  1.00  0.00     0.000 G0
ENDBRANCH  13  15
ENDBRANCH  12  13
BRANCH  12  17
ATOM     17  C   UNL     1      16.993  22.706  32.734  1.00  0.00    -0.006 C 
ATOM     18  C   UNL     1      17.689  22.302  31.429  1.00  0.00     0.008 C 
ATOM     19  C   UNL     1      17.961  22.536  33.924  1.00  0.00     0.008 C 
ENDBRANCH  12  17
ENDBRANCH  11  12
ENDBRANCH   1  11
TORSDOF 1
ENDMDL
MODEL 3
REMARK VINA RESULT:    -2.903      7.470      8.828
REMARK INTER + INTRA:          -4.644
REMARK INTER:                  -4.487
REMARK INTRA:                  -0.156
REMARK UNBOUND:                -0.214
REMARK SMILES CC1=CCC[C@H](C)C(=O)C[C@H](C(C)C)C(=O)C1
REMARK SMILES IDX 8 1 9 2 6 3 7 4 5 5 4 6 3 7 2 8 1 9 10 11 11 12 15 13 16 14
REMARK SMILES IDX 17 15 12 17 13 18 14 19
REMARK H PARENT
REMARK Flexibility Score: 70.00
ROOT
ATOM      1  C   UNL     1      14.150  26.376  24.972  1.00  0.00     0.136 C 
ATOM      2  O   UNL     1      13.198  25.722  24.563  1.00  0.00    -0.299 OA
ENDROOT
BRANCH   1   3
ATOM      3  C   UNL     1      15.290  25.669  25.705  1.00  0.00     0.053 C 
ATOM      4  C   UNL     1      16.591  26.492  25.618  1.00  0.00     0.016 C 
BRANCH   3   5
ATOM      5  C   UNL     1      14.953  25.378  27.191  1.00  0.00     0.015 C 
BRANCH   5   6
ATOM      6  C   UNL     1      14.835  26.617  28.100  1.00  0.00     0.028 C 
BRANCH   6   7
ATOM      7  C   UNL     1      13.398  26.952  28.435  1.00  0.00    -0.028 C 
ATOM      8  C   UNL     1      12.735  28.094  28.114  1.00  0.00    -0.070 CG0
ATOM      9  C   UNL     1      11.246  28.148  28.372  1.00  0.00     0.039 C 
ATOM     10  G   UNL     1      13.393  29.323  27.505  1.00  0.00     0.000 G0
ENDBRANCH   6   7
ENDBRANCH   5   6
ENDBRANCH   3   5
ENDBRANCH   1   3
BRANCH   1  11
ATOM     11  C   UNL     1      14.140  27.874  24.721  1.00  0.00     0.087 C 
BRANCH  11  12
ATOM     12  C   UNL     1      12.760  28.540  25.029  1.00  0.00     0.066 C 
BRANCH  12  13
ATOM     13  C   UNL     1      12.869  29.624  26.106  1.00  0.00     0.140 C 
ATOM     14  O   UNL     1      12.471  30.757  25.885  1.00  0.00    -0.299 OA
BRANCH  13  15
ATOM     15  C   UNL     1      13.367  29.328  27.510  1.00  0.00     0.106 CG0
ATOM     16  G   UNL     1      12.713  28.093  28.108  1.00  0.00     0.000 G0
ENDBRANCH  13  15
ENDBRANCH  12  13
BRANCH  12  17
ATOM     17  C   UNL     1      12.066  28.995  23.693  1.00  0.00    -0.006 C 
ATOM     18  C   UNL     1      12.966  28.787  22.471  1.00  0.00     0.008 C 
ATOM     19  C   UNL     1      10.683  28.356  23.447  1.00  0.00     0.008 C 
ENDBRANCH  12  17
ENDBRANCH  11  12
ENDBRANCH   1  11
TORSDOF 1
ENDMDL
MODEL 4
REMARK VINA RESULT:    -2.865      7.071      9.096
REMARK INTER + INTRA:          -4.587
REMARK INTER:                  -4.292
REMARK INTRA:                  -0.295
REMARK UNBOUND:                -0.214
REMARK SMILES CC1=CCC[C@H](C)C(=O)C[C@H](C(C)C)C(=O)C1
REMARK SMILES IDX 8 1 9 2 6 3 7 4 5 5 4 6 3 7 2 8 1 9 10 11 11 12 15 13 16 14
REMARK SMILES IDX 17 15 12 17 13 18 14 19
REMARK H PARENT
REMARK Flexibility Score: 70.00
ROOT
ATOM      1  C   UNL     1      13.636  27.107  24.504  1.00  0.00     0.136 C 
ATOM      2  O   UNL     1      12.956  26.098  24.351  1.00  0.00    -0.299 OA
ENDROOT
BRANCH   1   3
ATOM      3  C   UNL     1      13.046  28.473  24.155  1.00  0.00     0.053 C 
ATOM      4  C   UNL     1      12.687  28.549  22.658  1.00  0.00     0.016 C 
BRANCH   3   5
ATOM      5  C   UNL     1      11.798  28.817  25.010  1.00  0.00     0.015 C 
BRANCH   5   6
ATOM      6  C   UNL     1      12.088  29.293  26.448  1.00  0.00     0.028 C 
BRANCH   6   7
ATOM      7  C   UNL     1      11.554  28.337  27.491  1.00  0.00    -0.028 C 
ATOM      8  C   UNL     1      12.263  27.741  28.485  1.00  0.00    -0.070 CG0
ATOM      9  C   UNL     1      11.499  26.972  29.541  1.00  0.00     0.039 C 
ATOM     10  G   UNL     1      13.777  27.798  28.608  1.00  0.00     0.000 G0
ENDBRANCH   6   7
ENDBRANCH   5   6
ENDBRANCH   3   5
ENDBRANCH   1   3
BRANCH   1  11
ATOM     11  C   UNL     1      15.046  26.935  25.042  1.00  0.00     0.087 C 
BRANCH  11  12
ATOM     12  C   UNL     1      15.276  27.663  26.406  1.00  0.00     0.066 C 
BRANCH  12  13
ATOM     13  C   UNL     1      14.515  26.993  27.555  1.00  0.00     0.140 C 
ATOM     14  O   UNL     1      14.543  25.780  27.690  1.00  0.00    -0.299 OA
BRANCH  13  15
ATOM     15  C   UNL     1      13.792  27.792  28.625  1.00  0.00     0.106 CG0
ATOM     16  G   UNL     1      12.280  27.723  28.476  1.00  0.00     0.000 G0
ENDBRANCH  13  15
ENDBRANCH  12  13
BRANCH  12  17
ATOM     17  C   UNL     1      16.815  27.871  26.658  1.00  0.00    -0.006 C 
ATOM     18  C   UNL     1      17.673  27.249  25.552  1.00  0.00     0.008 C 
ATOM     19  C   UNL     1      17.228  29.340  26.884  1.00  0.00     0.008 C 
ENDBRANCH  12  17
ENDBRANCH  11  12
ENDBRANCH   1  11
TORSDOF 1
ENDMDL
MODEL 5
REMARK VINA RESULT:    -2.864      5.748      7.043
REMARK INTER + INTRA:          -4.584
REMARK INTER:                  -4.235
REMARK INTRA:                  -0.349
REMARK UNBOUND:                -0.214
REMARK SMILES CC1=CCC[C@H](C)C(=O)C[C@H](C(C)C)C(=O)C1
REMARK SMILES IDX 8 1 9 2 6 3 7 4 5 5 4 6 3 7 2 8 1 9 10 11 11 12 15 13 16 14
REMARK SMILES IDX 17 15 12 17 13 18 14 19
REMARK H PARENT
REMARK Flexibility Score: 70.00
ROOT
ATOM      1  C   UNL     1      13.401  28.028  26.251  1.00  0.00     0.136 C 
ATOM      2  O   UNL     1      13.977  29.091  26.054  1.00  0.00    -0.299 OA
ENDROOT
BRANCH   1   3
ATOM      3  C   UNL     1      13.522  26.904  25.223  1.00  0.00     0.053 C 
ATOM      4  C   UNL     1      12.778  27.268  23.922  1.00  0.00     0.016 C 
BRANCH   3   5
ATOM      5  C   UNL     1      14.997  26.549  24.900  1.00  0.00     0.015 C 
BRANCH   5   6
ATOM      6  C   UNL     1      15.770  25.833  26.026  1.00  0.00     0.028 C 
BRANCH   6   7
ATOM      7  C   UNL     1      16.756  26.746  26.720  1.00  0.00    -0.028 C 
ATOM      8  C   UNL     1      16.830  26.998  28.053  1.00  0.00    -0.070 CG0
ATOM      9  C   UNL     1      18.015  27.789  28.562  1.00  0.00     0.039 C 
ATOM     10  G   UNL     1      15.800  26.533  29.070  1.00  0.00     0.000 G0
ENDBRANCH   6   7
ENDBRANCH   5   6
ENDBRANCH   3   5
ENDBRANCH   1   3
BRANCH   1  11
ATOM     11  C   UNL     1      12.590  27.888  27.528  1.00  0.00     0.087 C 
BRANCH  11  12
ATOM     12  C   UNL     1      13.224  26.892  28.553  1.00  0.00     0.066 C 
BRANCH  12  13
ATOM     13  C   UNL     1      14.561  27.399  29.102  1.00  0.00     0.140 C 
ATOM     14  O   UNL     1      14.631  28.489  29.647  1.00  0.00    -0.299 OA
BRANCH  13  15
ATOM     15  C   UNL     1      15.818  26.548  29.092  1.00  0.00     0.106 CG0
ATOM     16  G   UNL     1      16.820  27.005  28.043  1.00  0.00     0.000 G0
ENDBRANCH  13  15
ENDBRANCH  12  13
BRANCH  12  17
ATOM     17  C   UNL     1      12.165  26.490  29.644  1.00  0.00    -0.006 C 
ATOM     18  C   UNL     1      12.801  25.749  30.825  1.00  0.00     0.008 C 
ATOM     19  C   UNL     1      11.306  27.665  30.158  1.00  0.00     0.008 C 
ENDBRANCH  12  17
ENDBRANCH  11  12
ENDBRANCH   1  11
TORSDOF 1
ENDMDL
MODEL 6
REMARK VINA RESULT:    -2.862      1.937      2.485
REMARK INTER + INTRA:          -4.581
REMARK INTER:                  -4.239
REMARK INTRA:                  -0.342
REMARK UNBOUND:                -0.214
REMARK SMILES CC1=CCC[C@H](C)C(=O)C[C@H](C(C)C)C(=O)C1
REMARK SMILES IDX 8 1 9 2 6 3 7 4 5 5 4 6 3 7 2 8 1 9 10 11 11 12 15 13 16 14
REMARK SMILES IDX 17 15 12 17 13 18 14 19
REMARK H PARENT
REMARK Flexibility Score: 70.00
ROOT
ATOM      1  C   UNL     1      15.517  24.537  33.943  1.00  0.00     0.136 C 
ATOM      2  O   UNL     1      15.087  24.744  35.072  1.00  0.00    -0.299 OA
ENDROOT
BRANCH   1   3
ATOM      3  C   UNL     1      16.926  23.969  33.766  1.00  0.00     0.053 C 
ATOM      4  C   UNL     1      17.149  23.502  32.315  1.00  0.00     0.016 C 
BRANCH   3   5
ATOM      5  C   UNL     1      18.030  24.983  34.167  1.00  0.00     0.015 C 
BRANCH   5   6
ATOM      6  C   UNL     1      18.341  26.073  33.122  1.00  0.00     0.028 C 
BRANCH   6   7
ATOM      7  C   UNL     1      17.748  27.414  33.494  1.00  0.00    -0.028 C 
ATOM      8  C   UNL     1      16.649  27.995  32.946  1.00  0.00    -0.070 CG0
ATOM      9  C   UNL     1      16.110  29.251  33.596  1.00  0.00     0.039 C 
ATOM     10  G   UNL     1      15.920  27.463  31.722  1.00  0.00     0.000 G0
ENDBRANCH   6   7
ENDBRANCH   5   6
ENDBRANCH   3   5
ENDBRANCH   1   3
BRANCH   1  11
ATOM     11  C   UNL     1      14.609  24.860  32.770  1.00  0.00     0.087 C 
BRANCH  11  12
ATOM     12  C   UNL     1      13.870  26.229  32.922  1.00  0.00     0.066 C 
BRANCH  12  13
ATOM     13  C   UNL     1      14.416  27.291  31.962  1.00  0.00     0.140 C 
ATOM     14  O   UNL     1      13.661  28.090  31.431  1.00  0.00    -0.299 OA
BRANCH  13  15
ATOM     15  C   UNL     1      15.902  27.471  31.710  1.00  0.00     0.106 CG0
ATOM     16  G   UNL     1      16.639  27.989  32.935  1.00  0.00     0.000 G0
ENDBRANCH  13  15
ENDBRANCH  12  13
BRANCH  12  17
ATOM     17  C   UNL     1      12.313  26.014  32.863  1.00  0.00    -0.006 C 
ATOM     18  C   UNL     1      11.938  24.586  32.454  1.00  0.00     0.008 C 
ATOM     19  C   UNL     1      11.569  26.407  34.156  1.00  0.00     0.008 C 
ENDBRANCH  12  17
ENDBRANCH  11  12
ENDBRANCH   1  11
TORSDOF 1
ENDMDL
MODEL 7
REMARK VINA RESULT:    -2.855      7.386      9.128
REMARK INTER + INTRA:          -4.571
REMARK INTER:                  -4.496
REMARK INTRA:                  -0.075
REMARK UNBOUND:                -0.214
REMARK SMILES CC1=CCC[C@H](C)C(=O)C[C@H](C(C)C)C(=O)C1
REMARK SMILES IDX 8 1 9 2 6 3 7 4 5 5 4 6 3 7 2 8 1 9 10 11 11 12 15 13 16 14
REMARK SMILES IDX 17 15 12 17 13 18 14 19
REMARK H PARENT
REMARK Flexibility Score: 70.00
ROOT
ATOM      1  C   UNL     1      12.048  29.680  24.730  1.00  0.00     0.136 C 
ATOM      2  O   UNL     1      12.531  30.609  24.093  1.00  0.00    -0.299 OA
ENDROOT
BRANCH   1   3
ATOM      3  C   UNL     1      11.857  28.323  24.053  1.00  0.00     0.053 C 
ATOM      4  C   UNL     1      11.078  28.475  22.731  1.00  0.00     0.016 C 
BRANCH   3   5
ATOM      5  C   UNL     1      13.201  27.595  23.788  1.00  0.00     0.015 C 
BRANCH   5   6
ATOM      6  C   UNL     1      13.443  26.321  24.621  1.00  0.00     0.028 C 
BRANCH   6   7
ATOM      7  C   UNL     1      14.703  26.406  25.454  1.00  0.00    -0.028 C 
ATOM      8  C   UNL     1      14.777  26.570  26.801  1.00  0.00    -0.070 CG0
ATOM      9  C   UNL     1      16.131  26.434  27.460  1.00  0.00     0.039 C 
ATOM     10  G   UNL     1      13.584  26.879  27.691  1.00  0.00     0.000 G0
ENDBRANCH   6   7
ENDBRANCH   5   6
ENDBRANCH   3   5
ENDBRANCH   1   3
BRANCH   1  11
ATOM     11  C   UNL     1      11.667  29.936  26.177  1.00  0.00     0.087 C 
BRANCH  11  12
ATOM     12  C   UNL     1      11.683  28.643  27.056  1.00  0.00     0.066 C 
BRANCH  12  13
ATOM     13  C   UNL     1      13.089  28.306  27.563  1.00  0.00     0.140 C 
ATOM     14  O   UNL     1      13.835  29.192  27.948  1.00  0.00    -0.299 OA
BRANCH  13  15
ATOM     15  C   UNL     1      13.578  26.876  27.710  1.00  0.00     0.106 CG0
ATOM     16  G   UNL     1      14.773  26.578  26.818  1.00  0.00     0.000 G0
ENDBRANCH  13  15
ENDBRANCH  12  13
BRANCH  12  17
ATOM     17  C   UNL     1      10.576  28.730  28.170  1.00  0.00    -0.006 C 
ATOM     18  C   UNL     1      10.996  29.628  29.338  1.00  0.00     0.008 C 
ATOM     19  C   UNL     1       9.186  29.154  27.651  1.00  0.00     0.008 C 
ENDBRANCH  12  17
ENDBRANCH  11  12
ENDBRANCH   1  11
TORSDOF 1
ENDMDL
MODEL 8
REMARK VINA RESULT:    -2.765      6.524      7.801
REMARK INTER + INTRA:          -4.433
REMARK INTER:                  -4.065
REMARK INTRA:                  -0.368
REMARK UNBOUND:                -0.214
REMARK SMILES CC1=CCC[C@H](C)C(=O)C[C@H](C(C)C)C(=O)C1
REMARK SMILES IDX 8 1 9 2 6 3 7 4 5 5 4 6 3 7 2 8 1 9 10 11 11 12 15 13 16 14
REMARK SMILES IDX 17 15 12 17 13 18 14 19
REMARK H PARENT
REMARK Flexibility Score: 70.00
ROOT
ATOM      1  C   UNL     1      16.567  27.446  25.617  1.00  0.00     0.136 C 
ATOM      2  O   UNL     1      16.714  26.523  24.824  1.00  0.00    -0.299 OA
ENDROOT
BRANCH   1   3
ATOM      3  C   UNL     1      15.171  27.764  26.151  1.00  0.00     0.053 C 
ATOM      4  C   UNL     1      14.170  27.950  24.994  1.00  0.00     0.016 C 
BRANCH   3   5
ATOM      5  C   UNL     1      14.647  26.679  27.128  1.00  0.00     0.015 C 
BRANCH   5   6
ATOM      6  C   UNL     1      15.728  25.797  27.784  1.00  0.00     0.028 C 
BRANCH   6   7
ATOM      7  C   UNL     1      15.965  26.156  29.234  1.00  0.00    -0.028 C 
ATOM      8  C   UNL     1      17.054  26.788  29.746  1.00  0.00    -0.070 CG0
ATOM      9  C   UNL     1      17.006  27.228  31.192  1.00  0.00     0.039 C 
ATOM     10  G   UNL     1      18.318  27.088  28.957  1.00  0.00     0.000 G0
ENDBRANCH   6   7
ENDBRANCH   5   6
ENDBRANCH   3   5
ENDBRANCH   1   3
BRANCH   1  11
ATOM     11  C   UNL     1      17.802  28.229  26.028  1.00  0.00     0.087 C 
BRANCH  11  12
ATOM     12  C   UNL     1      17.586  29.084  27.320  1.00  0.00     0.066 C 
BRANCH  12  13
ATOM     13  C   UNL     1      18.395  28.552  28.507  1.00  0.00     0.140 C 
ATOM     14  O   UNL     1      19.056  29.314  29.195  1.00  0.00    -0.299 OA
BRANCH  13  15
ATOM     15  C   UNL     1      18.334  27.100  28.946  1.00  0.00     0.106 CG0
ATOM     16  G   UNL     1      17.077  26.786  29.741  1.00  0.00     0.000 G0
ENDBRANCH  13  15
ENDBRANCH  12  13
BRANCH  12  17
ATOM     17  C   UNL     1      17.794  30.610  27.002  1.00  0.00    -0.006 C 
ATOM     18  C   UNL     1      19.018  30.856  26.113  1.00  0.00     0.008 C 
ATOM     19  C   UNL     1      16.555  31.307  26.401  1.00  0.00     0.008 C 
ENDBRANCH  12  17
ENDBRANCH  11  12
ENDBRANCH   1  11
TORSDOF 1
ENDMDL
MODEL 9
REMARK VINA RESULT:    -2.737      3.193      4.691
REMARK INTER + INTRA:          -4.390
REMARK INTER:                  -4.243
REMARK INTRA:                  -0.147
REMARK UNBOUND:                -0.214
REMARK SMILES CC1=CCC[C@H](C)C(=O)C[C@H](C(C)C)C(=O)C1
REMARK SMILES IDX 8 1 9 2 6 3 7 4 5 5 4 6 3 7 2 8 1 9 10 11 11 12 15 13 16 14
REMARK SMILES IDX 17 15 12 17 13 18 14 19
REMARK H PARENT
REMARK Flexibility Score: 70.00
ROOT
ATOM      1  C   UNL     1      14.997  24.620  32.657  1.00  0.00     0.136 C 
ATOM      2  O   UNL     1      15.339  23.781  33.483  1.00  0.00    -0.299 OA
ENDROOT
BRANCH   1   3
ATOM      3  C   UNL     1      16.033  25.190  31.689  1.00  0.00     0.053 C 
ATOM      4  C   UNL     1      17.238  24.238  31.553  1.00  0.00     0.016 C 
BRANCH   3   5
ATOM      5  C   UNL     1      15.439  25.487  30.287  1.00  0.00     0.015 C 
BRANCH   5   6
ATOM      6  C   UNL     1      15.257  26.979  29.945  1.00  0.00     0.028 C 
BRANCH   6   7
ATOM      7  C   UNL     1      13.951  27.254  29.234  1.00  0.00    -0.028 C 
ATOM      8  C   UNL     1      12.884  27.934  29.730  1.00  0.00    -0.070 CG0
ATOM      9  C   UNL     1      11.750  28.265  28.785  1.00  0.00     0.039 C 
ATOM     10  G   UNL     1      12.757  28.390  31.175  1.00  0.00     0.000 G0
ENDBRANCH   6   7
ENDBRANCH   5   6
ENDBRANCH   3   5
ENDBRANCH   1   3
BRANCH   1  11
ATOM     11  C   UNL     1      13.539  25.045  32.642  1.00  0.00     0.087 C 
BRANCH  11  12
ATOM     12  C   UNL     1      13.332  26.548  33.020  1.00  0.00     0.066 C 
BRANCH  12  13
ATOM     13  C   UNL     1      12.332  27.246  32.092  1.00  0.00     0.140 C 
ATOM     14  O   UNL     1      11.148  26.951  32.128  1.00  0.00    -0.299 OA
BRANCH  13  15
ATOM     15  C   UNL     1      12.734  28.388  31.177  1.00  0.00     0.106 CG0
ATOM     16  G   UNL     1      12.878  27.947  29.729  1.00  0.00     0.000 G0
ENDBRANCH  13  15
ENDBRANCH  12  13
BRANCH  12  17
ATOM     17  C   UNL     1      13.023  26.684  34.556  1.00  0.00    -0.006 C 
ATOM     18  C   UNL     1      12.682  28.123  34.955  1.00  0.00     0.008 C 
ATOM     19  C   UNL     1      11.935  25.719  35.072  1.00  0.00     0.008 C 
ENDBRANCH  12  17
ENDBRANCH  11  12
ENDBRANCH   1  11
TORSDOF 1
ENDMDL
