MODEL 1
REMARK VINA RESULT:    -1.716      0.000      0.000
REMARK INTER + INTRA:          -2.475
REMARK INTER:                  -2.217
REMARK INTRA:                  -0.258
REMARK UNBOUND:                -0.258
REMARK SMILES CCCCCCC=O
REMARK SMILES IDX 4 1 3 2 2 3 1 4 5 5 6 6 7 7 8 8
REMARK H PARENT
REMARK Flexibility Score: inf
ROOT
ATOM      1  C   UNL     1     125.856 109.788 135.567  1.00  0.00     0.000 C 
ENDROOT
BRANCH   1   2
ATOM      2  C   UNL     1     126.747 109.722 134.318  1.00  0.00    -0.000 C 
BRANCH   2   3
ATOM      3  C   UNL     1     126.766 108.304 133.733  1.00  0.00    -0.003 C 
ATOM      4  C   UNL     1     126.308 107.275 134.762  1.00  0.00     0.004 C 
ENDBRANCH   2   3
ENDBRANCH   1   2
BRANCH   1   5
ATOM      5  C   UNL     1     126.344 110.826 136.593  1.00  0.00     0.008 C 
BRANCH   5   6
ATOM      6  C   UNL     1     126.420 110.298 138.035  1.00  0.00     0.072 C 
BRANCH   6   7
ATOM      7  C   UNL     1     125.955 108.876 138.147  1.00  0.00     0.224 C 
ATOM      8  O   UNL     1     126.667 108.030 138.664  1.00  0.00    -0.303 OA
ENDBRANCH   6   7
ENDBRANCH   5   6
ENDBRANCH   1   5
TORSDOF 5
ENDMDL
MODEL 2
REMARK VINA RESULT:    -1.701      2.112      3.773
REMARK INTER + INTRA:          -2.456
REMARK INTER:                  -2.223
REMARK INTRA:                  -0.234
REMARK UNBOUND:                -0.258
REMARK SMILES CCCCCCC=O
REMARK SMILES IDX 4 1 3 2 2 3 1 4 5 5 6 6 7 7 8 8
REMARK H PARENT
REMARK Flexibility Score: inf
ROOT
ATOM      1  C   UNL     1     125.725 109.520 135.869  1.00  0.00     0.000 C 
ENDROOT
BRANCH   1   2
ATOM      2  C   UNL     1     126.118 110.078 137.245  1.00  0.00    -0.000 C 
BRANCH   2   3
ATOM      3  C   UNL     1     126.151 108.965 138.299  1.00  0.00    -0.003 C 
ATOM      4  C   UNL     1     126.234 107.588 137.647  1.00  0.00     0.004 C 
ENDBRANCH   2   3
ENDBRANCH   1   2
BRANCH   1   5
ATOM      5  C   UNL     1     126.468 110.209 134.711  1.00  0.00     0.008 C 
BRANCH   5   6
ATOM      6  C   UNL     1     127.120 109.237 133.714  1.00  0.00     0.072 C 
BRANCH   6   7
ATOM      7  C   UNL     1     126.740 107.810 133.979  1.00  0.00     0.224 C 
ATOM      8  O   UNL     1     127.073 106.926 133.205  1.00  0.00    -0.303 OA
ENDBRANCH   6   7
ENDBRANCH   5   6
ENDBRANCH   1   5
TORSDOF 5
ENDMDL
MODEL 3
REMARK VINA RESULT:    -1.674      1.640      1.889
REMARK INTER + INTRA:          -2.421
REMARK INTER:                  -2.230
REMARK INTRA:                  -0.191
REMARK UNBOUND:                -0.258
REMARK SMILES CCCCCCC=O
REMARK SMILES IDX 4 1 3 2 2 3 1 4 5 5 6 6 7 7 8 8
REMARK H PARENT
REMARK Flexibility Score: inf
ROOT
ATOM      1  C   UNL     1     126.412 111.376 135.777  1.00  0.00     0.000 C 
ENDROOT
BRANCH   1   2
ATOM      2  C   UNL     1     126.176 109.984 135.173  1.00  0.00    -0.000 C 
BRANCH   2   3
ATOM      3  C   UNL     1     126.953 109.817 133.861  1.00  0.00    -0.003 C 
ATOM      4  C   UNL     1     127.125 108.344 133.504  1.00  0.00     0.004 C 
ENDBRANCH   2   3
ENDBRANCH   1   2
BRANCH   1   5
ATOM      5  C   UNL     1     126.693 111.330 137.289  1.00  0.00     0.008 C 
BRANCH   5   6
ATOM      6  C   UNL     1     126.295 110.007 137.964  1.00  0.00     0.072 C 
BRANCH   6   7
ATOM      7  C   UNL     1     125.070 110.150 138.818  1.00  0.00     0.224 C 
ATOM      8  O   UNL     1     124.481 111.217 138.884  1.00  0.00    -0.303 OA
ENDBRANCH   6   7
ENDBRANCH   5   6
ENDBRANCH   1   5
TORSDOF 5
ENDMDL
MODEL 4
REMARK VINA RESULT:    -1.653      2.414      2.902
REMARK INTER + INTRA:          -2.394
REMARK INTER:                  -2.247
REMARK INTRA:                  -0.148
REMARK UNBOUND:                -0.258
REMARK SMILES CCCCCCC=O
REMARK SMILES IDX 4 1 3 2 2 3 1 4 5 5 6 6 7 7 8 8
REMARK H PARENT
REMARK Flexibility Score: inf
ROOT
ATOM      1  C   UNL     1     125.986 110.232 135.851  1.00  0.00     0.000 C 
ENDROOT
BRANCH   1   2
ATOM      2  C   UNL     1     125.965 108.698 135.778  1.00  0.00    -0.000 C 
BRANCH   2   3
ATOM      3  C   UNL     1     126.441 108.208 134.406  1.00  0.00    -0.003 C 
ATOM      4  C   UNL     1     127.124 109.327 133.625  1.00  0.00     0.004 C 
ENDBRANCH   2   3
ENDBRANCH   1   2
BRANCH   1   5
ATOM      5  C   UNL     1     126.425 110.758 137.230  1.00  0.00     0.008 C 
BRANCH   5   6
ATOM      6  C   UNL     1     127.125 112.126 137.188  1.00  0.00     0.072 C 
BRANCH   6   7
ATOM      7  C   UNL     1     126.444 113.140 138.059  1.00  0.00     0.224 C 
ATOM      8  O   UNL     1     127.080 113.769 138.891  1.00  0.00    -0.303 OA
ENDBRANCH   6   7
ENDBRANCH   5   6
ENDBRANCH   1   5
TORSDOF 5
ENDMDL
MODEL 5
REMARK VINA RESULT:    -1.628      2.414      4.044
REMARK INTER + INTRA:          -2.362
REMARK INTER:                  -2.166
REMARK INTRA:                  -0.196
REMARK UNBOUND:                -0.258
REMARK SMILES CCCCCCC=O
REMARK SMILES IDX 4 1 3 2 2 3 1 4 5 5 6 6 7 7 8 8
REMARK H PARENT
REMARK Flexibility Score: inf
ROOT
ATOM      1  C   UNL     1     125.871 108.692 135.627  1.00  0.00     0.000 C 
ENDROOT
BRANCH   1   2
ATOM      2  C   UNL     1     125.907 107.405 136.465  1.00  0.00    -0.000 C 
BRANCH   2   3
ATOM      3  C   UNL     1     126.167 107.720 137.943  1.00  0.00    -0.003 C 
ATOM      4  C   UNL     1     126.260 109.224 138.179  1.00  0.00     0.004 C 
ENDBRANCH   2   3
ENDBRANCH   1   2
BRANCH   1   5
ATOM      5  C   UNL     1     126.624 108.556 134.292  1.00  0.00     0.008 C 
BRANCH   5   6
ATOM      6  C   UNL     1     127.068 109.894 133.680  1.00  0.00     0.072 C 
BRANCH   6   7
ATOM      7  C   UNL     1     126.779 111.057 134.582  1.00  0.00     0.224 C 
ATOM      8  O   UNL     1     127.120 112.186 134.267  1.00  0.00    -0.303 OA
ENDBRANCH   6   7
ENDBRANCH   5   6
ENDBRANCH   1   5
TORSDOF 5
ENDMDL
MODEL 6
REMARK VINA RESULT:    -1.611      1.696      2.409
REMARK INTER + INTRA:          -2.340
REMARK INTER:                  -2.115
REMARK INTRA:                  -0.225
REMARK UNBOUND:                -0.258
REMARK SMILES CCCCCCC=O
REMARK SMILES IDX 4 1 3 2 2 3 1 4 5 5 6 6 7 7 8 8
REMARK H PARENT
REMARK Flexibility Score: inf
ROOT
ATOM      1  C   UNL     1     125.689 108.569 134.986  1.00  0.00     0.000 C 
ENDROOT
BRANCH   1   2
ATOM      2  C   UNL     1     126.855 108.620 133.988  1.00  0.00    -0.000 C 
BRANCH   2   3
ATOM      3  C   UNL     1     127.125 110.060 133.534  1.00  0.00    -0.003 C 
ATOM      4  C   UNL     1     126.731 111.063 134.613  1.00  0.00     0.004 C 
ENDBRANCH   2   3
ENDBRANCH   1   2
BRANCH   1   5
ATOM      5  C   UNL     1     125.990 107.684 136.209  1.00  0.00     0.008 C 
BRANCH   5   6
ATOM      6  C   UNL     1     125.995 108.440 137.548  1.00  0.00     0.072 C 
BRANCH   6   7
ATOM      7  C   UNL     1     124.707 108.277 138.299  1.00  0.00     0.224 C 
ATOM      8  O   UNL     1     123.823 109.114 138.203  1.00  0.00    -0.303 OA
ENDBRANCH   6   7
ENDBRANCH   5   6
ENDBRANCH   1   5
TORSDOF 5
ENDMDL
MODEL 7
REMARK VINA RESULT:    -1.531      3.175      3.977
REMARK INTER + INTRA:          -2.236
REMARK INTER:                  -2.069
REMARK INTRA:                  -0.167
REMARK UNBOUND:                -0.258
REMARK SMILES CCCCCCC=O
REMARK SMILES IDX 4 1 3 2 2 3 1 4 5 5 6 6 7 7 8 8
REMARK H PARENT
REMARK Flexibility Score: inf
ROOT
ATOM      1  C   UNL     1     127.011 109.773 133.726  1.00  0.00     0.000 C 
ENDROOT
BRANCH   1   2
ATOM      2  C   UNL     1     126.682 108.332 134.142  1.00  0.00    -0.000 C 
BRANCH   2   3
ATOM      3  C   UNL     1     126.004 108.299 135.517  1.00  0.00    -0.003 C 
ATOM      4  C   UNL     1     125.616 106.876 135.909  1.00  0.00     0.004 C 
ENDBRANCH   2   3
ENDBRANCH   1   2
BRANCH   1   5
ATOM      5  C   UNL     1     126.619 110.807 134.797  1.00  0.00     0.008 C 
BRANCH   5   6
ATOM      6  C   UNL     1     127.125 112.230 134.513  1.00  0.00     0.072 C 
BRANCH   6   7
ATOM      7  C   UNL     1     126.407 112.870 133.361  1.00  0.00     0.224 C 
ATOM      8  O   UNL     1     125.205 113.074 133.417  1.00  0.00    -0.303 OA
ENDBRANCH   6   7
ENDBRANCH   5   6
ENDBRANCH   1   5
TORSDOF 5
ENDMDL
MODEL 8
REMARK VINA RESULT:    -1.527      2.988      4.705
REMARK INTER + INTRA:          -2.232
REMARK INTER:                  -2.044
REMARK INTRA:                  -0.188
REMARK UNBOUND:                -0.258
REMARK SMILES CCCCCCC=O
REMARK SMILES IDX 4 1 3 2 2 3 1 4 5 5 6 6 7 7 8 8
REMARK H PARENT
REMARK Flexibility Score: inf
ROOT
ATOM      1  C   UNL     1     125.932 109.746 135.413  1.00  0.00     0.000 C 
ENDROOT
BRANCH   1   2
ATOM      2  C   UNL     1     126.459 111.164 135.677  1.00  0.00    -0.000 C 
BRANCH   2   3
ATOM      3  C   UNL     1     126.719 111.384 137.172  1.00  0.00    -0.003 C 
ATOM      4  C   UNL     1     126.334 110.152 137.986  1.00  0.00     0.004 C 
ENDBRANCH   2   3
ENDBRANCH   1   2
BRANCH   1   5
ATOM      5  C   UNL     1     126.682 109.033 134.274  1.00  0.00     0.008 C 
BRANCH   5   6
ATOM      6  C   UNL     1     127.125 109.964 133.132  1.00  0.00     0.072 C 
BRANCH   6   7
ATOM      7  C   UNL     1     126.016 110.242 132.161  1.00  0.00     0.224 C 
ATOM      8  O   UNL     1     126.001 111.280 131.519  1.00  0.00    -0.303 OA
ENDBRANCH   6   7
ENDBRANCH   5   6
ENDBRANCH   1   5
TORSDOF 5
ENDMDL
MODEL 9
REMARK VINA RESULT:    -1.516      1.523      2.122
REMARK INTER + INTRA:          -2.217
REMARK INTER:                  -2.019
REMARK INTRA:                  -0.198
REMARK UNBOUND:                -0.258
REMARK SMILES CCCCCCC=O
REMARK SMILES IDX 4 1 3 2 2 3 1 4 5 5 6 6 7 7 8 8
REMARK H PARENT
REMARK Flexibility Score: inf
ROOT
ATOM      1  C   UNL     1     126.146 109.335 134.937  1.00  0.00     0.000 C 
ENDROOT
BRANCH   1   2
ATOM      2  C   UNL     1     127.107 108.973 133.795  1.00  0.00    -0.000 C 
BRANCH   2   3
ATOM      3  C   UNL     1     127.125 110.072 132.725  1.00  0.00    -0.003 C 
ATOM      4  C   UNL     1     126.164 109.748 131.585  1.00  0.00     0.004 C 
ENDBRANCH   2   3
ENDBRANCH   1   2
BRANCH   1   5
ATOM      5  C   UNL     1     126.038 110.853 135.167  1.00  0.00     0.008 C 
BRANCH   5   6
ATOM      6  C   UNL     1     126.593 111.326 136.521  1.00  0.00     0.072 C 
BRANCH   6   7
ATOM      7  C   UNL     1     126.087 110.498 137.665  1.00  0.00     0.224 C 
ATOM      8  O   UNL     1     126.752 110.373 138.681  1.00  0.00    -0.303 OA
ENDBRANCH   6   7
ENDBRANCH   5   6
ENDBRANCH   1   5
TORSDOF 5
ENDMDL
