MODEL 1
REMARK VINA RESULT:    46.021      0.000      0.000
REMARK INTER + INTRA:          67.849
REMARK INTER:                  67.544
REMARK INTRA:                   0.305
REMARK UNBOUND:                 0.305
REMARK SMILES Cc1cc2c(C(C)C)c(O)c(O)c(C=O)c2c(O)c1-c1c(C)cc2c(C(C)C)c(O)c(O)c(C=O)c2c1O
REMARK SMILES IDX 1 1 2 2 3 3 4 4 16 5 13 6 11 7 9 8 5 9 17 10 19 11 20 12
REMARK SMILES IDX 37 13 21 14 36 15 23 16 22 17 24 18 33 19 25 20 31 21 29 22
REMARK SMILES IDX 38 23 34 25 35 26 26 27 27 28 28 29 32 30 30 32 18 34 6 36
REMARK SMILES IDX 7 37 8 38 14 39 15 40 10 41 12 43
REMARK H PARENT 38 24 32 31 30 33 18 35 10 42 12 44
REMARK Flexibility Score: inf
ROOT
ATOM      1  C   UNL     1     -19.964  -2.408  12.969  1.00  0.00     0.045 C 
ATOM      2  C   UNL     1     -20.161  -1.307  11.959  1.00  0.00    -0.039 A 
ATOM      3  C   UNL     1     -20.432  -0.018  12.408  1.00  0.00     0.013 A 
ATOM      4  C   UNL     1     -20.729   1.036  11.515  1.00  0.00    -0.006 A 
ATOM      5  C   UNL     1     -20.659   0.787  10.108  1.00  0.00     0.039 A 
ATOM      6  C   UNL     1     -20.934   1.853   9.206  1.00  0.00     0.072 A 
ATOM      7  C   UNL     1     -21.057   3.165   9.699  1.00  0.00     0.169 A 
ATOM      8  C   UNL     1     -21.066   3.417  11.074  1.00  0.00     0.162 A 
ATOM      9  C   UNL     1     -21.066   2.339  11.999  1.00  0.00     0.008 A 
ATOM     10  C   UNL     1     -20.297  -0.516   9.655  1.00  0.00     0.132 A 
ATOM     11  C   UNL     1     -20.134  -1.568  10.577  1.00  0.00     0.031 A 
ENDROOT
BRANCH  11  12
ATOM     12  C   UNL     1     -19.963  -2.963  10.099  1.00  0.00     0.031 A 
ATOM     13  C   UNL     1     -21.077  -3.818   9.972  1.00  0.00     0.132 A 
ATOM     14  C   UNL     1     -18.690  -3.404   9.698  1.00  0.00    -0.039 A 
ATOM     15  C   UNL     1     -20.922  -5.119   9.411  1.00  0.00     0.039 A 
ATOM     16  C   UNL     1     -18.563  -4.635   9.050  1.00  0.00     0.013 A 
ATOM     17  C   UNL     1     -17.467  -2.555   9.928  1.00  0.00     0.045 C 
ATOM     18  C   UNL     1     -19.682  -5.457   8.801  1.00  0.00    -0.006 A 
ATOM     19  C   UNL     1     -21.982  -6.070   9.399  1.00  0.00     0.072 A 
ATOM     20  C   UNL     1     -19.586  -6.613   7.974  1.00  0.00     0.008 A 
ATOM     21  C   UNL     1     -21.837  -7.269   8.676  1.00  0.00     0.169 A 
ATOM     22  C   UNL     1     -20.666  -7.528   7.962  1.00  0.00     0.162 A 
BRANCH  13  23
ATOM     23  O   UNL     1     -22.343  -3.357  10.346  1.00  0.00    -0.507 OA
ATOM     24  H   UNL     1     -23.057  -3.940  10.757  1.00  0.00     0.293 HD
ENDBRANCH  13  23
BRANCH  19  25
ATOM     25  C   UNL     1     -23.186  -5.909  10.234  1.00  0.00     0.264 C 
ATOM     26  O   UNL     1     -24.308  -6.304   9.818  1.00  0.00    -0.298 OA
ENDBRANCH  19  25
BRANCH  20  27
ATOM     27  C   UNL     1     -18.350  -6.878   7.092  1.00  0.00     0.017 C 
ATOM     28  C   UNL     1     -17.733  -5.564   6.607  1.00  0.00     0.012 C 
ATOM     29  C   UNL     1     -17.304  -7.786   7.758  1.00  0.00     0.012 C 
ENDBRANCH  20  27
BRANCH  21  30
ATOM     30  O   UNL     1     -22.840  -8.241   8.666  1.00  0.00    -0.504 OA
ATOM     31  H   UNL     1     -23.827  -8.038   8.709  1.00  0.00     0.293 HD
ENDBRANCH  21  30
BRANCH  22  32
ATOM     32  O   UNL     1     -20.561  -8.720   7.243  1.00  0.00    -0.504 OA
ATOM     33  H   UNL     1     -20.003  -9.506   7.555  1.00  0.00     0.293 HD
ENDBRANCH  22  32
ENDBRANCH  11  12
BRANCH  10  34
ATOM     34  O   UNL     1     -20.054  -0.760   8.300  1.00  0.00    -0.507 OA
ATOM     35  H   UNL     1     -19.963  -1.685   7.905  1.00  0.00     0.293 HD
ENDBRANCH  10  34
BRANCH   9  36
ATOM     36  C   UNL     1     -21.445   2.558  13.479  1.00  0.00     0.017 C 
ATOM     37  C   UNL     1     -21.574   1.216  14.223  1.00  0.00     0.012 C 
ATOM     38  C   UNL     1     -20.541   3.564  14.230  1.00  0.00     0.012 C 
ENDBRANCH   9  36
BRANCH   6  39
ATOM     39  C   UNL     1     -21.209   1.618   7.764  1.00  0.00     0.264 C 
ATOM     40  O   UNL     1     -20.316   1.752   6.889  1.00  0.00    -0.298 OA
ENDBRANCH   6  39
BRANCH   8  41
ATOM     41  O   UNL     1     -21.085   4.757  11.474  1.00  0.00    -0.504 OA
ATOM     42  H   UNL     1     -21.917   5.317  11.539  1.00  0.00     0.293 HD
ENDBRANCH   8  41
BRANCH   7  43
ATOM     43  O   UNL     1     -21.214   4.225   8.802  1.00  0.00    -0.504 OA
ATOM     44  H   UNL     1     -22.059   4.367   8.263  1.00  0.00     0.293 HD
ENDBRANCH   7  43
TORSDOF 11
ENDMDL
MODEL 2
REMARK VINA RESULT:    47.255      2.868      9.467
REMARK INTER + INTRA:          69.660
REMARK INTER:                  69.189
REMARK INTRA:                   0.471
REMARK UNBOUND:                 0.305
REMARK SMILES Cc1cc2c(C(C)C)c(O)c(O)c(C=O)c2c(O)c1-c1c(C)cc2c(C(C)C)c(O)c(O)c(C=O)c2c1O
REMARK SMILES IDX 1 1 2 2 3 3 4 4 16 5 13 6 11 7 9 8 5 9 17 10 19 11 20 12
REMARK SMILES IDX 37 13 21 14 36 15 23 16 22 17 24 18 33 19 25 20 31 21 29 22
REMARK SMILES IDX 38 23 34 25 35 26 26 27 27 28 28 29 32 30 30 32 18 34 6 36
REMARK SMILES IDX 7 37 8 38 14 39 15 40 10 41 12 43
REMARK H PARENT 38 24 32 31 30 33 18 35 10 42 12 44
REMARK Flexibility Score: inf
ROOT
ATOM      1  C   UNL     1     -22.116   2.014  13.304  1.00  0.00     0.045 C 
ATOM      2  C   UNL     1     -21.704   0.951  12.317  1.00  0.00    -0.039 A 
ATOM      3  C   UNL     1     -21.548  -0.358  12.761  1.00  0.00     0.013 A 
ATOM      4  C   UNL     1     -21.065  -1.381  11.913  1.00  0.00    -0.006 A 
ATOM      5  C   UNL     1     -20.817  -1.075  10.538  1.00  0.00     0.039 A 
ATOM      6  C   UNL     1     -20.353  -2.108   9.676  1.00  0.00     0.072 A 
ATOM      7  C   UNL     1     -20.350  -3.440  10.129  1.00  0.00     0.169 A 
ATOM      8  C   UNL     1     -20.650  -3.747  11.459  1.00  0.00     0.162 A 
ATOM      9  C   UNL     1     -20.852  -2.706  12.405  1.00  0.00     0.008 A 
ATOM     10  C   UNL     1     -21.062   0.250  10.071  1.00  0.00     0.132 A 
ATOM     11  C   UNL     1     -21.421   1.267  10.976  1.00  0.00     0.031 A 
ENDROOT
BRANCH  11  12
ATOM     12  C   UNL     1     -21.473   2.682  10.532  1.00  0.00     0.031 A 
ATOM     13  C   UNL     1     -20.371   3.538  10.735  1.00  0.00     0.132 A 
ATOM     14  C   UNL     1     -22.601   3.145   9.832  1.00  0.00    -0.039 A 
ATOM     15  C   UNL     1     -20.385   4.863  10.210  1.00  0.00     0.039 A 
ATOM     16  C   UNL     1     -22.565   4.404   9.227  1.00  0.00     0.013 A 
ATOM     17  C   UNL     1     -23.835   2.291   9.699  1.00  0.00     0.045 C 
ATOM     18  C   UNL     1     -21.427   5.232   9.313  1.00  0.00    -0.006 A 
ATOM     19  C   UNL     1     -19.367   5.810  10.516  1.00  0.00     0.072 A 
ATOM     20  C   UNL     1     -21.314   6.424   8.542  1.00  0.00     0.008 A 
ATOM     21  C   UNL     1     -19.328   7.040   9.833  1.00  0.00     0.169 A 
ATOM     22  C   UNL     1     -20.275   7.335   8.850  1.00  0.00     0.162 A 
BRANCH  13  23
ATOM     23  O   UNL     1     -19.242   3.057  11.406  1.00  0.00    -0.507 OA
ATOM     24  H   UNL     1     -19.196   2.159  11.863  1.00  0.00     0.293 HD
ENDBRANCH  13  23
BRANCH  19  25
ATOM     25  C   UNL     1     -18.419   5.608  11.627  1.00  0.00     0.264 C 
ATOM     26  O   UNL     1     -17.225   5.995  11.526  1.00  0.00    -0.298 OA
ENDBRANCH  19  25
BRANCH  20  27
ATOM     27  C   UNL     1     -22.279   6.732   7.380  1.00  0.00     0.017 C 
ATOM     28  C   UNL     1     -22.807   5.439   6.752  1.00  0.00     0.012 C 
ATOM     29  C   UNL     1     -23.423   7.683   7.769  1.00  0.00     0.012 C 
ENDBRANCH  20  27
BRANCH  21  30
ATOM     30  O   UNL     1     -18.365   8.008  10.126  1.00  0.00    -0.504 OA
ATOM     31  H   UNL     1     -17.550   7.843  10.697  1.00  0.00     0.293 HD
ENDBRANCH  21  30
BRANCH  22  32
ATOM     32  O   UNL     1     -20.199   8.558   8.181  1.00  0.00    -0.504 OA
ATOM     33  H   UNL     1     -19.330   9.062   8.051  1.00  0.00     0.293 HD
ENDBRANCH  22  32
ENDBRANCH  11  12
BRANCH  10  34
ATOM     34  O   UNL     1     -20.994   0.551   8.707  1.00  0.00    -0.507 OA
ATOM     35  H   UNL     1     -20.647   1.427   8.344  1.00  0.00     0.293 HD
ENDBRANCH  10  34
BRANCH   9  36
ATOM     36  C   UNL     1     -20.815  -2.989  13.922  1.00  0.00     0.017 C 
ATOM     37  C   UNL     1     -20.867  -1.681  14.732  1.00  0.00     0.012 C 
ATOM     38  C   UNL     1     -21.856  -4.025  14.407  1.00  0.00     0.012 C 
ENDBRANCH   9  36
BRANCH   6  39
ATOM     39  C   UNL     1     -19.762  -1.820   8.343  1.00  0.00     0.264 C 
ATOM     40  O   UNL     1     -20.433  -1.919   7.285  1.00  0.00    -0.298 OA
ENDBRANCH   6  39
BRANCH   8  41
ATOM     41  O   UNL     1     -20.729  -5.102  11.797  1.00  0.00    -0.504 OA
ATOM     42  H   UNL     1     -20.399  -5.489  12.663  1.00  0.00     0.293 HD
ENDBRANCH   8  41
BRANCH   7  43
ATOM     43  O   UNL     1     -20.003  -4.467   9.246  1.00  0.00    -0.504 OA
ATOM     44  H   UNL     1     -19.760  -5.399   9.557  1.00  0.00     0.293 HD
ENDBRANCH   7  43
TORSDOF 11
ENDMDL
MODEL 3
REMARK VINA RESULT:    47.358      6.467     12.344
REMARK INTER + INTRA:          69.812
REMARK INTER:                  58.092
REMARK INTRA:                  11.720
REMARK UNBOUND:                 0.305
REMARK SMILES Cc1cc2c(C(C)C)c(O)c(O)c(C=O)c2c(O)c1-c1c(C)cc2c(C(C)C)c(O)c(O)c(C=O)c2c1O
REMARK SMILES IDX 1 1 2 2 3 3 4 4 16 5 13 6 11 7 9 8 5 9 17 10 19 11 20 12
REMARK SMILES IDX 37 13 21 14 36 15 23 16 22 17 24 18 33 19 25 20 31 21 29 22
REMARK SMILES IDX 38 23 34 25 35 26 26 27 27 28 28 29 32 30 30 32 18 34 6 36
REMARK SMILES IDX 7 37 8 38 14 39 15 40 10 41 12 43
REMARK H PARENT 38 24 32 31 30 33 18 35 10 42 12 44
REMARK Flexibility Score: inf
ROOT
ATOM      1  C   UNL     1     -16.889   5.207  12.711  1.00  0.00     0.045 C 
ATOM      2  C   UNL     1     -18.065   5.349  11.780  1.00  0.00    -0.039 A 
ATOM      3  C   UNL     1     -18.953   4.286  11.645  1.00  0.00     0.013 A 
ATOM      4  C   UNL     1     -20.016   4.314  10.714  1.00  0.00    -0.006 A 
ATOM      5  C   UNL     1     -20.234   5.506   9.956  1.00  0.00     0.039 A 
ATOM      6  C   UNL     1     -21.319   5.547   9.035  1.00  0.00     0.072 A 
ATOM      7  C   UNL     1     -22.272   4.511   9.039  1.00  0.00     0.169 A 
ATOM      8  C   UNL     1     -22.088   3.370   9.825  1.00  0.00     0.162 A 
ATOM      9  C   UNL     1     -20.879   3.186  10.547  1.00  0.00     0.008 A 
ATOM     10  C   UNL     1     -19.372   6.623  10.162  1.00  0.00     0.132 A 
ATOM     11  C   UNL     1     -18.251   6.508  11.005  1.00  0.00     0.031 A 
ENDROOT
BRANCH  11  12
ATOM     12  C   UNL     1     -17.240   7.594  11.060  1.00  0.00     0.031 A 
ATOM     13  C   UNL     1     -16.249   7.598  12.063  1.00  0.00     0.132 A 
ATOM     14  C   UNL     1     -17.227   8.578  10.057  1.00  0.00    -0.039 A 
ATOM     15  C   UNL     1     -15.217   8.581  12.048  1.00  0.00     0.039 A 
ATOM     16  C   UNL     1     -16.155   9.470   9.983  1.00  0.00     0.013 A 
ATOM     17  C   UNL     1     -18.337   8.664   9.041  1.00  0.00     0.045 C 
ATOM     18  C   UNL     1     -15.087   9.418  10.903  1.00  0.00    -0.006 A 
ATOM     19  C   UNL     1     -14.285   8.719  13.115  1.00  0.00     0.072 A 
ATOM     20  C   UNL     1     -13.906  10.192  10.716  1.00  0.00     0.008 A 
ATOM     21  C   UNL     1     -13.180   9.579  12.972  1.00  0.00     0.169 A 
ATOM     22  C   UNL     1     -12.985  10.291  11.787  1.00  0.00     0.162 A 
BRANCH  13  23
ATOM     23  O   UNL     1     -16.253   6.597  13.039  1.00  0.00    -0.507 OA
ATOM     24  H   UNL     1     -15.735   5.735  12.966  1.00  0.00     0.293 HD
ENDBRANCH  13  23
BRANCH  19  25
ATOM     25  C   UNL     1     -14.507   8.095  14.432  1.00  0.00     0.264 C 
ATOM     26  O   UNL     1     -14.383   6.849  14.577  1.00  0.00    -0.298 OA
ENDBRANCH  19  25
BRANCH  20  27
ATOM     27  C   UNL     1     -13.607  10.906   9.383  1.00  0.00     0.017 C 
ATOM     28  C   UNL     1     -12.103  11.124   9.207  1.00  0.00     0.012 C 
ATOM     29  C   UNL     1     -14.228  10.208   8.162  1.00  0.00     0.012 C 
ENDBRANCH  20  27
BRANCH  21  30
ATOM     30  O   UNL     1     -12.262   9.767  14.008  1.00  0.00    -0.504 OA
ATOM     31  H   UNL     1     -12.272  10.553  14.640  1.00  0.00     0.293 HD
ENDBRANCH  21  30
BRANCH  22  32
ATOM     32  O   UNL     1     -11.869  11.123  11.672  1.00  0.00    -0.504 OA
ATOM     33  H   UNL     1     -11.935  12.133  11.646  1.00  0.00     0.293 HD
ENDBRANCH  22  32
ENDBRANCH  11  12
BRANCH  10  34
ATOM     34  O   UNL     1     -19.649   7.859   9.569  1.00  0.00    -0.507 OA
ATOM     35  H   UNL     1     -20.304   7.982   8.811  1.00  0.00     0.293 HD
ENDBRANCH  10  34
BRANCH   9  36
ATOM     36  C   UNL     1     -20.490   1.803  11.113  1.00  0.00     0.017 C 
ATOM     37  C   UNL     1     -21.155   1.557  12.480  1.00  0.00     0.012 C 
ATOM     38  C   UNL     1     -20.704   0.626  10.133  1.00  0.00     0.012 C 
ENDBRANCH   9  36
BRANCH   6  39
ATOM     39  C   UNL     1     -21.425   6.592   7.983  1.00  0.00     0.264 C 
ATOM     40  O   UNL     1     -22.537   6.960   7.525  1.00  0.00    -0.298 OA
ENDBRANCH   6  39
BRANCH   8  41
ATOM     41  O   UNL     1     -23.134   2.441   9.851  1.00  0.00    -0.504 OA
ATOM     42  H   UNL     1     -23.657   2.156   9.042  1.00  0.00     0.293 HD
ENDBRANCH   8  41
BRANCH   7  43
ATOM     43  O   UNL     1     -23.396   4.607   8.214  1.00  0.00    -0.504 OA
ATOM     44  H   UNL     1     -23.863   3.796   7.827  1.00  0.00     0.293 HD
ENDBRANCH   7  43
TORSDOF 11
ENDMDL
MODEL 4
REMARK VINA RESULT:    48.109      6.581     12.482
REMARK INTER + INTRA:          70.914
REMARK INTER:                  61.458
REMARK INTRA:                   9.456
REMARK UNBOUND:                 0.305
REMARK SMILES Cc1cc2c(C(C)C)c(O)c(O)c(C=O)c2c(O)c1-c1c(C)cc2c(C(C)C)c(O)c(O)c(C=O)c2c1O
REMARK SMILES IDX 1 1 2 2 3 3 4 4 16 5 13 6 11 7 9 8 5 9 17 10 19 11 20 12
REMARK SMILES IDX 37 13 21 14 36 15 23 16 22 17 24 18 33 19 25 20 31 21 29 22
REMARK SMILES IDX 38 23 34 25 35 26 26 27 27 28 28 29 32 30 30 32 18 34 6 36
REMARK SMILES IDX 7 37 8 38 14 39 15 40 10 41 12 43
REMARK H PARENT 38 24 32 31 30 33 18 35 10 42 12 44
REMARK Flexibility Score: inf
ROOT
ATOM      1  C   UNL     1     -18.492   7.478   8.430  1.00  0.00     0.045 C 
ATOM      2  C   UNL     1     -18.905   6.443   9.444  1.00  0.00    -0.039 A 
ATOM      3  C   UNL     1     -19.908   5.536   9.114  1.00  0.00     0.013 A 
ATOM      4  C   UNL     1     -20.413   4.608  10.053  1.00  0.00    -0.006 A 
ATOM      5  C   UNL     1     -19.811   4.543  11.349  1.00  0.00     0.039 A 
ATOM      6  C   UNL     1     -20.302   3.593  12.288  1.00  0.00     0.072 A 
ATOM      7  C   UNL     1     -21.210   2.605  11.866  1.00  0.00     0.169 A 
ATOM      8  C   UNL     1     -21.754   2.633  10.579  1.00  0.00     0.162 A 
ATOM      9  C   UNL     1     -21.487   3.727   9.712  1.00  0.00     0.008 A 
ATOM     10  C   UNL     1     -18.727   5.418  11.650  1.00  0.00     0.132 A 
ATOM     11  C   UNL     1     -18.340   6.412  10.731  1.00  0.00     0.031 A 
ENDROOT
BRANCH  11  12
ATOM     12  C   UNL     1     -17.356   7.452  11.123  1.00  0.00     0.031 A 
ATOM     13  C   UNL     1     -16.410   7.198  12.137  1.00  0.00     0.132 A 
ATOM     14  C   UNL     1     -17.320   8.669  10.420  1.00  0.00    -0.039 A 
ATOM     15  C   UNL     1     -15.399   8.158  12.433  1.00  0.00     0.039 A 
ATOM     16  C   UNL     1     -16.265   9.558  10.638  1.00  0.00     0.013 A 
ATOM     17  C   UNL     1     -18.386   9.013   9.411  1.00  0.00     0.045 C 
ATOM     18  C   UNL     1     -15.238   9.271  11.561  1.00  0.00    -0.006 A 
ATOM     19  C   UNL     1     -14.519   8.015  13.543  1.00  0.00     0.072 A 
ATOM     20  C   UNL     1     -14.067  10.078  11.644  1.00  0.00     0.008 A 
ATOM     21  C   UNL     1     -13.427   8.892  13.688  1.00  0.00     0.169 A 
ATOM     22  C   UNL     1     -13.195   9.895  12.745  1.00  0.00     0.162 A 
BRANCH  13  23
ATOM     23  O   UNL     1     -16.436   5.972  12.809  1.00  0.00    -0.507 OA
ATOM     24  H   UNL     1     -15.677   5.307  12.801  1.00  0.00     0.293 HD
ENDBRANCH  13  23
BRANCH  19  25
ATOM     25  C   UNL     1     -14.785   7.059  14.634  1.00  0.00     0.264 C 
ATOM     26  O   UNL     1     -13.893   6.251  15.005  1.00  0.00    -0.298 OA
ENDBRANCH  19  25
BRANCH  20  27
ATOM     27  C   UNL     1     -13.725  11.125  10.566  1.00  0.00     0.017 C 
ATOM     28  C   UNL     1     -12.244  11.053  10.186  1.00  0.00     0.012 C 
ATOM     29  C   UNL     1     -14.634  11.049   9.328  1.00  0.00     0.012 C 
ENDBRANCH  20  27
BRANCH  21  30
ATOM     30  O   UNL     1     -12.560   8.804  14.778  1.00  0.00    -0.504 OA
ATOM     31  H   UNL     1     -11.597   9.104  14.763  1.00  0.00     0.293 HD
ENDBRANCH  21  30
BRANCH  22  32
ATOM     32  O   UNL     1     -12.094  10.738  12.910  1.00  0.00    -0.504 OA
ATOM     33  H   UNL     1     -11.767  11.046  13.817  1.00  0.00     0.293 HD
ENDBRANCH  22  32
ENDBRANCH  11  12
BRANCH  10  34
ATOM     34  O   UNL     1     -18.003   5.276  12.838  1.00  0.00    -0.507 OA
ATOM     35  H   UNL     1     -17.175   5.811  13.057  1.00  0.00     0.293 HD
ENDBRANCH  10  34
BRANCH   9  36
ATOM     36  C   UNL     1     -22.346   3.977   8.454  1.00  0.00     0.017 C 
ATOM     37  C   UNL     1     -22.429   5.479   8.130  1.00  0.00     0.012 C 
ATOM     38  C   UNL     1     -21.944   3.128   7.225  1.00  0.00     0.012 C 
ENDBRANCH   9  36
BRANCH   6  39
ATOM     39  C   UNL     1     -19.976   3.672  13.736  1.00  0.00     0.264 C 
ATOM     40  O   UNL     1     -20.832   3.422  14.623  1.00  0.00    -0.298 OA
ENDBRANCH   6  39
BRANCH   8  41
ATOM     41  O   UNL     1     -22.563   1.554  10.207  1.00  0.00    -0.504 OA
ATOM     42  H   UNL     1     -22.768   1.301   9.257  1.00  0.00     0.293 HD
ENDBRANCH   8  41
BRANCH   7  43
ATOM     43  O   UNL     1     -21.603   1.604  12.759  1.00  0.00    -0.504 OA
ATOM     44  H   UNL     1     -20.954   1.141  13.385  1.00  0.00     0.293 HD
ENDBRANCH   7  43
TORSDOF 11
ENDMDL
MODEL 5
REMARK VINA RESULT:    48.333      1.622      3.015
REMARK INTER + INTRA:          71.243
REMARK INTER:                  71.494
REMARK INTRA:                  -0.251
REMARK UNBOUND:                 0.305
REMARK SMILES Cc1cc2c(C(C)C)c(O)c(O)c(C=O)c2c(O)c1-c1c(C)cc2c(C(C)C)c(O)c(O)c(C=O)c2c1O
REMARK SMILES IDX 1 1 2 2 3 3 4 4 16 5 13 6 11 7 9 8 5 9 17 10 19 11 20 12
REMARK SMILES IDX 37 13 21 14 36 15 23 16 22 17 24 18 33 19 25 20 31 21 29 22
REMARK SMILES IDX 38 23 34 25 35 26 26 27 27 28 28 29 32 30 30 32 18 34 6 36
REMARK SMILES IDX 7 37 8 38 14 39 15 40 10 41 12 43
REMARK H PARENT 38 24 32 31 30 33 18 35 10 42 12 44
REMARK Flexibility Score: inf
ROOT
ATOM      1  C   UNL     1     -20.517  -0.833   7.854  1.00  0.00     0.045 C 
ATOM      2  C   UNL     1     -20.577  -0.494   9.322  1.00  0.00    -0.039 A 
ATOM      3  C   UNL     1     -20.708   0.838   9.703  1.00  0.00     0.013 A 
ATOM      4  C   UNL     1     -20.666   1.233  11.059  1.00  0.00    -0.006 A 
ATOM      5  C   UNL     1     -20.577   0.223  12.068  1.00  0.00     0.039 A 
ATOM      6  C   UNL     1     -20.559   0.616  13.436  1.00  0.00     0.072 A 
ATOM      7  C   UNL     1     -20.841   1.952  13.777  1.00  0.00     0.169 A 
ATOM      8  C   UNL     1     -20.987   2.930  12.789  1.00  0.00     0.162 A 
ATOM      9  C   UNL     1     -20.740   2.613  11.426  1.00  0.00     0.008 A 
ATOM     10  C   UNL     1     -20.530  -1.146  11.671  1.00  0.00     0.132 A 
ATOM     11  C   UNL     1     -20.446  -1.487  10.308  1.00  0.00     0.031 A 
ENDROOT
BRANCH  11  12
ATOM     12  C   UNL     1     -20.188  -2.892   9.902  1.00  0.00     0.031 A 
ATOM     13  C   UNL     1     -21.252  -3.811   9.788  1.00  0.00     0.132 A 
ATOM     14  C   UNL     1     -18.884  -3.282   9.554  1.00  0.00    -0.039 A 
ATOM     15  C   UNL     1     -21.014  -5.126   9.293  1.00  0.00     0.039 A 
ATOM     16  C   UNL     1     -18.674  -4.533   8.969  1.00  0.00     0.013 A 
ATOM     17  C   UNL     1     -17.713  -2.359   9.774  1.00  0.00     0.045 C 
ATOM     18  C   UNL     1     -19.740  -5.424   8.731  1.00  0.00    -0.006 A 
ATOM     19  C   UNL     1     -22.021  -6.132   9.300  1.00  0.00     0.072 A 
ATOM     20  C   UNL     1     -19.561  -6.611   7.963  1.00  0.00     0.008 A 
ATOM     21  C   UNL     1     -21.793  -7.354   8.639  1.00  0.00     0.169 A 
ATOM     22  C   UNL     1     -20.591  -7.583   7.968  1.00  0.00     0.162 A 
BRANCH  13  23
ATOM     23  O   UNL     1     -22.550  -3.403  10.108  1.00  0.00    -0.507 OA
ATOM     24  H   UNL     1     -22.800  -2.938  10.968  1.00  0.00     0.293 HD
ENDBRANCH  13  23
BRANCH  19  25
ATOM     25  C   UNL     1     -23.255  -5.999  10.096  1.00  0.00     0.264 C 
ATOM     26  O   UNL     1     -24.343  -6.466   9.669  1.00  0.00    -0.298 OA
ENDBRANCH  19  25
BRANCH  20  27
ATOM     27  C   UNL     1     -18.290  -6.849   7.125  1.00  0.00     0.017 C 
ATOM     28  C   UNL     1     -17.698  -5.523   6.642  1.00  0.00     0.012 C 
ATOM     29  C   UNL     1     -17.239  -7.715   7.839  1.00  0.00     0.012 C 
ENDBRANCH  20  27
BRANCH  21  30
ATOM     30  O   UNL     1     -22.743  -8.378   8.650  1.00  0.00    -0.504 OA
ATOM     31  H   UNL     1     -22.747  -9.141   9.310  1.00  0.00     0.293 HD
ENDBRANCH  21  30
BRANCH  22  32
ATOM     32  O   UNL     1     -20.404  -8.799   7.309  1.00  0.00    -0.504 OA
ATOM     33  H   UNL     1     -21.160  -9.447   7.120  1.00  0.00     0.293 HD
ENDBRANCH  22  32
ENDBRANCH  11  12
BRANCH  10  34
ATOM     34  O   UNL     1     -20.611  -2.169  12.622  1.00  0.00    -0.507 OA
ATOM     35  H   UNL     1     -21.300  -2.193  13.360  1.00  0.00     0.293 HD
ENDBRANCH  10  34
BRANCH   9  36
ATOM     36  C   UNL     1     -20.528   3.723  10.375  1.00  0.00     0.017 C 
ATOM     37  C   UNL     1     -21.754   3.854   9.453  1.00  0.00     0.012 C 
ATOM     38  C   UNL     1     -20.082   5.084  10.960  1.00  0.00     0.012 C 
ENDBRANCH   9  36
BRANCH   6  39
ATOM     39  C   UNL     1     -20.143  -0.311  14.520  1.00  0.00     0.264 C 
ATOM     40  O   UNL     1     -20.970  -1.044  15.120  1.00  0.00    -0.298 OA
ENDBRANCH   6  39
BRANCH   8  41
ATOM     41  O   UNL     1     -21.370   4.207  13.211  1.00  0.00    -0.504 OA
ATOM     42  H   UNL     1     -21.316   5.032  12.640  1.00  0.00     0.293 HD
ENDBRANCH   8  41
BRANCH   7  43
ATOM     43  O   UNL     1     -20.935   2.313  15.124  1.00  0.00    -0.504 OA
ATOM     44  H   UNL     1     -21.521   1.817  15.785  1.00  0.00     0.293 HD
ENDBRANCH   7  43
TORSDOF 11
ENDMDL
MODEL 6
REMARK VINA RESULT:    48.843      2.958      9.912
REMARK INTER + INTRA:          71.991
REMARK INTER:                  72.067
REMARK INTRA:                  -0.076
REMARK UNBOUND:                 0.305
REMARK SMILES Cc1cc2c(C(C)C)c(O)c(O)c(C=O)c2c(O)c1-c1c(C)cc2c(C(C)C)c(O)c(O)c(C=O)c2c1O
REMARK SMILES IDX 1 1 2 2 3 3 4 4 16 5 13 6 11 7 9 8 5 9 17 10 19 11 20 12
REMARK SMILES IDX 37 13 21 14 36 15 23 16 22 17 24 18 33 19 25 20 31 21 29 22
REMARK SMILES IDX 38 23 34 25 35 26 26 27 27 28 28 29 32 30 30 32 18 34 6 36
REMARK SMILES IDX 7 37 8 38 14 39 15 40 10 41 12 43
REMARK H PARENT 38 24 32 31 30 33 18 35 10 42 12 44
REMARK Flexibility Score: inf
ROOT
ATOM      1  C   UNL     1     -20.419   0.769   8.200  1.00  0.00     0.045 C 
ATOM      2  C   UNL     1     -20.672   0.306   9.612  1.00  0.00    -0.039 A 
ATOM      3  C   UNL     1     -20.630  -1.056   9.894  1.00  0.00     0.013 A 
ATOM      4  C   UNL     1     -20.958  -1.565  11.171  1.00  0.00    -0.006 A 
ATOM      5  C   UNL     1     -21.254  -0.642  12.224  1.00  0.00     0.039 A 
ATOM      6  C   UNL     1     -21.562  -1.150  13.517  1.00  0.00     0.072 A 
ATOM      7  C   UNL     1     -21.364  -2.516  13.792  1.00  0.00     0.169 A 
ATOM      8  C   UNL     1     -21.017  -3.409  12.774  1.00  0.00     0.162 A 
ATOM      9  C   UNL     1     -20.970  -2.972  11.423  1.00  0.00     0.008 A 
ATOM     10  C   UNL     1     -21.211   0.756  11.948  1.00  0.00     0.132 A 
ATOM     11  C   UNL     1     -21.004   1.214  10.633  1.00  0.00     0.031 A 
ENDROOT
BRANCH  11  12
ATOM     12  C   UNL     1     -21.164   2.654  10.307  1.00  0.00     0.031 A 
ATOM     13  C   UNL     1     -20.112   3.563  10.543  1.00  0.00     0.132 A 
ATOM     14  C   UNL     1     -22.345   3.094   9.685  1.00  0.00    -0.039 A 
ATOM     15  C   UNL     1     -20.231   4.921  10.129  1.00  0.00     0.039 A 
ATOM     16  C   UNL     1     -22.414   4.396   9.184  1.00  0.00     0.013 A 
ATOM     17  C   UNL     1     -23.526   2.172   9.523  1.00  0.00     0.045 C 
ATOM     18  C   UNL     1     -21.329   5.289   9.299  1.00  0.00    -0.006 A 
ATOM     19  C   UNL     1     -19.265   5.907  10.476  1.00  0.00     0.072 A 
ATOM     20  C   UNL     1     -21.322   6.543   8.624  1.00  0.00     0.008 A 
ATOM     21  C   UNL     1     -19.332   7.188   9.895  1.00  0.00     0.169 A 
ATOM     22  C   UNL     1     -20.333   7.494   8.971  1.00  0.00     0.162 A 
BRANCH  13  23
ATOM     23  O   UNL     1     -18.930   3.108  11.135  1.00  0.00    -0.507 OA
ATOM     24  H   UNL     1     -18.888   2.355  11.805  1.00  0.00     0.293 HD
ENDBRANCH  13  23
BRANCH  19  25
ATOM     25  C   UNL     1     -18.265   5.683  11.536  1.00  0.00     0.264 C 
ATOM     26  O   UNL     1     -17.112   6.182  11.442  1.00  0.00    -0.298 OA
ENDBRANCH  19  25
BRANCH  20  27
ATOM     27  C   UNL     1     -22.349   6.876   7.524  1.00  0.00     0.017 C 
ATOM     28  C   UNL     1     -22.816   5.605   6.810  1.00  0.00     0.012 C 
ATOM     29  C   UNL     1     -23.535   7.715   8.026  1.00  0.00     0.012 C 
ENDBRANCH  20  27
BRANCH  21  30
ATOM     30  O   UNL     1     -18.423   8.192  10.234  1.00  0.00    -0.504 OA
ATOM     31  H   UNL     1     -18.455   8.721  11.092  1.00  0.00     0.293 HD
ENDBRANCH  21  30
BRANCH  22  32
ATOM     32  O   UNL     1     -20.361   8.769   8.401  1.00  0.00    -0.504 OA
ATOM     33  H   UNL     1     -19.992   9.590   8.866  1.00  0.00     0.293 HD
ENDBRANCH  22  32
ENDBRANCH  11  12
BRANCH  10  34
ATOM     34  O   UNL     1     -21.327   1.692  12.980  1.00  0.00    -0.507 OA
ATOM     35  H   UNL     1     -21.284   2.691  12.838  1.00  0.00     0.293 HD
ENDBRANCH  10  34
BRANCH   9  36
ATOM     36  C   UNL     1     -20.959  -3.984  10.257  1.00  0.00     0.017 C 
ATOM     37  C   UNL     1     -19.577  -4.034   9.580  1.00  0.00     0.012 C 
ATOM     38  C   UNL     1     -21.488  -5.390  10.624  1.00  0.00     0.012 C 
ENDBRANCH   9  36
BRANCH   6  39
ATOM     39  C   UNL     1     -22.194  -0.309  14.567  1.00  0.00     0.264 C 
ATOM     40  O   UNL     1     -23.270  -0.643  15.125  1.00  0.00    -0.298 OA
ENDBRANCH   6  39
BRANCH   8  41
ATOM     41  O   UNL     1     -20.736  -4.726  13.153  1.00  0.00    -0.504 OA
ATOM     42  H   UNL     1     -20.513  -5.010  14.091  1.00  0.00     0.293 HD
ENDBRANCH   8  41
BRANCH   7  43
ATOM     43  O   UNL     1     -21.558  -2.992  15.091  1.00  0.00    -0.504 OA
ATOM     44  H   UNL     1     -22.450  -2.938  15.568  1.00  0.00     0.293 HD
ENDBRANCH   7  43
TORSDOF 11
ENDMDL
