MODEL 1
REMARK VINA RESULT:    -3.131      0.000      0.000
REMARK INTER + INTRA:          -3.325
REMARK INTER:                  -3.314
REMARK INTRA:                  -0.011
REMARK UNBOUND:                -0.011
REMARK SMILES O=Cc1ccco1
REMARK SMILES IDX 5 1 6 2 7 3 3 4 4 5 2 6 1 7
REMARK H PARENT
REMARK Flexibility Score: inf
ROOT
ATOM      1  C   UNL     1     164.427 176.243 182.441  1.00  0.00     0.043 A 
ATOM      2  C   UNL     1     163.700 176.923 183.399  1.00  0.00     0.196 A 
ATOM      3  O   UNL     1     164.311 176.841 184.559  1.00  0.00    -0.462 OA
ATOM      4  C   UNL     1     165.407 176.136 184.404  1.00  0.00     0.166 A 
ATOM      5  C   UNL     1     165.532 175.734 183.090  1.00  0.00     0.054 A 
ENDROOT
BRANCH   4   6
ATOM      6  C   UNL     1     166.350 175.830 185.480  1.00  0.00     0.298 C 
ATOM      7  O   UNL     1     166.196 174.798 186.183  1.00  0.00    -0.294 OA
ENDBRANCH   4   6
TORSDOF 1
ENDMDL
MODEL 2
REMARK VINA RESULT:    -3.110     14.956     16.203
REMARK INTER + INTRA:          -3.303
REMARK INTER:                  -3.293
REMARK INTRA:                  -0.011
REMARK UNBOUND:                -0.011
REMARK SMILES O=Cc1ccco1
REMARK SMILES IDX 5 1 6 2 7 3 3 4 4 5 2 6 1 7
REMARK H PARENT
REMARK Flexibility Score: inf
ROOT
ATOM      1  C   UNL     1     179.931 168.307 182.618  1.00  0.00     0.043 A 
ATOM      2  C   UNL     1     180.643 167.546 183.524  1.00  0.00     0.196 A 
ATOM      3  O   UNL     1     180.036 167.562 184.690  1.00  0.00    -0.462 OA
ATOM      4  C   UNL     1     178.956 168.301 184.586  1.00  0.00     0.166 A 
ATOM      5  C   UNL     1     178.839 168.796 183.304  1.00  0.00     0.054 A 
ENDROOT
BRANCH   4   6
ATOM      6  C   UNL     1     178.022 168.554 185.684  1.00  0.00     0.298 C 
ATOM      7  O   UNL     1     178.028 169.663 186.279  1.00  0.00    -0.294 OA
ENDBRANCH   4   6
TORSDOF 1
ENDMDL
MODEL 3
REMARK VINA RESULT:    -3.065      1.396      3.217
REMARK INTER + INTRA:          -3.255
REMARK INTER:                  -3.243
REMARK INTRA:                  -0.011
REMARK UNBOUND:                -0.011
REMARK SMILES O=Cc1ccco1
REMARK SMILES IDX 5 1 6 2 7 3 3 4 4 5 2 6 1 7
REMARK H PARENT
REMARK Flexibility Score: inf
ROOT
ATOM      1  C   UNL     1     166.885 175.067 185.475  1.00  0.00     0.043 A 
ATOM      2  C   UNL     1     166.777 174.342 184.304  1.00  0.00     0.196 A 
ATOM      3  O   UNL     1     165.877 174.895 183.522  1.00  0.00    -0.462 OA
ATOM      4  C   UNL     1     165.390 175.951 184.130  1.00  0.00     0.166 A 
ATOM      5  C   UNL     1     165.987 176.108 185.364  1.00  0.00     0.054 A 
ENDROOT
BRANCH   4   6
ATOM      6  C   UNL     1     164.359 176.825 183.567  1.00  0.00     0.298 C 
ATOM      7  O   UNL     1     163.472 177.319 184.309  1.00  0.00    -0.294 OA
ENDBRANCH   4   6
TORSDOF 1
ENDMDL
MODEL 4
REMARK VINA RESULT:    -3.054     14.523     15.768
REMARK INTER + INTRA:          -3.243
REMARK INTER:                  -3.231
REMARK INTRA:                  -0.011
REMARK UNBOUND:                -0.011
REMARK SMILES O=Cc1ccco1
REMARK SMILES IDX 5 1 6 2 7 3 3 4 4 5 2 6 1 7
REMARK H PARENT
REMARK Flexibility Score: inf
ROOT
ATOM      1  C   UNL     1     177.409 169.292 185.436  1.00  0.00     0.043 A 
ATOM      2  C   UNL     1     177.684 170.057 184.320  1.00  0.00     0.196 A 
ATOM      3  O   UNL     1     178.662 169.507 183.636  1.00  0.00    -0.462 OA
ATOM      4  C   UNL     1     179.040 168.413 184.256  1.00  0.00     0.166 A 
ATOM      5  C   UNL     1     178.285 168.228 185.396  1.00  0.00     0.054 A 
ENDROOT
BRANCH   4   6
ATOM      6  C   UNL     1     180.110 167.530 183.791  1.00  0.00     0.298 C 
ATOM      7  O   UNL     1     180.909 167.014 184.615  1.00  0.00    -0.294 OA
ENDBRANCH   4   6
TORSDOF 1
ENDMDL
MODEL 5
REMARK VINA RESULT:    -3.004     13.006     14.382
REMARK INTER + INTRA:          -3.190
REMARK INTER:                  -3.179
REMARK INTRA:                  -0.012
REMARK UNBOUND:                -0.011
REMARK SMILES O=Cc1ccco1
REMARK SMILES IDX 5 1 6 2 7 3 3 4 4 5 2 6 1 7
REMARK H PARENT
REMARK Flexibility Score: inf
ROOT
ATOM      1  C   UNL     1     176.851 170.852 186.462  1.00  0.00     0.043 A 
ATOM      2  C   UNL     1     176.035 170.310 185.489  1.00  0.00     0.196 A 
ATOM      3  O   UNL     1     176.673 169.350 184.859  1.00  0.00    -0.462 OA
ATOM      4  C   UNL     1     177.875 169.240 185.377  1.00  0.00     0.166 A 
ATOM      5  C   UNL     1     178.042 170.160 186.390  1.00  0.00     0.054 A 
ENDROOT
BRANCH   4   6
ATOM      6  C   UNL     1     178.880 168.274 184.930  1.00  0.00     0.298 C 
ATOM      7  O   UNL     1     179.476 168.441 183.834  1.00  0.00    -0.294 OA
ENDBRANCH   4   6
TORSDOF 1
ENDMDL
MODEL 6
REMARK VINA RESULT:    -2.922      2.900      4.028
REMARK INTER + INTRA:          -3.104
REMARK INTER:                  -3.092
REMARK INTRA:                  -0.011
REMARK UNBOUND:                -0.011
REMARK SMILES O=Cc1ccco1
REMARK SMILES IDX 5 1 6 2 7 3 3 4 4 5 2 6 1 7
REMARK H PARENT
REMARK Flexibility Score: inf
ROOT
ATOM      1  C   UNL     1     166.250 173.852 186.307  1.00  0.00     0.043 A 
ATOM      2  C   UNL     1     166.269 175.135 185.797  1.00  0.00     0.196 A 
ATOM      3  O   UNL     1     167.397 175.339 185.155  1.00  0.00    -0.462 OA
ATOM      4  C   UNL     1     168.118 174.244 185.223  1.00  0.00     0.166 A 
ATOM      5  C   UNL     1     167.446 173.274 185.936  1.00  0.00     0.054 A 
ENDROOT
BRANCH   4   6
ATOM      6  C   UNL     1     169.445 174.093 184.622  1.00  0.00     0.298 C 
ATOM      7  O   UNL     1     170.453 174.604 185.175  1.00  0.00    -0.294 OA
ENDBRANCH   4   6
TORSDOF 1
ENDMDL
MODEL 7
REMARK VINA RESULT:    -2.901      2.006      2.777
REMARK INTER + INTRA:          -3.081
REMARK INTER:                  -3.070
REMARK INTRA:                  -0.011
REMARK UNBOUND:                -0.011
REMARK SMILES O=Cc1ccco1
REMARK SMILES IDX 5 1 6 2 7 3 3 4 4 5 2 6 1 7
REMARK H PARENT
REMARK Flexibility Score: inf
ROOT
ATOM      1  C   UNL     1     165.631 176.124 184.812  1.00  0.00     0.043 A 
ATOM      2  C   UNL     1     165.722 175.390 183.646  1.00  0.00     0.196 A 
ATOM      3  O   UNL     1     166.384 174.278 183.873  1.00  0.00    -0.462 OA
ATOM      4  C   UNL     1     166.731 174.252 185.139  1.00  0.00     0.166 A 
ATOM      5  C   UNL     1     166.284 175.388 185.779  1.00  0.00     0.054 A 
ENDROOT
BRANCH   4   6
ATOM      6  C   UNL     1     167.486 173.165 185.764  1.00  0.00     0.298 C 
ATOM      7  O   UNL     1     168.373 173.419 186.620  1.00  0.00    -0.294 OA
ENDBRANCH   4   6
TORSDOF 1
ENDMDL
MODEL 8
REMARK VINA RESULT:    -2.886     12.968     14.371
REMARK INTER + INTRA:          -3.066
REMARK INTER:                  -3.054
REMARK INTRA:                  -0.012
REMARK UNBOUND:                -0.011
REMARK SMILES O=Cc1ccco1
REMARK SMILES IDX 5 1 6 2 7 3 3 4 4 5 2 6 1 7
REMARK H PARENT
REMARK Flexibility Score: inf
ROOT
ATOM      1  C   UNL     1     178.800 168.187 184.857  1.00  0.00     0.043 A 
ATOM      2  C   UNL     1     178.804 168.949 183.705  1.00  0.00     0.196 A 
ATOM      3  O   UNL     1     178.061 170.019 183.879  1.00  0.00    -0.462 OA
ATOM      4  C   UNL     1     177.568 169.989 185.095  1.00  0.00     0.166 A 
ATOM      5  C   UNL     1     178.000 168.859 185.757  1.00  0.00     0.054 A 
ENDROOT
BRANCH   4   6
ATOM      6  C   UNL     1     176.688 171.017 185.653  1.00  0.00     0.298 C 
ATOM      7  O   UNL     1     176.110 170.828 186.755  1.00  0.00    -0.294 OA
ENDBRANCH   4   6
TORSDOF 1
ENDMDL
MODEL 9
REMARK VINA RESULT:    -2.880      1.986      3.927
REMARK INTER + INTRA:          -3.059
REMARK INTER:                  -3.043
REMARK INTRA:                  -0.016
REMARK UNBOUND:                -0.011
REMARK SMILES O=Cc1ccco1
REMARK SMILES IDX 5 1 6 2 7 3 3 4 4 5 2 6 1 7
REMARK H PARENT
REMARK Flexibility Score: inf
ROOT
ATOM      1  C   UNL     1     167.572 173.377 186.135  1.00  0.00     0.043 A 
ATOM      2  C   UNL     1     168.399 173.978 185.207  1.00  0.00     0.196 A 
ATOM      3  O   UNL     1     167.779 174.995 184.653  1.00  0.00    -0.462 OA
ATOM      4  C   UNL     1     166.579 175.086 185.178  1.00  0.00     0.166 A 
ATOM      5  C   UNL     1     166.393 174.093 186.117  1.00  0.00     0.054 A 
ENDROOT
BRANCH   4   6
ATOM      6  C   UNL     1     165.592 176.102 184.808  1.00  0.00     0.298 C 
ATOM      7  O   UNL     1     165.790 176.845 183.811  1.00  0.00    -0.294 OA
ENDBRANCH   4   6
TORSDOF 1
ENDMDL
