MODEL 1
REMARK VINA RESULT:    -3.638      0.000      0.000
REMARK INTER + INTRA:          -4.689
REMARK INTER:                  -4.489
REMARK INTRA:                  -0.200
REMARK UNBOUND:                -0.200
REMARK SMILES CCCCCC(=O)[O-]
REMARK SMILES IDX 4 1 5 2 6 3 7 4 8 5 3 6 2 7 1 8
REMARK H PARENT
REMARK Flexibility Score: inf
ROOT
ATOM      1  C   UNL     1       1.488   7.674  -0.116  1.00  0.00     0.006 C 
ENDROOT
BRANCH   1   2
ATOM      2  C   UNL     1       1.867   7.095   1.250  1.00  0.00     0.053 C 
BRANCH   2   3
ATOM      3  C   UNL     1       3.352   7.108   1.431  1.00  0.00     0.041 C 
ATOM      4  O   UNL     1       4.002   8.172   1.259  1.00  0.00    -0.550 OA
ATOM      5  O   UNL     1       4.013   5.956   1.840  1.00  0.00    -0.550 OA
ENDBRANCH   2   3
ENDBRANCH   1   2
BRANCH   1   6
ATOM      6  C   UNL     1       0.742   9.005   0.038  1.00  0.00     0.000 C 
BRANCH   6   7
ATOM      7  C   UNL     1       1.173  10.006  -1.039  1.00  0.00    -0.003 C 
ATOM      8  C   UNL     1       2.406   9.511  -1.789  1.00  0.00     0.004 C 
ENDBRANCH   6   7
ENDBRANCH   1   6
TORSDOF 4
ENDMDL
MODEL 2
REMARK VINA RESULT:    -3.363      2.353      4.117
REMARK INTER + INTRA:          -4.349
REMARK INTER:                  -4.282
REMARK INTRA:                  -0.068
REMARK UNBOUND:                -0.200
REMARK SMILES CCCCCC(=O)[O-]
REMARK SMILES IDX 4 1 5 2 6 3 7 4 8 5 3 6 2 7 1 8
REMARK H PARENT
REMARK Flexibility Score: inf
ROOT
ATOM      1  C   UNL     1       1.542   7.589  -0.003  1.00  0.00     0.006 C 
ENDROOT
BRANCH   1   2
ATOM      2  C   UNL     1       1.413   9.109   0.130  1.00  0.00     0.053 C 
BRANCH   2   3
ATOM      3  C   UNL     1       1.602   9.769  -1.199  1.00  0.00     0.041 C 
ATOM      4  O   UNL     1       0.793  10.651  -1.589  1.00  0.00    -0.550 OA
ATOM      5  O   UNL     1       2.702   9.447  -1.986  1.00  0.00    -0.550 OA
ENDBRANCH   2   3
ENDBRANCH   1   2
BRANCH   1   6
ATOM      6  C   UNL     1       1.931   6.951   1.337  1.00  0.00     0.000 C 
BRANCH   6   7
ATOM      7  C   UNL     1       3.454   6.899   1.500  1.00  0.00    -0.003 C 
ATOM      8  C   UNL     1       3.932   5.475   1.767  1.00  0.00     0.004 C 
ENDBRANCH   6   7
ENDBRANCH   1   6
TORSDOF 4
ENDMDL
MODEL 3
REMARK VINA RESULT:    -3.192      1.394      1.990
REMARK INTER + INTRA:          -4.138
REMARK INTER:                  -3.955
REMARK INTRA:                  -0.183
REMARK UNBOUND:                -0.200
REMARK SMILES CCCCCC(=O)[O-]
REMARK SMILES IDX 4 1 5 2 6 3 7 4 8 5 3 6 2 7 1 8
REMARK H PARENT
REMARK Flexibility Score: inf
ROOT
ATOM      1  C   UNL     1       3.678   7.893  -0.776  1.00  0.00     0.006 C 
ENDROOT
BRANCH   1   2
ATOM      2  C   UNL     1       3.877   7.836   0.741  1.00  0.00     0.053 C 
BRANCH   2   3
ATOM      3  C   UNL     1       2.937   6.848   1.357  1.00  0.00     0.041 C 
ATOM      4  O   UNL     1       1.699   7.074   1.370  1.00  0.00    -0.550 OA
ATOM      5  O   UNL     1       3.425   5.652   1.871  1.00  0.00    -0.550 OA
ENDBRANCH   2   3
ENDBRANCH   1   2
BRANCH   1   6
ATOM      6  C   UNL     1       3.559   9.343  -1.261  1.00  0.00     0.000 C 
BRANCH   6   7
ATOM      7  C   UNL     1       2.183   9.604  -1.884  1.00  0.00    -0.003 C 
ATOM      8  C   UNL     1       1.120   9.804  -0.808  1.00  0.00     0.004 C 
ENDBRANCH   6   7
ENDBRANCH   1   6
TORSDOF 4
ENDMDL
MODEL 4
REMARK VINA RESULT:    -3.111      8.033      9.253
REMARK INTER + INTRA:          -4.039
REMARK INTER:                  -3.793
REMARK INTRA:                  -0.246
REMARK UNBOUND:                -0.200
REMARK SMILES CCCCCC(=O)[O-]
REMARK SMILES IDX 4 1 5 2 6 3 7 4 8 5 3 6 2 7 1 8
REMARK H PARENT
REMARK Flexibility Score: inf
ROOT
ATOM      1  C   UNL     1      -3.354  14.281  -5.006  1.00  0.00     0.006 C 
ENDROOT
BRANCH   1   2
ATOM      2  C   UNL     1      -3.075  12.931  -5.672  1.00  0.00     0.053 C 
BRANCH   2   3
ATOM      3  C   UNL     1      -2.289  12.047  -4.755  1.00  0.00     0.041 C 
ATOM      4  O   UNL     1      -2.800  10.989  -4.303  1.00  0.00    -0.550 OA
ATOM      5  O   UNL     1      -0.974  12.366  -4.441  1.00  0.00    -0.550 OA
ENDBRANCH   2   3
ENDBRANCH   1   2
BRANCH   1   6
ATOM      6  C   UNL     1      -2.635  15.418  -5.745  1.00  0.00     0.000 C 
BRANCH   6   7
ATOM      7  C   UNL     1      -1.460  15.954  -4.919  1.00  0.00    -0.003 C 
ATOM      8  C   UNL     1      -1.718  15.794  -3.424  1.00  0.00     0.004 C 
ENDBRANCH   6   7
ENDBRANCH   1   6
TORSDOF 4
ENDMDL
MODEL 5
REMARK VINA RESULT:    -3.074      8.198      9.522
REMARK INTER + INTRA:          -3.993
REMARK INTER:                  -3.766
REMARK INTRA:                  -0.226
REMARK UNBOUND:                -0.200
REMARK SMILES CCCCCC(=O)[O-]
REMARK SMILES IDX 4 1 5 2 6 3 7 4 8 5 3 6 2 7 1 8
REMARK H PARENT
REMARK Flexibility Score: inf
ROOT
ATOM      1  C   UNL     1      -2.666  15.260  -5.543  1.00  0.00     0.006 C 
ENDROOT
BRANCH   1   2
ATOM      2  C   UNL     1      -1.871  16.175  -4.608  1.00  0.00     0.053 C 
BRANCH   2   3
ATOM      3  C   UNL     1      -0.647  15.476  -4.106  1.00  0.00     0.041 C 
ATOM      4  O   UNL     1      -0.381  15.471  -2.876  1.00  0.00    -0.550 OA
ATOM      5  O   UNL     1       0.172  14.787  -4.992  1.00  0.00    -0.550 OA
ENDBRANCH   2   3
ENDBRANCH   1   2
BRANCH   1   6
ATOM      6  C   UNL     1      -3.246  14.063  -4.780  1.00  0.00     0.000 C 
BRANCH   6   7
ATOM      7  C   UNL     1      -2.996  12.753  -5.536  1.00  0.00    -0.003 C 
ATOM      8  C   UNL     1      -2.218  11.761  -4.678  1.00  0.00     0.004 C 
ENDBRANCH   6   7
ENDBRANCH   1   6
TORSDOF 4
ENDMDL
MODEL 6
REMARK VINA RESULT:    -3.026      8.630      9.535
REMARK INTER + INTRA:          -3.933
REMARK INTER:                  -3.817
REMARK INTRA:                  -0.116
REMARK UNBOUND:                -0.200
REMARK SMILES CCCCCC(=O)[O-]
REMARK SMILES IDX 4 1 5 2 6 3 7 4 8 5 3 6 2 7 1 8
REMARK H PARENT
REMARK Flexibility Score: inf
ROOT
ATOM      1  C   UNL     1      -1.110  15.713  -4.488  1.00  0.00     0.006 C 
ENDROOT
BRANCH   1   2
ATOM      2  C   UNL     1      -1.011  14.189  -4.588  1.00  0.00     0.053 C 
BRANCH   2   3
ATOM      3  C   UNL     1      -2.330  13.603  -4.982  1.00  0.00     0.041 C 
ATOM      4  O   UNL     1      -2.516  12.360  -4.913  1.00  0.00    -0.550 OA
ATOM      5  O   UNL     1      -3.371  14.435  -5.376  1.00  0.00    -0.550 OA
ENDBRANCH   2   3
ENDBRANCH   1   2
BRANCH   1   6
ATOM      6  C   UNL     1      -0.289  16.242  -3.305  1.00  0.00     0.000 C 
BRANCH   6   7
ATOM      7  C   UNL     1      -0.993  15.952  -1.974  1.00  0.00    -0.003 C 
ATOM      8  C   UNL     1       0.015  15.813  -0.837  1.00  0.00     0.004 C 
ENDBRANCH   6   7
ENDBRANCH   1   6
TORSDOF 4
ENDMDL
MODEL 7
REMARK VINA RESULT:    -2.976     10.905     11.877
REMARK INTER + INTRA:          -3.872
REMARK INTER:                  -3.731
REMARK INTRA:                  -0.142
REMARK UNBOUND:                -0.200
REMARK SMILES CCCCCC(=O)[O-]
REMARK SMILES IDX 4 1 5 2 6 3 7 4 8 5 3 6 2 7 1 8
REMARK H PARENT
REMARK Flexibility Score: inf
ROOT
ATOM      1  C   UNL     1      -0.131   6.294  12.338  1.00  0.00     0.006 C 
ENDROOT
BRANCH   1   2
ATOM      2  C   UNL     1       0.431   7.565  12.980  1.00  0.00     0.053 C 
BRANCH   2   3
ATOM      3  C   UNL     1       1.835   7.339  13.448  1.00  0.00     0.041 C 
ATOM      4  O   UNL     1       2.573   8.318  13.730  1.00  0.00    -0.550 OA
ATOM      5  O   UNL     1       2.310   6.045  13.621  1.00  0.00    -0.550 OA
ENDBRANCH   2   3
ENDBRANCH   1   2
BRANCH   1   6
ATOM      6  C   UNL     1      -0.081   6.382  10.807  1.00  0.00     0.000 C 
BRANCH   6   7
ATOM      7  C   UNL     1      -0.168   7.838  10.337  1.00  0.00    -0.003 C 
ATOM      8  C   UNL     1      -0.437   7.918   8.837  1.00  0.00     0.004 C 
ENDBRANCH   6   7
ENDBRANCH   1   6
TORSDOF 4
ENDMDL
MODEL 8
REMARK VINA RESULT:    -2.957      9.299     11.114
REMARK INTER + INTRA:          -3.848
REMARK INTER:                  -3.793
REMARK INTRA:                  -0.055
REMARK UNBOUND:                -0.200
REMARK SMILES CCCCCC(=O)[O-]
REMARK SMILES IDX 4 1 5 2 6 3 7 4 8 5 3 6 2 7 1 8
REMARK H PARENT
REMARK Flexibility Score: inf
ROOT
ATOM      1  C   UNL     1      -2.229  15.055  -4.850  1.00  0.00     0.006 C 
ENDROOT
BRANCH   1   2
ATOM      2  C   UNL     1      -2.668  16.142  -5.835  1.00  0.00     0.053 C 
BRANCH   2   3
ATOM      3  C   UNL     1      -2.179  17.483  -5.388  1.00  0.00     0.041 C 
ATOM      4  O   UNL     1      -0.986  17.631  -5.016  1.00  0.00    -0.550 OA
ATOM      5  O   UNL     1      -3.029  18.582  -5.430  1.00  0.00    -0.550 OA
ENDBRANCH   2   3
ENDBRANCH   1   2
BRANCH   1   6
ATOM      6  C   UNL     1      -3.317  13.985  -4.691  1.00  0.00     0.000 C 
BRANCH   6   7
ATOM      7  C   UNL     1      -2.969  12.723  -5.487  1.00  0.00    -0.003 C 
ATOM      8  C   UNL     1      -2.550  11.585  -4.562  1.00  0.00     0.004 C 
ENDBRANCH   6   7
ENDBRANCH   1   6
TORSDOF 4
ENDMDL
MODEL 9
REMARK VINA RESULT:    -2.949      8.771      9.496
REMARK INTER + INTRA:          -3.838
REMARK INTER:                  -3.642
REMARK INTRA:                  -0.197
REMARK UNBOUND:                -0.200
REMARK SMILES CCCCCC(=O)[O-]
REMARK SMILES IDX 4 1 5 2 6 3 7 4 8 5 3 6 2 7 1 8
REMARK H PARENT
REMARK Flexibility Score: inf
ROOT
ATOM      1  C   UNL     1      -0.836  15.123  -4.223  1.00  0.00     0.006 C 
ENDROOT
BRANCH   1   2
ATOM      2  C   UNL     1      -0.163  16.094  -3.250  1.00  0.00     0.053 C 
BRANCH   2   3
ATOM      3  C   UNL     1      -0.727  15.931  -1.873  1.00  0.00     0.041 C 
ATOM      4  O   UNL     1       0.041  15.788  -0.886  1.00  0.00    -0.550 OA
ATOM      5  O   UNL     1      -2.101  15.989  -1.674  1.00  0.00    -0.550 OA
ENDBRANCH   2   3
ENDBRANCH   1   2
BRANCH   1   6
ATOM      6  C   UNL     1      -1.697  15.877  -5.245  1.00  0.00     0.000 C 
BRANCH   6   7
ATOM      7  C   UNL     1      -2.970  15.091  -5.578  1.00  0.00    -0.003 C 
ATOM      8  C   UNL     1      -3.231  14.000  -4.544  1.00  0.00     0.004 C 
ENDBRANCH   6   7
ENDBRANCH   1   6
TORSDOF 4
ENDMDL
