MODEL 1
REMARK VINA RESULT:    -3.350      0.000      0.000
REMARK INTER + INTRA:          -4.054
REMARK INTER:                  -3.938
REMARK INTRA:                  -0.116
REMARK UNBOUND:                -0.116
REMARK SMILES O=C([O-])CCC(=O)[O-]
REMARK SMILES IDX 4 1 2 2 1 3 3 4 5 5 6 6 7 7 8 8
REMARK H PARENT
REMARK Flexibility Score: inf
ROOT
ATOM      1  C   UNL     1      -7.376 -23.005  47.185  1.00  0.00     0.059 C 
ENDROOT
BRANCH   1   2
ATOM      2  C   UNL     1      -7.750 -21.568  46.998  1.00  0.00     0.042 C 
ATOM      3  O   UNL     1      -6.872 -20.720  46.688  1.00  0.00    -0.550 OA
ATOM      4  O   UNL     1      -9.059 -21.156  47.214  1.00  0.00    -0.550 OA
ENDBRANCH   1   2
BRANCH   1   5
ATOM      5  C   UNL     1      -6.278 -23.139  48.242  1.00  0.00     0.059 C 
BRANCH   5   6
ATOM      6  C   UNL     1      -5.018 -23.658  47.625  1.00  0.00     0.042 C 
ATOM      7  O   UNL     1      -4.773 -24.893  47.627  1.00  0.00    -0.550 OA
ATOM      8  O   UNL     1      -4.090 -22.774  47.091  1.00  0.00    -0.550 OA
ENDBRANCH   5   6
ENDBRANCH   1   5
TORSDOF 3
ENDMDL
MODEL 2
REMARK VINA RESULT:    -3.346      0.141      3.971
REMARK INTER + INTRA:          -4.049
REMARK INTER:                  -3.942
REMARK INTRA:                  -0.107
REMARK UNBOUND:                -0.116
REMARK SMILES O=C([O-])CCC(=O)[O-]
REMARK SMILES IDX 4 1 2 2 1 3 3 4 5 5 6 6 7 7 8 8
REMARK H PARENT
REMARK Flexibility Score: inf
ROOT
ATOM      1  C   UNL     1      -6.235 -23.112  48.241  1.00  0.00     0.059 C 
ENDROOT
BRANCH   1   2
ATOM      2  C   UNL     1      -5.005 -23.736  47.662  1.00  0.00     0.042 C 
ATOM      3  O   UNL     1      -4.111 -23.015  47.146  1.00  0.00    -0.550 OA
ATOM      4  O   UNL     1      -4.866 -25.119  47.649  1.00  0.00    -0.550 OA
ENDBRANCH   1   2
BRANCH   1   5
ATOM      5  C   UNL     1      -7.316 -22.965  47.167  1.00  0.00     0.059 C 
BRANCH   5   6
ATOM      6  C   UNL     1      -7.710 -21.530  47.015  1.00  0.00     0.042 C 
ATOM      7  O   UNL     1      -6.835 -20.652  46.790  1.00  0.00    -0.550 OA
ATOM      8  O   UNL     1      -9.038 -21.154  47.170  1.00  0.00    -0.550 OA
ENDBRANCH   5   6
ENDBRANCH   1   5
TORSDOF 3
ENDMDL
MODEL 3
REMARK VINA RESULT:    -3.327      2.084      4.389
REMARK INTER + INTRA:          -4.026
REMARK INTER:                  -3.990
REMARK INTRA:                  -0.035
REMARK UNBOUND:                -0.116
REMARK SMILES O=C([O-])CCC(=O)[O-]
REMARK SMILES IDX 4 1 2 2 1 3 3 4 5 5 6 6 7 7 8 8
REMARK H PARENT
REMARK Flexibility Score: inf
ROOT
ATOM      1  C   UNL     1      -8.155 -22.758  47.069  1.00  0.00     0.059 C 
ENDROOT
BRANCH   1   2
ATOM      2  C   UNL     1      -6.864 -22.003  47.082  1.00  0.00     0.042 C 
ATOM      3  O   UNL     1      -5.779 -22.606  47.296  1.00  0.00    -0.550 OA
ATOM      4  O   UNL     1      -6.862 -20.624  46.906  1.00  0.00    -0.550 OA
ENDBRANCH   1   2
BRANCH   1   5
ATOM      5  C   UNL     1      -9.332 -21.809  47.308  1.00  0.00     0.059 C 
BRANCH   5   6
ATOM      6  C   UNL     1     -10.554 -22.579  47.695  1.00  0.00     0.042 C 
ATOM      7  O   UNL     1     -11.675 -22.281  47.204  1.00  0.00    -0.550 OA
ATOM      8  O   UNL     1     -10.466 -23.597  48.637  1.00  0.00    -0.550 OA
ENDBRANCH   5   6
ENDBRANCH   1   5
TORSDOF 3
ENDMDL
MODEL 4
REMARK VINA RESULT:    -3.322      0.213      1.632
REMARK INTER + INTRA:          -4.021
REMARK INTER:                  -3.919
REMARK INTRA:                  -0.102
REMARK UNBOUND:                -0.116
REMARK SMILES O=C([O-])CCC(=O)[O-]
REMARK SMILES IDX 4 1 2 2 1 3 3 4 5 5 6 6 7 7 8 8
REMARK H PARENT
REMARK Flexibility Score: inf
ROOT
ATOM      1  C   UNL     1      -7.473 -23.079  47.239  1.00  0.00     0.059 C 
ENDROOT
BRANCH   1   2
ATOM      2  C   UNL     1      -7.915 -21.663  47.048  1.00  0.00     0.042 C 
ATOM      3  O   UNL     1      -9.126 -21.352  47.196  1.00  0.00    -0.550 OA
ATOM      4  O   UNL     1      -6.998 -20.695  46.657  1.00  0.00    -0.550 OA
ENDBRANCH   1   2
BRANCH   1   5
ATOM      5  C   UNL     1      -6.349 -23.154  48.275  1.00  0.00     0.059 C 
BRANCH   5   6
ATOM      6  C   UNL     1      -5.126 -23.771  47.677  1.00  0.00     0.042 C 
ATOM      7  O   UNL     1      -4.240 -23.045  47.154  1.00  0.00    -0.550 OA
ATOM      8  O   UNL     1      -4.985 -25.153  47.652  1.00  0.00    -0.550 OA
ENDBRANCH   5   6
ENDBRANCH   1   5
TORSDOF 3
ENDMDL
MODEL 5
REMARK VINA RESULT:    -3.303     10.753     12.054
REMARK INTER + INTRA:          -3.998
REMARK INTER:                  -3.890
REMARK INTRA:                  -0.108
REMARK UNBOUND:                -0.116
REMARK SMILES O=C([O-])CCC(=O)[O-]
REMARK SMILES IDX 4 1 2 2 1 3 3 4 5 5 6 6 7 7 8 8
REMARK H PARENT
REMARK Flexibility Score: inf
ROOT
ATOM      1  C   UNL     1      -6.515 -33.464  46.849  1.00  0.00     0.059 C 
ENDROOT
BRANCH   1   2
ATOM      2  C   UNL     1      -5.332 -33.727  47.725  1.00  0.00     0.042 C 
ATOM      3  O   UNL     1      -4.973 -34.910  47.969  1.00  0.00    -0.550 OA
ATOM      4  O   UNL     1      -4.652 -32.667  48.314  1.00  0.00    -0.550 OA
ENDBRANCH   1   2
BRANCH   1   5
ATOM      5  C   UNL     1      -6.841 -34.698  46.006  1.00  0.00     0.059 C 
BRANCH   5   6
ATOM      6  C   UNL     1      -6.118 -34.644  44.698  1.00  0.00     0.042 C 
ATOM      7  O   UNL     1      -6.353 -33.716  43.881  1.00  0.00    -0.550 OA
ATOM      8  O   UNL     1      -5.219 -35.647  44.359  1.00  0.00    -0.550 OA
ENDBRANCH   5   6
ENDBRANCH   1   5
TORSDOF 3
ENDMDL
MODEL 6
REMARK VINA RESULT:    -3.299     10.783     11.934
REMARK INTER + INTRA:          -3.993
REMARK INTER:                  -3.887
REMARK INTRA:                  -0.106
REMARK UNBOUND:                -0.116
REMARK SMILES O=C([O-])CCC(=O)[O-]
REMARK SMILES IDX 4 1 2 2 1 3 3 4 5 5 6 6 7 7 8 8
REMARK H PARENT
REMARK Flexibility Score: inf
ROOT
ATOM      1  C   UNL     1      -6.885 -34.693  46.010  1.00  0.00     0.059 C 
ENDROOT
BRANCH   1   2
ATOM      2  C   UNL     1      -6.154 -34.644  44.706  1.00  0.00     0.042 C 
ATOM      3  O   UNL     1      -6.389 -33.720  43.883  1.00  0.00    -0.550 OA
ATOM      4  O   UNL     1      -5.249 -35.645  44.376  1.00  0.00    -0.550 OA
ENDBRANCH   1   2
BRANCH   1   5
ATOM      5  C   UNL     1      -6.529 -33.478  46.869  1.00  0.00     0.059 C 
BRANCH   5   6
ATOM      6  C   UNL     1      -5.317 -33.761  47.700  1.00  0.00     0.042 C 
ATOM      7  O   UNL     1      -4.959 -34.949  47.915  1.00  0.00    -0.550 OA
ATOM      8  O   UNL     1      -4.610 -32.714  48.276  1.00  0.00    -0.550 OA
ENDBRANCH   5   6
ENDBRANCH   1   5
TORSDOF 3
ENDMDL
MODEL 7
REMARK VINA RESULT:    -3.085      1.504      4.243
REMARK INTER + INTRA:          -3.742
REMARK INTER:                  -3.626
REMARK INTRA:                  -0.117
REMARK UNBOUND:                -0.116
REMARK SMILES O=C([O-])CCC(=O)[O-]
REMARK SMILES IDX 4 1 2 2 1 3 3 4 5 5 6 6 7 7 8 8
REMARK H PARENT
REMARK Flexibility Score: inf
ROOT
ATOM      1  C   UNL     1      -6.640 -22.458  47.745  1.00  0.00     0.059 C 
ENDROOT
BRANCH   1   2
ATOM      2  C   UNL     1      -5.637 -23.567  47.687  1.00  0.00     0.042 C 
ATOM      3  O   UNL     1      -5.947 -24.723  48.080  1.00  0.00    -0.550 OA
ATOM      4  O   UNL     1      -4.345 -23.314  47.244  1.00  0.00    -0.550 OA
ENDBRANCH   1   2
BRANCH   1   5
ATOM      5  C   UNL     1      -7.826 -22.761  46.827  1.00  0.00     0.059 C 
BRANCH   5   6
ATOM      6  C   UNL     1      -9.098 -22.800  47.613  1.00  0.00     0.042 C 
ATOM      7  O   UNL     1      -9.967 -21.901  47.460  1.00  0.00    -0.550 OA
ATOM      8  O   UNL     1      -9.306 -23.804  48.551  1.00  0.00    -0.550 OA
ENDBRANCH   5   6
ENDBRANCH   1   5
TORSDOF 3
ENDMDL
MODEL 8
REMARK VINA RESULT:    -3.053      8.749     10.029
REMARK INTER + INTRA:          -3.704
REMARK INTER:                  -3.563
REMARK INTRA:                  -0.142
REMARK UNBOUND:                -0.116
REMARK SMILES O=C([O-])CCC(=O)[O-]
REMARK SMILES IDX 4 1 2 2 1 3 3 4 5 5 6 6 7 7 8 8
REMARK H PARENT
REMARK Flexibility Score: inf
ROOT
ATOM      1  C   UNL     1       3.350 -20.278  47.216  1.00  0.00     0.059 C 
ENDROOT
BRANCH   1   2
ATOM      2  C   UNL     1       2.322 -20.471  46.147  1.00  0.00     0.042 C 
ATOM      3  O   UNL     1       2.392 -19.813  45.075  1.00  0.00    -0.550 OA
ATOM      4  O   UNL     1       1.259 -21.341  46.352  1.00  0.00    -0.550 OA
ENDBRANCH   1   2
BRANCH   1   5
ATOM      5  C   UNL     1       4.654 -20.986  46.840  1.00  0.00     0.059 C 
BRANCH   5   6
ATOM      6  C   UNL     1       4.513 -22.466  47.007  1.00  0.00     0.042 C 
ATOM      7  O   UNL     1       5.034 -23.251  46.171  1.00  0.00    -0.550 OA
ATOM      8  O   UNL     1       3.764 -22.979  48.059  1.00  0.00    -0.550 OA
ENDBRANCH   5   6
ENDBRANCH   1   5
TORSDOF 3
ENDMDL
MODEL 9
REMARK VINA RESULT:    -3.022     11.919     12.700
REMARK INTER + INTRA:          -3.668
REMARK INTER:                  -3.508
REMARK INTRA:                  -0.160
REMARK UNBOUND:                -0.116
REMARK SMILES O=C([O-])CCC(=O)[O-]
REMARK SMILES IDX 4 1 2 2 1 3 3 4 5 5 6 6 7 7 8 8
REMARK H PARENT
REMARK Flexibility Score: inf
ROOT
ATOM      1  C   UNL     1      -4.324 -35.760  45.972  1.00  0.00     0.059 C 
ENDROOT
BRANCH   1   2
ATOM      2  C   UNL     1      -3.623 -34.497  46.361  1.00  0.00     0.042 C 
ATOM      3  O   UNL     1      -2.562 -34.154  45.774  1.00  0.00    -0.550 OA
ATOM      4  O   UNL     1      -4.113 -33.722  47.405  1.00  0.00    -0.550 OA
ENDBRANCH   1   2
BRANCH   1   5
ATOM      5  C   UNL     1      -4.995 -35.601  44.607  1.00  0.00     0.059 C 
BRANCH   5   6
ATOM      6  C   UNL     1      -6.151 -34.656  44.699  1.00  0.00     0.042 C 
ATOM      7  O   UNL     1      -6.299 -33.750  43.837  1.00  0.00    -0.550 OA
ATOM      8  O   UNL     1      -7.039 -34.745  45.764  1.00  0.00    -0.550 OA
ENDBRANCH   5   6
ENDBRANCH   1   5
TORSDOF 3
ENDMDL
