MODEL 1
REMARK VINA RESULT:    -3.402      0.000      0.000
REMARK INTER + INTRA:          -4.846
REMARK INTER:                  -4.595
REMARK INTRA:                  -0.251
REMARK UNBOUND:                -0.251
REMARK SMILES CCCCCCCC(=O)[O-]
REMARK SMILES IDX 5 1 6 2 7 3 8 4 9 5 10 6 4 7 3 8 2 9 1 10
REMARK H PARENT
REMARK Flexibility Score: inf
ROOT
ATOM      1  C   UNL     1      56.985  28.354  50.380  1.00  0.00     0.000 C 
ENDROOT
BRANCH   1   2
ATOM      2  C   UNL     1      58.014  29.440  50.021  1.00  0.00     0.006 C 
BRANCH   2   3
ATOM      3  C   UNL     1      59.119  28.908  49.097  1.00  0.00     0.053 C 
BRANCH   3   4
ATOM      4  C   UNL     1      59.892  27.795  49.736  1.00  0.00     0.041 C 
ATOM      5  O   UNL     1      60.714  28.043  50.657  1.00  0.00    -0.550 OA
ATOM      6  O   UNL     1      59.684  26.482  49.336  1.00  0.00    -0.550 OA
ENDBRANCH   3   4
ENDBRANCH   2   3
ENDBRANCH   1   2
BRANCH   1   7
ATOM      7  C   UNL     1      55.586  28.930  50.649  1.00  0.00     0.000 C 
BRANCH   7   8
ATOM      8  C   UNL     1      54.463  28.058  50.069  1.00  0.00    -0.000 C 
BRANCH   8   9
ATOM      9  C   UNL     1      54.951  26.626  49.825  1.00  0.00    -0.003 C 
ATOM     10  C   UNL     1      53.890  25.796  49.107  1.00  0.00     0.004 C 
ENDBRANCH   8   9
ENDBRANCH   7   8
ENDBRANCH   1   7
TORSDOF 6
ENDMDL
MODEL 2
REMARK VINA RESULT:    -3.372      8.665     10.404
REMARK INTER + INTRA:          -4.806
REMARK INTER:                  -4.302
REMARK INTRA:                  -0.504
REMARK UNBOUND:                -0.251
REMARK SMILES CCCCCCCC(=O)[O-]
REMARK SMILES IDX 5 1 6 2 7 3 8 4 9 5 10 6 4 7 3 8 2 9 1 10
REMARK H PARENT
REMARK Flexibility Score: inf
ROOT
ATOM      1  C   UNL     1      59.216  17.707  48.463  1.00  0.00     0.000 C 
ENDROOT
BRANCH   1   2
ATOM      2  C   UNL     1      58.110  16.877  49.139  1.00  0.00     0.006 C 
BRANCH   2   3
ATOM      3  C   UNL     1      57.895  17.283  50.603  1.00  0.00     0.053 C 
BRANCH   3   4
ATOM      4  C   UNL     1      57.130  18.566  50.719  1.00  0.00     0.041 C 
ATOM      5  O   UNL     1      55.922  18.617  50.367  1.00  0.00    -0.550 OA
ATOM      6  O   UNL     1      57.742  19.698  51.241  1.00  0.00    -0.550 OA
ENDBRANCH   3   4
ENDBRANCH   2   3
ENDBRANCH   1   2
BRANCH   1   7
ATOM      7  C   UNL     1      60.470  17.847  49.339  1.00  0.00     0.000 C 
BRANCH   7   8
ATOM      8  C   UNL     1      60.849  19.311  49.605  1.00  0.00    -0.000 C 
BRANCH   8   9
ATOM      9  C   UNL     1      60.173  20.245  48.594  1.00  0.00    -0.003 C 
ATOM     10  C   UNL     1      60.954  21.547  48.436  1.00  0.00     0.004 C 
ENDBRANCH   8   9
ENDBRANCH   7   8
ENDBRANCH   1   7
TORSDOF 6
ENDMDL
MODEL 3
REMARK VINA RESULT:    -3.304      9.042     10.593
REMARK INTER + INTRA:          -4.714
REMARK INTER:                  -4.240
REMARK INTRA:                  -0.474
REMARK UNBOUND:                -0.251
REMARK SMILES CCCCCCCC(=O)[O-]
REMARK SMILES IDX 5 1 6 2 7 3 8 4 9 5 10 6 4 7 3 8 2 9 1 10
REMARK H PARENT
REMARK Flexibility Score: inf
ROOT
ATOM      1  C   UNL     1      58.357  16.913  50.797  1.00  0.00     0.000 C 
ENDROOT
BRANCH   1   2
ATOM      2  C   UNL     1      57.648  17.988  51.638  1.00  0.00     0.006 C 
BRANCH   2   3
ATOM      3  C   UNL     1      56.898  19.004  50.766  1.00  0.00     0.053 C 
BRANCH   3   4
ATOM      4  C   UNL     1      55.478  19.180  51.210  1.00  0.00     0.041 C 
ATOM      5  O   UNL     1      55.194  19.181  52.437  1.00  0.00    -0.550 OA
ATOM      6  O   UNL     1      54.472  19.370  50.271  1.00  0.00    -0.550 OA
ENDBRANCH   3   4
ENDBRANCH   2   3
ENDBRANCH   1   2
BRANCH   1   7
ATOM      7  C   UNL     1      57.993  16.993  49.306  1.00  0.00     0.000 C 
BRANCH   7   8
ATOM      8  C   UNL     1      59.219  17.211  48.406  1.00  0.00    -0.000 C 
BRANCH   8   9
ATOM      9  C   UNL     1      60.138  18.293  48.984  1.00  0.00    -0.003 C 
ATOM     10  C   UNL     1      59.778  19.673  48.438  1.00  0.00     0.004 C 
ENDBRANCH   8   9
ENDBRANCH   7   8
ENDBRANCH   1   7
TORSDOF 6
ENDMDL
MODEL 4
REMARK VINA RESULT:    -3.262      3.118      5.155
REMARK INTER + INTRA:          -4.657
REMARK INTER:                  -4.406
REMARK INTRA:                  -0.252
REMARK UNBOUND:                -0.251
REMARK SMILES CCCCCCCC(=O)[O-]
REMARK SMILES IDX 5 1 6 2 7 3 8 4 9 5 10 6 4 7 3 8 2 9 1 10
REMARK H PARENT
REMARK Flexibility Score: inf
ROOT
ATOM      1  C   UNL     1      55.404  28.845  50.745  1.00  0.00     0.000 C 
ENDROOT
BRANCH   1   2
ATOM      2  C   UNL     1      54.305  28.023  50.050  1.00  0.00     0.006 C 
BRANCH   2   3
ATOM      3  C   UNL     1      54.795  26.625  49.646  1.00  0.00     0.053 C 
BRANCH   3   4
ATOM      4  C   UNL     1      53.983  25.542  50.288  1.00  0.00     0.041 C 
ATOM      5  O   UNL     1      53.409  24.676  49.577  1.00  0.00    -0.550 OA
ATOM      6  O   UNL     1      53.885  25.471  51.672  1.00  0.00    -0.550 OA
ENDBRANCH   3   4
ENDBRANCH   2   3
ENDBRANCH   1   2
BRANCH   1   7
ATOM      7  C   UNL     1      56.818  28.360  50.390  1.00  0.00     0.000 C 
BRANCH   7   8
ATOM      8  C   UNL     1      57.860  29.489  50.430  1.00  0.00    -0.000 C 
BRANCH   8   9
ATOM      9  C   UNL     1      58.762  29.447  49.192  1.00  0.00    -0.003 C 
ATOM     10  C   UNL     1      59.591  28.165  49.155  1.00  0.00     0.004 C 
ENDBRANCH   8   9
ENDBRANCH   7   8
ENDBRANCH   1   7
TORSDOF 6
ENDMDL
MODEL 5
REMARK VINA RESULT:    -3.219      1.621      2.569
REMARK INTER + INTRA:          -4.600
REMARK INTER:                  -4.328
REMARK INTRA:                  -0.271
REMARK UNBOUND:                -0.251
REMARK SMILES CCCCCCCC(=O)[O-]
REMARK SMILES IDX 5 1 6 2 7 3 8 4 9 5 10 6 4 7 3 8 2 9 1 10
REMARK H PARENT
REMARK Flexibility Score: inf
ROOT
ATOM      1  C   UNL     1      55.928  26.255  50.166  1.00  0.00     0.000 C 
ENDROOT
BRANCH   1   2
ATOM      2  C   UNL     1      57.434  26.518  49.986  1.00  0.00     0.006 C 
BRANCH   2   3
ATOM      3  C   UNL     1      57.815  27.963  50.337  1.00  0.00     0.053 C 
BRANCH   3   4
ATOM      4  C   UNL     1      58.879  28.495  49.427  1.00  0.00     0.041 C 
ATOM      5  O   UNL     1      59.856  27.770  49.103  1.00  0.00    -0.550 OA
ATOM      6  O   UNL     1      58.778  29.782  48.913  1.00  0.00    -0.550 OA
ENDBRANCH   3   4
ENDBRANCH   2   3
ENDBRANCH   1   2
BRANCH   1   7
ATOM      7  C   UNL     1      55.125  27.546  50.385  1.00  0.00     0.000 C 
BRANCH   7   8
ATOM      8  C   UNL     1      53.772  27.535  49.658  1.00  0.00    -0.000 C 
BRANCH   8   9
ATOM      9  C   UNL     1      52.936  28.763  50.035  1.00  0.00    -0.003 C 
ATOM     10  C   UNL     1      53.826  29.925  50.470  1.00  0.00     0.004 C 
ENDBRANCH   8   9
ENDBRANCH   7   8
ENDBRANCH   1   7
TORSDOF 6
ENDMDL
MODEL 6
REMARK VINA RESULT:    -3.162      2.959      4.725
REMARK INTER + INTRA:          -4.523
REMARK INTER:                  -4.083
REMARK INTRA:                  -0.440
REMARK UNBOUND:                -0.251
REMARK SMILES CCCCCCCC(=O)[O-]
REMARK SMILES IDX 5 1 6 2 7 3 8 4 9 5 10 6 4 7 3 8 2 9 1 10
REMARK H PARENT
REMARK Flexibility Score: inf
ROOT
ATOM      1  C   UNL     1      57.425  28.950  50.965  1.00  0.00     0.000 C 
ENDROOT
BRANCH   1   2
ATOM      2  C   UNL     1      55.993  28.580  50.543  1.00  0.00     0.006 C 
BRANCH   2   3
ATOM      3  C   UNL     1      55.862  27.095  50.178  1.00  0.00     0.053 C 
BRANCH   3   4
ATOM      4  C   UNL     1      54.494  26.765  49.662  1.00  0.00     0.041 C 
ATOM      5  O   UNL     1      53.629  27.672  49.540  1.00  0.00    -0.550 OA
ATOM      6  O   UNL     1      54.184  25.464  49.290  1.00  0.00    -0.550 OA
ENDBRANCH   3   4
ENDBRANCH   2   3
ENDBRANCH   1   2
BRANCH   1   7
ATOM      7  C   UNL     1      58.204  29.665  49.850  1.00  0.00     0.000 C 
BRANCH   7   8
ATOM      8  C   UNL     1      59.132  28.719  49.073  1.00  0.00    -0.000 C 
BRANCH   8   9
ATOM      9  C   UNL     1      59.811  27.719  50.016  1.00  0.00    -0.003 C 
ATOM     10  C   UNL     1      59.602  26.283  49.540  1.00  0.00     0.004 C 
ENDBRANCH   8   9
ENDBRANCH   7   8
ENDBRANCH   1   7
TORSDOF 6
ENDMDL
MODEL 7
REMARK VINA RESULT:    -3.156      0.948      1.604
REMARK INTER + INTRA:          -4.514
REMARK INTER:                  -4.258
REMARK INTRA:                  -0.256
REMARK UNBOUND:                -0.251
REMARK SMILES CCCCCCCC(=O)[O-]
REMARK SMILES IDX 5 1 6 2 7 3 8 4 9 5 10 6 4 7 3 8 2 9 1 10
REMARK H PARENT
REMARK Flexibility Score: inf
ROOT
ATOM      1  C   UNL     1      57.840  29.331  50.412  1.00  0.00     0.000 C 
ENDROOT
BRANCH   1   2
ATOM      2  C   UNL     1      58.790  29.365  49.202  1.00  0.00     0.006 C 
BRANCH   2   3
ATOM      3  C   UNL     1      59.662  28.105  49.114  1.00  0.00     0.053 C 
BRANCH   3   4
ATOM      4  C   UNL     1      60.894  28.219  49.959  1.00  0.00     0.041 C 
ATOM      5  O   UNL     1      61.254  27.255  50.685  1.00  0.00    -0.550 OA
ATOM      6  O   UNL     1      61.659  29.377  49.923  1.00  0.00    -0.550 OA
ENDBRANCH   3   4
ENDBRANCH   2   3
ENDBRANCH   1   2
BRANCH   1   7
ATOM      7  C   UNL     1      56.810  28.195  50.323  1.00  0.00     0.000 C 
BRANCH   7   8
ATOM      8  C   UNL     1      55.379  28.665  50.626  1.00  0.00    -0.000 C 
BRANCH   8   9
ATOM      9  C   UNL     1      54.347  27.750  49.956  1.00  0.00    -0.003 C 
ATOM     10  C   UNL     1      54.939  26.374  49.663  1.00  0.00     0.004 C 
ENDBRANCH   8   9
ENDBRANCH   7   8
ENDBRANCH   1   7
TORSDOF 6
ENDMDL
MODEL 8
REMARK VINA RESULT:    -3.139     17.301     18.683
REMARK INTER + INTRA:          -4.491
REMARK INTER:                  -4.135
REMARK INTRA:                  -0.356
REMARK UNBOUND:                -0.251
REMARK SMILES CCCCCCCC(=O)[O-]
REMARK SMILES IDX 5 1 6 2 7 3 8 4 9 5 10 6 4 7 3 8 2 9 1 10
REMARK H PARENT
REMARK Flexibility Score: inf
ROOT
ATOM      1  C   UNL     1      72.978  29.637  62.448  1.00  0.00     0.000 C 
ENDROOT
BRANCH   1   2
ATOM      2  C   UNL     1      73.125  31.133  62.120  1.00  0.00     0.006 C 
BRANCH   2   3
ATOM      3  C   UNL     1      73.077  31.403  60.610  1.00  0.00     0.053 C 
BRANCH   3   4
ATOM      4  C   UNL     1      71.921  32.279  60.236  1.00  0.00     0.041 C 
ATOM      5  O   UNL     1      70.853  31.768  59.808  1.00  0.00    -0.550 OA
ATOM      6  O   UNL     1      72.012  33.656  60.387  1.00  0.00    -0.550 OA
ENDBRANCH   3   4
ENDBRANCH   2   3
ENDBRANCH   1   2
BRANCH   1   7
ATOM      7  C   UNL     1      71.648  29.051  61.950  1.00  0.00     0.000 C 
BRANCH   7   8
ATOM      8  C   UNL     1      70.432  29.621  62.695  1.00  0.00    -0.000 C 
BRANCH   8   9
ATOM      9  C   UNL     1      69.162  28.832  62.357  1.00  0.00    -0.003 C 
ATOM     10  C   UNL     1      69.501  27.429  61.857  1.00  0.00     0.004 C 
ENDBRANCH   8   9
ENDBRANCH   7   8
ENDBRANCH   1   7
TORSDOF 6
ENDMDL
MODEL 9
REMARK VINA RESULT:    -3.138      3.402      5.322
REMARK INTER + INTRA:          -4.489
REMARK INTER:                  -4.147
REMARK INTRA:                  -0.342
REMARK UNBOUND:                -0.251
REMARK SMILES CCCCCCCC(=O)[O-]
REMARK SMILES IDX 5 1 6 2 7 3 8 4 9 5 10 6 4 7 3 8 2 9 1 10
REMARK H PARENT
REMARK Flexibility Score: inf
ROOT
ATOM      1  C   UNL     1      56.824  26.251  50.026  1.00  0.00     0.000 C 
ENDROOT
BRANCH   1   2
ATOM      2  C   UNL     1      55.476  26.701  50.616  1.00  0.00     0.006 C 
BRANCH   2   3
ATOM      3  C   UNL     1      55.215  28.197  50.388  1.00  0.00     0.053 C 
BRANCH   3   4
ATOM      4  C   UNL     1      53.805  28.457  49.956  1.00  0.00     0.041 C 
ATOM      5  O   UNL     1      53.123  27.537  49.432  1.00  0.00    -0.550 OA
ATOM      6  O   UNL     1      53.234  29.707  50.157  1.00  0.00    -0.550 OA
ENDBRANCH   3   4
ENDBRANCH   2   3
ENDBRANCH   1   2
BRANCH   1   7
ATOM      7  C   UNL     1      57.981  27.185  50.415  1.00  0.00     0.000 C 
BRANCH   7   8
ATOM      8  C   UNL     1      59.210  27.017  49.509  1.00  0.00    -0.000 C 
BRANCH   8   9
ATOM      9  C   UNL     1      59.814  28.378  49.144  1.00  0.00    -0.003 C 
ATOM     10  C   UNL     1      58.766  29.486  49.226  1.00  0.00     0.004 C 
ENDBRANCH   8   9
ENDBRANCH   7   8
ENDBRANCH   1   7
TORSDOF 6
ENDMDL
