MODEL 1
REMARK VINA RESULT:    81.524      0.000      0.000
REMARK INTER + INTRA:          88.688
REMARK INTER:                  88.673
REMARK INTRA:                   0.015
REMARK UNBOUND:                 0.015
REMARK SMILES C[C@@H]1[C@H](C)CC[C@]2(C(=O)[O-])CC[C@@]3(C)C(=CC[C@@H]4[C@]5(C)CC[C@@H](O)C(C)(C)[C@@H]5CC[C@@]43C)[C@H]12
REMARK SMILES IDX 7 1 6 2 11 3 33 4 5 5 12 6 15 7 2 8 3 9 13 10 16 11 1 12
REMARK SMILES IDX 4 13 14 14 31 15 17 16 18 17 30 18 32 19 19 20 29 21 28 22
REMARK SMILES IDX 21 23 20 24 25 25 22 26 23 27 26 28 27 29 8 30 9 31 10 32
REMARK SMILES IDX 24 33
REMARK H PARENT 24 34
REMARK Flexibility Score: inf
ROOT
ATOM      1  C   UNL     1      14.293   1.762  -3.615  1.00  0.00     0.017 C 
ATOM      2  C   UNL     1      15.545   2.201  -2.805  1.00  0.00     0.014 C 
ATOM      3  C   UNL     1      13.762   3.046  -4.383  1.00  0.00     0.014 C 
ATOM      4  C   UNL     1      13.194   1.140  -2.642  1.00  0.00     0.030 C 
ATOM      5  C   UNL     1      16.045   1.160  -1.813  1.00  0.00     0.004 C 
ATOM      6  C   UNL     1      12.260   3.067  -4.845  1.00  0.00     0.013 C 
ATOM      7  C   UNL     1      11.981   2.064  -2.609  1.00  0.00    -0.063 C 
ATOM      8  C   UNL     1      13.674   0.422  -1.315  1.00  0.00    -0.003 C 
ATOM      9  C   UNL     1      15.028   0.865  -0.701  1.00  0.00    -0.011 C 
ATOM     10  C   UNL     1      11.252   2.247  -3.944  1.00  0.00    -0.006 C 
ATOM     11  C   UNL     1      11.986   3.094  -1.746  1.00  0.00    -0.027 C 
ATOM     12  C   UNL     1      12.563   0.214  -0.262  1.00  0.00     0.008 C 
ATOM     13  C   UNL     1      14.985   1.948   0.417  1.00  0.00     0.008 C 
ATOM     14  C   UNL     1      11.032   0.879  -4.684  1.00  0.00     0.017 C 
ATOM     15  C   UNL     1       9.825   2.953  -3.661  1.00  0.00    -0.020 C 
ATOM     16  C   UNL     1      11.016   4.233  -1.743  1.00  0.00     0.032 C 
ATOM     17  C   UNL     1      10.004   4.349  -2.928  1.00  0.00     0.006 C 
ATOM     18  C   UNL     1       8.938   2.013  -2.758  1.00  0.00     0.008 C 
ATOM     19  C   UNL     1       9.086   3.153  -5.022  1.00  0.00     0.012 C 
ATOM     20  C   UNL     1       8.625   5.090  -2.506  1.00  0.00    -0.025 C 
ATOM     21  C   UNL     1       8.218   2.677  -1.568  1.00  0.00     0.005 C 
ATOM     22  C   UNL     1       7.548   4.017  -1.964  1.00  0.00     0.003 C 
ATOM     23  C   UNL     1       8.930   6.247  -1.482  1.00  0.00     0.010 C 
ATOM     24  C   UNL     1       8.035   5.839  -3.776  1.00  0.00     0.012 C 
ATOM     25  C   UNL     1       6.431   4.567  -0.955  1.00  0.00    -0.006 C 
ATOM     26  C   UNL     1       7.678   6.810  -0.820  1.00  0.00     0.033 C 
ATOM     27  C   UNL     1       6.986   5.699  -0.031  1.00  0.00     0.120 C 
ATOM     28  C   UNL     1       5.869   3.457  -0.028  1.00  0.00     0.014 C 
ATOM     29  C   UNL     1       5.213   5.066  -1.779  1.00  0.00     0.014 C 
ENDROOT
BRANCH   1  30
ATOM     30  C   UNL     1      14.740   0.746  -4.660  1.00  0.00     0.048 C 
ATOM     31  O   UNL     1      13.944  -0.113  -5.118  1.00  0.00    -0.550 OA
ATOM     32  O   UNL     1      16.068   0.695  -5.066  1.00  0.00    -0.550 OA
ENDBRANCH   1  30
BRANCH  27  33
ATOM     33  O   UNL     1       5.990   6.221   0.810  1.00  0.00    -0.393 OA
ATOM     34  H   UNL     1       5.155   5.702   0.685  1.00  0.00     0.210 HD
ENDBRANCH  27  33
TORSDOF 2
ENDMDL
