MODEL 1
REMARK VINA RESULT:    -3.129      0.000      0.000
REMARK INTER + INTRA:          -3.729
REMARK INTER:                  -4.409
REMARK INTRA:                   0.680
REMARK UNBOUND:                 0.680
REMARK SMILES CC1=CCC(=C(C)C)C(=O)CC(C)=CCC1
REMARK SMILES IDX 12 1 14 2 13 3 15 4 16 5 2 6 1 7 3 8 11 10 9 11 10 12 5 13
REMARK SMILES IDX 6 14 7 15 8 16 4 17
REMARK H PARENT
REMARK Flexibility Score: 60.00
ROOT
ATOM      1  C   UNL     1      -5.713 -13.109  -6.773  1.00  0.00    -0.070 C 
ATOM      2  C   UNL     1      -5.254 -12.030  -7.451  1.00  0.00    -0.027 C 
ATOM      3  C   UNL     1      -6.143 -12.901  -5.342  1.00  0.00     0.039 C 
ENDROOT
BRANCH   2   4
ATOM      4  C   UNL     1      -4.874 -11.986  -8.910  1.00  0.00     0.032 C 
BRANCH   4   5
ATOM      5  C   UNL     1      -3.348 -11.980  -9.125  1.00  0.00     0.034 C 
BRANCH   5   6
ATOM      6  C   UNL     1      -2.587 -11.867  -7.818  1.00  0.00    -0.077 C 
ATOM      7  C   UNL     1      -2.387 -10.496  -7.222  1.00  0.00     0.039 C 
ATOM      8  C   UNL     1      -2.052 -12.924  -7.167  1.00  0.00    -0.023 CG0
ATOM      9  G   UNL     1      -2.114 -14.363  -7.621  1.00  0.00     0.000 G0
ENDBRANCH   5   6
ENDBRANCH   4   5
ENDBRANCH   2   4
BRANCH   1  10
ATOM     10  C   UNL     1      -5.878 -14.487  -7.393  1.00  0.00     0.111 C 
BRANCH  10  11
ATOM     11  C   UNL     1      -4.568 -15.019  -7.920  1.00  0.00     0.163 C 
ATOM     12  O   UNL     1      -4.543 -15.477  -9.094  1.00  0.00    -0.294 OA
BRANCH  11  13
ATOM     13  C   UNL     1      -3.333 -15.062  -7.076  1.00  0.00    -0.002 C 
ATOM     14  C   UNL     1      -3.295 -15.742  -5.891  1.00  0.00    -0.069 C 
ATOM     15  C   UNL     1      -4.477 -16.551  -5.403  1.00  0.00     0.039 C 
ATOM     16  C   UNL     1      -2.054 -15.749  -5.025  1.00  0.00     0.039 C 
BRANCH  13  17
ATOM     17  C   UNL     1      -2.096 -14.378  -7.629  1.00  0.00     0.066 CG0
ATOM     18  G   UNL     1      -2.058 -12.939  -7.171  1.00  0.00     0.000 G0
ENDBRANCH  13  17
ENDBRANCH  11  13
ENDBRANCH  10  11
ENDBRANCH   1  10
TORSDOF 0
ENDMDL
MODEL 2
REMARK VINA RESULT:    -2.696      1.538      3.344
REMARK INTER + INTRA:          -3.120
REMARK INTER:                  -5.042
REMARK INTRA:                   1.922
REMARK UNBOUND:                 0.680
REMARK SMILES CC1=CCC(=C(C)C)C(=O)CC(C)=CCC1
REMARK SMILES IDX 12 1 14 2 13 3 15 4 16 5 2 6 1 7 3 8 11 10 9 11 10 12 5 13
REMARK SMILES IDX 6 14 7 15 8 16 4 17
REMARK H PARENT
REMARK Flexibility Score: 60.00
ROOT
ATOM      1  C   UNL     1      -2.853 -11.518  -8.599  1.00  0.00    -0.070 C 
ATOM      2  C   UNL     1      -4.108 -11.515  -9.108  1.00  0.00    -0.027 C 
ATOM      3  C   UNL     1      -1.891 -10.475  -9.115  1.00  0.00     0.039 C 
ENDROOT
BRANCH   2   4
ATOM      4  C   UNL     1      -5.254 -12.391  -8.664  1.00  0.00     0.032 C 
BRANCH   4   5
ATOM      5  C   UNL     1      -5.967 -11.845  -7.413  1.00  0.00     0.034 C 
BRANCH   5   6
ATOM      6  C   UNL     1      -6.076 -12.886  -6.316  1.00  0.00    -0.077 C 
ATOM      7  C   UNL     1      -6.743 -12.496  -5.021  1.00  0.00     0.039 C 
ATOM      8  C   UNL     1      -5.583 -14.141  -6.421  1.00  0.00    -0.023 CG0
ATOM      9  G   UNL     1      -4.855 -14.706  -7.617  1.00  0.00     0.000 G0
ENDBRANCH   5   6
ENDBRANCH   4   5
ENDBRANCH   2   4
BRANCH   1  10
ATOM     10  C   UNL     1      -2.389 -12.459  -7.500  1.00  0.00     0.111 C 
BRANCH  10  11
ATOM     11  C   UNL     1      -2.458 -13.901  -7.939  1.00  0.00     0.163 C 
ATOM     12  O   UNL     1      -1.733 -14.262  -8.904  1.00  0.00    -0.294 OA
BRANCH  11  13
ATOM     13  C   UNL     1      -3.392 -14.880  -7.300  1.00  0.00    -0.002 C 
ATOM     14  C   UNL     1      -2.948 -15.830  -6.423  1.00  0.00    -0.069 C 
ATOM     15  C   UNL     1      -1.499 -15.896  -5.993  1.00  0.00     0.039 C 
ATOM     16  C   UNL     1      -3.893 -16.841  -5.809  1.00  0.00     0.039 C 
BRANCH  13  17
ATOM     17  C   UNL     1      -4.871 -14.727  -7.610  1.00  0.00     0.066 CG0
ATOM     18  G   UNL     1      -5.589 -14.157  -6.409  1.00  0.00     0.000 G0
ENDBRANCH  13  17
ENDBRANCH  11  13
ENDBRANCH  10  11
ENDBRANCH   1  10
TORSDOF 0
ENDMDL
MODEL 3
REMARK VINA RESULT:    -2.521      2.112      3.636
REMARK INTER + INTRA:          -2.873
REMARK INTER:                  -4.161
REMARK INTRA:                   1.288
REMARK UNBOUND:                 0.680
REMARK SMILES CC1=CCC(=C(C)C)C(=O)CC(C)=CCC1
REMARK SMILES IDX 12 1 14 2 13 3 15 4 16 5 2 6 1 7 3 8 11 10 9 11 10 12 5 13
REMARK SMILES IDX 6 14 7 15 8 16 4 17
REMARK H PARENT
REMARK Flexibility Score: 60.00
ROOT
ATOM      1  C   UNL     1      -2.439 -13.019  -7.833  1.00  0.00    -0.070 C 
ATOM      2  C   UNL     1      -3.065 -13.585  -8.892  1.00  0.00    -0.027 C 
ATOM      3  C   UNL     1      -2.339 -11.513  -7.806  1.00  0.00     0.039 C 
ENDROOT
BRANCH   2   4
ATOM      4  C   UNL     1      -3.369 -15.051  -9.072  1.00  0.00     0.032 C 
BRANCH   4   5
ATOM      5  C   UNL     1      -4.869 -15.368  -8.925  1.00  0.00     0.034 C 
BRANCH   5   6
ATOM      6  C   UNL     1      -5.592 -14.337  -8.078  1.00  0.00    -0.077 C 
ATOM      7  C   UNL     1      -6.168 -13.125  -8.764  1.00  0.00     0.039 C 
ATOM      8  C   UNL     1      -5.725 -14.429  -6.736  1.00  0.00    -0.023 CG0
ATOM      9  G   UNL     1      -5.188 -15.544  -5.870  1.00  0.00     0.000 G0
ENDBRANCH   5   6
ENDBRANCH   4   5
ENDBRANCH   2   4
BRANCH   1  10
ATOM     10  C   UNL     1      -1.898 -13.808  -6.652  1.00  0.00     0.111 C 
BRANCH  10  11
ATOM     11  C   UNL     1      -3.004 -14.232  -5.716  1.00  0.00     0.163 C 
ATOM     12  O   UNL     1      -3.312 -13.456  -4.773  1.00  0.00    -0.294 OA
BRANCH  11  13
ATOM     13  C   UNL     1      -3.692 -15.554  -5.851  1.00  0.00    -0.002 C 
ATOM     14  C   UNL     1      -2.992 -16.727  -5.902  1.00  0.00    -0.069 C 
ATOM     15  C   UNL     1      -1.488 -16.760  -5.751  1.00  0.00     0.039 C 
ATOM     16  C   UNL     1      -3.694 -18.057  -6.076  1.00  0.00     0.039 C 
BRANCH  13  17
ATOM     17  C   UNL     1      -5.210 -15.544  -5.852  1.00  0.00     0.066 CG0
ATOM     18  G   UNL     1      -5.714 -14.427  -6.736  1.00  0.00     0.000 G0
ENDBRANCH  13  17
ENDBRANCH  11  13
ENDBRANCH  10  11
ENDBRANCH   1  10
TORSDOF 0
ENDMDL
MODEL 4
REMARK VINA RESULT:    -2.282      1.596      3.043
REMARK INTER + INTRA:          -2.536
REMARK INTER:                  -3.623
REMARK INTRA:                   1.087
REMARK UNBOUND:                 0.680
REMARK SMILES CC1=CCC(=C(C)C)C(=O)CC(C)=CCC1
REMARK SMILES IDX 12 1 14 2 13 3 15 4 16 5 2 6 1 7 3 8 11 10 9 11 10 12 5 13
REMARK SMILES IDX 6 14 7 15 8 16 4 17
REMARK H PARENT
REMARK Flexibility Score: 60.00
ROOT
ATOM      1  C   UNL     1      -2.234 -13.801  -8.194  1.00  0.00    -0.070 C 
ATOM      2  C   UNL     1      -2.468 -12.469  -8.109  1.00  0.00    -0.027 C 
ATOM      3  C   UNL     1      -1.129 -14.370  -7.338  1.00  0.00     0.039 C 
ENDROOT
BRANCH   2   4
ATOM      4  C   UNL     1      -3.582 -11.712  -8.789  1.00  0.00     0.032 C 
BRANCH   4   5
ATOM      5  C   UNL     1      -4.739 -11.373  -7.830  1.00  0.00     0.034 C 
BRANCH   5   6
ATOM      6  C   UNL     1      -5.854 -12.399  -7.892  1.00  0.00    -0.077 C 
ATOM      7  C   UNL     1      -7.051 -12.103  -8.759  1.00  0.00     0.039 C 
ATOM      8  C   UNL     1      -5.849 -13.555  -7.192  1.00  0.00    -0.023 CG0
ATOM      9  G   UNL     1      -4.762 -14.011  -6.247  1.00  0.00     0.000 G0
ENDBRANCH   5   6
ENDBRANCH   4   5
ENDBRANCH   2   4
BRANCH   1  10
ATOM     10  C   UNL     1      -3.061 -14.751  -9.045  1.00  0.00     0.111 C 
BRANCH  10  11
ATOM     11  C   UNL     1      -4.050 -15.525  -8.210  1.00  0.00     0.163 C 
ATOM     12  O   UNL     1      -4.821 -16.330  -8.798  1.00  0.00    -0.294 OA
BRANCH  11  13
ATOM     13  C   UNL     1      -4.169 -15.323  -6.732  1.00  0.00    -0.002 C 
ATOM     14  C   UNL     1      -3.715 -16.254  -5.841  1.00  0.00    -0.069 C 
ATOM     15  C   UNL     1      -3.000 -17.507  -6.297  1.00  0.00     0.039 C 
ATOM     16  C   UNL     1      -3.873 -16.059  -4.348  1.00  0.00     0.039 C 
BRANCH  13  17
ATOM     17  C   UNL     1      -4.749 -14.002  -6.261  1.00  0.00     0.066 CG0
ATOM     18  G   UNL     1      -5.846 -13.560  -7.201  1.00  0.00     0.000 G0
ENDBRANCH  13  17
ENDBRANCH  11  13
ENDBRANCH  10  11
ENDBRANCH   1  10
TORSDOF 0
ENDMDL
MODEL 5
REMARK VINA RESULT:    -2.074      1.404      3.451
REMARK INTER + INTRA:          -2.243
REMARK INTER:                  -3.869
REMARK INTRA:                   1.626
REMARK UNBOUND:                 0.680
REMARK SMILES CC1=CCC(=C(C)C)C(=O)CC(C)=CCC1
REMARK SMILES IDX 12 1 14 2 13 3 15 4 16 5 2 6 1 7 3 8 11 10 9 11 10 12 5 13
REMARK SMILES IDX 6 14 7 15 8 16 4 17
REMARK H PARENT
REMARK Flexibility Score: 60.00
ROOT
ATOM      1  C   UNL     1      -3.203 -15.649  -6.100  1.00  0.00    -0.070 C 
ATOM      2  C   UNL     1      -2.150 -14.829  -6.338  1.00  0.00    -0.027 C 
ATOM      3  C   UNL     1      -2.902 -17.092  -5.778  1.00  0.00     0.039 C 
ENDROOT
BRANCH   2   4
ATOM      4  C   UNL     1      -2.212 -13.341  -6.574  1.00  0.00     0.032 C 
BRANCH   4   5
ATOM      5  C   UNL     1      -1.922 -12.960  -8.038  1.00  0.00     0.034 C 
BRANCH   5   6
ATOM      6  C   UNL     1      -2.633 -11.685  -8.449  1.00  0.00    -0.077 C 
ATOM      7  C   UNL     1      -1.902 -10.375  -8.295  1.00  0.00     0.039 C 
ATOM      8  C   UNL     1      -3.899 -11.651  -8.922  1.00  0.00    -0.023 CG0
ATOM      9  G   UNL     1      -4.802 -12.846  -9.114  1.00  0.00     0.000 G0
ENDBRANCH   5   6
ENDBRANCH   4   5
ENDBRANCH   2   4
BRANCH   1  10
ATOM     10  C   UNL     1      -4.648 -15.180  -6.074  1.00  0.00     0.111 C 
BRANCH  10  11
ATOM     11  C   UNL     1      -5.117 -14.750  -7.442  1.00  0.00     0.163 C 
ATOM     12  O   UNL     1      -5.272 -15.639  -8.322  1.00  0.00    -0.294 OA
BRANCH  11  13
ATOM     13  C   UNL     1      -5.346 -13.312  -7.786  1.00  0.00    -0.002 C 
ATOM     14  C   UNL     1      -5.944 -12.450  -6.909  1.00  0.00    -0.069 C 
ATOM     15  C   UNL     1      -6.340 -12.885  -5.516  1.00  0.00     0.039 C 
ATOM     16  C   UNL     1      -6.206 -11.006  -7.279  1.00  0.00     0.039 C 
BRANCH  13  17
ATOM     17  C   UNL     1      -4.817 -12.830  -9.125  1.00  0.00     0.066 CG0
ATOM     18  G   UNL     1      -3.901 -11.647  -8.917  1.00  0.00     0.000 G0
ENDBRANCH  13  17
ENDBRANCH  11  13
ENDBRANCH  10  11
ENDBRANCH   1  10
TORSDOF 0
ENDMDL
MODEL 6
REMARK VINA RESULT:    -2.005      1.680      2.309
REMARK INTER + INTRA:          -2.146
REMARK INTER:                  -3.599
REMARK INTRA:                   1.453
REMARK UNBOUND:                 0.680
REMARK SMILES CC1=CCC(=C(C)C)C(=O)CC(C)=CCC1
REMARK SMILES IDX 12 1 14 2 13 3 15 4 16 5 2 6 1 7 3 8 11 10 9 11 10 12 5 13
REMARK SMILES IDX 6 14 7 15 8 16 4 17
REMARK H PARENT
REMARK Flexibility Score: 60.00
ROOT
ATOM      1  C   UNL     1      -4.971 -13.715  -8.699  1.00  0.00    -0.070 C 
ATOM      2  C   UNL     1      -3.726 -13.388  -9.122  1.00  0.00    -0.027 C 
ATOM      3  C   UNL     1      -6.078 -12.722  -8.960  1.00  0.00     0.039 C 
ENDROOT
BRANCH   2   4
ATOM      4  C   UNL     1      -2.502 -14.268  -9.061  1.00  0.00     0.032 C 
BRANCH   4   5
ATOM      5  C   UNL     1      -1.627 -13.981  -7.827  1.00  0.00     0.034 C 
BRANCH   5   6
ATOM      6  C   UNL     1      -2.273 -12.982  -6.887  1.00  0.00    -0.077 C 
ATOM      7  C   UNL     1      -2.266 -11.525  -7.275  1.00  0.00     0.039 C 
ATOM      8  C   UNL     1      -2.834 -13.318  -5.703  1.00  0.00    -0.023 CG0
ATOM      9  G   UNL     1      -2.907 -14.712  -5.126  1.00  0.00     0.000 G0
ENDBRANCH   5   6
ENDBRANCH   4   5
ENDBRANCH   2   4
BRANCH   1  10
ATOM     10  C   UNL     1      -5.320 -15.041  -8.044  1.00  0.00     0.111 C 
BRANCH  10  11
ATOM     11  C   UNL     1      -5.022 -15.024  -6.565  1.00  0.00     0.163 C 
ATOM     12  O   UNL     1      -5.847 -14.456  -5.801  1.00  0.00    -0.294 OA
BRANCH  11  13
ATOM     13  C   UNL     1      -3.766 -15.612  -6.003  1.00  0.00    -0.002 C 
ATOM     14  C   UNL     1      -3.353 -16.873  -6.329  1.00  0.00    -0.069 C 
ATOM     15  C   UNL     1      -4.105 -17.718  -7.334  1.00  0.00     0.039 C 
ATOM     16  C   UNL     1      -2.101 -17.474  -5.726  1.00  0.00     0.039 C 
BRANCH  13  17
ATOM     17  C   UNL     1      -2.926 -14.717  -5.109  1.00  0.00     0.066 CG0
ATOM     18  G   UNL     1      -2.843 -13.331  -5.704  1.00  0.00     0.000 G0
ENDBRANCH  13  17
ENDBRANCH  11  13
ENDBRANCH  10  11
ENDBRANCH   1  10
TORSDOF 0
ENDMDL
MODEL 7
REMARK VINA RESULT:    -1.939      1.658      4.128
REMARK INTER + INTRA:          -2.053
REMARK INTER:                  -3.263
REMARK INTRA:                   1.210
REMARK UNBOUND:                 0.680
REMARK SMILES CC1=CCC(=C(C)C)C(=O)CC(C)=CCC1
REMARK SMILES IDX 12 1 14 2 13 3 15 4 16 5 2 6 1 7 3 8 11 10 9 11 10 12 5 13
REMARK SMILES IDX 6 14 7 15 8 16 4 17
REMARK H PARENT
REMARK Flexibility Score: 60.00
ROOT
ATOM      1  C   UNL     1      -5.018 -15.392  -7.763  1.00  0.00    -0.070 C 
ATOM      2  C   UNL     1      -4.035 -16.323  -7.713  1.00  0.00    -0.027 C 
ATOM      3  C   UNL     1      -5.611 -15.077  -9.115  1.00  0.00     0.039 C 
ENDROOT
BRANCH   2   4
ATOM      4  C   UNL     1      -3.380 -16.865  -6.467  1.00  0.00     0.032 C 
BRANCH   4   5
ATOM      5  C   UNL     1      -2.190 -16.005  -6.001  1.00  0.00     0.034 C 
BRANCH   5   6
ATOM      6  C   UNL     1      -2.611 -14.932  -5.014  1.00  0.00    -0.077 C 
ATOM      7  C   UNL     1      -2.850 -15.333  -3.581  1.00  0.00     0.039 C 
ATOM      8  C   UNL     1      -2.812 -13.639  -5.352  1.00  0.00    -0.023 CG0
ATOM      9  G   UNL     1      -2.659 -13.054  -6.737  1.00  0.00     0.000 G0
ENDBRANCH   5   6
ENDBRANCH   4   5
ENDBRANCH   2   4
BRANCH   1  10
ATOM     10  C   UNL     1      -5.595 -14.707  -6.535  1.00  0.00     0.111 C 
BRANCH  10  11
ATOM     11  C   UNL     1      -5.246 -13.239  -6.504  1.00  0.00     0.163 C 
ATOM     12  O   UNL     1      -6.000 -12.464  -5.856  1.00  0.00    -0.294 OA
BRANCH  11  13
ATOM     13  C   UNL     1      -4.076 -12.687  -7.254  1.00  0.00    -0.002 C 
ATOM     14  C   UNL     1      -4.237 -11.842  -8.316  1.00  0.00    -0.069 C 
ATOM     15  C   UNL     1      -5.604 -11.359  -8.745  1.00  0.00     0.039 C 
ATOM     16  C   UNL     1      -3.048 -11.317  -9.094  1.00  0.00     0.039 C 
BRANCH  13  17
ATOM     17  C   UNL     1      -2.693 -13.046  -6.739  1.00  0.00     0.066 CG0
ATOM     18  G   UNL     1      -2.801 -13.630  -5.349  1.00  0.00     0.000 G0
ENDBRANCH  13  17
ENDBRANCH  11  13
ENDBRANCH  10  11
ENDBRANCH   1  10
TORSDOF 0
ENDMDL
MODEL 8
REMARK VINA RESULT:    -1.616      1.079      3.498
REMARK INTER + INTRA:          -1.597
REMARK INTER:                  -2.991
REMARK INTRA:                   1.393
REMARK UNBOUND:                 0.680
REMARK SMILES CC1=CCC(=C(C)C)C(=O)CC(C)=CCC1
REMARK SMILES IDX 12 1 14 2 13 3 15 4 16 5 2 6 1 7 3 8 11 10 9 11 10 12 5 13
REMARK SMILES IDX 6 14 7 15 8 16 4 17
REMARK H PARENT
REMARK Flexibility Score: 60.00
ROOT
ATOM      1  C   UNL     1      -5.651 -14.186  -6.666  1.00  0.00    -0.070 C 
ATOM      2  C   UNL     1      -5.216 -15.134  -5.801  1.00  0.00    -0.027 C 
ATOM      3  C   UNL     1      -6.288 -12.950  -6.081  1.00  0.00     0.039 C 
ENDROOT
BRANCH   2   4
ATOM      4  C   UNL     1      -4.460 -16.390  -6.157  1.00  0.00     0.032 C 
BRANCH   4   5
ATOM      5  C   UNL     1      -2.934 -16.215  -6.048  1.00  0.00     0.034 C 
BRANCH   5   6
ATOM      6  C   UNL     1      -2.555 -14.923  -5.349  1.00  0.00    -0.077 C 
ATOM      7  C   UNL     1      -2.781 -14.821  -3.862  1.00  0.00     0.039 C 
ATOM      8  C   UNL     1      -2.050 -13.845  -5.988  1.00  0.00    -0.023 CG0
ATOM      9  G   UNL     1      -1.786 -13.741  -7.472  1.00  0.00     0.000 G0
ENDBRANCH   5   6
ENDBRANCH   4   5
ENDBRANCH   2   4
BRANCH   1  10
ATOM     10  C   UNL     1      -5.472 -14.273  -8.173  1.00  0.00     0.111 C 
BRANCH  10  11
ATOM     11  C   UNL     1      -4.015 -14.382  -8.552  1.00  0.00     0.163 C 
ATOM     12  O   UNL     1      -3.629 -15.436  -9.125  1.00  0.00    -0.294 OA
BRANCH  11  13
ATOM     13  C   UNL     1      -3.028 -13.307  -8.222  1.00  0.00    -0.002 C 
ATOM     14  C   UNL     1      -3.272 -11.993  -8.509  1.00  0.00    -0.069 C 
ATOM     15  C   UNL     1      -4.586 -11.544  -9.109  1.00  0.00     0.039 C 
ATOM     16  C   UNL     1      -2.252 -10.917  -8.206  1.00  0.00     0.039 C 
BRANCH  13  17
ATOM     17  C   UNL     1      -1.770 -13.729  -7.484  1.00  0.00     0.066 CG0
ATOM     18  G   UNL     1      -2.046 -13.802  -6.001  1.00  0.00     0.000 G0
ENDBRANCH  13  17
ENDBRANCH  11  13
ENDBRANCH  10  11
ENDBRANCH   1  10
TORSDOF 0
ENDMDL
MODEL 9
REMARK VINA RESULT:    -1.085      1.505      2.000
REMARK INTER + INTRA:          -0.850
REMARK INTER:                  -2.191
REMARK INTRA:                   1.341
REMARK UNBOUND:                 0.680
REMARK SMILES CC1=CCC(=C(C)C)C(=O)CC(C)=CCC1
REMARK SMILES IDX 12 1 14 2 13 3 15 4 16 5 2 6 1 7 3 8 11 10 9 11 10 12 5 13
REMARK SMILES IDX 6 14 7 15 8 16 4 17
REMARK H PARENT
REMARK Flexibility Score: 60.00
ROOT
ATOM      1  C   UNL     1      -5.432 -14.375  -8.970  1.00  0.00    -0.070 C 
ATOM      2  C   UNL     1      -5.889 -13.108  -9.116  1.00  0.00    -0.027 C 
ATOM      3  C   UNL     1      -6.431 -15.497  -9.124  1.00  0.00     0.039 C 
ENDROOT
BRANCH   2   4
ATOM      4  C   UNL     1      -5.054 -11.851  -9.108  1.00  0.00     0.032 C 
BRANCH   4   5
ATOM      5  C   UNL     1      -4.663 -11.408  -7.685  1.00  0.00     0.034 C 
BRANCH   5   6
ATOM      6  C   UNL     1      -3.210 -11.709  -7.371  1.00  0.00    -0.077 C 
ATOM      7  C   UNL     1      -2.146 -10.865  -8.025  1.00  0.00     0.039 C 
ATOM      8  C   UNL     1      -2.811 -12.712  -6.558  1.00  0.00    -0.023 CG0
ATOM      9  G   UNL     1      -3.720 -13.684  -5.842  1.00  0.00     0.000 G0
ENDBRANCH   5   6
ENDBRANCH   4   5
ENDBRANCH   2   4
BRANCH   1  10
ATOM     10  C   UNL     1      -3.973 -14.725  -8.731  1.00  0.00     0.111 C 
BRANCH  10  11
ATOM     11  C   UNL     1      -3.808 -15.629  -7.534  1.00  0.00     0.163 C 
ATOM     12  O   UNL     1      -4.113 -16.845  -7.664  1.00  0.00    -0.294 OA
BRANCH  11  13
ATOM     13  C   UNL     1      -3.348 -15.112  -6.208  1.00  0.00    -0.002 C 
ATOM     14  C   UNL     1      -2.563 -15.860  -5.377  1.00  0.00    -0.069 C 
ATOM     15  C   UNL     1      -2.054 -17.225  -5.784  1.00  0.00     0.039 C 
ATOM     16  C   UNL     1      -2.134 -15.344  -4.020  1.00  0.00     0.039 C 
BRANCH  13  17
ATOM     17  C   UNL     1      -3.730 -13.685  -5.854  1.00  0.00     0.066 CG0
ATOM     18  G   UNL     1      -2.809 -12.718  -6.560  1.00  0.00     0.000 G0
ENDBRANCH  13  17
ENDBRANCH  11  13
ENDBRANCH  10  11
ENDBRANCH   1  10
TORSDOF 0
ENDMDL
