MODEL 1
REMARK VINA RESULT:    -2.871      0.000      0.000
REMARK INTER + INTRA:          -2.871
REMARK INTER:                  -2.871
REMARK INTRA:                   0.000
REMARK UNBOUND:                 0.000
REMARK SMILES CC1=CC[C@H]2[C@H](C1)C2(C)C
REMARK SMILES IDX 1 1 2 2 3 3 4 4 5 5 6 6 7 7 8 8 9 9 10 10
REMARK H PARENT
REMARK Flexibility Score: inf
ROOT
ATOM      1  C   UNL     1       3.700   4.879  12.404  1.00  0.00     0.039 C 
ATOM      2  C   UNL     1       5.022   5.560  12.618  1.00  0.00    -0.077 C 
ATOM      3  C   UNL     1       6.178   4.875  12.380  1.00  0.00    -0.028 C 
ATOM      4  C   UNL     1       7.551   5.519  12.554  1.00  0.00     0.031 C 
ATOM      5  C   UNL     1       7.376   7.038  12.437  1.00  0.00     0.003 C 
ATOM      6  C   UNL     1       6.422   7.328  13.656  1.00  0.00     0.003 C 
ATOM      7  C   UNL     1       5.049   7.035  13.040  1.00  0.00     0.034 C 
ATOM      8  C   UNL     1       7.590   8.234  13.338  1.00  0.00    -0.029 C 
ATOM      9  C   UNL     1       8.805   8.154  14.267  1.00  0.00     0.012 C 
ATOM     10  C   UNL     1       7.227   9.608  12.766  1.00  0.00     0.012 C 
ENDROOT
TORSDOF 0
ENDMDL
MODEL 2
REMARK VINA RESULT:    -2.632      1.270      4.001
REMARK INTER + INTRA:          -2.632
REMARK INTER:                  -2.632
REMARK INTRA:                   0.000
REMARK UNBOUND:                 0.000
REMARK SMILES CC1=CC[C@H]2[C@H](C1)C2(C)C
REMARK SMILES IDX 1 1 2 2 3 3 4 4 5 5 6 6 7 7 8 8 9 9 10 10
REMARK H PARENT
REMARK Flexibility Score: inf
ROOT
ATOM      1  C   UNL     1       9.715   8.487  13.516  1.00  0.00     0.039 C 
ATOM      2  C   UNL     1       8.323   7.927  13.451  1.00  0.00    -0.077 C 
ATOM      3  C   UNL     1       7.716   7.499  14.596  1.00  0.00    -0.028 C 
ATOM      4  C   UNL     1       6.293   6.944  14.600  1.00  0.00     0.031 C 
ATOM      5  C   UNL     1       5.574   7.489  13.361  1.00  0.00     0.003 C 
ATOM      6  C   UNL     1       6.451   6.875  12.206  1.00  0.00     0.003 C 
ATOM      7  C   UNL     1       7.582   7.904  12.108  1.00  0.00     0.034 C 
ATOM      8  C   UNL     1       4.941   6.901  12.120  1.00  0.00    -0.029 C 
ATOM      9  C   UNL     1       4.211   5.569  12.316  1.00  0.00     0.012 C 
ATOM     10  C   UNL     1       4.352   7.887  11.106  1.00  0.00     0.012 C 
ENDROOT
TORSDOF 0
ENDMDL
MODEL 3
REMARK VINA RESULT:    -2.600      1.579      3.469
REMARK INTER + INTRA:          -2.600
REMARK INTER:                  -2.600
REMARK INTRA:                   0.000
REMARK UNBOUND:                 0.000
REMARK SMILES CC1=CC[C@H]2[C@H](C1)C2(C)C
REMARK SMILES IDX 1 1 2 2 3 3 4 4 5 5 6 6 7 7 8 8 9 9 10 10
REMARK H PARENT
REMARK Flexibility Score: inf
ROOT
ATOM      1  C   UNL     1       5.130   9.829  10.884  1.00  0.00     0.039 C 
ATOM      2  C   UNL     1       5.290   8.528  11.618  1.00  0.00    -0.077 C 
ATOM      3  C   UNL     1       4.181   7.845  12.025  1.00  0.00    -0.028 C 
ATOM      4  C   UNL     1       4.276   6.505  12.751  1.00  0.00     0.031 C 
ATOM      5  C   UNL     1       5.630   5.877  12.402  1.00  0.00     0.003 C 
ATOM      6  C   UNL     1       6.623   6.947  12.991  1.00  0.00     0.003 C 
ATOM      7  C   UNL     1       6.696   7.956  11.840  1.00  0.00     0.034 C 
ATOM      8  C   UNL     1       6.871   5.465  13.162  1.00  0.00    -0.029 C 
ATOM      9  C   UNL     1       6.630   4.876  14.554  1.00  0.00     0.012 C 
ATOM     10  C   UNL     1       8.029   4.888  12.341  1.00  0.00     0.012 C 
ENDROOT
TORSDOF 0
ENDMDL
MODEL 4
REMARK VINA RESULT:    -2.158      1.098      4.196
REMARK INTER + INTRA:          -2.158
REMARK INTER:                  -2.158
REMARK INTRA:                   0.000
REMARK UNBOUND:                 0.000
REMARK SMILES CC1=CC[C@H]2[C@H](C1)C2(C)C
REMARK SMILES IDX 1 1 2 2 3 3 4 4 5 5 6 6 7 7 8 8 9 9 10 10
REMARK H PARENT
REMARK Flexibility Score: inf
ROOT
ATOM      1  C   UNL     1       9.549   8.247  13.887  1.00  0.00     0.039 C 
ATOM      2  C   UNL     1       8.132   8.019  13.443  1.00  0.00    -0.077 C 
ATOM      3  C   UNL     1       7.543   8.907  12.591  1.00  0.00    -0.028 C 
ATOM      4  C   UNL     1       6.116   8.718  12.083  1.00  0.00     0.031 C 
ATOM      5  C   UNL     1       5.773   7.228  12.192  1.00  0.00     0.003 C 
ATOM      6  C   UNL     1       5.888   7.003  13.747  1.00  0.00     0.003 C 
ATOM      7  C   UNL     1       7.392   6.756  13.904  1.00  0.00     0.034 C 
ATOM      8  C   UNL     1       4.760   6.393  12.944  1.00  0.00    -0.029 C 
ATOM      9  C   UNL     1       3.373   7.022  13.105  1.00  0.00     0.012 C 
ATOM     10  C   UNL     1       4.830   4.875  12.750  1.00  0.00     0.012 C 
ENDROOT
TORSDOF 0
ENDMDL
MODEL 5
REMARK VINA RESULT:    -2.153      1.141      1.944
REMARK INTER + INTRA:          -2.153
REMARK INTER:                  -2.153
REMARK INTRA:                   0.000
REMARK UNBOUND:                 0.000
REMARK SMILES CC1=CC[C@H]2[C@H](C1)C2(C)C
REMARK SMILES IDX 1 1 2 2 3 3 4 4 5 5 6 6 7 7 8 8 9 9 10 10
REMARK H PARENT
REMARK Flexibility Score: inf
ROOT
ATOM      1  C   UNL     1       3.634   4.875  12.376  1.00  0.00     0.039 C 
ATOM      2  C   UNL     1       4.657   5.974  12.416  1.00  0.00    -0.077 C 
ATOM      3  C   UNL     1       4.511   7.059  11.601  1.00  0.00    -0.028 C 
ATOM      4  C   UNL     1       5.502   8.221  11.614  1.00  0.00     0.031 C 
ATOM      5  C   UNL     1       6.212   8.217  12.972  1.00  0.00     0.003 C 
ATOM      6  C   UNL     1       6.934   6.818  12.934  1.00  0.00     0.003 C 
ATOM      7  C   UNL     1       5.815   5.890  13.420  1.00  0.00     0.034 C 
ATOM      8  C   UNL     1       7.634   8.051  13.460  1.00  0.00    -0.029 C 
ATOM      9  C   UNL     1       8.716   8.668  12.569  1.00  0.00     0.012 C 
ATOM     10  C   UNL     1       7.858   8.090  14.975  1.00  0.00     0.012 C 
ENDROOT
TORSDOF 0
ENDMDL
MODEL 6
REMARK VINA RESULT:    -2.041      1.109      3.840
REMARK INTER + INTRA:          -2.041
REMARK INTER:                  -2.041
REMARK INTRA:                   0.000
REMARK UNBOUND:                 0.000
REMARK SMILES CC1=CC[C@H]2[C@H](C1)C2(C)C
REMARK SMILES IDX 1 1 2 2 3 3 4 4 5 5 6 6 7 7 8 8 9 9 10 10
REMARK H PARENT
REMARK Flexibility Score: inf
ROOT
ATOM      1  C   UNL     1       9.199   8.603  13.131  1.00  0.00     0.039 C 
ATOM      2  C   UNL     1       7.986   7.720  13.058  1.00  0.00    -0.077 C 
ATOM      3  C   UNL     1       8.127   6.370  13.201  1.00  0.00    -0.028 C 
ATOM      4  C   UNL     1       6.930   5.422  13.162  1.00  0.00     0.031 C 
ATOM      5  C   UNL     1       5.680   6.230  13.527  1.00  0.00     0.003 C 
ATOM      6  C   UNL     1       5.645   7.282  12.356  1.00  0.00     0.003 C 
ATOM      7  C   UNL     1       6.600   8.356  12.889  1.00  0.00     0.034 C 
ATOM      8  C   UNL     1       4.384   6.604  12.843  1.00  0.00    -0.029 C 
ATOM      9  C   UNL     1       3.779   5.528  11.937  1.00  0.00     0.012 C 
ATOM     10  C   UNL     1       3.415   7.493  13.629  1.00  0.00     0.012 C 
ENDROOT
TORSDOF 0
ENDMDL
MODEL 7
REMARK VINA RESULT:    -0.789      1.667      2.680
REMARK INTER + INTRA:          -0.789
REMARK INTER:                  -0.789
REMARK INTRA:                   0.000
REMARK UNBOUND:                 0.000
REMARK SMILES CC1=CC[C@H]2[C@H](C1)C2(C)C
REMARK SMILES IDX 1 1 2 2 3 3 4 4 5 5 6 6 7 7 8 8 9 9 10 10
REMARK H PARENT
REMARK Flexibility Score: inf
ROOT
ATOM      1  C   UNL     1       2.687   8.249  13.873  1.00  0.00     0.039 C 
ATOM      2  C   UNL     1       4.012   8.016  13.206  1.00  0.00    -0.077 C 
ATOM      3  C   UNL     1       4.138   8.236  11.865  1.00  0.00    -0.028 C 
ATOM      4  C   UNL     1       5.465   8.043  11.133  1.00  0.00     0.031 C 
ATOM      5  C   UNL     1       6.592   8.164  12.165  1.00  0.00     0.003 C 
ATOM      6  C   UNL     1       6.257   6.959  13.123  1.00  0.00     0.003 C 
ATOM      7  C   UNL     1       5.219   7.596  14.054  1.00  0.00     0.034 C 
ATOM      8  C   UNL     1       7.679   7.262  12.705  1.00  0.00    -0.029 C 
ATOM      9  C   UNL     1       8.320   6.315  11.687  1.00  0.00     0.012 C 
ATOM     10  C   UNL     1       8.582   7.841  13.799  1.00  0.00     0.012 C 
ENDROOT
TORSDOF 0
ENDMDL
