MODEL 1
REMARK VINA RESULT:    -3.841      0.000      0.000
REMARK INTER + INTRA:          -7.637
REMARK INTER:                  -6.087
REMARK INTRA:                  -1.550
REMARK UNBOUND:                -1.550
REMARK SMILES CCCCCCCCCCCC(=O)[O-]
REMARK SMILES IDX 7 1 8 2 9 3 10 4 11 5 12 6 13 7 14 8 6 9 5 10 4 11 3 12 2 13
REMARK SMILES IDX 1 14
REMARK H PARENT
REMARK Flexibility Score: inf
ROOT
ATOM      1  C   UNL     1      -1.642  -7.944 -14.829  1.00  0.00     0.000 C 
ENDROOT
BRANCH   1   2
ATOM      2  C   UNL     1      -2.013  -9.402 -15.149  1.00  0.00     0.000 C 
BRANCH   2   3
ATOM      3  C   UNL     1      -3.517  -9.687 -14.984  1.00  0.00     0.000 C 
BRANCH   3   4
ATOM      4  C   UNL     1      -4.408  -8.438 -14.819  1.00  0.00     0.006 C 
BRANCH   4   5
ATOM      5  C   UNL     1      -5.881  -8.648 -15.204  1.00  0.00     0.053 C 
BRANCH   5   6
ATOM      6  C   UNL     1      -6.423  -9.937 -14.669  1.00  0.00     0.041 C 
ATOM      7  O   UNL     1      -6.743 -10.866 -15.456  1.00  0.00    -0.550 OA
ATOM      8  O   UNL     1      -6.607 -10.102 -13.301  1.00  0.00    -0.550 OA
ENDBRANCH   5   6
ENDBRANCH   4   5
ENDBRANCH   3   4
ENDBRANCH   2   3
ENDBRANCH   1   2
BRANCH   1   9
ATOM      9  C   UNL     1      -1.027  -7.214 -16.034  1.00  0.00     0.000 C 
BRANCH   9  10
ATOM     10  C   UNL     1      -2.080  -6.512 -16.904  1.00  0.00    -0.000 C 
BRANCH  10  11
ATOM     11  C   UNL     1      -2.279  -7.258 -18.232  1.00  0.00    -0.000 C 
BRANCH  11  12
ATOM     12  C   UNL     1      -3.695  -7.837 -18.381  1.00  0.00    -0.000 C 
BRANCH  12  13
ATOM     13  C   UNL     1      -3.688  -9.322 -18.777  1.00  0.00    -0.003 C 
ATOM     14  C   UNL     1      -5.085  -9.926 -18.662  1.00  0.00     0.004 C 
ENDBRANCH  12  13
ENDBRANCH  11  12
ENDBRANCH  10  11
ENDBRANCH   9  10
ENDBRANCH   1   9
TORSDOF 10
ENDMDL
MODEL 2
REMARK VINA RESULT:    -3.821      1.522      3.537
REMARK INTER + INTRA:          -7.606
REMARK INTER:                  -6.043
REMARK INTRA:                  -1.563
REMARK UNBOUND:                -1.550
REMARK SMILES CCCCCCCCCCCC(=O)[O-]
REMARK SMILES IDX 7 1 8 2 9 3 10 4 11 5 12 6 13 7 14 8 6 9 5 10 4 11 3 12 2 13
REMARK SMILES IDX 1 14
REMARK H PARENT
REMARK Flexibility Score: inf
ROOT
ATOM      1  C   UNL     1      -4.220  -7.252 -18.641  1.00  0.00     0.000 C 
ENDROOT
BRANCH   1   2
ATOM      2  C   UNL     1      -4.155  -6.800 -17.172  1.00  0.00     0.000 C 
BRANCH   2   3
ATOM      3  C   UNL     1      -5.309  -7.363 -16.321  1.00  0.00     0.000 C 
BRANCH   3   4
ATOM      4  C   UNL     1      -4.893  -8.391 -15.249  1.00  0.00     0.006 C 
BRANCH   4   5
ATOM      5  C   UNL     1      -4.407  -9.737 -15.808  1.00  0.00     0.053 C 
BRANCH   5   6
ATOM      6  C   UNL     1      -5.489 -10.462 -16.546  1.00  0.00     0.041 C 
ATOM      7  O   UNL     1      -6.371 -11.099 -15.914  1.00  0.00    -0.550 OA
ATOM      8  O   UNL     1      -5.504 -10.464 -17.936  1.00  0.00    -0.550 OA
ENDBRANCH   5   6
ENDBRANCH   4   5
ENDBRANCH   3   4
ENDBRANCH   2   3
ENDBRANCH   1   2
BRANCH   1   9
ATOM      9  C   UNL     1      -2.866  -7.766 -19.159  1.00  0.00     0.000 C 
BRANCH   9  10
ATOM     10  C   UNL     1      -1.748  -7.652 -18.113  1.00  0.00    -0.000 C 
BRANCH  10  11
ATOM     11  C   UNL     1      -1.247  -9.042 -17.694  1.00  0.00    -0.000 C 
BRANCH  11  12
ATOM     12  C   UNL     1      -0.527  -9.029 -16.336  1.00  0.00    -0.000 C 
BRANCH  12  13
ATOM     13  C   UNL     1      -0.742  -7.718 -15.565  1.00  0.00    -0.003 C 
ATOM     14  C   UNL     1      -1.371  -7.982 -14.200  1.00  0.00     0.004 C 
ENDBRANCH  12  13
ENDBRANCH  11  12
ENDBRANCH  10  11
ENDBRANCH   9  10
ENDBRANCH   1   9
TORSDOF 10
ENDMDL
MODEL 3
REMARK VINA RESULT:    -3.781      2.918      4.430
REMARK INTER + INTRA:          -7.541
REMARK INTER:                  -5.851
REMARK INTRA:                  -1.691
REMARK UNBOUND:                -1.550
REMARK SMILES CCCCCCCCCCCC(=O)[O-]
REMARK SMILES IDX 7 1 8 2 9 3 10 4 11 5 12 6 13 7 14 8 6 9 5 10 4 11 3 12 2 13
REMARK SMILES IDX 1 14
REMARK H PARENT
REMARK Flexibility Score: inf
ROOT
ATOM      1  C   UNL     1      -5.970  -9.923 -15.852  1.00  0.00     0.000 C 
ENDROOT
BRANCH   1   2
ATOM      2  C   UNL     1      -4.940  -9.645 -14.743  1.00  0.00     0.000 C 
BRANCH   2   3
ATOM      3  C   UNL     1      -3.789 -10.668 -14.724  1.00  0.00     0.000 C 
BRANCH   3   4
ATOM      4  C   UNL     1      -2.371 -10.061 -14.752  1.00  0.00     0.006 C 
BRANCH   4   5
ATOM      5  C   UNL     1      -2.330  -8.528 -14.658  1.00  0.00     0.053 C 
BRANCH   5   6
ATOM      6  C   UNL     1      -0.965  -7.984 -14.948  1.00  0.00     0.041 C 
ATOM      7  O   UNL     1       0.060  -8.631 -14.610  1.00  0.00    -0.550 OA
ATOM      8  O   UNL     1      -0.824  -6.745 -15.562  1.00  0.00    -0.550 OA
ENDBRANCH   5   6
ENDBRANCH   4   5
ENDBRANCH   3   4
ENDBRANCH   2   3
ENDBRANCH   1   2
BRANCH   1   9
ATOM      9  C   UNL     1      -5.439 -10.893 -16.920  1.00  0.00     0.000 C 
BRANCH   9  10
ATOM     10  C   UNL     1      -5.167 -10.204 -18.266  1.00  0.00    -0.000 C 
BRANCH  10  11
ATOM     11  C   UNL     1      -3.658 -10.063 -18.514  1.00  0.00    -0.000 C 
BRANCH  11  12
ATOM     12  C   UNL     1      -3.148  -8.633 -18.276  1.00  0.00    -0.000 C 
BRANCH  12  13
ATOM     13  C   UNL     1      -4.256  -7.579 -18.415  1.00  0.00    -0.003 C 
ATOM     14  C   UNL     1      -4.397  -6.760 -17.135  1.00  0.00     0.004 C 
ENDBRANCH  12  13
ENDBRANCH  11  12
ENDBRANCH  10  11
ENDBRANCH   9  10
ENDBRANCH   1   9
TORSDOF 10
ENDMDL
MODEL 4
REMARK VINA RESULT:    -3.764      1.278      3.275
REMARK INTER + INTRA:          -7.515
REMARK INTER:                  -6.295
REMARK INTRA:                  -1.220
REMARK UNBOUND:                -1.550
REMARK SMILES CCCCCCCCCCCC(=O)[O-]
REMARK SMILES IDX 7 1 8 2 9 3 10 4 11 5 12 6 13 7 14 8 6 9 5 10 4 11 3 12 2 13
REMARK SMILES IDX 1 14
REMARK H PARENT
REMARK Flexibility Score: inf
ROOT
ATOM      1  C   UNL     1      -3.928  -6.971 -17.276  1.00  0.00     0.000 C 
ENDROOT
BRANCH   1   2
ATOM      2  C   UNL     1      -4.403  -7.721 -18.532  1.00  0.00     0.000 C 
BRANCH   2   3
ATOM      3  C   UNL     1      -4.796  -9.182 -18.245  1.00  0.00     0.000 C 
BRANCH   3   4
ATOM      4  C   UNL     1      -4.639  -9.628 -16.777  1.00  0.00     0.006 C 
BRANCH   4   5
ATOM      5  C   UNL     1      -5.883 -10.302 -16.177  1.00  0.00     0.053 C 
BRANCH   5   6
ATOM      6  C   UNL     1      -6.455  -9.513 -15.039  1.00  0.00     0.041 C 
ATOM      7  O   UNL     1      -7.526  -9.879 -14.489  1.00  0.00    -0.550 OA
ATOM      8  O   UNL     1      -5.822  -8.353 -14.608  1.00  0.00    -0.550 OA
ENDBRANCH   5   6
ENDBRANCH   4   5
ENDBRANCH   3   4
ENDBRANCH   2   3
ENDBRANCH   1   2
BRANCH   1   9
ATOM      9  C   UNL     1      -2.463  -6.516 -17.379  1.00  0.00     0.000 C 
BRANCH   9  10
ATOM     10  C   UNL     1      -1.521  -7.645 -17.822  1.00  0.00    -0.000 C 
BRANCH  10  11
ATOM     11  C   UNL     1      -0.978  -8.414 -16.608  1.00  0.00    -0.000 C 
BRANCH  11  12
ATOM     12  C   UNL     1      -0.699  -7.500 -15.404  1.00  0.00    -0.000 C 
BRANCH  12  13
ATOM     13  C   UNL     1      -1.321  -8.030 -14.103  1.00  0.00    -0.003 C 
ATOM     14  C   UNL     1      -1.974  -9.392 -14.322  1.00  0.00     0.004 C 
ENDBRANCH  12  13
ENDBRANCH  11  12
ENDBRANCH  10  11
ENDBRANCH   9  10
ENDBRANCH   1   9
TORSDOF 10
ENDMDL
MODEL 5
REMARK VINA RESULT:    -3.762      1.906      4.090
REMARK INTER + INTRA:          -7.512
REMARK INTER:                  -6.118
REMARK INTRA:                  -1.394
REMARK UNBOUND:                -1.550
REMARK SMILES CCCCCCCCCCCC(=O)[O-]
REMARK SMILES IDX 7 1 8 2 9 3 10 4 11 5 12 6 13 7 14 8 6 9 5 10 4 11 3 12 2 13
REMARK SMILES IDX 1 14
REMARK H PARENT
REMARK Flexibility Score: inf
ROOT
ATOM      1  C   UNL     1      -1.738  -7.996 -14.872  1.00  0.00     0.000 C 
ENDROOT
BRANCH   1   2
ATOM      2  C   UNL     1      -1.069  -7.266 -16.050  1.00  0.00     0.000 C 
BRANCH   2   3
ATOM      3  C   UNL     1      -2.080  -6.549 -16.963  1.00  0.00     0.000 C 
BRANCH   3   4
ATOM      4  C   UNL     1      -2.416  -7.285 -18.277  1.00  0.00     0.006 C 
BRANCH   4   5
ATOM      5  C   UNL     1      -3.897  -7.660 -18.438  1.00  0.00     0.053 C 
BRANCH   5   6
ATOM      6  C   UNL     1      -4.081  -9.125 -18.686  1.00  0.00     0.041 C 
ATOM      7  O   UNL     1      -5.235  -9.601 -18.850  1.00  0.00    -0.550 OA
ATOM      8  O   UNL     1      -2.980  -9.973 -18.703  1.00  0.00    -0.550 OA
ENDBRANCH   5   6
ENDBRANCH   4   5
ENDBRANCH   3   4
ENDBRANCH   2   3
ENDBRANCH   1   2
BRANCH   1   9
ATOM      9  C   UNL     1      -2.148  -9.434 -15.226  1.00  0.00     0.000 C 
BRANCH   9  10
ATOM     10  C   UNL     1      -3.646  -9.694 -15.013  1.00  0.00    -0.000 C 
BRANCH  10  11
ATOM     11  C   UNL     1      -4.407  -8.375 -14.807  1.00  0.00    -0.000 C 
BRANCH  11  12
ATOM     12  C   UNL     1      -5.880  -8.466 -15.236  1.00  0.00    -0.000 C 
BRANCH  12  13
ATOM     13  C   UNL     1      -6.372  -9.916 -15.359  1.00  0.00    -0.003 C 
ATOM     14  C   UNL     1      -7.425 -10.229 -14.300  1.00  0.00     0.004 C 
ENDBRANCH  12  13
ENDBRANCH  11  12
ENDBRANCH  10  11
ENDBRANCH   9  10
ENDBRANCH   1   9
TORSDOF 10
ENDMDL
MODEL 6
REMARK VINA RESULT:    -3.749      2.766      4.715
REMARK INTER + INTRA:          -7.490
REMARK INTER:                  -5.968
REMARK INTRA:                  -1.522
REMARK UNBOUND:                -1.550
REMARK SMILES CCCCCCCCCCCC(=O)[O-]
REMARK SMILES IDX 7 1 8 2 9 3 10 4 11 5 12 6 13 7 14 8 6 9 5 10 4 11 3 12 2 13
REMARK SMILES IDX 1 14
REMARK H PARENT
REMARK Flexibility Score: inf
ROOT
ATOM      1  C   UNL     1      -5.362  -7.458 -16.379  1.00  0.00     0.000 C 
ENDROOT
BRANCH   1   2
ATOM      2  C   UNL     1      -4.175  -6.828 -17.126  1.00  0.00     0.000 C 
BRANCH   2   3
ATOM      3  C   UNL     1      -3.325  -7.865 -17.883  1.00  0.00     0.000 C 
BRANCH   3   4
ATOM      4  C   UNL     1      -1.823  -7.868 -17.529  1.00  0.00     0.006 C 
BRANCH   4   5
ATOM      5  C   UNL     1      -1.473  -8.608 -16.229  1.00  0.00     0.053 C 
BRANCH   5   6
ATOM      6  C   UNL     1      -1.124  -7.662 -15.122  1.00  0.00     0.041 C 
ATOM      7  O   UNL     1      -0.610  -6.543 -15.381  1.00  0.00    -0.550 OA
ATOM      8  O   UNL     1      -1.336  -8.030 -13.798  1.00  0.00    -0.550 OA
ENDBRANCH   5   6
ENDBRANCH   4   5
ENDBRANCH   3   4
ENDBRANCH   2   3
ENDBRANCH   1   2
BRANCH   1   9
ATOM      9  C   UNL     1      -4.960  -8.034 -15.011  1.00  0.00     0.000 C 
BRANCH   9  10
ATOM     10  C   UNL     1      -6.040  -8.946 -14.410  1.00  0.00    -0.000 C 
BRANCH  10  11
ATOM     11  C   UNL     1      -5.900 -10.382 -14.938  1.00  0.00    -0.000 C 
BRANCH  11  12
ATOM     12  C   UNL     1      -4.434 -10.815 -15.097  1.00  0.00    -0.000 C 
BRANCH  12  13
ATOM     13  C   UNL     1      -4.116 -11.317 -16.513  1.00  0.00    -0.003 C 
ATOM     14  C   UNL     1      -5.268 -11.025 -17.470  1.00  0.00     0.004 C 
ENDBRANCH  12  13
ENDBRANCH  11  12
ENDBRANCH  10  11
ENDBRANCH   9  10
ENDBRANCH   1   9
TORSDOF 10
ENDMDL
MODEL 7
REMARK VINA RESULT:    -3.680      1.466      2.111
REMARK INTER + INTRA:          -7.381
REMARK INTER:                  -5.808
REMARK INTRA:                  -1.573
REMARK UNBOUND:                -1.550
REMARK SMILES CCCCCCCCCCCC(=O)[O-]
REMARK SMILES IDX 7 1 8 2 9 3 10 4 11 5 12 6 13 7 14 8 6 9 5 10 4 11 3 12 2 13
REMARK SMILES IDX 1 14
REMARK H PARENT
REMARK Flexibility Score: inf
ROOT
ATOM      1  C   UNL     1      -0.689  -7.410 -15.558  1.00  0.00     0.000 C 
ENDROOT
BRANCH   1   2
ATOM      2  C   UNL     1      -1.430  -7.901 -14.303  1.00  0.00     0.000 C 
BRANCH   2   3
ATOM      3  C   UNL     1      -2.015  -9.315 -14.467  1.00  0.00     0.000 C 
BRANCH   3   4
ATOM      4  C   UNL     1      -3.489  -9.368 -14.921  1.00  0.00     0.006 C 
BRANCH   4   5
ATOM      5  C   UNL     1      -3.767 -10.337 -16.080  1.00  0.00     0.053 C 
BRANCH   5   6
ATOM      6  C   UNL     1      -5.205 -10.315 -16.497  1.00  0.00     0.041 C 
ATOM      7  O   UNL     1      -5.517 -10.472 -17.706  1.00  0.00    -0.550 OA
ATOM      8  O   UNL     1      -6.201 -10.088 -15.554  1.00  0.00    -0.550 OA
ENDBRANCH   5   6
ENDBRANCH   4   5
ENDBRANCH   3   4
ENDBRANCH   2   3
ENDBRANCH   1   2
BRANCH   1   9
ATOM      9  C   UNL     1      -0.198  -8.568 -16.443  1.00  0.00     0.000 C 
BRANCH   9  10
ATOM     10  C   UNL     1      -0.797  -8.530 -17.856  1.00  0.00    -0.000 C 
BRANCH  10  11
ATOM     11  C   UNL     1      -1.868  -7.435 -17.968  1.00  0.00    -0.000 C 
BRANCH  11  12
ATOM     12  C   UNL     1      -2.927  -7.746 -19.038  1.00  0.00    -0.000 C 
BRANCH  12  13
ATOM     13  C   UNL     1      -4.335  -7.292 -18.627  1.00  0.00    -0.003 C 
ATOM     14  C   UNL     1      -4.341  -6.744 -17.203  1.00  0.00     0.004 C 
ENDBRANCH  12  13
ENDBRANCH  11  12
ENDBRANCH  10  11
ENDBRANCH   9  10
ENDBRANCH   1   9
TORSDOF 10
ENDMDL
MODEL 8
REMARK VINA RESULT:    -3.623      2.950      4.957
REMARK INTER + INTRA:          -7.291
REMARK INTER:                  -5.872
REMARK INTRA:                  -1.419
REMARK UNBOUND:                -1.550
REMARK SMILES CCCCCCCCCCCC(=O)[O-]
REMARK SMILES IDX 7 1 8 2 9 3 10 4 11 5 12 6 13 7 14 8 6 9 5 10 4 11 3 12 2 13
REMARK SMILES IDX 1 14
REMARK H PARENT
REMARK Flexibility Score: inf
ROOT
ATOM      1  C   UNL     1      -3.491  -9.009 -15.164  1.00  0.00     0.000 C 
ENDROOT
BRANCH   1   2
ATOM      2  C   UNL     1      -4.775  -8.207 -14.889  1.00  0.00     0.000 C 
BRANCH   2   3
ATOM      3  C   UNL     1      -5.321  -7.502 -16.144  1.00  0.00     0.000 C 
BRANCH   3   4
ATOM      4  C   UNL     1      -4.251  -6.889 -17.071  1.00  0.00     0.006 C 
BRANCH   4   5
ATOM      5  C   UNL     1      -4.297  -7.392 -18.522  1.00  0.00     0.053 C 
BRANCH   5   6
ATOM      6  C   UNL     1      -3.092  -8.209 -18.871  1.00  0.00     0.041 C 
ATOM      7  O   UNL     1      -1.972  -7.935 -18.366  1.00  0.00    -0.550 OA
ATOM      8  O   UNL     1      -3.198  -9.255 -19.781  1.00  0.00    -0.550 OA
ENDBRANCH   5   6
ENDBRANCH   4   5
ENDBRANCH   3   4
ENDBRANCH   2   3
ENDBRANCH   1   2
BRANCH   1   9
ATOM      9  C   UNL     1      -3.749 -10.522 -15.251  1.00  0.00     0.000 C 
BRANCH   9  10
ATOM     10  C   UNL     1      -4.234 -10.963 -16.640  1.00  0.00    -0.000 C 
BRANCH  10  11
ATOM     11  C   UNL     1      -5.755 -11.180 -16.645  1.00  0.00    -0.000 C 
BRANCH  11  12
ATOM     12  C   UNL     1      -6.261 -11.862 -15.364  1.00  0.00    -0.000 C 
BRANCH  12  13
ATOM     13  C   UNL     1      -7.308 -11.020 -14.619  1.00  0.00    -0.003 C 
ATOM     14  C   UNL     1      -6.864 -10.734 -13.187  1.00  0.00     0.004 C 
ENDBRANCH  12  13
ENDBRANCH  11  12
ENDBRANCH  10  11
ENDBRANCH   9  10
ENDBRANCH   1   9
TORSDOF 10
ENDMDL
MODEL 9
REMARK VINA RESULT:    -3.592      2.669      5.113
REMARK INTER + INTRA:          -7.242
REMARK INTER:                  -6.082
REMARK INTRA:                  -1.160
REMARK UNBOUND:                -1.550
REMARK SMILES CCCCCCCCCCCC(=O)[O-]
REMARK SMILES IDX 7 1 8 2 9 3 10 4 11 5 12 6 13 7 14 8 6 9 5 10 4 11 3 12 2 13
REMARK SMILES IDX 1 14
REMARK H PARENT
REMARK Flexibility Score: inf
ROOT
ATOM      1  C   UNL     1      -5.141  -9.862 -18.722  1.00  0.00     0.000 C 
ENDROOT
BRANCH   1   2
ATOM      2  C   UNL     1      -3.895  -8.959 -18.740  1.00  0.00     0.000 C 
BRANCH   2   3
ATOM      3  C   UNL     1      -4.229  -7.473 -18.512  1.00  0.00     0.000 C 
BRANCH   3   4
ATOM      4  C   UNL     1      -3.682  -6.871 -17.201  1.00  0.00     0.006 C 
BRANCH   4   5
ATOM      5  C   UNL     1      -2.196  -6.484 -17.246  1.00  0.00     0.053 C 
BRANCH   5   6
ATOM      6  C   UNL     1      -1.383  -7.268 -16.262  1.00  0.00     0.041 C 
ATOM      7  O   UNL     1      -1.304  -8.520 -16.359  1.00  0.00    -0.550 OA
ATOM      8  O   UNL     1      -0.738  -6.617 -15.216  1.00  0.00    -0.550 OA
ENDBRANCH   5   6
ENDBRANCH   4   5
ENDBRANCH   3   4
ENDBRANCH   2   3
ENDBRANCH   1   2
BRANCH   1   9
ATOM      9  C   UNL     1      -5.182 -10.784 -17.493  1.00  0.00     0.000 C 
BRANCH   9  10
ATOM     10  C   UNL     1      -4.051 -10.495 -16.494  1.00  0.00    -0.000 C 
BRANCH  10  11
ATOM     11  C   UNL     1      -4.620 -10.090 -15.126  1.00  0.00    -0.000 C 
BRANCH  11  12
ATOM     12  C   UNL     1      -5.936  -9.305 -15.238  1.00  0.00    -0.000 C 
BRANCH  12  13
ATOM     13  C   UNL     1      -7.010  -9.808 -14.262  1.00  0.00    -0.003 C 
ATOM     14  C   UNL     1      -7.314 -11.285 -14.494  1.00  0.00     0.004 C 
ENDBRANCH  12  13
ENDBRANCH  11  12
ENDBRANCH  10  11
ENDBRANCH   9  10
ENDBRANCH   1   9
TORSDOF 10
ENDMDL
