MODEL 1
REMARK VINA RESULT:    -3.583      0.000      0.000
REMARK INTER + INTRA:          -4.039
REMARK INTER:                  -4.002
REMARK INTRA:                  -0.037
REMARK UNBOUND:                -0.037
REMARK SMILES CCCC(=O)[O-]
REMARK SMILES IDX 3 1 4 2 5 3 6 4 2 5 1 6
REMARK H PARENT
REMARK Flexibility Score: inf
ROOT
ATOM      1  C   UNL     1      -5.266 -30.711 -52.645  1.00  0.00     0.052 C 
ENDROOT
BRANCH   1   2
ATOM      2  C   UNL     1      -4.991 -30.831 -54.113  1.00  0.00     0.041 C 
ATOM      3  O   UNL     1      -4.538 -31.906 -54.588  1.00  0.00    -0.550 OA
ATOM      4  O   UNL     1      -5.265 -29.765 -54.961  1.00  0.00    -0.550 OA
ENDBRANCH   1   2
BRANCH   1   5
ATOM      5  C   UNL     1      -5.486 -32.083 -51.995  1.00  0.00     0.003 C 
ATOM      6  C   UNL     1      -4.332 -32.482 -51.076  1.00  0.00     0.004 C 
ENDBRANCH   1   5
TORSDOF 2
ENDMDL
MODEL 2
REMARK VINA RESULT:    -3.559      4.631      5.060
REMARK INTER + INTRA:          -4.012
REMARK INTER:                  -4.004
REMARK INTRA:                  -0.008
REMARK UNBOUND:                -0.037
REMARK SMILES CCCC(=O)[O-]
REMARK SMILES IDX 3 1 4 2 5 3 6 4 2 5 1 6
REMARK H PARENT
REMARK Flexibility Score: inf
ROOT
ATOM      1  C   UNL     1      -6.423 -28.986 -48.809  1.00  0.00     0.052 C 
ENDROOT
BRANCH   1   2
ATOM      2  C   UNL     1      -6.194 -27.903 -49.819  1.00  0.00     0.041 C 
ATOM      3  O   UNL     1      -5.521 -28.136 -50.857  1.00  0.00    -0.550 OA
ATOM      4  O   UNL     1      -6.752 -26.645 -49.628  1.00  0.00    -0.550 OA
ENDBRANCH   1   2
BRANCH   1   5
ATOM      5  C   UNL     1      -7.050 -30.233 -49.446  1.00  0.00     0.003 C 
ATOM      6  C   UNL     1      -8.261 -30.739 -48.664  1.00  0.00     0.004 C 
ENDBRANCH   1   5
TORSDOF 2
ENDMDL
MODEL 3
REMARK VINA RESULT:    -3.551      3.498      4.386
REMARK INTER + INTRA:          -4.004
REMARK INTER:                  -3.998
REMARK INTRA:                  -0.005
REMARK UNBOUND:                -0.037
REMARK SMILES CCCC(=O)[O-]
REMARK SMILES IDX 3 1 4 2 5 3 6 4 2 5 1 6
REMARK H PARENT
REMARK Flexibility Score: inf
ROOT
ATOM      1  C   UNL     1      -3.035 -33.142 -51.686  1.00  0.00     0.052 C 
ENDROOT
BRANCH   1   2
ATOM      2  C   UNL     1      -1.863 -32.979 -50.767  1.00  0.00     0.041 C 
ATOM      3  O   UNL     1      -1.618 -33.848 -49.890  1.00  0.00    -0.550 OA
ATOM      4  O   UNL     1      -1.022 -31.881 -50.901  1.00  0.00    -0.550 OA
ENDBRANCH   1   2
BRANCH   1   5
ATOM      5  C   UNL     1      -4.328 -32.609 -51.055  1.00  0.00     0.003 C 
ATOM      6  C   UNL     1      -5.352 -32.178 -52.104  1.00  0.00     0.004 C 
ENDBRANCH   1   5
TORSDOF 2
ENDMDL
MODEL 4
REMARK VINA RESULT:    -3.516      9.322     10.205
REMARK INTER + INTRA:          -3.964
REMARK INTER:                  -3.926
REMARK INTRA:                  -0.039
REMARK UNBOUND:                -0.037
REMARK SMILES CCCC(=O)[O-]
REMARK SMILES IDX 3 1 4 2 5 3 6 4 2 5 1 6
REMARK H PARENT
REMARK Flexibility Score: inf
ROOT
ATOM      1  C   UNL     1      -5.210 -40.663 -48.358  1.00  0.00     0.052 C 
ENDROOT
BRANCH   1   2
ATOM      2  C   UNL     1      -5.241 -40.146 -49.764  1.00  0.00     0.041 C 
ATOM      3  O   UNL     1      -4.480 -40.637 -50.638  1.00  0.00    -0.550 OA
ATOM      4  O   UNL     1      -6.135 -39.141 -50.114  1.00  0.00    -0.550 OA
ENDBRANCH   1   2
BRANCH   1   5
ATOM      5  C   UNL     1      -6.473 -41.468 -48.023  1.00  0.00     0.003 C 
ATOM      6  C   UNL     1      -7.426 -40.701 -47.107  1.00  0.00     0.004 C 
ENDBRANCH   1   5
TORSDOF 2
ENDMDL
MODEL 5
REMARK VINA RESULT:    -3.449      0.872      1.677
REMARK INTER + INTRA:          -3.889
REMARK INTER:                  -3.879
REMARK INTRA:                  -0.010
REMARK UNBOUND:                -0.037
REMARK SMILES CCCC(=O)[O-]
REMARK SMILES IDX 3 1 4 2 5 3 6 4 2 5 1 6
REMARK H PARENT
REMARK Flexibility Score: inf
ROOT
ATOM      1  C   UNL     1      -5.271 -30.235 -52.608  1.00  0.00     0.052 C 
ENDROOT
BRANCH   1   2
ATOM      2  C   UNL     1      -4.987 -30.656 -54.017  1.00  0.00     0.041 C 
ATOM      3  O   UNL     1      -5.249 -29.884 -54.976  1.00  0.00    -0.550 OA
ATOM      4  O   UNL     1      -4.402 -31.892 -54.268  1.00  0.00    -0.550 OA
ENDBRANCH   1   2
BRANCH   1   5
ATOM      5  C   UNL     1      -5.270 -31.432 -51.647  1.00  0.00     0.003 C 
ATOM      6  C   UNL     1      -6.241 -31.242 -50.482  1.00  0.00     0.004 C 
ENDBRANCH   1   5
TORSDOF 2
ENDMDL
MODEL 6
REMARK VINA RESULT:    -3.432      4.597      5.090
REMARK INTER + INTRA:          -3.871
REMARK INTER:                  -3.861
REMARK INTRA:                  -0.011
REMARK UNBOUND:                -0.037
REMARK SMILES CCCC(=O)[O-]
REMARK SMILES IDX 3 1 4 2 5 3 6 4 2 5 1 6
REMARK H PARENT
REMARK Flexibility Score: inf
ROOT
ATOM      1  C   UNL     1      -7.151 -31.309 -49.646  1.00  0.00     0.052 C 
ENDROOT
BRANCH   1   2
ATOM      2  C   UNL     1      -7.740 -30.087 -49.009  1.00  0.00     0.041 C 
ATOM      3  O   UNL     1      -7.150 -28.979 -49.098  1.00  0.00    -0.550 OA
ATOM      4  O   UNL     1      -8.957 -30.169 -48.343  1.00  0.00    -0.550 OA
ENDBRANCH   1   2
BRANCH   1   5
ATOM      5  C   UNL     1      -6.011 -30.953 -50.609  1.00  0.00     0.003 C 
ATOM      6  C   UNL     1      -5.571 -32.147 -51.455  1.00  0.00     0.004 C 
ENDBRANCH   1   5
TORSDOF 2
ENDMDL
MODEL 7
REMARK VINA RESULT:    -3.277      4.952      5.592
REMARK INTER + INTRA:          -3.698
REMARK INTER:                  -3.677
REMARK INTRA:                  -0.021
REMARK UNBOUND:                -0.037
REMARK SMILES CCCC(=O)[O-]
REMARK SMILES IDX 3 1 4 2 5 3 6 4 2 5 1 6
REMARK H PARENT
REMARK Flexibility Score: inf
ROOT
ATOM      1  C   UNL     1      -6.502 -29.563 -48.910  1.00  0.00     0.052 C 
ENDROOT
BRANCH   1   2
ATOM      2  C   UNL     1      -7.724 -30.425 -49.001  1.00  0.00     0.041 C 
ATOM      3  O   UNL     1      -8.793 -30.070 -48.440  1.00  0.00    -0.550 OA
ATOM      4  O   UNL     1      -7.689 -31.606 -49.733  1.00  0.00    -0.550 OA
ENDBRANCH   1   2
BRANCH   1   5
ATOM      5  C   UNL     1      -6.071 -29.044 -50.289  1.00  0.00     0.003 C 
ATOM      6  C   UNL     1      -6.316 -27.544 -50.447  1.00  0.00     0.004 C 
ENDBRANCH   1   5
TORSDOF 2
ENDMDL
MODEL 8
REMARK VINA RESULT:    -3.258      2.929      3.565
REMARK INTER + INTRA:          -3.676
REMARK INTER:                  -3.671
REMARK INTRA:                  -0.005
REMARK UNBOUND:                -0.037
REMARK SMILES CCCC(=O)[O-]
REMARK SMILES IDX 3 1 4 2 5 3 6 4 2 5 1 6
REMARK H PARENT
REMARK Flexibility Score: inf
ROOT
ATOM      1  C   UNL     1      -6.006 -30.860 -50.760  1.00  0.00     0.052 C 
ENDROOT
BRANCH   1   2
ATOM      2  C   UNL     1      -5.255 -32.018 -51.343  1.00  0.00     0.041 C 
ATOM      3  O   UNL     1      -5.478 -32.388 -52.526  1.00  0.00    -0.550 OA
ATOM      4  O   UNL     1      -4.286 -32.669 -50.589  1.00  0.00    -0.550 OA
ENDBRANCH   1   2
BRANCH   1   5
ATOM      5  C   UNL     1      -7.080 -31.323 -49.767  1.00  0.00     0.003 C 
ATOM      6  C   UNL     1      -7.685 -30.160 -48.981  1.00  0.00     0.004 C 
ENDBRANCH   1   5
TORSDOF 2
ENDMDL
MODEL 9
REMARK VINA RESULT:    -3.212      2.117      2.367
REMARK INTER + INTRA:          -3.625
REMARK INTER:                  -3.586
REMARK INTRA:                  -0.039
REMARK UNBOUND:                -0.037
REMARK SMILES CCCC(=O)[O-]
REMARK SMILES IDX 3 1 4 2 5 3 6 4 2 5 1 6
REMARK H PARENT
REMARK Flexibility Score: inf
ROOT
ATOM      1  C   UNL     1      -3.939 -32.589 -51.716  1.00  0.00     0.052 C 
ENDROOT
BRANCH   1   2
ATOM      2  C   UNL     1      -3.101 -31.895 -52.746  1.00  0.00     0.041 C 
ATOM      3  O   UNL     1      -2.696 -32.521 -53.761  1.00  0.00    -0.550 OA
ATOM      4  O   UNL     1      -2.794 -30.548 -52.600  1.00  0.00    -0.550 OA
ENDBRANCH   1   2
BRANCH   1   5
ATOM      5  C   UNL     1      -5.423 -32.224 -51.854  1.00  0.00     0.003 C 
ATOM      6  C   UNL     1      -5.860 -31.172 -50.835  1.00  0.00     0.004 C 
ENDBRANCH   1   5
TORSDOF 2
ENDMDL
