MODEL 1
REMARK VINA RESULT:    -4.137      0.000      0.000
REMARK INTER + INTRA:          -4.902
REMARK INTER:                  -4.621
REMARK INTRA:                  -0.281
REMARK UNBOUND:                -0.281
REMARK SMILES CC=C(C)C=CC=C(C)C
REMARK SMILES IDX 5 1 6 2 3 3 1 4 2 5 4 6 7 7 8 8 9 9 10 10
REMARK H PARENT
REMARK Flexibility Score: inf
ROOT
ATOM      1  C   UNL     1      30.907   7.113  34.043  1.00  0.00     0.003 C 
ATOM      2  C   UNL     1      31.655   7.534  33.016  1.00  0.00     0.000 C 
ENDROOT
BRANCH   1   3
ATOM      3  C   UNL     1      31.247   7.378  35.466  1.00  0.00    -0.055 C 
ATOM      4  C   UNL     1      31.653   9.082  37.269  1.00  0.00     0.036 C 
ATOM      5  C   UNL     1      31.271   8.658  35.883  1.00  0.00    -0.027 C 
ATOM      6  C   UNL     1      31.620   6.237  36.387  1.00  0.00     0.044 C 
ENDBRANCH   1   3
BRANCH   2   7
ATOM      7  C   UNL     1      31.255   7.241  31.622  1.00  0.00    -0.001 C 
ATOM      8  C   UNL     1      30.761   8.162  30.775  1.00  0.00    -0.076 C 
ATOM      9  C   UNL     1      30.391   7.732  29.381  1.00  0.00     0.039 C 
ATOM     10  C   UNL     1      30.569   9.602  31.182  1.00  0.00     0.039 C 
ENDBRANCH   2   7
TORSDOF 2
ENDMDL
MODEL 2
REMARK VINA RESULT:    -4.114      1.906      5.748
REMARK INTER + INTRA:          -4.876
REMARK INTER:                  -4.670
REMARK INTRA:                  -0.206
REMARK UNBOUND:                -0.281
REMARK SMILES CC=C(C)C=CC=C(C)C
REMARK SMILES IDX 5 1 6 2 3 3 1 4 2 5 4 6 7 7 8 8 9 9 10 10
REMARK H PARENT
REMARK Flexibility Score: inf
ROOT
ATOM      1  C   UNL     1      30.731   7.859  31.285  1.00  0.00     0.003 C 
ATOM      2  C   UNL     1      31.143   8.980  31.888  1.00  0.00     0.000 C 
ENDROOT
BRANCH   1   3
ATOM      3  C   UNL     1      30.740   7.671  29.810  1.00  0.00    -0.055 C 
ATOM      4  C   UNL     1      31.692   6.442  27.834  1.00  0.00     0.036 C 
ATOM      5  C   UNL     1      31.532   6.709  29.301  1.00  0.00    -0.027 C 
ATOM      6  C   UNL     1      29.932   8.588  28.918  1.00  0.00     0.044 C 
ENDBRANCH   1   3
BRANCH   2   7
ATOM      7  C   UNL     1      31.113   9.097  33.363  1.00  0.00    -0.001 C 
ATOM      8  C   UNL     1      31.952   9.875  34.071  1.00  0.00    -0.076 C 
ATOM      9  C   UNL     1      31.815   9.903  35.569  1.00  0.00     0.039 C 
ATOM     10  C   UNL     1      33.018  10.710  33.407  1.00  0.00     0.039 C 
ENDBRANCH   2   7
TORSDOF 2
ENDMDL
MODEL 3
REMARK VINA RESULT:    -4.061      1.100      5.521
REMARK INTER + INTRA:          -4.817
REMARK INTER:                  -4.556
REMARK INTRA:                  -0.261
REMARK UNBOUND:                -0.281
REMARK SMILES CC=C(C)C=CC=C(C)C
REMARK SMILES IDX 5 1 6 2 3 3 1 4 2 5 4 6 7 7 8 8 9 9 10 10
REMARK H PARENT
REMARK Flexibility Score: inf
ROOT
ATOM      1  C   UNL     1      30.699   6.897  32.006  1.00  0.00     0.003 C 
ATOM      2  C   UNL     1      31.666   7.047  32.920  1.00  0.00     0.000 C 
ENDROOT
BRANCH   1   3
ATOM      3  C   UNL     1      30.853   7.288  30.580  1.00  0.00    -0.055 C 
ATOM      4  C   UNL     1      31.703   6.678  28.293  1.00  0.00     0.036 C 
ATOM      5  C   UNL     1      31.427   6.404  29.741  1.00  0.00    -0.027 C 
ATOM      6  C   UNL     1      30.436   8.666  30.115  1.00  0.00     0.044 C 
ENDBRANCH   1   3
BRANCH   2   7
ATOM      7  C   UNL     1      31.447   6.631  34.322  1.00  0.00    -0.001 C 
ATOM      8  C   UNL     1      31.243   7.490  35.337  1.00  0.00    -0.076 C 
ATOM      9  C   UNL     1      31.034   6.934  36.719  1.00  0.00     0.039 C 
ATOM     10  C   UNL     1      31.219   8.984  35.126  1.00  0.00     0.039 C 
ENDBRANCH   2   7
TORSDOF 2
ENDMDL
MODEL 4
REMARK VINA RESULT:    -4.041      2.035      3.421
REMARK INTER + INTRA:          -4.795
REMARK INTER:                  -4.581
REMARK INTRA:                  -0.214
REMARK UNBOUND:                -0.281
REMARK SMILES CC=C(C)C=CC=C(C)C
REMARK SMILES IDX 5 1 6 2 3 3 1 4 2 5 4 6 7 7 8 8 9 9 10 10
REMARK H PARENT
REMARK Flexibility Score: inf
ROOT
ATOM      1  C   UNL     1      30.782   9.007  31.245  1.00  0.00     0.003 C 
ATOM      2  C   UNL     1      30.876   7.886  30.520  1.00  0.00     0.000 C 
ENDROOT
BRANCH   1   3
ATOM      3  C   UNL     1      31.560   9.245  32.489  1.00  0.00    -0.055 C 
ATOM      4  C   UNL     1      33.125  10.749  33.758  1.00  0.00     0.036 C 
ATOM      5  C   UNL     1      32.250  10.397  32.593  1.00  0.00    -0.027 C 
ATOM      6  C   UNL     1      31.621   8.185  33.567  1.00  0.00     0.044 C 
ENDBRANCH   1   3
BRANCH   2   7
ATOM      7  C   UNL     1      30.077   7.718  29.286  1.00  0.00    -0.001 C 
ATOM      8  C   UNL     1      30.546   7.150  28.160  1.00  0.00    -0.076 C 
ATOM      9  C   UNL     1      29.627   7.040  26.974  1.00  0.00     0.039 C 
ATOM     10  C   UNL     1      31.956   6.625  28.058  1.00  0.00     0.039 C 
ENDBRANCH   2   7
TORSDOF 2
ENDMDL
MODEL 5
REMARK VINA RESULT:    -3.997      1.894      5.583
REMARK INTER + INTRA:          -4.746
REMARK INTER:                  -4.531
REMARK INTRA:                  -0.214
REMARK UNBOUND:                -0.281
REMARK SMILES CC=C(C)C=CC=C(C)C
REMARK SMILES IDX 5 1 6 2 3 3 1 4 2 5 4 6 7 7 8 8 9 9 10 10
REMARK H PARENT
REMARK Flexibility Score: inf
ROOT
ATOM      1  C   UNL     1      30.814   7.693  31.439  1.00  0.00     0.003 C 
ATOM      2  C   UNL     1      31.284   8.807  32.014  1.00  0.00     0.000 C 
ENDROOT
BRANCH   1   3
ATOM      3  C   UNL     1      30.867   7.443  29.975  1.00  0.00    -0.055 C 
ATOM      4  C   UNL     1      30.066   8.090  27.681  1.00  0.00     0.036 C 
ATOM      5  C   UNL     1      30.158   8.255  29.168  1.00  0.00    -0.027 C 
ATOM      6  C   UNL     1      31.643   6.264  29.429  1.00  0.00     0.044 C 
ENDBRANCH   1   3
BRANCH   2   7
ATOM      7  C   UNL     1      31.206   8.989  33.480  1.00  0.00    -0.001 C 
ATOM      8  C   UNL     1      31.972   9.853  34.170  1.00  0.00    -0.076 C 
ATOM      9  C   UNL     1      31.792   9.941  35.662  1.00  0.00     0.039 C 
ATOM     10  C   UNL     1      32.998  10.728  33.494  1.00  0.00     0.039 C 
ENDBRANCH   2   7
TORSDOF 2
ENDMDL
MODEL 6
REMARK VINA RESULT:    -3.969      1.737      3.509
REMARK INTER + INTRA:          -4.714
REMARK INTER:                  -4.458
REMARK INTRA:                  -0.257
REMARK UNBOUND:                -0.281
REMARK SMILES CC=C(C)C=CC=C(C)C
REMARK SMILES IDX 5 1 6 2 3 3 1 4 2 5 4 6 7 7 8 8 9 9 10 10
REMARK H PARENT
REMARK Flexibility Score: inf
ROOT
ATOM      1  C   UNL     1      30.886   8.673  31.141  1.00  0.00     0.003 C 
ATOM      2  C   UNL     1      30.522   7.724  30.270  1.00  0.00     0.000 C 
ENDROOT
BRANCH   1   3
ATOM      3  C   UNL     1      31.365   8.382  32.517  1.00  0.00    -0.055 C 
ATOM      4  C   UNL     1      31.496   6.737  34.415  1.00  0.00     0.036 C 
ATOM      5  C   UNL     1      31.127   7.157  33.023  1.00  0.00    -0.027 C 
ATOM      6  C   UNL     1      32.037   9.462  33.338  1.00  0.00     0.044 C 
ENDBRANCH   1   3
BRANCH   2   7
ATOM      7  C   UNL     1      30.061   8.084  28.912  1.00  0.00    -0.001 C 
ATOM      8  C   UNL     1      30.557   7.545  27.783  1.00  0.00    -0.076 C 
ATOM      9  C   UNL     1      29.998   8.001  26.463  1.00  0.00     0.039 C 
ATOM     10  C   UNL     1      31.650   6.506  27.808  1.00  0.00     0.039 C 
ENDBRANCH   2   7
TORSDOF 2
ENDMDL
MODEL 7
REMARK VINA RESULT:    -3.855      1.253      1.730
REMARK INTER + INTRA:          -4.587
REMARK INTER:                  -4.370
REMARK INTRA:                  -0.217
REMARK UNBOUND:                -0.281
REMARK SMILES CC=C(C)C=CC=C(C)C
REMARK SMILES IDX 5 1 6 2 3 3 1 4 2 5 4 6 7 7 8 8 9 9 10 10
REMARK H PARENT
REMARK Flexibility Score: inf
ROOT
ATOM      1  C   UNL     1      31.778   7.014  32.822  1.00  0.00     0.003 C 
ATOM      2  C   UNL     1      31.055   7.244  31.719  1.00  0.00     0.000 C 
ENDROOT
BRANCH   1   3
ATOM      3  C   UNL     1      31.425   7.557  34.159  1.00  0.00    -0.055 C 
ATOM      4  C   UNL     1      31.002   9.587  35.581  1.00  0.00     0.036 C 
ATOM      5  C   UNL     1      31.295   8.891  34.286  1.00  0.00    -0.027 C 
ATOM      6  C   UNL     1      31.287   6.631  35.348  1.00  0.00     0.044 C 
ENDBRANCH   1   3
BRANCH   2   7
ATOM      7  C   UNL     1      31.460   6.666  30.418  1.00  0.00    -0.001 C 
ATOM      8  C   UNL     1      31.061   7.147  29.227  1.00  0.00    -0.076 C 
ATOM      9  C   UNL     1      31.547   6.464  27.977  1.00  0.00     0.039 C 
ATOM     10  C   UNL     1      30.148   8.341  29.113  1.00  0.00     0.039 C 
ENDBRANCH   2   7
TORSDOF 2
ENDMDL
MODEL 8
REMARK VINA RESULT:    -3.839      1.178      5.428
REMARK INTER + INTRA:          -4.569
REMARK INTER:                  -4.321
REMARK INTRA:                  -0.248
REMARK UNBOUND:                -0.281
REMARK SMILES CC=C(C)C=CC=C(C)C
REMARK SMILES IDX 5 1 6 2 3 3 1 4 2 5 4 6 7 7 8 8 9 9 10 10
REMARK H PARENT
REMARK Flexibility Score: inf
ROOT
ATOM      1  C   UNL     1      31.237   7.003  31.346  1.00  0.00     0.003 C 
ATOM      2  C   UNL     1      31.266   7.627  32.530  1.00  0.00     0.000 C 
ENDROOT
BRANCH   1   3
ATOM      3  C   UNL     1      30.868   7.678  30.074  1.00  0.00    -0.055 C 
ATOM      4  C   UNL     1      29.700   9.603  28.954  1.00  0.00     0.036 C 
ATOM      5  C   UNL     1      30.191   8.840  30.148  1.00  0.00    -0.027 C 
ATOM      6  C   UNL     1      31.190   7.031  28.745  1.00  0.00     0.044 C 
ENDBRANCH   1   3
BRANCH   2   7
ATOM      7  C   UNL     1      31.649   6.897  33.758  1.00  0.00    -0.001 C 
ATOM      8  C   UNL     1      31.155   7.170  34.979  1.00  0.00    -0.076 C 
ATOM      9  C   UNL     1      31.630   6.350  36.147  1.00  0.00     0.039 C 
ATOM     10  C   UNL     1      30.147   8.269  35.205  1.00  0.00     0.039 C 
ENDBRANCH   2   7
TORSDOF 2
ENDMDL
MODEL 9
REMARK VINA RESULT:    -3.735      1.418      5.176
REMARK INTER + INTRA:          -4.453
REMARK INTER:                  -4.185
REMARK INTRA:                  -0.268
REMARK UNBOUND:                -0.281
REMARK SMILES CC=C(C)C=CC=C(C)C
REMARK SMILES IDX 5 1 6 2 3 3 1 4 2 5 4 6 7 7 8 8 9 9 10 10
REMARK H PARENT
REMARK Flexibility Score: inf
ROOT
ATOM      1  C   UNL     1      30.704   8.804  32.791  1.00  0.00     0.003 C 
ATOM      2  C   UNL     1      31.548   8.534  33.794  1.00  0.00     0.000 C 
ENDROOT
BRANCH   1   3
ATOM      3  C   UNL     1      30.899   9.927  31.836  1.00  0.00    -0.055 C 
ATOM      4  C   UNL     1      31.849  12.218  31.420  1.00  0.00     0.036 C 
ATOM      5  C   UNL     1      31.619  10.988  32.247  1.00  0.00    -0.027 C 
ATOM      6  C   UNL     1      30.244   9.894  30.473  1.00  0.00     0.044 C 
ENDBRANCH   1   3
BRANCH   2   7
ATOM      7  C   UNL     1      31.297   7.395  34.704  1.00  0.00    -0.001 C 
ATOM      8  C   UNL     1      31.276   7.498  36.045  1.00  0.00    -0.076 C 
ATOM      9  C   UNL     1      31.009   6.259  36.856  1.00  0.00     0.039 C 
ATOM     10  C   UNL     1      31.512   8.810  36.750  1.00  0.00     0.039 C 
ENDBRANCH   2   7
TORSDOF 2
ENDMDL
