MODEL 1
REMARK VINA RESULT:    -4.678      0.000      0.000
REMARK INTER + INTRA:          -5.434
REMARK INTER:                  -5.361
REMARK INTRA:                  -0.073
REMARK UNBOUND:                -0.073
REMARK SMILES COc1cc(C=O)ccc1O
REMARK SMILES IDX 3 1 10 2 9 3 8 4 5 5 4 6 2 7 1 8 11 9 6 11 7 12
REMARK H PARENT 11 10
REMARK Flexibility Score: inf
ROOT
ATOM      1  C   UNL     1       7.937  -6.970   9.299  1.00  0.00     0.161 A 
ATOM      2  C   UNL     1       7.103  -6.057   9.969  1.00  0.00     0.157 A 
ATOM      3  C   UNL     1       7.581  -4.788  10.307  1.00  0.00     0.051 A 
ATOM      4  C   UNL     1       8.889  -4.417   9.987  1.00  0.00     0.015 A 
ATOM      5  C   UNL     1       9.735  -5.312   9.320  1.00  0.00     0.018 A 
ATOM      6  C   UNL     1       9.256  -6.589   8.978  1.00  0.00     0.062 A 
ENDROOT
BRANCH   1   7
ATOM      7  O   UNL     1       7.428  -8.237   8.971  1.00  0.00    -0.493 OA
ATOM      8  C   UNL     1       6.866  -8.581   7.709  1.00  0.00     0.278 C 
ENDBRANCH   1   7
BRANCH   2   9
ATOM      9  O   UNL     1       5.791  -6.393  10.306  1.00  0.00    -0.504 OA
ATOM     10  H   UNL     1       5.154  -5.729  10.729  1.00  0.00     0.293 HD
ENDBRANCH   2   9
BRANCH   5  11
ATOM     11  C   UNL     1      11.112  -4.900   8.990  1.00  0.00     0.260 C 
ATOM     12  O   UNL     1      11.982  -4.756   9.889  1.00  0.00    -0.298 OA
ENDBRANCH   5  11
TORSDOF 3
ENDMDL
MODEL 2
REMARK VINA RESULT:    -4.662      3.701      5.419
REMARK INTER + INTRA:          -5.416
REMARK INTER:                  -5.365
REMARK INTRA:                  -0.051
REMARK UNBOUND:                -0.073
REMARK SMILES COc1cc(C=O)ccc1O
REMARK SMILES IDX 3 1 10 2 9 3 8 4 5 5 4 6 2 7 1 8 11 9 6 11 7 12
REMARK H PARENT 11 10
REMARK Flexibility Score: inf
ROOT
ATOM      1  C   UNL     1       3.905  -6.483   7.543  1.00  0.00     0.161 A 
ATOM      2  C   UNL     1       2.961  -7.504   7.331  1.00  0.00     0.157 A 
ATOM      3  C   UNL     1       3.352  -8.845   7.390  1.00  0.00     0.051 A 
ATOM      4  C   UNL     1       4.681  -9.182   7.657  1.00  0.00     0.015 A 
ATOM      5  C   UNL     1       5.637  -8.180   7.870  1.00  0.00     0.018 A 
ATOM      6  C   UNL     1       5.245  -6.831   7.812  1.00  0.00     0.062 A 
ENDROOT
BRANCH   1   7
ATOM      7  O   UNL     1       3.482  -5.146   7.478  1.00  0.00    -0.493 OA
ATOM      8  C   UNL     1       4.353  -4.020   7.508  1.00  0.00     0.278 C 
ENDBRANCH   1   7
BRANCH   2   9
ATOM      9  O   UNL     1       1.625  -7.205   7.062  1.00  0.00    -0.504 OA
ATOM     10  H   UNL     1       1.224  -6.297   7.261  1.00  0.00     0.293 HD
ENDBRANCH   2   9
BRANCH   5  11
ATOM     11  C   UNL     1       7.034  -8.558   8.151  1.00  0.00     0.260 C 
ATOM     12  O   UNL     1       7.659  -8.062   9.125  1.00  0.00    -0.298 OA
ENDBRANCH   5  11
TORSDOF 3
ENDMDL
MODEL 3
REMARK VINA RESULT:    -4.628      2.391      5.385
REMARK INTER + INTRA:          -5.377
REMARK INTER:                  -5.322
REMARK INTRA:                  -0.055
REMARK UNBOUND:                -0.073
REMARK SMILES COc1cc(C=O)ccc1O
REMARK SMILES IDX 3 1 10 2 9 3 8 4 5 5 4 6 2 7 1 8 11 9 6 11 7 12
REMARK H PARENT 11 10
REMARK Flexibility Score: inf
ROOT
ATOM      1  C   UNL     1       6.735  -6.608   9.059  1.00  0.00     0.161 A 
ATOM      2  C   UNL     1       7.483  -7.682   8.543  1.00  0.00     0.157 A 
ATOM      3  C   UNL     1       6.886  -8.598   7.674  1.00  0.00     0.051 A 
ATOM      4  C   UNL     1       5.545  -8.458   7.310  1.00  0.00     0.015 A 
ATOM      5  C   UNL     1       4.783  -7.396   7.812  1.00  0.00     0.018 A 
ATOM      6  C   UNL     1       5.381  -6.472   8.687  1.00  0.00     0.062 A 
ENDROOT
BRANCH   1   7
ATOM      7  O   UNL     1       7.362  -5.702   9.930  1.00  0.00    -0.493 OA
ATOM      8  C   UNL     1       7.076  -4.309   9.991  1.00  0.00     0.278 C 
ENDBRANCH   1   7
BRANCH   2   9
ATOM      9  O   UNL     1       8.825  -7.854   8.885  1.00  0.00    -0.504 OA
ATOM     10  H   UNL     1       9.394  -8.591   8.486  1.00  0.00     0.293 HD
ENDBRANCH   2   9
BRANCH   5  11
ATOM     11  C   UNL     1       3.369  -7.265   7.415  1.00  0.00     0.260 C 
ATOM     12  O   UNL     1       2.492  -6.897   8.241  1.00  0.00    -0.298 OA
ENDBRANCH   5  11
TORSDOF 3
ENDMDL
MODEL 4
REMARK VINA RESULT:    -4.599      2.782      4.862
REMARK INTER + INTRA:          -5.344
REMARK INTER:                  -5.287
REMARK INTRA:                  -0.057
REMARK UNBOUND:                -0.073
REMARK SMILES COc1cc(C=O)ccc1O
REMARK SMILES IDX 3 1 10 2 9 3 8 4 5 5 4 6 2 7 1 8 11 9 6 11 7 12
REMARK H PARENT 11 10
REMARK Flexibility Score: inf
ROOT
ATOM      1  C   UNL     1       6.984  -8.158   7.399  1.00  0.00     0.161 A 
ATOM      2  C   UNL     1       7.594  -7.508   8.487  1.00  0.00     0.157 A 
ATOM      3  C   UNL     1       6.884  -6.557   9.224  1.00  0.00     0.051 A 
ATOM      4  C   UNL     1       5.565  -6.243   8.888  1.00  0.00     0.015 A 
ATOM      5  C   UNL     1       4.939  -6.879   7.808  1.00  0.00     0.018 A 
ATOM      6  C   UNL     1       5.652  -7.836   7.065  1.00  0.00     0.062 A 
ENDROOT
BRANCH   1   7
ATOM      7  O   UNL     1       7.724  -9.109   6.677  1.00  0.00    -0.493 OA
ATOM      8  C   UNL     1       7.197 -10.334   6.179  1.00  0.00     0.278 C 
ENDBRANCH   1   7
BRANCH   2   9
ATOM      9  O   UNL     1       8.910  -7.795   8.852  1.00  0.00    -0.504 OA
ATOM     10  H   UNL     1       9.164  -8.651   9.332  1.00  0.00     0.293 HD
ENDBRANCH   2   9
BRANCH   5  11
ATOM     11  C   UNL     1       3.546  -6.534   7.470  1.00  0.00     0.260 C 
ATOM     12  O   UNL     1       2.590  -6.890   8.208  1.00  0.00    -0.298 OA
ENDBRANCH   5  11
TORSDOF 3
ENDMDL
MODEL 5
REMARK VINA RESULT:    -4.570      5.095      8.179
REMARK INTER + INTRA:          -5.311
REMARK INTER:                  -5.237
REMARK INTRA:                  -0.074
REMARK UNBOUND:                -0.073
REMARK SMILES COc1cc(C=O)ccc1O
REMARK SMILES IDX 3 1 10 2 9 3 8 4 5 5 4 6 2 7 1 8 11 9 6 11 7 12
REMARK H PARENT 11 10
REMARK Flexibility Score: inf
ROOT
ATOM      1  C   UNL     1       2.961  -7.796   7.397  1.00  0.00     0.161 A 
ATOM      2  C   UNL     1       3.430  -9.075   7.748  1.00  0.00     0.157 A 
ATOM      3  C   UNL     1       3.016 -10.196   7.023  1.00  0.00     0.051 A 
ATOM      4  C   UNL     1       2.135 -10.057   5.949  1.00  0.00     0.015 A 
ATOM      5  C   UNL     1       1.656  -8.792   5.584  1.00  0.00     0.018 A 
ATOM      6  C   UNL     1       2.071  -7.663   6.311  1.00  0.00     0.062 A 
ENDROOT
BRANCH   1   7
ATOM      7  O   UNL     1       3.395  -6.688   8.144  1.00  0.00    -0.493 OA
ATOM      8  C   UNL     1       4.482  -5.844   7.781  1.00  0.00     0.278 C 
ENDBRANCH   1   7
BRANCH   2   9
ATOM      9  O   UNL     1       4.310  -9.252   8.815  1.00  0.00    -0.504 OA
ATOM     10  H   UNL     1       4.860 -10.094   8.929  1.00  0.00     0.293 HD
ENDBRANCH   2   9
BRANCH   5  11
ATOM     11  C   UNL     1       0.727  -8.667   4.445  1.00  0.00     0.260 C 
ATOM     12  O   UNL     1      -0.125  -7.740   4.399  1.00  0.00    -0.298 OA
ENDBRANCH   5  11
TORSDOF 3
ENDMDL
MODEL 6
REMARK VINA RESULT:    -4.564      2.663      6.019
REMARK INTER + INTRA:          -5.304
REMARK INTER:                  -5.229
REMARK INTRA:                  -0.075
REMARK UNBOUND:                -0.073
REMARK SMILES COc1cc(C=O)ccc1O
REMARK SMILES IDX 3 1 10 2 9 3 8 4 5 5 4 6 2 7 1 8 11 9 6 11 7 12
REMARK H PARENT 11 10
REMARK Flexibility Score: inf
ROOT
ATOM      1  C   UNL     1       6.560  -8.383   7.881  1.00  0.00     0.161 A 
ATOM      2  C   UNL     1       6.935  -8.902   6.629  1.00  0.00     0.157 A 
ATOM      3  C   UNL     1       5.977  -9.073   5.625  1.00  0.00     0.051 A 
ATOM      4  C   UNL     1       4.643  -8.733   5.857  1.00  0.00     0.015 A 
ATOM      5  C   UNL     1       4.249  -8.215   7.097  1.00  0.00     0.018 A 
ATOM      6  C   UNL     1       5.211  -8.042   8.108  1.00  0.00     0.062 A 
ENDROOT
BRANCH   1   7
ATOM      7  O   UNL     1       7.545  -8.222   8.870  1.00  0.00    -0.493 OA
ATOM      8  C   UNL     1       8.207  -6.996   9.159  1.00  0.00     0.278 C 
ENDBRANCH   1   7
BRANCH   2   9
ATOM      9  O   UNL     1       8.258  -9.254   6.362  1.00  0.00    -0.504 OA
ATOM     10  H   UNL     1       8.886  -9.584   7.085  1.00  0.00     0.293 HD
ENDBRANCH   2   9
BRANCH   5  11
ATOM     11  C   UNL     1       2.835  -7.861   7.321  1.00  0.00     0.260 C 
ATOM     12  O   UNL     1       2.509  -6.974   8.154  1.00  0.00    -0.298 OA
ENDBRANCH   5  11
TORSDOF 3
ENDMDL
MODEL 7
REMARK VINA RESULT:    -4.490      3.916      5.531
REMARK INTER + INTRA:          -5.218
REMARK INTER:                  -5.168
REMARK INTRA:                  -0.051
REMARK UNBOUND:                -0.073
REMARK SMILES COc1cc(C=O)ccc1O
REMARK SMILES IDX 3 1 10 2 9 3 8 4 5 5 4 6 2 7 1 8 11 9 6 11 7 12
REMARK H PARENT 11 10
REMARK Flexibility Score: inf
ROOT
ATOM      1  C   UNL     1       4.716  -7.135   8.139  1.00  0.00     0.161 A 
ATOM      2  C   UNL     1       5.191  -6.069   8.925  1.00  0.00     0.157 A 
ATOM      3  C   UNL     1       5.070  -4.754   8.469  1.00  0.00     0.051 A 
ATOM      4  C   UNL     1       4.480  -4.486   7.232  1.00  0.00     0.015 A 
ATOM      5  C   UNL     1       4.002  -5.533   6.434  1.00  0.00     0.018 A 
ATOM      6  C   UNL     1       4.122  -6.857   6.891  1.00  0.00     0.062 A 
ENDROOT
BRANCH   1   7
ATOM      7  O   UNL     1       4.851  -8.446   8.624  1.00  0.00    -0.493 OA
ATOM      8  C   UNL     1       4.216  -9.587   8.057  1.00  0.00     0.278 C 
ENDBRANCH   1   7
BRANCH   2   9
ATOM      9  O   UNL     1       5.786  -6.299  10.166  1.00  0.00    -0.504 OA
ATOM     10  H   UNL     1       5.688  -7.178  10.658  1.00  0.00     0.293 HD
ENDBRANCH   2   9
BRANCH   5  11
ATOM     11  C   UNL     1       3.381  -5.229   5.131  1.00  0.00     0.260 C 
ATOM     12  O   UNL     1       2.208  -5.601   4.866  1.00  0.00    -0.298 OA
ENDBRANCH   5  11
TORSDOF 3
ENDMDL
MODEL 8
REMARK VINA RESULT:    -4.475      7.191      9.352
REMARK INTER + INTRA:          -5.202
REMARK INTER:                  -5.134
REMARK INTRA:                  -0.068
REMARK UNBOUND:                -0.073
REMARK SMILES COc1cc(C=O)ccc1O
REMARK SMILES IDX 3 1 10 2 9 3 8 4 5 5 4 6 2 7 1 8 11 9 6 11 7 12
REMARK H PARENT 11 10
REMARK Flexibility Score: inf
ROOT
ATOM      1  C   UNL     1      15.151  -4.527  16.007  1.00  0.00     0.161 A 
ATOM      2  C   UNL     1      15.259  -3.127  15.924  1.00  0.00     0.157 A 
ATOM      3  C   UNL     1      14.321  -2.394  15.192  1.00  0.00     0.051 A 
ATOM      4  C   UNL     1      13.272  -3.042  14.537  1.00  0.00     0.015 A 
ATOM      5  C   UNL     1      13.147  -4.436  14.607  1.00  0.00     0.018 A 
ATOM      6  C   UNL     1      14.089  -5.175  15.343  1.00  0.00     0.062 A 
ENDROOT
BRANCH   1   7
ATOM      7  O   UNL     1      16.108  -5.237  16.751  1.00  0.00    -0.493 OA
ATOM      8  C   UNL     1      17.043  -6.157  16.196  1.00  0.00     0.278 C 
ENDBRANCH   1   7
BRANCH   2   9
ATOM      9  O   UNL     1      16.294  -2.446  16.565  1.00  0.00    -0.504 OA
ATOM     10  H   UNL     1      16.552  -1.498  16.318  1.00  0.00     0.293 HD
ENDBRANCH   2   9
BRANCH   5  11
ATOM     11  C   UNL     1      12.031  -5.101  13.909  1.00  0.00     0.260 C 
ATOM     12  O   UNL     1      12.177  -5.572  12.749  1.00  0.00    -0.298 OA
ENDBRANCH   5  11
TORSDOF 3
ENDMDL
MODEL 9
REMARK VINA RESULT:    -4.419      2.839      4.219
REMARK INTER + INTRA:          -5.137
REMARK INTER:                  -5.063
REMARK INTRA:                  -0.074
REMARK UNBOUND:                -0.073
REMARK SMILES COc1cc(C=O)ccc1O
REMARK SMILES IDX 3 1 10 2 9 3 8 4 5 5 4 6 2 7 1 8 11 9 6 11 7 12
REMARK H PARENT 11 10
REMARK Flexibility Score: inf
ROOT
ATOM      1  C   UNL     1       5.561  -7.500   8.559  1.00  0.00     0.161 A 
ATOM      2  C   UNL     1       6.961  -7.636   8.551  1.00  0.00     0.157 A 
ATOM      3  C   UNL     1       7.773  -6.525   8.305  1.00  0.00     0.051 A 
ATOM      4  C   UNL     1       7.202  -5.274   8.062  1.00  0.00     0.015 A 
ATOM      5  C   UNL     1       5.810  -5.117   8.064  1.00  0.00     0.018 A 
ATOM      6  C   UNL     1       4.992  -6.233   8.313  1.00  0.00     0.062 A 
ENDROOT
BRANCH   1   7
ATOM      7  O   UNL     1       4.772  -8.634   8.811  1.00  0.00    -0.493 OA
ATOM      8  C   UNL     1       4.011  -9.324   7.825  1.00  0.00     0.278 C 
ENDBRANCH   1   7
BRANCH   2   9
ATOM      9  O   UNL     1       7.566  -8.871   8.789  1.00  0.00    -0.504 OA
ATOM     10  H   UNL     1       8.558  -9.022   8.654  1.00  0.00     0.293 HD
ENDBRANCH   2   9
BRANCH   5  11
ATOM     11  C   UNL     1       5.229  -3.786   7.807  1.00  0.00     0.260 C 
ATOM     12  O   UNL     1       3.981  -3.622   7.750  1.00  0.00    -0.298 OA
ENDBRANCH   5  11
TORSDOF 3
ENDMDL
