MODEL 1
REMARK VINA RESULT:    66.381      0.000      0.000
REMARK INTER + INTRA:          72.660
REMARK INTER:                  72.201
REMARK INTRA:                   0.458
REMARK UNBOUND:                 0.458
REMARK SMILES C[C@@H]1[C@H](C)CC[C@]2(C(=O)[O-])CC[C@]3(C)C(=CC[C@H]4[C@]5(C)CC[C@H](O)C(C)(C)[C@@H]5CC[C@@]43C)[C@@H]12
REMARK SMILES IDX 7 1 6 2 11 3 33 4 5 5 12 6 15 7 2 8 3 9 13 10 16 11 1 12
REMARK SMILES IDX 4 13 14 14 31 15 17 16 18 17 30 18 32 19 19 20 29 21 28 22
REMARK SMILES IDX 21 23 20 24 25 25 22 26 23 27 26 28 27 29 8 30 9 31 10 32
REMARK SMILES IDX 24 33
REMARK H PARENT 24 34
REMARK Flexibility Score: inf
ROOT
ATOM      1  C   UNL     1      11.861   7.925  -0.915  1.00  0.00     0.017 C 
ATOM      2  C   UNL     1      12.192   8.386   0.551  1.00  0.00     0.014 C 
ATOM      3  C   UNL     1      11.695   9.166  -1.891  1.00  0.00     0.014 C 
ATOM      4  C   UNL     1      10.600   7.083  -0.817  1.00  0.00     0.030 C 
ATOM      5  C   UNL     1      12.132   7.211   1.611  1.00  0.00     0.004 C 
ATOM      6  C   UNL     1      10.287   9.479  -2.575  1.00  0.00     0.013 C 
ATOM      7  C   UNL     1       9.955   7.005  -2.110  1.00  0.00    -0.063 C 
ATOM      8  C   UNL     1      10.786   5.796   0.028  1.00  0.00    -0.003 C 
ATOM      9  C   UNL     1      10.956   6.215   1.550  1.00  0.00    -0.011 C 
ATOM     10  C   UNL     1       9.179   8.361  -2.466  1.00  0.00    -0.006 C 
ATOM     11  C   UNL     1      10.238   5.979  -2.965  1.00  0.00    -0.027 C 
ATOM     12  C   UNL     1       9.618   4.739  -0.111  1.00  0.00     0.008 C 
ATOM     13  C   UNL     1       9.683   6.797   2.242  1.00  0.00     0.008 C 
ATOM     14  C   UNL     1       8.223   8.844  -1.282  1.00  0.00     0.017 C 
ATOM     15  C   UNL     1       8.291   7.926  -3.680  1.00  0.00    -0.020 C 
ATOM     16  C   UNL     1       9.713   5.933  -4.374  1.00  0.00     0.032 C 
ATOM     17  C   UNL     1       9.323   7.361  -4.776  1.00  0.00     0.006 C 
ATOM     18  C   UNL     1       7.310   8.906  -4.313  1.00  0.00     0.008 C 
ATOM     19  C   UNL     1       7.294   6.808  -3.083  1.00  0.00     0.012 C 
ATOM     20  C   UNL     1       8.912   7.503  -6.297  1.00  0.00    -0.025 C 
ATOM     21  C   UNL     1       6.530   8.096  -5.415  1.00  0.00     0.005 C 
ATOM     22  C   UNL     1       7.396   7.070  -6.263  1.00  0.00     0.003 C 
ATOM     23  C   UNL     1       9.045   8.958  -6.887  1.00  0.00     0.010 C 
ATOM     24  C   UNL     1       9.893   6.650  -7.151  1.00  0.00     0.012 C 
ATOM     25  C   UNL     1       6.835   6.954  -7.696  1.00  0.00    -0.006 C 
ATOM     26  C   UNL     1       7.882   9.397  -7.765  1.00  0.00     0.033 C 
ATOM     27  C   UNL     1       6.993   8.300  -8.435  1.00  0.00     0.120 C 
ATOM     28  C   UNL     1       7.459   5.819  -8.592  1.00  0.00     0.014 C 
ATOM     29  C   UNL     1       5.304   6.512  -7.548  1.00  0.00     0.014 C 
ENDROOT
BRANCH   1  30
ATOM     30  C   UNL     1      12.958   7.116  -1.495  1.00  0.00     0.048 C 
ATOM     31  O   UNL     1      13.653   7.563  -2.462  1.00  0.00    -0.550 OA
ATOM     32  O   UNL     1      13.213   5.796  -1.106  1.00  0.00    -0.550 OA
ENDBRANCH   1  30
BRANCH  27  33
ATOM     33  O   UNL     1       5.738   8.953  -8.633  1.00  0.00    -0.393 OA
ATOM     34  H   UNL     1       5.142   8.381  -9.165  1.00  0.00     0.210 HD
ENDBRANCH  27  33
TORSDOF 2
ENDMDL
MODEL 2
REMARK VINA RESULT:    68.626      3.148      7.298
REMARK INTER + INTRA:          75.102
REMARK INTER:                  74.022
REMARK INTRA:                   1.080
REMARK UNBOUND:                 0.458
REMARK SMILES C[C@@H]1[C@H](C)CC[C@]2(C(=O)[O-])CC[C@]3(C)C(=CC[C@H]4[C@]5(C)CC[C@H](O)C(C)(C)[C@@H]5CC[C@@]43C)[C@@H]12
REMARK SMILES IDX 7 1 6 2 11 3 33 4 5 5 12 6 15 7 2 8 3 9 13 10 16 11 1 12
REMARK SMILES IDX 4 13 14 14 31 15 17 16 18 17 30 18 32 19 19 20 29 21 28 22
REMARK SMILES IDX 21 23 20 24 25 25 22 26 23 27 26 28 27 29 8 30 9 31 10 32
REMARK SMILES IDX 24 33
REMARK H PARENT 24 34
REMARK Flexibility Score: inf
ROOT
ATOM      1  C   UNL     1       9.819   8.238  -2.271  1.00  0.00     0.017 C 
ATOM      2  C   UNL     1      10.137   9.777  -2.255  1.00  0.00     0.014 C 
ATOM      3  C   UNL     1       8.451   7.921  -1.529  1.00  0.00     0.014 C 
ATOM      4  C   UNL     1      11.010   7.555  -1.620  1.00  0.00     0.030 C 
ATOM      5  C   UNL     1      11.596  10.125  -2.764  1.00  0.00     0.004 C 
ATOM      6  C   UNL     1       8.434   7.051  -0.192  1.00  0.00     0.013 C 
ATOM      7  C   UNL     1      10.634   6.235  -1.162  1.00  0.00    -0.063 C 
ATOM      8  C   UNL     1      12.332   7.748  -2.407  1.00  0.00    -0.003 C 
ATOM      9  C   UNL     1      12.779   9.266  -2.274  1.00  0.00    -0.011 C 
ATOM     10  C   UNL     1       9.771   6.301   0.185  1.00  0.00    -0.006 C 
ATOM     11  C   UNL     1      10.805   5.147  -1.968  1.00  0.00    -0.027 C 
ATOM     12  C   UNL     1      13.515   6.798  -1.958  1.00  0.00     0.008 C 
ATOM     13  C   UNL     1      13.255   9.713  -0.855  1.00  0.00     0.008 C 
ATOM     14  C   UNL     1      10.453   7.214   1.302  1.00  0.00     0.017 C 
ATOM     15  C   UNL     1       9.800   4.813   0.671  1.00  0.00    -0.020 C 
ATOM     16  C   UNL     1      10.294   3.780  -1.602  1.00  0.00     0.032 C 
ATOM     17  C   UNL     1       9.193   3.959  -0.549  1.00  0.00     0.006 C 
ATOM     18  C   UNL     1       9.146   4.414   1.990  1.00  0.00     0.008 C 
ATOM     19  C   UNL     1      11.355   4.507   0.974  1.00  0.00     0.012 C 
ATOM     20  C   UNL     1       8.436   2.618  -0.188  1.00  0.00    -0.025 C 
ATOM     21  C   UNL     1       9.466   2.886   2.194  1.00  0.00     0.005 C 
ATOM     22  C   UNL     1       9.399   1.985   0.889  1.00  0.00     0.003 C 
ATOM     23  C   UNL     1       6.997   2.812   0.424  1.00  0.00     0.010 C 
ATOM     24  C   UNL     1       8.192   1.823  -1.503  1.00  0.00     0.012 C 
ATOM     25  C   UNL     1       8.941   0.555   1.249  1.00  0.00    -0.006 C 
ATOM     26  C   UNL     1       6.682   1.911   1.609  1.00  0.00     0.033 C 
ATOM     27  C   UNL     1       7.490   0.584   1.776  1.00  0.00     0.120 C 
ATOM     28  C   UNL     1       9.028  -0.510   0.093  1.00  0.00     0.014 C 
ATOM     29  C   UNL     1       9.978   0.010   2.338  1.00  0.00     0.014 C 
ENDROOT
BRANCH   1  30
ATOM     30  C   UNL     1       9.643   7.730  -3.651  1.00  0.00     0.048 C 
ATOM     31  O   UNL     1       8.654   8.102  -4.358  1.00  0.00    -0.550 OA
ATOM     32  O   UNL     1      10.464   6.741  -4.204  1.00  0.00    -0.550 OA
ENDBRANCH   1  30
BRANCH  27  33
ATOM     33  O   UNL     1       7.424   0.321   3.179  1.00  0.00    -0.393 OA
ATOM     34  H   UNL     1       7.590   1.149   3.683  1.00  0.00     0.210 HD
ENDBRANCH  27  33
TORSDOF 2
ENDMDL
