MODEL 1
REMARK VINA RESULT:    10.981      0.000      0.000
REMARK INTER + INTRA:          13.929
REMARK INTER:                  11.944
REMARK INTRA:                   1.985
REMARK UNBOUND:                 1.985
REMARK SMILES C[C@@H]1[C@@H](C)CC[C@@]2(C(=O)[O-])CC[C@]3(C)C(=CC[C@@H]4[C@]5(C)CC[C@@H](O)C(C)(C)[C@@H]5CC[C@]43C)[C@@H]12
REMARK SMILES IDX 7 1 6 2 11 3 33 4 5 5 12 6 15 7 2 8 3 9 13 10 16 11 1 12
REMARK SMILES IDX 4 13 14 14 31 15 17 16 18 17 30 18 32 19 19 20 29 21 28 22
REMARK SMILES IDX 21 23 20 24 25 25 22 26 23 27 26 28 27 29 8 30 9 31 10 32
REMARK SMILES IDX 24 33
REMARK H PARENT 24 34
REMARK Flexibility Score: inf
ROOT
ATOM      1  C   UNL     1       7.873   0.068  18.145  1.00  0.00     0.017 C 
ATOM      2  C   UNL     1       7.491  -0.184  19.635  1.00  0.00     0.014 C 
ATOM      3  C   UNL     1       8.988   1.143  18.069  1.00  0.00     0.014 C 
ATOM      4  C   UNL     1       8.320  -1.300  17.484  1.00  0.00     0.030 C 
ATOM      5  C   UNL     1       6.365  -1.212  19.797  1.00  0.00     0.004 C 
ATOM      6  C   UNL     1      10.339   0.667  18.590  1.00  0.00     0.013 C 
ATOM      7  C   UNL     1       9.785  -1.703  17.876  1.00  0.00    -0.063 C 
ATOM      8  C   UNL     1       7.203  -2.412  17.680  1.00  0.00    -0.003 C 
ATOM      9  C   UNL     1       6.713  -2.566  19.153  1.00  0.00    -0.011 C 
ATOM     10  C   UNL     1      10.886  -0.604  17.861  1.00  0.00    -0.006 C 
ATOM     11  C   UNL     1      10.162  -3.016  17.945  1.00  0.00    -0.027 C 
ATOM     12  C   UNL     1       5.992  -2.225  16.737  1.00  0.00     0.008 C 
ATOM     13  C   UNL     1       7.683  -3.369  20.031  1.00  0.00     0.008 C 
ATOM     14  C   UNL     1      11.126  -0.198  16.362  1.00  0.00     0.017 C 
ATOM     15  C   UNL     1      12.248  -1.117  18.576  1.00  0.00    -0.020 C 
ATOM     16  C   UNL     1      11.526  -3.518  18.334  1.00  0.00     0.032 C 
ATOM     17  C   UNL     1      12.642  -2.521  17.974  1.00  0.00     0.006 C 
ATOM     18  C   UNL     1      13.422  -0.141  18.333  1.00  0.00     0.008 C 
ATOM     19  C   UNL     1      12.004  -1.196  20.125  1.00  0.00     0.012 C 
ATOM     20  C   UNL     1      14.140  -3.087  18.143  1.00  0.00    -0.025 C 
ATOM     21  C   UNL     1      14.745  -0.679  18.875  1.00  0.00     0.005 C 
ATOM     22  C   UNL     1      15.223  -1.924  18.079  1.00  0.00     0.003 C 
ATOM     23  C   UNL     1      14.307  -3.919  19.453  1.00  0.00     0.010 C 
ATOM     24  C   UNL     1      14.369  -4.054  16.930  1.00  0.00     0.012 C 
ATOM     25  C   UNL     1      16.716  -2.362  18.463  1.00  0.00    -0.006 C 
ATOM     26  C   UNL     1      15.739  -4.376  19.738  1.00  0.00     0.033 C 
ATOM     27  C   UNL     1      16.715  -3.195  19.783  1.00  0.00     0.120 C 
ATOM     28  C   UNL     1      17.395  -3.157  17.302  1.00  0.00     0.014 C 
ATOM     29  C   UNL     1      17.620  -1.116  18.692  1.00  0.00     0.014 C 
ENDROOT
BRANCH   1  30
ATOM     30  C   UNL     1       6.701   0.699  17.399  1.00  0.00     0.048 C 
ATOM     31  O   UNL     1       5.875  -0.027  16.783  1.00  0.00    -0.550 OA
ATOM     32  O   UNL     1       6.604   2.080  17.261  1.00  0.00    -0.550 OA
ENDBRANCH   1  30
BRANCH  27  33
ATOM     33  O   UNL     1      18.002  -3.694  20.060  1.00  0.00    -0.393 OA
ATOM     34  H   UNL     1      18.656  -3.082  19.630  1.00  0.00     0.210 HD
ENDBRANCH  27  33
TORSDOF 2
ENDMDL
