MODEL 1
REMARK VINA RESULT:    -6.001      0.000      0.000
REMARK INTER + INTRA:          -6.770
REMARK INTER:                  -6.527
REMARK INTRA:                  -0.243
REMARK UNBOUND:                -0.243
REMARK SMILES O=C([O-])c1ccccc1O
REMARK SMILES IDX 4 1 9 2 5 3 8 4 6 5 7 6 2 7 1 8 3 9 10 10
REMARK H PARENT 10 11
REMARK Flexibility Score: inf
ROOT
ATOM      1  C   UNL     1      11.632  34.996  23.357  1.00  0.00     0.039 A 
ATOM      2  C   UNL     1      11.395  36.365  23.649  1.00  0.00     0.124 A 
ATOM      3  C   UNL     1      12.497  34.667  22.298  1.00  0.00     0.014 A 
ATOM      4  C   UNL     1      11.973  37.355  22.844  1.00  0.00     0.047 A 
ATOM      5  C   UNL     1      13.082  35.667  21.517  1.00  0.00     0.001 A 
ATOM      6  C   UNL     1      12.812  37.009  21.784  1.00  0.00     0.004 A 
ENDROOT
BRANCH   1   7
ATOM      7  C   UNL     1      10.981  33.893  24.099  1.00  0.00     0.075 C 
ATOM      8  O   UNL     1      10.428  32.940  23.489  1.00  0.00    -0.545 OA
ATOM      9  O   UNL     1      11.037  33.862  25.487  1.00  0.00    -0.545 OA
ENDBRANCH   1   7
BRANCH   2  10
ATOM     10  O   UNL     1      10.627  36.782  24.739  1.00  0.00    -0.507 OA
ATOM     11  H   UNL     1      10.719  36.393  25.667  1.00  0.00     0.293 HD
ENDBRANCH   2  10
TORSDOF 2
ENDMDL
MODEL 2
REMARK VINA RESULT:    -5.973      2.156      3.766
REMARK INTER + INTRA:          -6.740
REMARK INTER:                  -6.505
REMARK INTRA:                  -0.234
REMARK UNBOUND:                -0.243
REMARK SMILES O=C([O-])c1ccccc1O
REMARK SMILES IDX 4 1 9 2 5 3 8 4 6 5 7 6 2 7 1 8 3 9 10 10
REMARK H PARENT 10 11
REMARK Flexibility Score: inf
ROOT
ATOM      1  C   UNL     1      10.964  34.949  23.332  1.00  0.00     0.039 A 
ATOM      2  C   UNL     1      10.327  33.713  23.619  1.00  0.00     0.124 A 
ATOM      3  C   UNL     1      12.065  35.343  24.114  1.00  0.00     0.014 A 
ATOM      4  C   UNL     1      10.762  32.946  24.708  1.00  0.00     0.047 A 
ATOM      5  C   UNL     1      12.500  34.556  25.183  1.00  0.00     0.001 A 
ATOM      6  C   UNL     1      11.842  33.364  25.486  1.00  0.00     0.004 A 
ENDROOT
BRANCH   1   7
ATOM      7  C   UNL     1      10.502  35.860  22.262  1.00  0.00     0.075 C 
ATOM      8  O   UNL     1      11.293  36.265  21.370  1.00  0.00    -0.545 OA
ATOM      9  O   UNL     1       9.162  36.224  22.191  1.00  0.00    -0.545 OA
ENDBRANCH   1   7
BRANCH   2  10
ATOM     10  O   UNL     1       9.290  33.199  22.837  1.00  0.00    -0.507 OA
ATOM     11  H   UNL     1       8.314  33.269  23.089  1.00  0.00     0.293 HD
ENDBRANCH   2  10
TORSDOF 2
ENDMDL
MODEL 3
REMARK VINA RESULT:    -5.913      2.311      3.308
REMARK INTER + INTRA:          -6.675
REMARK INTER:                  -6.436
REMARK INTRA:                  -0.239
REMARK UNBOUND:                -0.243
REMARK SMILES O=C([O-])c1ccccc1O
REMARK SMILES IDX 4 1 9 2 5 3 8 4 6 5 7 6 2 7 1 8 3 9 10 10
REMARK H PARENT 10 11
REMARK Flexibility Score: inf
ROOT
ATOM      1  C   UNL     1      11.281  37.129  23.342  1.00  0.00     0.039 A 
ATOM      2  C   UNL     1      12.366  37.693  22.621  1.00  0.00     0.124 A 
ATOM      3  C   UNL     1      11.112  35.732  23.333  1.00  0.00     0.014 A 
ATOM      4  C   UNL     1      13.204  36.861  21.868  1.00  0.00     0.047 A 
ATOM      5  C   UNL     1      11.971  34.915  22.594  1.00  0.00     0.001 A 
ATOM      6  C   UNL     1      13.009  35.479  21.854  1.00  0.00     0.004 A 
ENDROOT
BRANCH   1   7
ATOM      7  C   UNL     1      10.295  37.950  24.080  1.00  0.00     0.075 C 
ATOM      8  O   UNL     1      10.626  39.050  24.595  1.00  0.00    -0.545 OA
ATOM      9  O   UNL     1       8.968  37.543  24.153  1.00  0.00    -0.545 OA
ENDBRANCH   1   7
BRANCH   2  10
ATOM     10  O   UNL     1      12.664  39.058  22.651  1.00  0.00    -0.507 OA
ATOM     11  H   UNL     1      12.036  39.758  23.019  1.00  0.00     0.293 HD
ENDBRANCH   2  10
TORSDOF 2
ENDMDL
MODEL 4
REMARK VINA RESULT:    -5.769      2.149      3.719
REMARK INTER + INTRA:          -6.517
REMARK INTER:                  -6.436
REMARK INTRA:                  -0.082
REMARK UNBOUND:                -0.243
REMARK SMILES O=C([O-])c1ccccc1O
REMARK SMILES IDX 4 1 9 2 5 3 8 4 6 5 7 6 2 7 1 8 3 9 10 10
REMARK H PARENT 10 11
REMARK Flexibility Score: inf
ROOT
ATOM      1  C   UNL     1      11.747  35.876  23.349  1.00  0.00     0.039 A 
ATOM      2  C   UNL     1      10.578  35.230  22.865  1.00  0.00     0.124 A 
ATOM      3  C   UNL     1      12.515  35.237  24.340  1.00  0.00     0.014 A 
ATOM      4  C   UNL     1      10.180  34.009  23.424  1.00  0.00     0.047 A 
ATOM      5  C   UNL     1      12.114  34.009  24.872  1.00  0.00     0.001 A 
ATOM      6  C   UNL     1      10.944  33.401  24.422  1.00  0.00     0.004 A 
ENDROOT
BRANCH   1   7
ATOM      7  C   UNL     1      12.179  37.211  22.879  1.00  0.00     0.075 C 
ATOM      8  O   UNL     1      13.013  37.329  21.943  1.00  0.00    -0.545 OA
ATOM      9  O   UNL     1      11.610  38.356  23.423  1.00  0.00    -0.545 OA
ENDBRANCH   1   7
BRANCH   2  10
ATOM     10  O   UNL     1       9.811  35.745  21.819  1.00  0.00    -0.507 OA
ATOM     11  H   UNL     1       8.975  36.297  21.958  1.00  0.00     0.293 HD
ENDBRANCH   2  10
TORSDOF 2
ENDMDL
MODEL 5
REMARK VINA RESULT:    -5.715      1.641      2.041
REMARK INTER + INTRA:          -6.459
REMARK INTER:                  -6.378
REMARK INTRA:                  -0.081
REMARK UNBOUND:                -0.243
REMARK SMILES O=C([O-])c1ccccc1O
REMARK SMILES IDX 4 1 9 2 5 3 8 4 6 5 7 6 2 7 1 8 3 9 10 10
REMARK H PARENT 10 11
REMARK Flexibility Score: inf
ROOT
ATOM      1  C   UNL     1      10.983  36.281  22.614  1.00  0.00     0.039 A 
ATOM      2  C   UNL     1      11.134  37.385  23.495  1.00  0.00     0.124 A 
ATOM      3  C   UNL     1      11.991  36.025  21.667  1.00  0.00     0.014 A 
ATOM      4  C   UNL     1      12.243  38.230  23.362  1.00  0.00     0.047 A 
ATOM      5  C   UNL     1      13.102  36.866  21.562  1.00  0.00     0.001 A 
ATOM      6  C   UNL     1      13.222  37.972  22.402  1.00  0.00     0.004 A 
ENDROOT
BRANCH   1   7
ATOM      7  C   UNL     1       9.793  35.402  22.627  1.00  0.00     0.075 C 
ATOM      8  O   UNL     1       9.765  34.360  23.334  1.00  0.00    -0.545 OA
ATOM      9  O   UNL     1       8.658  35.758  21.906  1.00  0.00    -0.545 OA
ENDBRANCH   1   7
BRANCH   2  10
ATOM     10  O   UNL     1      10.231  37.657  24.525  1.00  0.00    -0.507 OA
ATOM     11  H   UNL     1      10.489  37.680  25.502  1.00  0.00     0.293 HD
ENDBRANCH   2  10
TORSDOF 2
ENDMDL
MODEL 6
REMARK VINA RESULT:    -5.671      2.025      2.933
REMARK INTER + INTRA:          -6.412
REMARK INTER:                  -6.334
REMARK INTRA:                  -0.078
REMARK UNBOUND:                -0.243
REMARK SMILES O=C([O-])c1ccccc1O
REMARK SMILES IDX 4 1 9 2 5 3 8 4 6 5 7 6 2 7 1 8 3 9 10 10
REMARK H PARENT 10 11
REMARK Flexibility Score: inf
ROOT
ATOM      1  C   UNL     1      11.214  36.456  22.544  1.00  0.00     0.039 A 
ATOM      2  C   UNL     1      12.195  36.270  21.535  1.00  0.00     0.124 A 
ATOM      3  C   UNL     1      11.344  37.545  23.425  1.00  0.00     0.014 A 
ATOM      4  C   UNL     1      13.299  37.130  21.475  1.00  0.00     0.047 A 
ATOM      5  C   UNL     1      12.442  38.406  23.339  1.00  0.00     0.001 A 
ATOM      6  C   UNL     1      13.422  38.192  22.372  1.00  0.00     0.004 A 
ENDROOT
BRANCH   1   7
ATOM      7  C   UNL     1      10.072  35.535  22.733  1.00  0.00     0.075 C 
ATOM      8  O   UNL     1      10.142  34.575  23.545  1.00  0.00    -0.545 OA
ATOM      9  O   UNL     1       8.876  35.763  22.062  1.00  0.00    -0.545 OA
ENDBRANCH   1   7
BRANCH   2  10
ATOM     10  O   UNL     1      12.095  35.274  20.560  1.00  0.00    -0.507 OA
ATOM     11  H   UNL     1      11.987  35.467  19.575  1.00  0.00     0.293 HD
ENDBRANCH   2  10
TORSDOF 2
ENDMDL
MODEL 7
REMARK VINA RESULT:    -5.618      2.377      3.493
REMARK INTER + INTRA:          -6.354
REMARK INTER:                  -6.120
REMARK INTRA:                  -0.234
REMARK UNBOUND:                -0.243
REMARK SMILES O=C([O-])c1ccccc1O
REMARK SMILES IDX 4 1 9 2 5 3 8 4 6 5 7 6 2 7 1 8 3 9 10 10
REMARK H PARENT 10 11
REMARK Flexibility Score: inf
ROOT
ATOM      1  C   UNL     1      10.912  34.969  23.232  1.00  0.00     0.039 A 
ATOM      2  C   UNL     1      11.962  35.407  24.081  1.00  0.00     0.124 A 
ATOM      3  C   UNL     1      10.296  33.732  23.497  1.00  0.00     0.014 A 
ATOM      4  C   UNL     1      12.405  34.578  25.119  1.00  0.00     0.047 A 
ATOM      5  C   UNL     1      10.736  32.927  24.550  1.00  0.00     0.001 A 
ATOM      6  C   UNL     1      11.795  33.345  25.353  1.00  0.00     0.004 A 
ENDROOT
BRANCH   1   7
ATOM      7  C   UNL     1      10.455  35.743  22.056  1.00  0.00     0.075 C 
ATOM      8  O   UNL     1       9.240  36.043  21.911  1.00  0.00    -0.545 OA
ATOM      9  O   UNL     1      11.379  36.209  21.129  1.00  0.00    -0.545 OA
ENDBRANCH   1   7
BRANCH   2  10
ATOM     10  O   UNL     1      12.565  36.660  23.949  1.00  0.00    -0.507 OA
ATOM     11  H   UNL     1      12.408  37.275  23.163  1.00  0.00     0.293 HD
ENDBRANCH   2  10
TORSDOF 2
ENDMDL
MODEL 8
REMARK VINA RESULT:    -5.495      1.767      3.613
REMARK INTER + INTRA:          -6.220
REMARK INTER:                  -5.999
REMARK INTRA:                  -0.220
REMARK UNBOUND:                -0.243
REMARK SMILES O=C([O-])c1ccccc1O
REMARK SMILES IDX 4 1 9 2 5 3 8 4 6 5 7 6 2 7 1 8 3 9 10 10
REMARK H PARENT 10 11
REMARK Flexibility Score: inf
ROOT
ATOM      1  C   UNL     1      12.323  36.976  22.806  1.00  0.00     0.039 A 
ATOM      2  C   UNL     1      11.368  36.250  23.565  1.00  0.00     0.124 A 
ATOM      3  C   UNL     1      13.011  36.318  21.770  1.00  0.00     0.014 A 
ATOM      4  C   UNL     1      11.177  34.885  23.314  1.00  0.00     0.047 A 
ATOM      5  C   UNL     1      12.793  34.961  21.519  1.00  0.00     0.001 A 
ATOM      6  C   UNL     1      11.885  34.244  22.296  1.00  0.00     0.004 A 
ENDROOT
BRANCH   1   7
ATOM      7  C   UNL     1      12.652  38.394  23.075  1.00  0.00     0.075 C 
ATOM      8  O   UNL     1      11.880  39.118  23.758  1.00  0.00    -0.545 OA
ATOM      9  O   UNL     1      13.858  38.924  22.633  1.00  0.00    -0.545 OA
ENDBRANCH   1   7
BRANCH   2  10
ATOM     10  O   UNL     1      10.573  36.846  24.546  1.00  0.00    -0.507 OA
ATOM     11  H   UNL     1      10.156  37.761  24.447  1.00  0.00     0.293 HD
ENDBRANCH   2  10
TORSDOF 2
ENDMDL
MODEL 9
REMARK VINA RESULT:    -5.388      1.595      2.052
REMARK INTER + INTRA:          -6.104
REMARK INTER:                  -5.859
REMARK INTRA:                  -0.245
REMARK UNBOUND:                -0.243
REMARK SMILES O=C([O-])c1ccccc1O
REMARK SMILES IDX 4 1 9 2 5 3 8 4 6 5 7 6 2 7 1 8 3 9 10 10
REMARK H PARENT 10 11
REMARK Flexibility Score: inf
ROOT
ATOM      1  C   UNL     1      11.312  34.284  24.085  1.00  0.00     0.039 A 
ATOM      2  C   UNL     1      12.313  35.136  24.623  1.00  0.00     0.124 A 
ATOM      3  C   UNL     1      10.691  34.645  22.876  1.00  0.00     0.014 A 
ATOM      4  C   UNL     1      12.615  36.342  23.979  1.00  0.00     0.047 A 
ATOM      5  C   UNL     1      11.019  35.843  22.235  1.00  0.00     0.001 A 
ATOM      6  C   UNL     1      11.972  36.694  22.791  1.00  0.00     0.004 A 
ENDROOT
BRANCH   1   7
ATOM      7  C   UNL     1      10.869  33.042  24.757  1.00  0.00     0.075 C 
ATOM      8  O   UNL     1      10.914  32.934  26.011  1.00  0.00    -0.545 OA
ATOM      9  O   UNL     1      10.328  32.002  24.010  1.00  0.00    -0.545 OA
ENDBRANCH   1   7
BRANCH   2  10
ATOM     10  O   UNL     1      13.047  34.809  25.766  1.00  0.00    -0.507 OA
ATOM     11  H   UNL     1      13.427  33.890  25.941  1.00  0.00     0.293 HD
ENDBRANCH   2  10
TORSDOF 2
ENDMDL
