MODEL 1
REMARK VINA RESULT:    -3.547      0.000      0.000
REMARK INTER + INTRA:          -4.819
REMARK INTER:                  -4.584
REMARK INTRA:                  -0.235
REMARK UNBOUND:                -0.235
REMARK SMILES CCCCCCC(=O)[O-]
REMARK SMILES IDX 5 1 6 2 7 3 8 4 9 5 4 6 3 7 2 8 1 9
REMARK H PARENT
REMARK Flexibility Score: inf
ROOT
ATOM      1  C   UNL     1       7.060   8.594   3.055  1.00  0.00     0.006 C 
ENDROOT
BRANCH   1   2
ATOM      2  C   UNL     1       8.070   9.429   2.251  1.00  0.00     0.053 C 
BRANCH   2   3
ATOM      3  C   UNL     1       9.484   9.058   2.573  1.00  0.00     0.041 C 
ATOM      4  O   UNL     1      10.090   8.201   1.876  1.00  0.00    -0.550 OA
ATOM      5  O   UNL     1      10.124   9.636   3.662  1.00  0.00    -0.550 OA
ENDBRANCH   2   3
ENDBRANCH   1   2
BRANCH   1   6
ATOM      6  C   UNL     1       5.914   9.409   3.687  1.00  0.00     0.000 C 
BRANCH   6   7
ATOM      7  C   UNL     1       4.735   9.714   2.744  1.00  0.00    -0.000 C 
BRANCH   7   8
ATOM      8  C   UNL     1       4.312   8.500   1.905  1.00  0.00    -0.003 C 
ATOM      9  C   UNL     1       4.193   8.867   0.428  1.00  0.00     0.004 C 
ENDBRANCH   7   8
ENDBRANCH   6   7
ENDBRANCH   1   6
TORSDOF 5
ENDMDL
MODEL 2
REMARK VINA RESULT:    -3.543      3.275      4.819
REMARK INTER + INTRA:          -4.814
REMARK INTER:                  -4.594
REMARK INTRA:                  -0.220
REMARK UNBOUND:                -0.235
REMARK SMILES CCCCCCC(=O)[O-]
REMARK SMILES IDX 5 1 6 2 7 3 8 4 9 5 4 6 3 7 2 8 1 9
REMARK H PARENT
REMARK Flexibility Score: inf
ROOT
ATOM      1  C   UNL     1       5.632   9.398   2.977  1.00  0.00     0.006 C 
ENDROOT
BRANCH   1   2
ATOM      2  C   UNL     1       5.286   9.638   1.499  1.00  0.00     0.053 C 
BRANCH   2   3
ATOM      3  C   UNL     1       4.160   8.764   1.039  1.00  0.00     0.041 C 
ATOM      4  O   UNL     1       3.601   7.974   1.845  1.00  0.00    -0.550 OA
ATOM      5  O   UNL     1       3.750   8.798  -0.287  1.00  0.00    -0.550 OA
ENDBRANCH   2   3
ENDBRANCH   1   2
BRANCH   1   6
ATOM      6  C   UNL     1       6.936  10.073   3.448  1.00  0.00     0.000 C 
BRANCH   6   7
ATOM      7  C   UNL     1       8.059  10.125   2.396  1.00  0.00    -0.000 C 
BRANCH   7   8
ATOM      8  C   UNL     1       9.282   9.282   2.784  1.00  0.00    -0.003 C 
ATOM      9  C   UNL     1       9.214   7.893   2.156  1.00  0.00     0.004 C 
ENDBRANCH   7   8
ENDBRANCH   6   7
ENDBRANCH   1   6
TORSDOF 5
ENDMDL
MODEL 3
REMARK VINA RESULT:    -3.354     22.906     23.678
REMARK INTER + INTRA:          -4.570
REMARK INTER:                  -4.442
REMARK INTRA:                  -0.128
REMARK UNBOUND:                -0.235
REMARK SMILES CCCCCCC(=O)[O-]
REMARK SMILES IDX 5 1 6 2 7 3 8 4 9 5 4 6 3 7 2 8 1 9
REMARK H PARENT
REMARK Flexibility Score: inf
ROOT
ATOM      1  C   UNL     1      -8.041  -8.663  -5.526  1.00  0.00     0.006 C 
ENDROOT
BRANCH   1   2
ATOM      2  C   UNL     1      -8.926  -7.410  -5.622  1.00  0.00     0.053 C 
BRANCH   2   3
ATOM      3  C   UNL     1      -8.831  -6.563  -4.390  1.00  0.00     0.041 C 
ATOM      4  O   UNL     1      -8.198  -5.474  -4.417  1.00  0.00    -0.550 OA
ATOM      5  O   UNL     1      -9.413  -6.991  -3.204  1.00  0.00    -0.550 OA
ENDBRANCH   2   3
ENDBRANCH   1   2
BRANCH   1   6
ATOM      6  C   UNL     1      -6.644  -8.416  -4.921  1.00  0.00     0.000 C 
BRANCH   6   7
ATOM      7  C   UNL     1      -5.486  -8.414  -5.936  1.00  0.00    -0.000 C 
BRANCH   7   8
ATOM      8  C   UNL     1      -5.799  -7.595  -7.197  1.00  0.00    -0.003 C 
ATOM      9  C   UNL     1      -4.564  -7.456  -8.082  1.00  0.00     0.004 C 
ENDBRANCH   7   8
ENDBRANCH   6   7
ENDBRANCH   1   6
TORSDOF 5
ENDMDL
MODEL 4
REMARK VINA RESULT:    -3.241     22.834     23.910
REMARK INTER + INTRA:          -4.424
REMARK INTER:                  -4.125
REMARK INTRA:                  -0.299
REMARK UNBOUND:                -0.235
REMARK SMILES CCCCCCC(=O)[O-]
REMARK SMILES IDX 5 1 6 2 7 3 8 4 9 5 4 6 3 7 2 8 1 9
REMARK H PARENT
REMARK Flexibility Score: inf
ROOT
ATOM      1  C   UNL     1      -6.436  -8.095  -4.822  1.00  0.00     0.006 C 
ENDROOT
BRANCH   1   2
ATOM      2  C   UNL     1      -7.920  -7.862  -5.145  1.00  0.00     0.053 C 
BRANCH   2   3
ATOM      3  C   UNL     1      -8.498  -6.738  -4.342  1.00  0.00     0.041 C 
ATOM      4  O   UNL     1      -8.115  -5.555  -4.540  1.00  0.00    -0.550 OA
ATOM      5  O   UNL     1      -9.436  -7.001  -3.351  1.00  0.00    -0.550 OA
ENDBRANCH   2   3
ENDBRANCH   1   2
BRANCH   1   6
ATOM      6  C   UNL     1      -5.478  -7.873  -6.010  1.00  0.00     0.000 C 
BRANCH   6   7
ATOM      7  C   UNL     1      -6.164  -7.740  -7.383  1.00  0.00    -0.000 C 
BRANCH   7   8
ATOM      8  C   UNL     1      -6.121  -9.040  -8.200  1.00  0.00    -0.003 C 
ATOM      9  C   UNL     1      -7.518  -9.449  -8.656  1.00  0.00     0.004 C 
ENDBRANCH   7   8
ENDBRANCH   6   7
ENDBRANCH   1   6
TORSDOF 5
ENDMDL
MODEL 5
REMARK VINA RESULT:    -3.237     23.019     24.150
REMARK INTER + INTRA:          -4.419
REMARK INTER:                  -4.019
REMARK INTRA:                  -0.399
REMARK UNBOUND:                -0.235
REMARK SMILES CCCCCCC(=O)[O-]
REMARK SMILES IDX 5 1 6 2 7 3 8 4 9 5 4 6 3 7 2 8 1 9
REMARK H PARENT
REMARK Flexibility Score: inf
ROOT
ATOM      1  C   UNL     1      -9.334  -8.116  -6.365  1.00  0.00     0.006 C 
ENDROOT
BRANCH   1   2
ATOM      2  C   UNL     1      -9.886  -6.858  -5.676  1.00  0.00     0.053 C 
BRANCH   2   3
ATOM      3  C   UNL     1      -9.126  -6.524  -4.430  1.00  0.00     0.041 C 
ATOM      4  O   UNL     1      -9.414  -7.087  -3.341  1.00  0.00    -0.550 OA
ATOM      5  O   UNL     1      -8.120  -5.567  -4.464  1.00  0.00    -0.550 OA
ENDBRANCH   2   3
ENDBRANCH   1   2
BRANCH   1   6
ATOM      6  C   UNL     1      -8.206  -7.846  -7.382  1.00  0.00     0.000 C 
BRANCH   6   7
ATOM      7  C   UNL     1      -6.873  -8.556  -7.079  1.00  0.00    -0.000 C 
BRANCH   7   8
ATOM      8  C   UNL     1      -6.009  -7.796  -6.063  1.00  0.00    -0.003 C 
ATOM      9  C   UNL     1      -6.033  -8.482  -4.700  1.00  0.00     0.004 C 
ENDBRANCH   7   8
ENDBRANCH   6   7
ENDBRANCH   1   6
TORSDOF 5
ENDMDL
MODEL 6
REMARK VINA RESULT:    -3.042     22.662     23.607
REMARK INTER + INTRA:          -4.167
REMARK INTER:                  -3.983
REMARK INTRA:                  -0.184
REMARK UNBOUND:                -0.235
REMARK SMILES CCCCCCC(=O)[O-]
REMARK SMILES IDX 5 1 6 2 7 3 8 4 9 5 4 6 3 7 2 8 1 9
REMARK H PARENT
REMARK Flexibility Score: inf
ROOT
ATOM      1  C   UNL     1      -6.631  -7.075  -5.185  1.00  0.00     0.006 C 
ENDROOT
BRANCH   1   2
ATOM      2  C   UNL     1      -5.692  -8.065  -5.891  1.00  0.00     0.053 C 
BRANCH   2   3
ATOM      3  C   UNL     1      -5.738  -7.914  -7.380  1.00  0.00     0.041 C 
ATOM      4  O   UNL     1      -5.026  -7.046  -7.952  1.00  0.00    -0.550 OA
ATOM      5  O   UNL     1      -6.590  -8.710  -8.135  1.00  0.00    -0.550 OA
ENDBRANCH   2   3
ENDBRANCH   1   2
BRANCH   1   6
ATOM      6  C   UNL     1      -8.049  -7.618  -4.913  1.00  0.00     0.000 C 
BRANCH   6   7
ATOM      7  C   UNL     1      -9.010  -6.622  -4.238  1.00  0.00    -0.000 C 
BRANCH   7   8
ATOM      8  C   UNL     1      -9.953  -5.934  -5.234  1.00  0.00    -0.003 C 
ATOM      9  C   UNL     1     -10.072  -6.738  -6.526  1.00  0.00     0.004 C 
ENDBRANCH   7   8
ENDBRANCH   6   7
ENDBRANCH   1   6
TORSDOF 5
ENDMDL
MODEL 7
REMARK VINA RESULT:    -3.019     22.706     23.304
REMARK INTER + INTRA:          -4.137
REMARK INTER:                  -3.958
REMARK INTRA:                  -0.179
REMARK UNBOUND:                -0.235
REMARK SMILES CCCCCCC(=O)[O-]
REMARK SMILES IDX 5 1 6 2 7 3 8 4 9 5 4 6 3 7 2 8 1 9
REMARK H PARENT
REMARK Flexibility Score: inf
ROOT
ATOM      1  C   UNL     1      -5.500  -7.918  -5.811  1.00  0.00     0.006 C 
ENDROOT
BRANCH   1   2
ATOM      2  C   UNL     1      -6.034  -7.608  -7.219  1.00  0.00     0.053 C 
BRANCH   2   3
ATOM      3  C   UNL     1      -4.958  -7.696  -8.257  1.00  0.00     0.041 C 
ATOM      4  O   UNL     1      -4.725  -8.790  -8.838  1.00  0.00    -0.550 OA
ATOM      5  O   UNL     1      -4.191  -6.579  -8.560  1.00  0.00    -0.550 OA
ENDBRANCH   2   3
ENDBRANCH   1   2
BRANCH   1   6
ATOM      6  C   UNL     1      -6.589  -8.254  -4.772  1.00  0.00     0.000 C 
BRANCH   6   7
ATOM      7  C   UNL     1      -8.020  -7.856  -5.177  1.00  0.00    -0.000 C 
BRANCH   7   8
ATOM      8  C   UNL     1      -8.514  -6.591  -4.459  1.00  0.00    -0.003 C 
ATOM      9  C   UNL     1      -9.734  -6.002  -5.162  1.00  0.00     0.004 C 
ENDBRANCH   7   8
ENDBRANCH   6   7
ENDBRANCH   1   6
TORSDOF 5
ENDMDL
MODEL 8
REMARK VINA RESULT:    -2.915     23.363     24.219
REMARK INTER + INTRA:          -4.002
REMARK INTER:                  -3.640
REMARK INTRA:                  -0.362
REMARK UNBOUND:                -0.235
REMARK SMILES CCCCCCC(=O)[O-]
REMARK SMILES IDX 5 1 6 2 7 3 8 4 9 5 4 6 3 7 2 8 1 9
REMARK H PARENT
REMARK Flexibility Score: inf
ROOT
ATOM      1  C   UNL     1      -7.723  -8.536  -7.512  1.00  0.00     0.006 C 
ENDROOT
BRANCH   1   2
ATOM      2  C   UNL     1      -7.406  -9.174  -6.150  1.00  0.00     0.053 C 
BRANCH   2   3
ATOM      3  C   UNL     1      -6.246  -8.507  -5.477  1.00  0.00     0.041 C 
ATOM      4  O   UNL     1      -5.471  -7.765  -6.136  1.00  0.00    -0.550 OA
ATOM      5  O   UNL     1      -6.004  -8.729  -4.127  1.00  0.00    -0.550 OA
ENDBRANCH   2   3
ENDBRANCH   1   2
BRANCH   1   6
ATOM      6  C   UNL     1      -8.956  -7.610  -7.514  1.00  0.00     0.000 C 
BRANCH   6   7
ATOM      7  C   UNL     1      -9.867  -7.736  -6.279  1.00  0.00    -0.000 C 
BRANCH   7   8
ATOM      8  C   UNL     1      -9.887  -6.465  -5.418  1.00  0.00    -0.003 C 
ATOM      9  C   UNL     1      -9.279  -6.723  -4.043  1.00  0.00     0.004 C 
ENDBRANCH   7   8
ENDBRANCH   6   7
ENDBRANCH   1   6
TORSDOF 5
ENDMDL
MODEL 9
REMARK VINA RESULT:    -2.909     23.212     24.616
REMARK INTER + INTRA:          -3.995
REMARK INTER:                  -3.614
REMARK INTRA:                  -0.381
REMARK UNBOUND:                -0.235
REMARK SMILES CCCCCCC(=O)[O-]
REMARK SMILES IDX 5 1 6 2 7 3 8 4 9 5 4 6 3 7 2 8 1 9
REMARK H PARENT
REMARK Flexibility Score: inf
ROOT
ATOM      1  C   UNL     1      -6.185  -7.842  -7.175  1.00  0.00     0.006 C 
ENDROOT
BRANCH   1   2
ATOM      2  C   UNL     1      -5.705  -8.013  -5.725  1.00  0.00     0.053 C 
BRANCH   2   3
ATOM      3  C   UNL     1      -6.777  -8.576  -4.844  1.00  0.00     0.041 C 
ATOM      4  O   UNL     1      -6.721  -9.776  -4.464  1.00  0.00    -0.550 OA
ATOM      5  O   UNL     1      -7.855  -7.785  -4.468  1.00  0.00    -0.550 OA
ENDBRANCH   2   3
ENDBRANCH   1   2
BRANCH   1   6
ATOM      6  C   UNL     1      -6.753  -9.123  -7.818  1.00  0.00     0.000 C 
BRANCH   6   7
ATOM      7  C   UNL     1      -8.128  -8.960  -8.490  1.00  0.00    -0.000 C 
BRANCH   7   8
ATOM      8  C   UNL     1      -8.981  -7.857  -7.847  1.00  0.00    -0.003 C 
ATOM      9  C   UNL     1     -10.125  -8.451  -7.031  1.00  0.00     0.004 C 
ENDBRANCH   7   8
ENDBRANCH   6   7
ENDBRANCH   1   6
TORSDOF 5
ENDMDL
