MODEL 1
REMARK VINA RESULT:    -5.920      0.000      0.000
REMARK INTER + INTRA:          -6.093
REMARK INTER:                  -6.093
REMARK INTRA:                   0.000
REMARK UNBOUND:                 0.000
REMARK SMILES O=c1ccc2ccc(O)cc2o1
REMARK SMILES IDX 6 1 7 2 8 3 10 4 11 5 5 6 4 7 3 8 2 9 1 10 12 11 9 12
REMARK H PARENT 9 13
REMARK Flexibility Score: inf
ROOT
ATOM      1  C   UNL     1      29.646  24.124  49.325  1.00  0.00     0.016 A 
ATOM      2  C   UNL     1      28.948  23.848  50.504  1.00  0.00     0.047 A 
ATOM      3  C   UNL     1      27.548  23.808  50.505  1.00  0.00     0.119 A 
ATOM      4  C   UNL     1      26.841  24.047  49.317  1.00  0.00     0.094 A 
ATOM      5  C   UNL     1      27.531  24.325  48.133  1.00  0.00     0.142 A 
ATOM      6  C   UNL     1      28.943  24.364  48.136  1.00  0.00     0.018 A 
ATOM      7  C   UNL     1      29.605  24.643  46.936  1.00  0.00     0.019 A 
ATOM      8  C   UNL     1      28.859  24.874  45.781  1.00  0.00     0.094 A 
ATOM      9  C   UNL     1      27.462  24.820  45.853  1.00  0.00     0.336 A 
ATOM     10  O   UNL     1      26.772  25.025  44.821  1.00  0.00    -0.246 OA
ATOM     11  O   UNL     1      26.858  24.551  47.007  1.00  0.00    -0.423 OA
ENDROOT
BRANCH   3  12
ATOM     12  O   UNL     1      26.871  23.531  51.690  1.00  0.00    -0.508 OA
ATOM     13  H   UNL     1      26.213  22.763  51.757  1.00  0.00     0.293 HD
ENDBRANCH   3  12
TORSDOF 1
ENDMDL
MODEL 2
REMARK VINA RESULT:    -5.899      1.301      4.267
REMARK INTER + INTRA:          -6.071
REMARK INTER:                  -6.071
REMARK INTRA:                   0.000
REMARK UNBOUND:                 0.000
REMARK SMILES O=c1ccc2ccc(O)cc2o1
REMARK SMILES IDX 6 1 7 2 8 3 10 4 11 5 5 6 4 7 3 8 2 9 1 10 12 11 9 12
REMARK H PARENT 9 13
REMARK Flexibility Score: inf
ROOT
ATOM      1  C   UNL     1      29.561  24.582  47.265  1.00  0.00     0.016 A 
ATOM      2  C   UNL     1      29.107  24.976  46.002  1.00  0.00     0.047 A 
ATOM      3  C   UNL     1      27.820  24.630  45.573  1.00  0.00     0.119 A 
ATOM      4  C   UNL     1      26.979  23.885  46.412  1.00  0.00     0.094 A 
ATOM      5  C   UNL     1      27.424  23.485  47.676  1.00  0.00     0.142 A 
ATOM      6  C   UNL     1      28.723  23.836  48.106  1.00  0.00     0.018 A 
ATOM      7  C   UNL     1      29.140  23.423  49.376  1.00  0.00     0.019 A 
ATOM      8  C   UNL     1      28.268  22.682  50.174  1.00  0.00     0.094 A 
ATOM      9  C   UNL     1      26.996  22.372  49.682  1.00  0.00     0.336 A 
ATOM     10  O   UNL     1      26.195  21.705  50.389  1.00  0.00    -0.246 OA
ATOM     11  O   UNL     1      26.624  22.778  48.471  1.00  0.00    -0.423 OA
ENDROOT
BRANCH   3  12
ATOM     12  O   UNL     1      27.387  25.033  44.311  1.00  0.00    -0.508 OA
ATOM     13  H   UNL     1      28.038  25.165  43.546  1.00  0.00     0.293 HD
ENDBRANCH   3  12
TORSDOF 1
ENDMDL
MODEL 3
REMARK VINA RESULT:    -5.888      1.456      1.747
REMARK INTER + INTRA:          -6.060
REMARK INTER:                  -6.060
REMARK INTRA:                   0.000
REMARK UNBOUND:                 0.000
REMARK SMILES O=c1ccc2ccc(O)cc2o1
REMARK SMILES IDX 6 1 7 2 8 3 10 4 11 5 5 6 4 7 3 8 2 9 1 10 12 11 9 12
REMARK H PARENT 9 13
REMARK Flexibility Score: inf
ROOT
ATOM      1  C   UNL     1      28.760  24.240  50.819  1.00  0.00     0.016 A 
ATOM      2  C   UNL     1      28.297  23.380  51.820  1.00  0.00     0.047 A 
ATOM      3  C   UNL     1      27.353  22.390  51.521  1.00  0.00     0.119 A 
ATOM      4  C   UNL     1      26.866  22.260  50.212  1.00  0.00     0.094 A 
ATOM      5  C   UNL     1      27.323  23.117  49.205  1.00  0.00     0.142 A 
ATOM      6  C   UNL     1      28.276  24.113  49.510  1.00  0.00     0.018 A 
ATOM      7  C   UNL     1      28.714  24.954  48.482  1.00  0.00     0.019 A 
ATOM      8  C   UNL     1      28.200  24.786  47.196  1.00  0.00     0.094 A 
ATOM      9  C   UNL     1      27.258  23.777  46.968  1.00  0.00     0.336 A 
ATOM     10  O   UNL     1      26.784  23.610  45.813  1.00  0.00    -0.246 OA
ATOM     11  O   UNL     1      26.860  22.991  47.963  1.00  0.00    -0.423 OA
ENDROOT
BRANCH   3  12
ATOM     12  O   UNL     1      26.905  21.543  52.532  1.00  0.00    -0.508 OA
ATOM     13  H   UNL     1      27.118  21.722  53.506  1.00  0.00     0.293 HD
ENDBRANCH   3  12
TORSDOF 1
ENDMDL
MODEL 4
REMARK VINA RESULT:    -5.797      2.041      2.664
REMARK INTER + INTRA:          -5.966
REMARK INTER:                  -5.966
REMARK INTRA:                   0.000
REMARK UNBOUND:                 0.000
REMARK SMILES O=c1ccc2ccc(O)cc2o1
REMARK SMILES IDX 6 1 7 2 8 3 10 4 11 5 5 6 4 7 3 8 2 9 1 10 12 11 9 12
REMARK H PARENT 9 13
REMARK Flexibility Score: inf
ROOT
ATOM      1  C   UNL     1      26.633  22.788  49.094  1.00  0.00     0.016 A 
ATOM      2  C   UNL     1      27.017  22.022  50.199  1.00  0.00     0.047 A 
ATOM      3  C   UNL     1      28.369  21.901  50.541  1.00  0.00     0.119 A 
ATOM      4  C   UNL     1      29.346  22.550  49.772  1.00  0.00     0.094 A 
ATOM      5  C   UNL     1      28.972  23.318  48.664  1.00  0.00     0.142 A 
ATOM      6  C   UNL     1      27.607  23.438  48.323  1.00  0.00     0.018 A 
ATOM      7  C   UNL     1      27.263  24.213  47.210  1.00  0.00     0.019 A 
ATOM      8  C   UNL     1      28.270  24.840  46.477  1.00  0.00     0.094 A 
ATOM      9  C   UNL     1      29.602  24.676  46.874  1.00  0.00     0.336 A 
ATOM     10  O   UNL     1      30.524  25.235  46.224  1.00  0.00    -0.246 OA
ATOM     11  O   UNL     1      29.901  23.934  47.937  1.00  0.00    -0.423 OA
ENDROOT
BRANCH   3  12
ATOM     12  O   UNL     1      28.731  21.133  51.646  1.00  0.00    -0.508 OA
ATOM     13  H   UNL     1      28.107  20.434  52.032  1.00  0.00     0.293 HD
ENDBRANCH   3  12
TORSDOF 1
ENDMDL
MODEL 5
REMARK VINA RESULT:    -5.577      2.004      2.390
REMARK INTER + INTRA:          -5.740
REMARK INTER:                  -5.740
REMARK INTRA:                   0.000
REMARK UNBOUND:                 0.000
REMARK SMILES O=c1ccc2ccc(O)cc2o1
REMARK SMILES IDX 6 1 7 2 8 3 10 4 11 5 5 6 4 7 3 8 2 9 1 10 12 11 9 12
REMARK H PARENT 9 13
REMARK Flexibility Score: inf
ROOT
ATOM      1  C   UNL     1      29.321  22.423  49.405  1.00  0.00     0.016 A 
ATOM      2  C   UNL     1      27.974  22.444  49.778  1.00  0.00     0.047 A 
ATOM      3  C   UNL     1      27.067  23.274  49.106  1.00  0.00     0.119 A 
ATOM      4  C   UNL     1      27.511  24.089  48.055  1.00  0.00     0.094 A 
ATOM      5  C   UNL     1      28.857  24.075  47.675  1.00  0.00     0.142 A 
ATOM      6  C   UNL     1      29.768  23.236  48.354  1.00  0.00     0.018 A 
ATOM      7  C   UNL     1      31.108  23.243  47.952  1.00  0.00     0.019 A 
ATOM      8  C   UNL     1      31.502  24.071  46.901  1.00  0.00     0.094 A 
ATOM      9  C   UNL     1      30.543  24.875  46.275  1.00  0.00     0.336 A 
ATOM     10  O   UNL     1      30.880  25.628  45.324  1.00  0.00    -0.246 OA
ATOM     11  O   UNL     1      29.276  24.849  46.676  1.00  0.00    -0.423 OA
ENDROOT
BRANCH   3  12
ATOM     12  O   UNL     1      25.729  23.280  49.492  1.00  0.00    -0.508 OA
ATOM     13  H   UNL     1      25.384  22.661  50.216  1.00  0.00     0.293 HD
ENDBRANCH   3  12
TORSDOF 1
ENDMDL
MODEL 6
REMARK VINA RESULT:    -5.449      2.065      4.782
REMARK INTER + INTRA:          -5.608
REMARK INTER:                  -5.608
REMARK INTRA:                   0.000
REMARK UNBOUND:                 0.000
REMARK SMILES O=c1ccc2ccc(O)cc2o1
REMARK SMILES IDX 6 1 7 2 8 3 10 4 11 5 5 6 4 7 3 8 2 9 1 10 12 11 9 12
REMARK H PARENT 9 13
REMARK Flexibility Score: inf
ROOT
ATOM      1  C   UNL     1      27.179  24.244  47.380  1.00  0.00     0.016 A 
ATOM      2  C   UNL     1      28.164  24.818  46.571  1.00  0.00     0.047 A 
ATOM      3  C   UNL     1      29.520  24.644  46.875  1.00  0.00     0.119 A 
ATOM      4  C   UNL     1      29.894  23.892  47.998  1.00  0.00     0.094 A 
ATOM      5  C   UNL     1      28.915  23.315  48.814  1.00  0.00     0.142 A 
ATOM      6  C   UNL     1      27.549  23.492  48.504  1.00  0.00     0.018 A 
ATOM      7  C   UNL     1      26.593  22.902  49.337  1.00  0.00     0.019 A 
ATOM      8  C   UNL     1      27.014  22.163  50.443  1.00  0.00     0.094 A 
ATOM      9  C   UNL     1      28.385  22.030  50.689  1.00  0.00     0.336 A 
ATOM     10  O   UNL     1      28.783  21.366  51.682  1.00  0.00    -0.246 OA
ATOM     11  O   UNL     1      29.273  22.600  49.879  1.00  0.00    -0.423 OA
ENDROOT
BRANCH   3  12
ATOM     12  O   UNL     1      30.486  25.224  46.056  1.00  0.00    -0.508 OA
ATOM     13  H   UNL     1      31.476  25.077  46.220  1.00  0.00     0.293 HD
ENDBRANCH   3  12
TORSDOF 1
ENDMDL
MODEL 7
REMARK VINA RESULT:    -5.317      1.386      4.583
REMARK INTER + INTRA:          -5.473
REMARK INTER:                  -5.473
REMARK INTRA:                   0.000
REMARK UNBOUND:                 0.000
REMARK SMILES O=c1ccc2ccc(O)cc2o1
REMARK SMILES IDX 6 1 7 2 8 3 10 4 11 5 5 6 4 7 3 8 2 9 1 10 12 11 9 12
REMARK H PARENT 9 13
REMARK Flexibility Score: inf
ROOT
ATOM      1  C   UNL     1      28.742  25.041  48.520  1.00  0.00     0.016 A 
ATOM      2  C   UNL     1      28.175  24.774  47.270  1.00  0.00     0.047 A 
ATOM      3  C   UNL     1      27.266  23.719  47.116  1.00  0.00     0.119 A 
ATOM      4  C   UNL     1      26.923  22.925  48.219  1.00  0.00     0.094 A 
ATOM      5  C   UNL     1      27.486  23.183  49.473  1.00  0.00     0.142 A 
ATOM      6  C   UNL     1      28.401  24.248  49.625  1.00  0.00     0.018 A 
ATOM      7  C   UNL     1      28.947  24.483  50.891  1.00  0.00     0.019 A 
ATOM      8  C   UNL     1      28.575  23.666  51.958  1.00  0.00     0.094 A 
ATOM      9  C   UNL     1      27.663  22.629  51.733  1.00  0.00     0.336 A 
ATOM     10  O   UNL     1      27.315  21.881  52.684  1.00  0.00    -0.246 OA
ATOM     11  O   UNL     1      27.158  22.428  50.519  1.00  0.00    -0.423 OA
ENDROOT
BRANCH   3  12
ATOM     12  O   UNL     1      26.712  23.470  45.862  1.00  0.00    -0.508 OA
ATOM     13  H   UNL     1      25.738  23.211  45.756  1.00  0.00     0.293 HD
ENDBRANCH   3  12
TORSDOF 1
ENDMDL
MODEL 8
REMARK VINA RESULT:    -5.248      2.384      5.252
REMARK INTER + INTRA:          -5.401
REMARK INTER:                  -5.401
REMARK INTRA:                   0.000
REMARK UNBOUND:                 0.000
REMARK SMILES O=c1ccc2ccc(O)cc2o1
REMARK SMILES IDX 6 1 7 2 8 3 10 4 11 5 5 6 4 7 3 8 2 9 1 10 12 11 9 12
REMARK H PARENT 9 13
REMARK Flexibility Score: inf
ROOT
ATOM      1  C   UNL     1      27.001  22.147  50.572  1.00  0.00     0.016 A 
ATOM      2  C   UNL     1      26.486  22.941  49.542  1.00  0.00     0.047 A 
ATOM      3  C   UNL     1      27.177  24.082  49.115  1.00  0.00     0.119 A 
ATOM      4  C   UNL     1      28.391  24.432  49.722  1.00  0.00     0.094 A 
ATOM      5  C   UNL     1      28.914  23.645  50.754  1.00  0.00     0.142 A 
ATOM      6  C   UNL     1      28.215  22.496  51.182  1.00  0.00     0.018 A 
ATOM      7  C   UNL     1      28.762  21.728  52.214  1.00  0.00     0.019 A 
ATOM      8  C   UNL     1      29.972  22.117  52.788  1.00  0.00     0.094 A 
ATOM      9  C   UNL     1      30.609  23.269  52.312  1.00  0.00     0.336 A 
ATOM     10  O   UNL     1      31.703  23.635  52.817  1.00  0.00    -0.246 OA
ATOM     11  O   UNL     1      30.067  23.980  51.328  1.00  0.00    -0.423 OA
ENDROOT
BRANCH   3  12
ATOM     12  O   UNL     1      26.647  24.859  48.087  1.00  0.00    -0.508 OA
ATOM     13  H   UNL     1      26.169  24.438  47.298  1.00  0.00     0.293 HD
ENDBRANCH   3  12
TORSDOF 1
ENDMDL
MODEL 9
REMARK VINA RESULT:    -5.239      1.592      4.869
REMARK INTER + INTRA:          -5.393
REMARK INTER:                  -5.393
REMARK INTRA:                   0.000
REMARK UNBOUND:                 0.000
REMARK SMILES O=c1ccc2ccc(O)cc2o1
REMARK SMILES IDX 6 1 7 2 8 3 10 4 11 5 5 6 4 7 3 8 2 9 1 10 12 11 9 12
REMARK H PARENT 9 13
REMARK Flexibility Score: inf
ROOT
ATOM      1  C   UNL     1      29.757  23.328  48.854  1.00  0.00     0.016 A 
ATOM      2  C   UNL     1      28.925  23.995  47.949  1.00  0.00     0.047 A 
ATOM      3  C   UNL     1      27.580  24.226  48.262  1.00  0.00     0.119 A 
ATOM      4  C   UNL     1      27.062  23.786  49.489  1.00  0.00     0.094 A 
ATOM      5  C   UNL     1      27.886  23.117  50.400  1.00  0.00     0.142 A 
ATOM      6  C   UNL     1      29.242  22.887  50.081  1.00  0.00     0.018 A 
ATOM      7  C   UNL     1      30.041  22.216  51.012  1.00  0.00     0.019 A 
ATOM      8  C   UNL     1      29.480  21.797  52.218  1.00  0.00     0.094 A 
ATOM      9  C   UNL     1      28.129  22.060  52.466  1.00  0.00     0.336 A 
ATOM     10  O   UNL     1      27.605  21.690  53.550  1.00  0.00    -0.246 OA
ATOM     11  O   UNL     1      27.391  22.701  51.564  1.00  0.00    -0.423 OA
ENDROOT
BRANCH   3  12
ATOM     12  O   UNL     1      26.768  24.893  47.347  1.00  0.00    -0.508 OA
ATOM     13  H   UNL     1      25.760  24.795  47.365  1.00  0.00     0.293 HD
ENDBRANCH   3  12
TORSDOF 1
ENDMDL
