MODEL 1
REMARK VINA RESULT:    -4.982      0.000      0.000
REMARK INTER + INTRA:          -9.787
REMARK INTER:                  -8.769
REMARK INTRA:                  -1.018
REMARK UNBOUND:                -1.018
REMARK SMILES CCCCCCCCCCCCCCC(=O)[O-]
REMARK SMILES IDX 9 1 10 2 11 3 12 4 13 5 14 6 15 7 16 8 17 9 8 10 7 11 6 12
REMARK SMILES IDX 5 13 4 14 3 15 2 16 1 17
REMARK H PARENT
REMARK Flexibility Score: inf
ROOT
ATOM      1  C   UNL     1       0.831   6.337  16.900  1.00  0.00     0.000 C 
ENDROOT
BRANCH   1   2
ATOM      2  C   UNL     1       0.939   7.872  16.834  1.00  0.00     0.000 C 
BRANCH   2   3
ATOM      3  C   UNL     1       1.500   8.549  18.099  1.00  0.00     0.000 C 
BRANCH   3   4
ATOM      4  C   UNL     1       0.521   8.506  19.286  1.00  0.00     0.000 C 
BRANCH   4   5
ATOM      5  C   UNL     1       0.992   7.564  20.406  1.00  0.00     0.006 C 
BRANCH   5   6
ATOM      6  C   UNL     1      -0.165   6.796  21.059  1.00  0.00     0.053 C 
BRANCH   6   7
ATOM      7  C   UNL     1       0.057   6.681  22.535  1.00  0.00     0.041 C 
ATOM      8  O   UNL     1       1.225   6.560  22.992  1.00  0.00    -0.550 OA
ATOM      9  O   UNL     1      -1.020   6.759  23.408  1.00  0.00    -0.550 OA
ENDBRANCH   6   7
ENDBRANCH   5   6
ENDBRANCH   4   5
ENDBRANCH   3   4
ENDBRANCH   2   3
ENDBRANCH   1   2
BRANCH   1  10
ATOM     10  C   UNL     1      -0.582   5.851  17.269  1.00  0.00     0.000 C 
BRANCH  10  11
ATOM     11  C   UNL     1      -0.789   4.355  16.988  1.00  0.00    -0.000 C 
BRANCH  11  12
ATOM     12  C   UNL     1      -1.624   4.090  15.726  1.00  0.00    -0.000 C 
BRANCH  12  13
ATOM     13  C   UNL     1      -2.701   3.027  15.994  1.00  0.00    -0.000 C 
BRANCH  13  14
ATOM     14  C   UNL     1      -4.118   3.522  15.664  1.00  0.00    -0.000 C 
BRANCH  14  15
ATOM     15  C   UNL     1      -4.998   3.677  16.914  1.00  0.00    -0.000 C 
BRANCH  15  16
ATOM     16  C   UNL     1      -5.415   5.139  17.115  1.00  0.00    -0.003 C 
ATOM     17  C   UNL     1      -4.853   6.030  16.011  1.00  0.00     0.004 C 
ENDBRANCH  15  16
ENDBRANCH  14  15
ENDBRANCH  13  14
ENDBRANCH  12  13
ENDBRANCH  11  12
ENDBRANCH  10  11
ENDBRANCH   1  10
TORSDOF 13
ENDMDL
MODEL 2
REMARK VINA RESULT:    -4.942      1.193      2.114
REMARK INTER + INTRA:          -9.717
REMARK INTER:                  -8.896
REMARK INTRA:                  -0.821
REMARK UNBOUND:                -1.018
REMARK SMILES CCCCCCCCCCCCCCC(=O)[O-]
REMARK SMILES IDX 9 1 10 2 11 3 12 4 13 5 14 6 15 7 16 8 17 9 8 10 7 11 6 12
REMARK SMILES IDX 5 13 4 14 3 15 2 16 1 17
REMARK H PARENT
REMARK Flexibility Score: inf
ROOT
ATOM      1  C   UNL     1      -1.429   4.912  16.526  1.00  0.00     0.000 C 
ENDROOT
BRANCH   1   2
ATOM      2  C   UNL     1      -0.111   5.574  16.971  1.00  0.00     0.000 C 
BRANCH   2   3
ATOM      3  C   UNL     1      -0.108   6.139  18.404  1.00  0.00     0.000 C 
BRANCH   3   4
ATOM      4  C   UNL     1       0.574   7.514  18.503  1.00  0.00     0.000 C 
BRANCH   4   5
ATOM      5  C   UNL     1       0.660   8.028  19.949  1.00  0.00     0.006 C 
BRANCH   5   6
ATOM      6  C   UNL     1       0.012   7.070  20.959  1.00  0.00     0.053 C 
BRANCH   6   7
ATOM      7  C   UNL     1       0.960   6.776  22.078  1.00  0.00     0.041 C 
ATOM      8  O   UNL     1       2.189   7.023  21.948  1.00  0.00    -0.550 OA
ATOM      9  O   UNL     1       0.481   6.279  23.283  1.00  0.00    -0.550 OA
ENDBRANCH   6   7
ENDBRANCH   5   6
ENDBRANCH   4   5
ENDBRANCH   3   4
ENDBRANCH   2   3
ENDBRANCH   1   2
BRANCH   1  10
ATOM     10  C   UNL     1      -1.390   3.377  16.622  1.00  0.00     0.000 C 
BRANCH  10  11
ATOM     11  C   UNL     1      -2.789   2.742  16.588  1.00  0.00    -0.000 C 
BRANCH  11  12
ATOM     12  C   UNL     1      -3.770   3.497  15.679  1.00  0.00    -0.000 C 
BRANCH  12  13
ATOM     13  C   UNL     1      -5.219   3.295  16.150  1.00  0.00    -0.000 C 
BRANCH  13  14
ATOM     14  C   UNL     1      -5.998   4.616  16.255  1.00  0.00    -0.000 C 
BRANCH  14  15
ATOM     15  C   UNL     1      -5.265   5.672  17.094  1.00  0.00    -0.000 C 
BRANCH  15  16
ATOM     16  C   UNL     1      -5.993   7.020  17.038  1.00  0.00    -0.003 C 
ATOM     17  C   UNL     1      -7.402   6.864  16.473  1.00  0.00     0.004 C 
ENDBRANCH  15  16
ENDBRANCH  14  15
ENDBRANCH  13  14
ENDBRANCH  12  13
ENDBRANCH  11  12
ENDBRANCH  10  11
ENDBRANCH   1  10
TORSDOF 13
ENDMDL
MODEL 3
REMARK VINA RESULT:    -4.783      1.685      3.553
REMARK INTER + INTRA:          -9.436
REMARK INTER:                  -8.316
REMARK INTRA:                  -1.120
REMARK UNBOUND:                -1.018
REMARK SMILES CCCCCCCCCCCCCCC(=O)[O-]
REMARK SMILES IDX 9 1 10 2 11 3 12 4 13 5 14 6 15 7 16 8 17 9 8 10 7 11 6 12
REMARK SMILES IDX 5 13 4 14 3 15 2 16 1 17
REMARK H PARENT
REMARK Flexibility Score: inf
ROOT
ATOM      1  C   UNL     1      -2.651   3.764  15.496  1.00  0.00     0.000 C 
ENDROOT
BRANCH   1   2
ATOM      2  C   UNL     1      -2.053   5.091  16.001  1.00  0.00     0.000 C 
BRANCH   2   3
ATOM      3  C   UNL     1      -0.601   5.008  16.510  1.00  0.00     0.000 C 
BRANCH   3   4
ATOM      4  C   UNL     1      -0.495   5.114  18.041  1.00  0.00     0.000 C 
BRANCH   4   5
ATOM      5  C   UNL     1       0.059   6.471  18.502  1.00  0.00     0.006 C 
BRANCH   5   6
ATOM      6  C   UNL     1      -0.072   6.681  20.017  1.00  0.00     0.053 C 
BRANCH   6   7
ATOM      7  C   UNL     1       1.077   7.491  20.529  1.00  0.00     0.041 C 
ATOM      8  O   UNL     1       1.384   8.579  19.972  1.00  0.00    -0.550 OA
ATOM      9  O   UNL     1       1.778   7.071  21.652  1.00  0.00    -0.550 OA
ENDBRANCH   6   7
ENDBRANCH   5   6
ENDBRANCH   4   5
ENDBRANCH   3   4
ENDBRANCH   2   3
ENDBRANCH   1   2
BRANCH   1  10
ATOM     10  C   UNL     1      -3.425   3.003  16.587  1.00  0.00     0.000 C 
BRANCH  10  11
ATOM     11  C   UNL     1      -4.946   3.194  16.482  1.00  0.00    -0.000 C 
BRANCH  11  12
ATOM     12  C   UNL     1      -5.398   3.660  15.090  1.00  0.00    -0.000 C 
BRANCH  12  13
ATOM     13  C   UNL     1      -6.280   4.914  15.192  1.00  0.00    -0.000 C 
BRANCH  13  14
ATOM     14  C   UNL     1      -5.471   6.218  15.095  1.00  0.00    -0.000 C 
BRANCH  14  15
ATOM     15  C   UNL     1      -5.874   7.247  16.161  1.00  0.00    -0.000 C 
BRANCH  15  16
ATOM     16  C   UNL     1      -6.292   6.553  17.463  1.00  0.00    -0.003 C 
ATOM     17  C   UNL     1      -6.926   7.542  18.437  1.00  0.00     0.004 C 
ENDBRANCH  15  16
ENDBRANCH  14  15
ENDBRANCH  13  14
ENDBRANCH  12  13
ENDBRANCH  11  12
ENDBRANCH  10  11
ENDBRANCH   1  10
TORSDOF 13
ENDMDL
MODEL 4
REMARK VINA RESULT:    -4.688      3.551      7.223
REMARK INTER + INTRA:          -9.268
REMARK INTER:                  -8.412
REMARK INTRA:                  -0.857
REMARK UNBOUND:                -1.018
REMARK SMILES CCCCCCCCCCCCCCC(=O)[O-]
REMARK SMILES IDX 9 1 10 2 11 3 12 4 13 5 14 6 15 7 16 8 17 9 8 10 7 11 6 12
REMARK SMILES IDX 5 13 4 14 3 15 2 16 1 17
REMARK H PARENT
REMARK Flexibility Score: inf
ROOT
ATOM      1  C   UNL     1      -1.688   4.147  16.491  1.00  0.00     0.000 C 
ENDROOT
BRANCH   1   2
ATOM      2  C   UNL     1      -2.076   5.276  15.519  1.00  0.00     0.000 C 
BRANCH   2   3
ATOM      3  C   UNL     1      -3.579   5.609  15.461  1.00  0.00     0.000 C 
BRANCH   3   4
ATOM      4  C   UNL     1      -4.370   5.015  16.640  1.00  0.00     0.000 C 
BRANCH   4   5
ATOM      5  C   UNL     1      -5.871   4.884  16.338  1.00  0.00     0.006 C 
BRANCH   5   6
ATOM      6  C   UNL     1      -6.443   6.117  15.626  1.00  0.00     0.053 C 
BRANCH   6   7
ATOM      7  C   UNL     1      -7.501   6.758  16.468  1.00  0.00     0.041 C 
ATOM      8  O   UNL     1      -7.203   7.261  17.584  1.00  0.00    -0.550 OA
ATOM      9  O   UNL     1      -8.805   6.846  15.999  1.00  0.00    -0.550 OA
ENDBRANCH   6   7
ENDBRANCH   5   6
ENDBRANCH   4   5
ENDBRANCH   3   4
ENDBRANCH   2   3
ENDBRANCH   1   2
BRANCH   1  10
ATOM     10  C   UNL     1      -0.550   4.545  17.448  1.00  0.00     0.000 C 
BRANCH  10  11
ATOM     11  C   UNL     1       0.208   5.798  16.983  1.00  0.00    -0.000 C 
BRANCH  11  12
ATOM     12  C   UNL     1       0.186   6.932  18.019  1.00  0.00    -0.000 C 
BRANCH  12  13
ATOM     13  C   UNL     1      -0.157   6.392  19.415  1.00  0.00    -0.000 C 
BRANCH  13  14
ATOM     14  C   UNL     1       0.233   7.365  20.540  1.00  0.00    -0.000 C 
BRANCH  14  15
ATOM     15  C   UNL     1       1.364   6.824  21.427  1.00  0.00    -0.000 C 
BRANCH  15  16
ATOM     16  C   UNL     1       0.928   6.759  22.895  1.00  0.00    -0.003 C 
ATOM     17  C   UNL     1      -0.575   6.526  23.016  1.00  0.00     0.004 C 
ENDBRANCH  15  16
ENDBRANCH  14  15
ENDBRANCH  13  14
ENDBRANCH  12  13
ENDBRANCH  11  12
ENDBRANCH  10  11
ENDBRANCH   1  10
TORSDOF 13
ENDMDL
MODEL 5
REMARK VINA RESULT:    -4.660      4.007      7.676
REMARK INTER + INTRA:          -9.219
REMARK INTER:                  -8.430
REMARK INTRA:                  -0.790
REMARK UNBOUND:                -1.018
REMARK SMILES CCCCCCCCCCCCCCC(=O)[O-]
REMARK SMILES IDX 9 1 10 2 11 3 12 4 13 5 14 6 15 7 16 8 17 9 8 10 7 11 6 12
REMARK SMILES IDX 5 13 4 14 3 15 2 16 1 17
REMARK H PARENT
REMARK Flexibility Score: inf
ROOT
ATOM      1  C   UNL     1      -1.129   5.266  16.866  1.00  0.00     0.000 C 
ENDROOT
BRANCH   1   2
ATOM      2  C   UNL     1      -1.250   3.754  16.602  1.00  0.00     0.000 C 
BRANCH   2   3
ATOM      3  C   UNL     1      -2.500   3.321  15.813  1.00  0.00     0.000 C 
BRANCH   3   4
ATOM      4  C   UNL     1      -3.806   3.521  16.600  1.00  0.00     0.000 C 
BRANCH   4   5
ATOM      5  C   UNL     1      -5.047   3.085  15.807  1.00  0.00     0.006 C 
BRANCH   5   6
ATOM      6  C   UNL     1      -5.254   3.909  14.528  1.00  0.00     0.053 C 
BRANCH   6   7
ATOM      7  C   UNL     1      -6.676   4.367  14.431  1.00  0.00     0.041 C 
ATOM      8  O   UNL     1      -7.189   5.040  15.365  1.00  0.00    -0.550 OA
ATOM      9  O   UNL     1      -7.417   4.097  13.288  1.00  0.00    -0.550 OA
ENDBRANCH   6   7
ENDBRANCH   5   6
ENDBRANCH   4   5
ENDBRANCH   3   4
ENDBRANCH   2   3
ENDBRANCH   1   2
BRANCH   1  10
ATOM     10  C   UNL     1       0.222   5.659  17.489  1.00  0.00     0.000 C 
BRANCH  10  11
ATOM     11  C   UNL     1       0.980   6.705  16.656  1.00  0.00    -0.000 C 
BRANCH  11  12
ATOM     12  C   UNL     1       0.731   8.145  17.129  1.00  0.00    -0.000 C 
BRANCH  12  13
ATOM     13  C   UNL     1       1.563   8.461  18.382  1.00  0.00    -0.000 C 
BRANCH  13  14
ATOM     14  C   UNL     1       0.709   8.539  19.657  1.00  0.00    -0.000 C 
BRANCH  14  15
ATOM     15  C   UNL     1       1.019   7.408  20.649  1.00  0.00    -0.000 C 
BRANCH  15  16
ATOM     16  C   UNL     1      -0.262   6.675  21.063  1.00  0.00    -0.003 C 
ATOM     17  C   UNL     1      -0.428   6.665  22.580  1.00  0.00     0.004 C 
ENDBRANCH  15  16
ENDBRANCH  14  15
ENDBRANCH  13  14
ENDBRANCH  12  13
ENDBRANCH  11  12
ENDBRANCH  10  11
ENDBRANCH   1  10
TORSDOF 13
ENDMDL
MODEL 6
REMARK VINA RESULT:    -4.566      4.829      6.585
REMARK INTER + INTRA:          -9.055
REMARK INTER:                  -6.696
REMARK INTRA:                  -2.359
REMARK UNBOUND:                -1.018
REMARK SMILES CCCCCCCCCCCCCCC(=O)[O-]
REMARK SMILES IDX 9 1 10 2 11 3 12 4 13 5 14 6 15 7 16 8 17 9 8 10 7 11 6 12
REMARK SMILES IDX 5 13 4 14 3 15 2 16 1 17
REMARK H PARENT
REMARK Flexibility Score: inf
ROOT
ATOM      1  C   UNL     1      -6.071   7.333  15.784  1.00  0.00     0.000 C 
ENDROOT
BRANCH   1   2
ATOM      2  C   UNL     1      -5.955   6.389  16.996  1.00  0.00     0.000 C 
BRANCH   2   3
ATOM      3  C   UNL     1      -4.869   5.303  16.883  1.00  0.00     0.000 C 
BRANCH   3   4
ATOM      4  C   UNL     1      -3.979   5.472  15.640  1.00  0.00     0.000 C 
BRANCH   4   5
ATOM      5  C   UNL     1      -3.345   4.149  15.183  1.00  0.00     0.006 C 
BRANCH   5   6
ATOM      6  C   UNL     1      -3.216   3.128  16.321  1.00  0.00     0.053 C 
BRANCH   6   7
ATOM      7  C   UNL     1      -1.782   2.976  16.722  1.00  0.00     0.041 C 
ATOM      8  O   UNL     1      -1.390   1.918  17.281  1.00  0.00    -0.550 OA
ATOM      9  O   UNL     1      -0.869   3.982  16.432  1.00  0.00    -0.550 OA
ENDBRANCH   6   7
ENDBRANCH   5   6
ENDBRANCH   4   5
ENDBRANCH   3   4
ENDBRANCH   2   3
ENDBRANCH   1   2
BRANCH   1  10
ATOM     10  C   UNL     1      -7.482   7.349  15.171  1.00  0.00     0.000 C 
BRANCH  10  11
ATOM     11  C   UNL     1      -8.169   5.975  15.221  1.00  0.00    -0.000 C 
BRANCH  11  12
ATOM     12  C   UNL     1      -8.070   5.206  13.895  1.00  0.00    -0.000 C 
BRANCH  12  13
ATOM     13  C   UNL     1      -6.983   4.123  13.969  1.00  0.00    -0.000 C 
BRANCH  13  14
ATOM     14  C   UNL     1      -6.043   4.140  12.753  1.00  0.00    -0.000 C 
BRANCH  14  15
ATOM     15  C   UNL     1      -6.175   5.424  11.920  1.00  0.00    -0.000 C 
BRANCH  15  16
ATOM     16  C   UNL     1      -4.996   6.369  12.178  1.00  0.00    -0.003 C 
ATOM     17  C   UNL     1      -5.434   7.829  12.117  1.00  0.00     0.004 C 
ENDBRANCH  15  16
ENDBRANCH  14  15
ENDBRANCH  13  14
ENDBRANCH  12  13
ENDBRANCH  11  12
ENDBRANCH  10  11
ENDBRANCH   1  10
TORSDOF 13
ENDMDL
MODEL 7
REMARK VINA RESULT:    -4.536      4.756      6.990
REMARK INTER + INTRA:          -9.001
REMARK INTER:                  -7.091
REMARK INTRA:                  -1.910
REMARK UNBOUND:                -1.018
REMARK SMILES CCCCCCCCCCCCCCC(=O)[O-]
REMARK SMILES IDX 9 1 10 2 11 3 12 4 13 5 14 6 15 7 16 8 17 9 8 10 7 11 6 12
REMARK SMILES IDX 5 13 4 14 3 15 2 16 1 17
REMARK H PARENT
REMARK Flexibility Score: inf
ROOT
ATOM      1  C   UNL     1      -5.896   4.978  12.653  1.00  0.00     0.000 C 
ENDROOT
BRANCH   1   2
ATOM      2  C   UNL     1      -5.041   4.572  13.868  1.00  0.00     0.000 C 
BRANCH   2   3
ATOM      3  C   UNL     1      -5.818   3.942  15.040  1.00  0.00     0.000 C 
BRANCH   3   4
ATOM      4  C   UNL     1      -5.147   4.184  16.402  1.00  0.00     0.000 C 
BRANCH   4   5
ATOM      5  C   UNL     1      -3.613   4.207  16.309  1.00  0.00     0.006 C 
BRANCH   5   6
ATOM      6  C   UNL     1      -2.995   2.802  16.330  1.00  0.00     0.053 C 
BRANCH   6   7
ATOM      7  C   UNL     1      -1.663   2.831  17.011  1.00  0.00     0.041 C 
ATOM      8  O   UNL     1      -0.910   3.833  16.886  1.00  0.00    -0.550 OA
ATOM      9  O   UNL     1      -1.276   1.776  17.826  1.00  0.00    -0.550 OA
ENDBRANCH   6   7
ENDBRANCH   5   6
ENDBRANCH   4   5
ENDBRANCH   3   4
ENDBRANCH   2   3
ENDBRANCH   1   2
BRANCH   1  10
ATOM     10  C   UNL     1      -7.321   4.400  12.703  1.00  0.00     0.000 C 
BRANCH  10  11
ATOM     11  C   UNL     1      -8.405   5.467  12.481  1.00  0.00    -0.000 C 
BRANCH  11  12
ATOM     12  C   UNL     1      -8.351   6.602  13.514  1.00  0.00    -0.000 C 
BRANCH  12  13
ATOM     13  C   UNL     1      -8.992   6.166  14.840  1.00  0.00    -0.000 C 
BRANCH  13  14
ATOM     14  C   UNL     1      -8.173   6.602  16.066  1.00  0.00    -0.000 C 
BRANCH  14  15
ATOM     15  C   UNL     1      -6.935   7.429  15.689  1.00  0.00    -0.000 C 
BRANCH  15  16
ATOM     16  C   UNL     1      -6.122   7.799  16.935  1.00  0.00    -0.003 C 
ATOM     17  C   UNL     1      -6.688   7.130  18.184  1.00  0.00     0.004 C 
ENDBRANCH  15  16
ENDBRANCH  14  15
ENDBRANCH  13  14
ENDBRANCH  12  13
ENDBRANCH  11  12
ENDBRANCH  10  11
ENDBRANCH   1  10
TORSDOF 13
ENDMDL
MODEL 8
REMARK VINA RESULT:    -4.511      5.722      7.618
REMARK INTER + INTRA:          -8.958
REMARK INTER:                  -6.608
REMARK INTRA:                  -2.350
REMARK UNBOUND:                -1.018
REMARK SMILES CCCCCCCCCCCCCCC(=O)[O-]
REMARK SMILES IDX 9 1 10 2 11 3 12 4 13 5 14 6 15 7 16 8 17 9 8 10 7 11 6 12
REMARK SMILES IDX 5 13 4 14 3 15 2 16 1 17
REMARK H PARENT
REMARK Flexibility Score: inf
ROOT
ATOM      1  C   UNL     1      -5.847   5.675  11.913  1.00  0.00     0.000 C 
ENDROOT
BRANCH   1   2
ATOM      2  C   UNL     1      -5.967   4.188  12.294  1.00  0.00     0.000 C 
BRANCH   2   3
ATOM      3  C   UNL     1      -5.454   3.824  13.700  1.00  0.00     0.000 C 
BRANCH   3   4
ATOM      4  C   UNL     1      -4.648   4.959  14.356  1.00  0.00     0.000 C 
BRANCH   4   5
ATOM      5  C   UNL     1      -4.563   4.816  15.884  1.00  0.00     0.006 C 
BRANCH   5   6
ATOM      6  C   UNL     1      -5.423   3.664  16.421  1.00  0.00     0.053 C 
BRANCH   6   7
ATOM      7  C   UNL     1      -4.553   2.600  17.013  1.00  0.00     0.041 C 
ATOM      8  O   UNL     1      -5.040   1.757  17.813  1.00  0.00    -0.550 OA
ATOM      9  O   UNL     1      -3.218   2.507  16.643  1.00  0.00    -0.550 OA
ENDBRANCH   6   7
ENDBRANCH   5   6
ENDBRANCH   4   5
ENDBRANCH   3   4
ENDBRANCH   2   3
ENDBRANCH   1   2
BRANCH   1  10
ATOM     10  C   UNL     1      -7.162   6.262  11.370  1.00  0.00     0.000 C 
BRANCH  10  11
ATOM     11  C   UNL     1      -8.406   5.638  12.021  1.00  0.00    -0.000 C 
BRANCH  11  12
ATOM     12  C   UNL     1      -8.933   6.451  13.213  1.00  0.00    -0.000 C 
BRANCH  12  13
ATOM     13  C   UNL     1      -8.840   5.638  14.514  1.00  0.00    -0.000 C 
BRANCH  13  14
ATOM     14  C   UNL     1      -7.961   6.316  15.576  1.00  0.00    -0.000 C 
BRANCH  14  15
ATOM     15  C   UNL     1      -7.139   7.484  15.009  1.00  0.00    -0.000 C 
BRANCH  15  16
ATOM     16  C   UNL     1      -6.217   8.077  16.081  1.00  0.00    -0.003 C 
ATOM     17  C   UNL     1      -6.517   7.488  17.456  1.00  0.00     0.004 C 
ENDBRANCH  15  16
ENDBRANCH  14  15
ENDBRANCH  13  14
ENDBRANCH  12  13
ENDBRANCH  11  12
ENDBRANCH  10  11
ENDBRANCH   1  10
TORSDOF 13
ENDMDL
MODEL 9
REMARK VINA RESULT:    -4.504      3.643      6.355
REMARK INTER + INTRA:          -8.946
REMARK INTER:                  -7.208
REMARK INTRA:                  -1.738
REMARK UNBOUND:                -1.018
REMARK SMILES CCCCCCCCCCCCCCC(=O)[O-]
REMARK SMILES IDX 9 1 10 2 11 3 12 4 13 5 14 6 15 7 16 8 17 9 8 10 7 11 6 12
REMARK SMILES IDX 5 13 4 14 3 15 2 16 1 17
REMARK H PARENT
REMARK Flexibility Score: inf
ROOT
ATOM      1  C   UNL     1      -4.996   5.895  17.076  1.00  0.00     0.000 C 
ENDROOT
BRANCH   1   2
ATOM      2  C   UNL     1      -5.560   4.462  17.086  1.00  0.00     0.000 C 
BRANCH   2   3
ATOM      3  C   UNL     1      -4.894   3.484  16.099  1.00  0.00     0.000 C 
BRANCH   3   4
ATOM      4  C   UNL     1      -3.795   2.628  16.753  1.00  0.00     0.000 C 
BRANCH   4   5
ATOM      5  C   UNL     1      -2.431   2.793  16.065  1.00  0.00     0.006 C 
BRANCH   5   6
ATOM      6  C   UNL     1      -1.322   3.211  17.040  1.00  0.00     0.053 C 
BRANCH   6   7
ATOM      7  C   UNL     1      -1.031   4.672  16.900  1.00  0.00     0.041 C 
ATOM      8  O   UNL     1      -0.203   5.230  17.669  1.00  0.00    -0.550 OA
ATOM      9  O   UNL     1      -1.635   5.407  15.888  1.00  0.00    -0.550 OA
ENDBRANCH   6   7
ENDBRANCH   5   6
ENDBRANCH   4   5
ENDBRANCH   3   4
ENDBRANCH   2   3
ENDBRANCH   1   2
BRANCH   1  10
ATOM     10  C   UNL     1      -5.722   6.818  16.082  1.00  0.00     0.000 C 
BRANCH  10  11
ATOM     11  C   UNL     1      -7.101   7.271  16.589  1.00  0.00    -0.000 C 
BRANCH  11  12
ATOM     12  C   UNL     1      -8.263   6.534  15.907  1.00  0.00    -0.000 C 
BRANCH  12  13
ATOM     13  C   UNL     1      -8.416   6.985  14.446  1.00  0.00    -0.000 C 
BRANCH  13  14
ATOM     14  C   UNL     1      -8.540   5.804  13.470  1.00  0.00    -0.000 C 
BRANCH  14  15
ATOM     15  C   UNL     1      -7.748   4.570  13.928  1.00  0.00    -0.000 C 
BRANCH  15  16
ATOM     16  C   UNL     1      -6.712   4.161  12.874  1.00  0.00    -0.003 C 
ATOM     17  C   UNL     1      -5.525   5.120  12.865  1.00  0.00     0.004 C 
ENDBRANCH  15  16
ENDBRANCH  14  15
ENDBRANCH  13  14
ENDBRANCH  12  13
ENDBRANCH  11  12
ENDBRANCH  10  11
ENDBRANCH   1  10
TORSDOF 13
ENDMDL
