MODEL 1
REMARK VINA RESULT:    -5.245      0.000      0.000
REMARK INTER + INTRA:          -5.398
REMARK INTER:                  -5.398
REMARK INTRA:                   0.000
REMARK UNBOUND:                 0.000
REMARK SMILES Cc1ccccc1O
REMARK SMILES IDX 1 1 2 2 3 3 4 4 5 5 6 6 7 7 8 8
REMARK H PARENT 8 9
REMARK Flexibility Score: inf
ROOT
ATOM      1  C   UNL     1     372.795 244.038 275.918  1.00  0.00     0.048 C 
ATOM      2  C   UNL     1     373.181 242.587 275.932  1.00  0.00    -0.009 A 
ATOM      3  C   UNL     1     374.336 242.166 276.614  1.00  0.00     0.007 A 
ATOM      4  C   UNL     1     374.696 240.815 276.627  1.00  0.00     0.001 A 
ATOM      5  C   UNL     1     373.908 239.875 275.960  1.00  0.00     0.004 A 
ATOM      6  C   UNL     1     372.757 240.282 275.279  1.00  0.00     0.046 A 
ATOM      7  C   UNL     1     372.389 241.636 275.260  1.00  0.00     0.118 A 
ENDROOT
BRANCH   7   8
ATOM      8  O   UNL     1     371.240 242.037 274.579  1.00  0.00    -0.508 OA
ATOM      9  H   UNL     1     370.445 242.433 275.065  1.00  0.00     0.293 HD
ENDBRANCH   7   8
TORSDOF 1
ENDMDL
MODEL 2
REMARK VINA RESULT:    -5.079      1.075      2.643
REMARK INTER + INTRA:          -5.227
REMARK INTER:                  -5.227
REMARK INTRA:                   0.000
REMARK UNBOUND:                 0.000
REMARK SMILES Cc1ccccc1O
REMARK SMILES IDX 1 1 2 2 3 3 4 4 5 5 6 6 7 7 8 8
REMARK H PARENT 8 9
REMARK Flexibility Score: inf
ROOT
ATOM      1  C   UNL     1     371.849 240.322 275.467  1.00  0.00     0.048 C 
ATOM      2  C   UNL     1     372.569 241.565 275.906  1.00  0.00    -0.009 A 
ATOM      3  C   UNL     1     373.912 241.500 276.316  1.00  0.00     0.007 A 
ATOM      4  C   UNL     1     374.582 242.657 276.725  1.00  0.00     0.001 A 
ATOM      5  C   UNL     1     373.919 243.885 276.729  1.00  0.00     0.004 A 
ATOM      6  C   UNL     1     372.584 243.962 276.324  1.00  0.00     0.046 A 
ATOM      7  C   UNL     1     371.903 242.806 275.913  1.00  0.00     0.118 A 
ENDROOT
BRANCH   7   8
ATOM      8  O   UNL     1     370.570 242.888 275.509  1.00  0.00    -0.508 OA
ATOM      9  H   UNL     1     370.158 243.764 275.213  1.00  0.00     0.293 HD
ENDBRANCH   7   8
TORSDOF 1
ENDMDL
MODEL 3
REMARK VINA RESULT:    -5.042      1.082      2.757
REMARK INTER + INTRA:          -5.190
REMARK INTER:                  -5.190
REMARK INTRA:                   0.000
REMARK UNBOUND:                 0.000
REMARK SMILES Cc1ccccc1O
REMARK SMILES IDX 1 1 2 2 3 3 4 4 5 5 6 6 7 7 8 8
REMARK H PARENT 8 9
REMARK Flexibility Score: inf
ROOT
ATOM      1  C   UNL     1     374.504 240.087 276.356  1.00  0.00     0.048 C 
ATOM      2  C   UNL     1     373.879 241.453 276.340  1.00  0.00    -0.009 A 
ATOM      3  C   UNL     1     374.606 242.572 276.783  1.00  0.00     0.007 A 
ATOM      4  C   UNL     1     374.025 243.842 276.768  1.00  0.00     0.001 A 
ATOM      5  C   UNL     1     372.715 244.007 276.311  1.00  0.00     0.004 A 
ATOM      6  C   UNL     1     371.983 242.903 275.868  1.00  0.00     0.046 A 
ATOM      7  C   UNL     1     372.559 241.623 275.881  1.00  0.00     0.118 A 
ENDROOT
BRANCH   7   8
ATOM      8  O   UNL     1     371.824 240.523 275.438  1.00  0.00    -0.508 OA
ATOM      9  H   UNL     1     370.814 240.496 275.507  1.00  0.00     0.293 HD
ENDBRANCH   7   8
TORSDOF 1
ENDMDL
MODEL 4
REMARK VINA RESULT:    -4.724      2.811      4.082
REMARK INTER + INTRA:          -4.862
REMARK INTER:                  -4.862
REMARK INTRA:                   0.000
REMARK UNBOUND:                 0.000
REMARK SMILES Cc1ccccc1O
REMARK SMILES IDX 1 1 2 2 3 3 4 4 5 5 6 6 7 7 8 8
REMARK H PARENT 8 9
REMARK Flexibility Score: inf
ROOT
ATOM      1  C   UNL     1     372.776 243.510 276.211  1.00  0.00     0.048 C 
ATOM      2  C   UNL     1     371.302 243.514 276.498  1.00  0.00    -0.009 A 
ATOM      3  C   UNL     1     370.790 244.256 277.577  1.00  0.00     0.007 A 
ATOM      4  C   UNL     1     369.419 244.259 277.844  1.00  0.00     0.001 A 
ATOM      5  C   UNL     1     368.547 243.523 277.039  1.00  0.00     0.004 A 
ATOM      6  C   UNL     1     369.044 242.783 275.963  1.00  0.00     0.046 A 
ATOM      7  C   UNL     1     370.420 242.773 275.688  1.00  0.00     0.118 A 
ENDROOT
BRANCH   7   8
ATOM      8  O   UNL     1     370.911 242.032 274.614  1.00  0.00    -0.508 OA
ATOM      9  H   UNL     1     371.079 242.454 273.709  1.00  0.00     0.293 HD
ENDBRANCH   7   8
TORSDOF 1
ENDMDL
MODEL 5
REMARK VINA RESULT:    -4.638      1.712      3.201
REMARK INTER + INTRA:          -4.774
REMARK INTER:                  -4.774
REMARK INTRA:                   0.000
REMARK UNBOUND:                 0.000
REMARK SMILES Cc1ccccc1O
REMARK SMILES IDX 1 1 2 2 3 3 4 4 5 5 6 6 7 7 8 8
REMARK H PARENT 8 9
REMARK Flexibility Score: inf
ROOT
ATOM      1  C   UNL     1     371.675 240.440 275.415  1.00  0.00     0.048 C 
ATOM      2  C   UNL     1     372.508 241.595 275.894  1.00  0.00    -0.009 A 
ATOM      3  C   UNL     1     371.954 242.884 275.977  1.00  0.00     0.007 A 
ATOM      4  C   UNL     1     372.729 243.958 276.422  1.00  0.00     0.001 A 
ATOM      5  C   UNL     1     374.061 243.756 276.788  1.00  0.00     0.004 A 
ATOM      6  C   UNL     1     374.623 242.479 276.710  1.00  0.00     0.046 A 
ATOM      7  C   UNL     1     373.852 241.395 276.263  1.00  0.00     0.118 A 
ENDROOT
BRANCH   7   8
ATOM      8  O   UNL     1     374.417 240.122 276.187  1.00  0.00    -0.508 OA
ATOM      9  H   UNL     1     375.365 239.980 275.861  1.00  0.00     0.293 HD
ENDBRANCH   7   8
TORSDOF 1
ENDMDL
MODEL 6
REMARK VINA RESULT:    -4.612      1.890      2.593
REMARK INTER + INTRA:          -4.746
REMARK INTER:                  -4.746
REMARK INTRA:                   0.000
REMARK UNBOUND:                 0.000
REMARK SMILES Cc1ccccc1O
REMARK SMILES IDX 1 1 2 2 3 3 4 4 5 5 6 6 7 7 8 8
REMARK H PARENT 8 9
REMARK Flexibility Score: inf
ROOT
ATOM      1  C   UNL     1     374.271 243.824 276.729  1.00  0.00     0.048 C 
ATOM      2  C   UNL     1     373.425 242.702 276.198  1.00  0.00    -0.009 A 
ATOM      3  C   UNL     1     372.150 242.965 275.667  1.00  0.00     0.007 A 
ATOM      4  C   UNL     1     371.362 241.921 275.174  1.00  0.00     0.001 A 
ATOM      5  C   UNL     1     371.839 240.609 275.205  1.00  0.00     0.004 A 
ATOM      6  C   UNL     1     373.105 240.336 275.730  1.00  0.00     0.046 A 
ATOM      7  C   UNL     1     373.902 241.378 276.229  1.00  0.00     0.118 A 
ENDROOT
BRANCH   7   8
ATOM      8  O   UNL     1     375.165 241.100 276.753  1.00  0.00    -0.508 OA
ATOM      9  H   UNL     1     375.382 241.258 277.729  1.00  0.00     0.293 HD
ENDBRANCH   7   8
TORSDOF 1
ENDMDL
MODEL 7
REMARK VINA RESULT:    -4.553      2.079      2.854
REMARK INTER + INTRA:          -4.686
REMARK INTER:                  -4.686
REMARK INTRA:                   0.000
REMARK UNBOUND:                 0.000
REMARK SMILES Cc1ccccc1O
REMARK SMILES IDX 1 1 2 2 3 3 4 4 5 5 6 6 7 7 8 8
REMARK H PARENT 8 9
REMARK Flexibility Score: inf
ROOT
ATOM      1  C   UNL     1     369.541 244.452 277.447  1.00  0.00     0.048 C 
ATOM      2  C   UNL     1     370.632 243.696 276.743  1.00  0.00    -0.009 A 
ATOM      3  C   UNL     1     371.970 244.112 276.855  1.00  0.00     0.007 A 
ATOM      4  C   UNL     1     372.985 243.409 276.200  1.00  0.00     0.001 A 
ATOM      5  C   UNL     1     372.674 242.288 275.429  1.00  0.00     0.004 A 
ATOM      6  C   UNL     1     371.348 241.865 275.310  1.00  0.00     0.046 A 
ATOM      7  C   UNL     1     370.322 242.565 275.964  1.00  0.00     0.118 A 
ENDROOT
BRANCH   7   8
ATOM      8  O   UNL     1     368.999 242.139 275.842  1.00  0.00    -0.508 OA
ATOM      9  H   UNL     1     368.299 242.375 276.534  1.00  0.00     0.293 HD
ENDBRANCH   7   8
TORSDOF 1
ENDMDL
MODEL 8
REMARK VINA RESULT:    -4.491      4.873      5.745
REMARK INTER + INTRA:          -4.623
REMARK INTER:                  -4.623
REMARK INTRA:                   0.000
REMARK UNBOUND:                 0.000
REMARK SMILES Cc1ccccc1O
REMARK SMILES IDX 1 1 2 2 3 3 4 4 5 5 6 6 7 7 8 8
REMARK H PARENT 8 9
REMARK Flexibility Score: inf
ROOT
ATOM      1  C   UNL     1     366.762 245.417 276.326  1.00  0.00     0.048 C 
ATOM      2  C   UNL     1     367.794 244.547 276.985  1.00  0.00    -0.009 A 
ATOM      3  C   UNL     1     368.982 245.108 277.485  1.00  0.00     0.007 A 
ATOM      4  C   UNL     1     369.942 244.298 278.098  1.00  0.00     0.001 A 
ATOM      5  C   UNL     1     369.725 242.924 278.218  1.00  0.00     0.004 A 
ATOM      6  C   UNL     1     368.548 242.355 277.725  1.00  0.00     0.046 A 
ATOM      7  C   UNL     1     367.579 243.160 277.107  1.00  0.00     0.118 A 
ENDROOT
BRANCH   7   8
ATOM      8  O   UNL     1     366.405 242.588 276.616  1.00  0.00    -0.508 OA
ATOM      9  H   UNL     1     366.390 242.073 275.744  1.00  0.00     0.293 HD
ENDBRANCH   7   8
TORSDOF 1
ENDMDL
MODEL 9
REMARK VINA RESULT:    -4.337      2.611      4.088
REMARK INTER + INTRA:          -4.463
REMARK INTER:                  -4.463
REMARK INTRA:                   0.000
REMARK UNBOUND:                 0.000
REMARK SMILES Cc1ccccc1O
REMARK SMILES IDX 1 1 2 2 3 3 4 4 5 5 6 6 7 7 8 8
REMARK H PARENT 8 9
REMARK Flexibility Score: inf
ROOT
ATOM      1  C   UNL     1     371.765 241.303 275.173  1.00  0.00     0.048 C 
ATOM      2  C   UNL     1     371.171 242.189 276.230  1.00  0.00    -0.009 A 
ATOM      3  C   UNL     1     370.153 241.707 277.071  1.00  0.00     0.007 A 
ATOM      4  C   UNL     1     369.600 242.531 278.055  1.00  0.00     0.001 A 
ATOM      5  C   UNL     1     370.058 243.841 278.209  1.00  0.00     0.004 A 
ATOM      6  C   UNL     1     371.070 244.331 277.380  1.00  0.00     0.046 A 
ATOM      7  C   UNL     1     371.630 243.511 276.388  1.00  0.00     0.118 A 
ENDROOT
BRANCH   7   8
ATOM      8  O   UNL     1     372.640 244.005 275.562  1.00  0.00    -0.508 OA
ATOM      9  H   UNL     1     372.998 244.947 275.666  1.00  0.00     0.293 HD
ENDBRANCH   7   8
TORSDOF 1
ENDMDL
