MODEL 1
REMARK VINA RESULT:    -2.581      0.000      0.000
REMARK INTER + INTRA:          -2.581
REMARK INTER:                  -2.581
REMARK INTRA:                   0.000
REMARK UNBOUND:                 0.000
REMARK SMILES CC(=O)[O-]
REMARK SMILES IDX 1 1 2 2 3 3 4 4
REMARK H PARENT
REMARK Flexibility Score: inf
ROOT
ATOM      1  C   UNL     1      31.892  51.325  16.264  1.00  0.00     0.063 C 
ATOM      2  C   UNL     1      30.624  51.203  17.040  1.00  0.00     0.038 C 
ATOM      3  O   UNL     1      29.751  52.107  16.971  1.00  0.00    -0.550 OA
ATOM      4  O   UNL     1      30.379  50.065  17.799  1.00  0.00    -0.550 OA
ENDROOT
TORSDOF 0
ENDMDL
MODEL 2
REMARK VINA RESULT:    -2.541      1.403      1.768
REMARK INTER + INTRA:          -2.541
REMARK INTER:                  -2.541
REMARK INTRA:                   0.000
REMARK UNBOUND:                 0.000
REMARK SMILES CC(=O)[O-]
REMARK SMILES IDX 1 1 2 2 3 3 4 4
REMARK H PARENT
REMARK Flexibility Score: inf
ROOT
ATOM      1  C   UNL     1      30.448  50.064  17.862  1.00  0.00     0.063 C 
ATOM      2  C   UNL     1      30.707  51.213  16.949  1.00  0.00     0.038 C 
ATOM      3  O   UNL     1      29.874  52.154  16.865  1.00  0.00    -0.550 OA
ATOM      4  O   UNL     1      31.893  51.278  16.229  1.00  0.00    -0.550 OA
ENDROOT
TORSDOF 0
ENDMDL
MODEL 3
REMARK VINA RESULT:    -2.401     16.311     16.848
REMARK INTER + INTRA:          -2.401
REMARK INTER:                  -2.401
REMARK INTRA:                   0.000
REMARK UNBOUND:                 0.000
REMARK SMILES CC(=O)[O-]
REMARK SMILES IDX 1 1 2 2 3 3 4 4
REMARK H PARENT
REMARK Flexibility Score: inf
ROOT
ATOM      1  C   UNL     1      12.879  52.749  16.135  1.00  0.00     0.063 C 
ATOM      2  C   UNL     1      14.096  52.448  15.328  1.00  0.00     0.038 C 
ATOM      3  O   UNL     1      15.112  53.185  15.417  1.00  0.00    -0.550 OA
ATOM      4  O   UNL     1      14.132  51.321  14.515  1.00  0.00    -0.550 OA
ENDROOT
TORSDOF 0
ENDMDL
MODEL 4
REMARK VINA RESULT:    -2.195     16.421     16.888
REMARK INTER + INTRA:          -2.195
REMARK INTER:                  -2.195
REMARK INTRA:                   0.000
REMARK UNBOUND:                 0.000
REMARK SMILES CC(=O)[O-]
REMARK SMILES IDX 1 1 2 2 3 3 4 4
REMARK H PARENT
REMARK Flexibility Score: inf
ROOT
ATOM      1  C   UNL     1      14.031  51.489  14.509  1.00  0.00     0.063 C 
ATOM      2  C   UNL     1      13.995  52.575  15.530  1.00  0.00     0.038 C 
ATOM      3  O   UNL     1      14.957  53.381  15.630  1.00  0.00    -0.550 OA
ATOM      4  O   UNL     1      12.875  52.736  16.337  1.00  0.00    -0.550 OA
ENDROOT
TORSDOF 0
ENDMDL
MODEL 5
REMARK VINA RESULT:    -1.834     20.769     21.382
REMARK INTER + INTRA:          -1.834
REMARK INTER:                  -1.834
REMARK INTRA:                   0.000
REMARK UNBOUND:                 0.000
REMARK SMILES CC(=O)[O-]
REMARK SMILES IDX 1 1 2 2 3 3 4 4
REMARK H PARENT
REMARK Flexibility Score: inf
ROOT
ATOM      1  C   UNL     1      15.365  64.503  17.741  1.00  0.00     0.063 C 
ATOM      2  C   UNL     1      14.163  64.797  16.910  1.00  0.00     0.038 C 
ATOM      3  O   UNL     1      13.483  65.834  17.127  1.00  0.00    -0.550 OA
ATOM      4  O   UNL     1      13.821  63.956  15.858  1.00  0.00    -0.550 OA
ENDROOT
TORSDOF 0
ENDMDL
MODEL 6
REMARK VINA RESULT:    -1.829     12.062     12.433
REMARK INTER + INTRA:          -1.829
REMARK INTER:                  -1.829
REMARK INTRA:                   0.000
REMARK UNBOUND:                 0.000
REMARK SMILES CC(=O)[O-]
REMARK SMILES IDX 1 1 2 2 3 3 4 4
REMARK H PARENT
REMARK Flexibility Score: inf
ROOT
ATOM      1  C   UNL     1      30.781  63.542  14.505  1.00  0.00     0.063 C 
ATOM      2  C   UNL     1      32.177  63.196  14.899  1.00  0.00     0.038 C 
ATOM      3  O   UNL     1      33.124  63.369  14.087  1.00  0.00    -0.550 OA
ATOM      4  O   UNL     1      32.446  62.735  16.181  1.00  0.00    -0.550 OA
ENDROOT
TORSDOF 0
ENDMDL
MODEL 7
REMARK VINA RESULT:    -1.713     10.933     11.394
REMARK INTER + INTRA:          -1.713
REMARK INTER:                  -1.713
REMARK INTRA:                   0.000
REMARK UNBOUND:                 0.000
REMARK SMILES CC(=O)[O-]
REMARK SMILES IDX 1 1 2 2 3 3 4 4
REMARK H PARENT
REMARK Flexibility Score: inf
ROOT
ATOM      1  C   UNL     1      33.082  61.673  22.244  1.00  0.00     0.063 C 
ATOM      2  C   UNL     1      32.611  61.476  20.843  1.00  0.00     0.038 C 
ATOM      3  O   UNL     1      32.736  60.355  20.285  1.00  0.00    -0.550 OA
ATOM      4  O   UNL     1      31.982  62.515  20.167  1.00  0.00    -0.550 OA
ENDROOT
TORSDOF 0
ENDMDL
MODEL 8
REMARK VINA RESULT:    -1.702     10.897     11.252
REMARK INTER + INTRA:          -1.702
REMARK INTER:                  -1.702
REMARK INTRA:                   0.000
REMARK UNBOUND:                 0.000
REMARK SMILES CC(=O)[O-]
REMARK SMILES IDX 1 1 2 2 3 3 4 4
REMARK H PARENT
REMARK Flexibility Score: inf
ROOT
ATOM      1  C   UNL     1      32.062  62.610  20.136  1.00  0.00     0.063 C 
ATOM      2  C   UNL     1      32.535  61.393  20.855  1.00  0.00     0.038 C 
ATOM      3  O   UNL     1      32.780  60.336  20.216  1.00  0.00    -0.550 OA
ATOM      4  O   UNL     1      32.761  61.437  22.226  1.00  0.00    -0.550 OA
ENDROOT
TORSDOF 0
ENDMDL
MODEL 9
REMARK VINA RESULT:    -1.667     20.860     21.399
REMARK INTER + INTRA:          -1.667
REMARK INTER:                  -1.667
REMARK INTRA:                   0.000
REMARK UNBOUND:                 0.000
REMARK SMILES CC(=O)[O-]
REMARK SMILES IDX 1 1 2 2 3 3 4 4
REMARK H PARENT
REMARK Flexibility Score: inf
ROOT
ATOM      1  C   UNL     1      13.587  66.068  17.028  1.00  0.00     0.063 C 
ATOM      2  C   UNL     1      14.216  64.721  16.906  1.00  0.00     0.038 C 
ATOM      3  O   UNL     1      13.914  63.968  15.943  1.00  0.00    -0.550 OA
ATOM      4  O   UNL     1      15.178  64.315  17.822  1.00  0.00    -0.550 OA
ENDROOT
TORSDOF 0
ENDMDL
