MODEL 1
REMARK VINA RESULT:    -4.478      0.000      0.000
REMARK INTER + INTRA:          -7.275
REMARK INTER:                  -6.049
REMARK INTRA:                  -1.226
REMARK UNBOUND:                -1.226
REMARK SMILES O=c1c(-c2ccc(O)cc2)coc2c([C@@H]3O[C@@H](CO)[C@@H](O)[C@@H](O)[C@H]3O)c(O)ccc12
REMARK SMILES IDX 3 1 11 2 12 3 13 4 30 5 2 6 1 7 29 8 28 9 26 10 14 11 4 12
REMARK SMILES IDX 5 13 6 14 7 15 10 16 9 17 8 18 15 20 24 21 16 22 22 23 17 24
REMARK SMILES IDX 20 25 25 26 23 28 18 30 19 31 21 33 27 35
REMARK H PARENT 8 19 25 27 23 29 19 32 21 34 27 36
REMARK Flexibility Score: inf
ROOT
ATOM      1  C   UNL     1     -25.493  52.091  43.598  1.00  0.00     0.065 A 
ATOM      2  C   UNL     1     -26.443  51.699  42.646  1.00  0.00     0.208 A 
ATOM      3  O   UNL     1     -26.381  50.502  42.075  1.00  0.00    -0.463 OA
ATOM      4  C   UNL     1     -25.437  49.606  42.355  1.00  0.00     0.147 A 
ATOM      5  C   UNL     1     -24.439  49.921  43.306  1.00  0.00     0.066 A 
ATOM      6  C   UNL     1     -24.480  51.178  43.938  1.00  0.00     0.200 A 
ATOM      7  O   UNL     1     -23.623  51.477  44.815  1.00  0.00    -0.288 OA
ATOM      8  C   UNL     1     -23.441  48.983  43.598  1.00  0.00     0.020 A 
ATOM      9  C   UNL     1     -23.418  47.756  42.943  1.00  0.00     0.047 A 
ATOM     10  C   UNL     1     -24.389  47.429  41.993  1.00  0.00     0.125 A 
ATOM     11  C   UNL     1     -25.438  48.346  41.701  1.00  0.00     0.069 A 
ENDROOT
BRANCH   1  12
ATOM     12  C   UNL     1     -25.581  53.437  44.219  1.00  0.00    -0.011 A 
ATOM     13  C   UNL     1     -26.396  53.656  45.344  1.00  0.00     0.013 A 
ATOM     14  C   UNL     1     -26.467  54.923  45.931  1.00  0.00     0.047 A 
ATOM     15  C   UNL     1     -25.722  55.986  45.403  1.00  0.00     0.115 A 
ATOM     16  C   UNL     1     -24.831  54.508  43.701  1.00  0.00     0.013 A 
ATOM     17  C   UNL     1     -24.906  55.774  44.288  1.00  0.00     0.047 A 
BRANCH  15  18
ATOM     18  O   UNL     1     -25.787  57.253  45.978  1.00  0.00    -0.508 OA
ATOM     19  H   UNL     1     -25.870  57.376  46.981  1.00  0.00     0.293 HD
ENDBRANCH  15  18
ENDBRANCH   1  12
BRANCH  11  20
ATOM     20  C   UNL     1     -26.531  48.032  40.683  1.00  0.00     0.188 C 
ATOM     21  C   UNL     1     -26.050  48.370  39.256  1.00  0.00     0.179 C 
ATOM     22  O   UNL     1     -26.916  46.673  40.814  1.00  0.00    -0.362 OA
ATOM     23  C   UNL     1     -27.166  48.075  38.241  1.00  0.00     0.177 C 
ATOM     24  C   UNL     1     -27.966  46.292  39.936  1.00  0.00     0.176 C 
ATOM     25  C   UNL     1     -27.697  46.647  38.444  1.00  0.00     0.177 C 
BRANCH  21  26
ATOM     26  O   UNL     1     -25.678  49.723  39.187  1.00  0.00    -0.387 OA
ATOM     27  H   UNL     1     -25.436  49.907  38.241  1.00  0.00     0.211 HD
ENDBRANCH  21  26
BRANCH  23  28
ATOM     28  O   UNL     1     -28.209  49.010  38.358  1.00  0.00    -0.387 OA
ATOM     29  H   UNL     1     -28.565  48.935  39.282  1.00  0.00     0.211 HD
ENDBRANCH  23  28
BRANCH  24  30
ATOM     30  C   UNL     1     -29.363  46.656  40.492  1.00  0.00     0.191 C 
BRANCH  30  31
ATOM     31  O   UNL     1     -30.088  47.470  39.615  1.00  0.00    -0.394 OA
ATOM     32  H   UNL     1     -29.605  47.442  38.749  1.00  0.00     0.210 HD
ENDBRANCH  30  31
ENDBRANCH  24  30
BRANCH  25  33
ATOM     33  O   UNL     1     -28.846  46.452  37.659  1.00  0.00    -0.388 OA
ATOM     34  H   UNL     1     -29.572  46.173  38.278  1.00  0.00     0.211 HD
ENDBRANCH  25  33
ENDBRANCH  11  20
BRANCH  10  35
ATOM     35  O   UNL     1     -24.262  46.185  41.366  1.00  0.00    -0.507 OA
ATOM     36  H   UNL     1     -24.798  45.889  40.564  1.00  0.00     0.293 HD
ENDBRANCH  10  35
TORSDOF 9
ENDMDL
MODEL 2
REMARK VINA RESULT:    -4.073      1.327      1.580
REMARK INTER + INTRA:          -6.727
REMARK INTER:                  -5.391
REMARK INTRA:                  -1.337
REMARK UNBOUND:                -1.226
REMARK SMILES O=c1c(-c2ccc(O)cc2)coc2c([C@@H]3O[C@@H](CO)[C@@H](O)[C@@H](O)[C@H]3O)c(O)ccc12
REMARK SMILES IDX 3 1 11 2 12 3 13 4 30 5 2 6 1 7 29 8 28 9 26 10 14 11 4 12
REMARK SMILES IDX 5 13 6 14 7 15 10 16 9 17 8 18 15 20 24 21 16 22 22 23 17 24
REMARK SMILES IDX 20 25 25 26 23 28 18 30 19 31 21 33 27 35
REMARK H PARENT 8 19 25 27 23 29 19 32 21 34 27 36
REMARK Flexibility Score: inf
ROOT
ATOM      1  C   UNL     1     -25.638  51.342  42.576  1.00  0.00     0.065 A 
ATOM      2  C   UNL     1     -26.455  51.081  41.468  1.00  0.00     0.208 A 
ATOM      3  O   UNL     1     -26.319  49.960  40.771  1.00  0.00    -0.463 OA
ATOM      4  C   UNL     1     -25.418  49.023  41.060  1.00  0.00     0.147 A 
ATOM      5  C   UNL     1     -24.553  49.208  42.163  1.00  0.00     0.066 A 
ATOM      6  C   UNL     1     -24.676  50.381  42.931  1.00  0.00     0.200 A 
ATOM      7  O   UNL     1     -23.941  50.560  43.941  1.00  0.00    -0.288 OA
ATOM      8  C   UNL     1     -23.600  48.227  42.466  1.00  0.00     0.020 A 
ATOM      9  C   UNL     1     -23.491  47.087  41.676  1.00  0.00     0.047 A 
ATOM     10  C   UNL     1     -24.330  46.889  40.577  1.00  0.00     0.125 A 
ATOM     11  C   UNL     1     -25.333  47.851  40.264  1.00  0.00     0.069 A 
ENDROOT
BRANCH   1  12
ATOM     12  C   UNL     1     -25.806  52.606  43.338  1.00  0.00    -0.011 A 
ATOM     13  C   UNL     1     -26.686  52.671  44.433  1.00  0.00     0.013 A 
ATOM     14  C   UNL     1     -26.834  53.860  45.153  1.00  0.00     0.047 A 
ATOM     15  C   UNL     1     -26.101  54.998  44.789  1.00  0.00     0.115 A 
ATOM     16  C   UNL     1     -25.070  53.751  42.985  1.00  0.00     0.013 A 
ATOM     17  C   UNL     1     -25.221  54.939  43.706  1.00  0.00     0.047 A 
BRANCH  15  18
ATOM     18  O   UNL     1     -26.241  56.189  45.499  1.00  0.00    -0.508 OA
ATOM     19  H   UNL     1     -26.616  57.024  45.063  1.00  0.00     0.293 HD
ENDBRANCH  15  18
ENDBRANCH   1  12
BRANCH  11  20
ATOM     20  C   UNL     1     -26.285  47.677  39.083  1.00  0.00     0.188 C 
ATOM     21  C   UNL     1     -25.601  48.121  37.773  1.00  0.00     0.179 C 
ATOM     22  O   UNL     1     -26.723  46.329  39.031  1.00  0.00    -0.362 OA
ATOM     23  C   UNL     1     -26.575  47.968  36.594  1.00  0.00     0.177 C 
ATOM     24  C   UNL     1     -27.654  46.074  37.988  1.00  0.00     0.176 C 
ATOM     25  C   UNL     1     -27.171  46.551  36.586  1.00  0.00     0.177 C 
BRANCH  21  26
ATOM     26  O   UNL     1     -25.184  49.458  37.884  1.00  0.00    -0.387 OA
ATOM     27  H   UNL     1     -25.405  49.901  37.023  1.00  0.00     0.211 HD
ENDBRANCH  21  26
BRANCH  23  28
ATOM     28  O   UNL     1     -27.596  48.931  36.658  1.00  0.00    -0.387 OA
ATOM     29  H   UNL     1     -27.470  49.434  37.505  1.00  0.00     0.211 HD
ENDBRANCH  23  28
BRANCH  24  30
ATOM     30  C   UNL     1     -29.102  46.445  38.383  1.00  0.00     0.191 C 
BRANCH  30  31
ATOM     31  O   UNL     1     -30.053  45.695  37.682  1.00  0.00    -0.394 OA
ATOM     32  H   UNL     1     -29.924  45.912  36.723  1.00  0.00     0.210 HD
ENDBRANCH  30  31
ENDBRANCH  24  30
BRANCH  25  33
ATOM     33  O   UNL     1     -28.207  46.476  35.639  1.00  0.00    -0.388 OA
ATOM     34  H   UNL     1     -28.348  45.512  35.445  1.00  0.00     0.211 HD
ENDBRANCH  25  33
ENDBRANCH  11  20
BRANCH  10  35
ATOM     35  O   UNL     1     -24.122  45.728  39.826  1.00  0.00    -0.507 OA
ATOM     36  H   UNL     1     -23.912  45.711  38.839  1.00  0.00     0.293 HD
ENDBRANCH  10  35
TORSDOF 9
ENDMDL
MODEL 3
REMARK VINA RESULT:    -4.056      5.428      8.270
REMARK INTER + INTRA:          -6.705
REMARK INTER:                  -5.427
REMARK INTRA:                  -1.277
REMARK UNBOUND:                -1.226
REMARK SMILES O=c1c(-c2ccc(O)cc2)coc2c([C@@H]3O[C@@H](CO)[C@@H](O)[C@@H](O)[C@H]3O)c(O)ccc12
REMARK SMILES IDX 3 1 11 2 12 3 13 4 30 5 2 6 1 7 29 8 28 9 26 10 14 11 4 12
REMARK SMILES IDX 5 13 6 14 7 15 10 16 9 17 8 18 15 20 24 21 16 22 22 23 17 24
REMARK SMILES IDX 20 25 25 26 23 28 18 30 19 31 21 33 27 35
REMARK H PARENT 8 19 25 27 23 29 19 32 21 34 27 36
REMARK Flexibility Score: inf
ROOT
ATOM      1  C   UNL     1     -27.692  46.903  38.740  1.00  0.00     0.065 A 
ATOM      2  C   UNL     1     -27.787  48.187  38.188  1.00  0.00     0.208 A 
ATOM      3  O   UNL     1     -27.676  48.376  36.879  1.00  0.00    -0.463 OA
ATOM      4  C   UNL     1     -27.469  47.387  36.012  1.00  0.00     0.147 A 
ATOM      5  C   UNL     1     -27.360  46.059  36.486  1.00  0.00     0.066 A 
ATOM      6  C   UNL     1     -27.483  45.821  37.867  1.00  0.00     0.200 A 
ATOM      7  O   UNL     1     -27.424  44.644  38.318  1.00  0.00    -0.288 OA
ATOM      8  C   UNL     1     -27.136  45.017  35.577  1.00  0.00     0.020 A 
ATOM      9  C   UNL     1     -27.001  45.287  34.219  1.00  0.00     0.047 A 
ATOM     10  C   UNL     1     -27.095  46.593  33.732  1.00  0.00     0.125 A 
ATOM     11  C   UNL     1     -27.359  47.670  34.626  1.00  0.00     0.069 A 
ENDROOT
BRANCH   1  12
ATOM     12  C   UNL     1     -27.815  46.718  40.208  1.00  0.00    -0.011 A 
ATOM     13  C   UNL     1     -26.681  46.786  41.037  1.00  0.00     0.013 A 
ATOM     14  C   UNL     1     -26.804  46.620  42.420  1.00  0.00     0.047 A 
ATOM     15  C   UNL     1     -28.062  46.388  42.992  1.00  0.00     0.115 A 
ATOM     16  C   UNL     1     -29.075  46.493  40.792  1.00  0.00     0.013 A 
ATOM     17  C   UNL     1     -29.194  46.326  42.174  1.00  0.00     0.047 A 
BRANCH  15  18
ATOM     18  O   UNL     1     -28.196  46.220  44.368  1.00  0.00    -0.508 OA
ATOM     19  H   UNL     1     -28.818  45.521  44.758  1.00  0.00     0.293 HD
ENDBRANCH  15  18
ENDBRANCH   1  12
BRANCH  11  20
ATOM     20  C   UNL     1     -27.486  49.113  34.144  1.00  0.00     0.188 C 
ATOM     21  C   UNL     1     -26.090  49.716  33.879  1.00  0.00     0.179 C 
ATOM     22  O   UNL     1     -28.316  49.150  32.994  1.00  0.00    -0.362 OA
ATOM     23  C   UNL     1     -26.227  51.176  33.419  1.00  0.00     0.177 C 
ATOM     24  C   UNL     1     -28.534  50.462  32.493  1.00  0.00     0.176 C 
ATOM     25  C   UNL     1     -27.224  51.269  32.254  1.00  0.00     0.177 C 
BRANCH  21  26
ATOM     26  O   UNL     1     -25.313  49.647  35.047  1.00  0.00    -0.387 OA
ATOM     27  H   UNL     1     -24.366  49.574  34.758  1.00  0.00     0.211 HD
ENDBRANCH  21  26
BRANCH  23  28
ATOM     28  O   UNL     1     -26.634  52.000  34.482  1.00  0.00    -0.387 OA
ATOM     29  H   UNL     1     -26.717  52.922  34.122  1.00  0.00     0.211 HD
ENDBRANCH  23  28
BRANCH  24  30
ATOM     30  C   UNL     1     -29.672  51.198  33.238  1.00  0.00     0.191 C 
BRANCH  30  31
ATOM     31  O   UNL     1     -30.122  52.324  32.541  1.00  0.00    -0.394 OA
ATOM     32  H   UNL     1     -29.368  52.969  32.541  1.00  0.00     0.210 HD
ENDBRANCH  30  31
ENDBRANCH  24  30
BRANCH  25  33
ATOM     33  O   UNL     1     -27.501  52.617  31.972  1.00  0.00    -0.388 OA
ATOM     34  H   UNL     1     -27.983  52.982  32.760  1.00  0.00     0.211 HD
ENDBRANCH  25  33
ENDBRANCH  11  20
BRANCH  10  35
ATOM     35  O   UNL     1     -26.914  46.766  32.356  1.00  0.00    -0.507 OA
ATOM     36  H   UNL     1     -27.561  46.455  31.647  1.00  0.00     0.293 HD
ENDBRANCH  10  35
TORSDOF 9
ENDMDL
MODEL 4
REMARK VINA RESULT:    -4.049      4.009      7.694
REMARK INTER + INTRA:          -6.694
REMARK INTER:                  -5.555
REMARK INTRA:                  -1.139
REMARK UNBOUND:                -1.226
REMARK SMILES O=c1c(-c2ccc(O)cc2)coc2c([C@@H]3O[C@@H](CO)[C@@H](O)[C@@H](O)[C@H]3O)c(O)ccc12
REMARK SMILES IDX 3 1 11 2 12 3 13 4 30 5 2 6 1 7 29 8 28 9 26 10 14 11 4 12
REMARK SMILES IDX 5 13 6 14 7 15 10 16 9 17 8 18 15 20 24 21 16 22 22 23 17 24
REMARK SMILES IDX 20 25 25 26 23 28 18 30 19 31 21 33 27 35
REMARK H PARENT 8 19 25 27 23 29 19 32 21 34 27 36
REMARK Flexibility Score: inf
ROOT
ATOM      1  C   UNL     1     -28.299  45.693  44.173  1.00  0.00     0.065 A 
ATOM      2  C   UNL     1     -27.226  46.594  44.190  1.00  0.00     0.208 A 
ATOM      3  O   UNL     1     -26.995  47.397  43.159  1.00  0.00    -0.463 OA
ATOM      4  C   UNL     1     -27.744  47.409  42.058  1.00  0.00     0.147 A 
ATOM      5  C   UNL     1     -28.848  46.531  41.959  1.00  0.00     0.066 A 
ATOM      6  C   UNL     1     -29.128  45.672  43.038  1.00  0.00     0.200 A 
ATOM      7  O   UNL     1     -30.125  44.899  42.993  1.00  0.00    -0.288 OA
ATOM      8  C   UNL     1     -29.634  46.536  40.800  1.00  0.00     0.020 A 
ATOM      9  C   UNL     1     -29.320  47.385  39.743  1.00  0.00     0.047 A 
ATOM     10  C   UNL     1     -28.228  48.254  39.817  1.00  0.00     0.125 A 
ATOM     11  C   UNL     1     -27.432  48.298  40.997  1.00  0.00     0.069 A 
ENDROOT
BRANCH   1  12
ATOM     12  C   UNL     1     -28.534  44.801  45.336  1.00  0.00    -0.011 A 
ATOM     13  C   UNL     1     -29.395  45.191  46.377  1.00  0.00     0.013 A 
ATOM     14  C   UNL     1     -29.621  44.344  47.466  1.00  0.00     0.047 A 
ATOM     15  C   UNL     1     -28.991  43.093  47.525  1.00  0.00     0.115 A 
ATOM     16  C   UNL     1     -27.913  43.541  45.401  1.00  0.00     0.013 A 
ATOM     17  C   UNL     1     -28.139  42.696  46.491  1.00  0.00     0.047 A 
BRANCH  15  18
ATOM     18  O   UNL     1     -29.207  42.240  48.606  1.00  0.00    -0.508 OA
ATOM     19  H   UNL     1     -29.005  42.529  49.556  1.00  0.00     0.293 HD
ENDBRANCH  15  18
ENDBRANCH   1  12
BRANCH  11  20
ATOM     20  C   UNL     1     -26.237  49.239  41.135  1.00  0.00     0.188 C 
ATOM     21  C   UNL     1     -25.008  48.657  40.403  1.00  0.00     0.179 C 
ATOM     22  O   UNL     1     -26.594  50.523  40.650  1.00  0.00    -0.362 OA
ATOM     23  C   UNL     1     -23.804  49.598  40.570  1.00  0.00     0.177 C 
ATOM     24  C   UNL     1     -25.559  51.487  40.778  1.00  0.00     0.176 C 
ATOM     25  C   UNL     1     -24.198  51.030  40.175  1.00  0.00     0.177 C 
BRANCH  21  26
ATOM     26  O   UNL     1     -24.705  47.386  40.920  1.00  0.00    -0.387 OA
ATOM     27  H   UNL     1     -24.226  47.531  41.778  1.00  0.00     0.211 HD
ENDBRANCH  21  26
BRANCH  23  28
ATOM     28  O   UNL     1     -23.322  49.565  41.890  1.00  0.00    -0.387 OA
ATOM     29  H   UNL     1     -23.024  48.634  42.068  1.00  0.00     0.211 HD
ENDBRANCH  23  28
BRANCH  24  30
ATOM     30  C   UNL     1     -25.512  52.122  42.187  1.00  0.00     0.191 C 
BRANCH  30  31
ATOM     31  O   UNL     1     -26.770  52.561  42.614  1.00  0.00    -0.394 OA
ATOM     32  H   UNL     1     -27.427  51.914  42.249  1.00  0.00     0.210 HD
ENDBRANCH  30  31
ENDBRANCH  24  30
BRANCH  25  33
ATOM     33  O   UNL     1     -23.165  51.918  40.520  1.00  0.00    -0.388 OA
ATOM     34  H   UNL     1     -23.583  52.660  41.032  1.00  0.00     0.211 HD
ENDBRANCH  25  33
ENDBRANCH  11  20
BRANCH  10  35
ATOM     35  O   UNL     1     -27.976  49.045  38.691  1.00  0.00    -0.507 OA
ATOM     36  H   UNL     1     -28.087  50.047  38.657  1.00  0.00     0.293 HD
ENDBRANCH  10  35
TORSDOF 9
ENDMDL
MODEL 5
REMARK VINA RESULT:    -3.993      2.074      8.403
REMARK INTER + INTRA:          -6.618
REMARK INTER:                  -5.284
REMARK INTRA:                  -1.334
REMARK UNBOUND:                -1.226
REMARK SMILES O=c1c(-c2ccc(O)cc2)coc2c([C@@H]3O[C@@H](CO)[C@@H](O)[C@@H](O)[C@H]3O)c(O)ccc12
REMARK SMILES IDX 3 1 11 2 12 3 13 4 30 5 2 6 1 7 29 8 28 9 26 10 14 11 4 12
REMARK SMILES IDX 5 13 6 14 7 15 10 16 9 17 8 18 15 20 24 21 16 22 22 23 17 24
REMARK SMILES IDX 20 25 25 26 23 28 18 30 19 31 21 33 27 35
REMARK H PARENT 8 19 25 27 23 29 19 32 21 34 27 36
REMARK Flexibility Score: inf
ROOT
ATOM      1  C   UNL     1     -26.196  49.706  41.702  1.00  0.00     0.065 A 
ATOM      2  C   UNL     1     -25.978  51.081  41.858  1.00  0.00     0.208 A 
ATOM      3  O   UNL     1     -25.652  51.590  43.040  1.00  0.00    -0.463 OA
ATOM      4  C   UNL     1     -25.512  50.853  44.140  1.00  0.00     0.147 A 
ATOM      5  C   UNL     1     -25.714  49.455  44.070  1.00  0.00     0.066 A 
ATOM      6  C   UNL     1     -26.052  48.881  42.830  1.00  0.00     0.200 A 
ATOM      7  O   UNL     1     -26.206  47.633  42.729  1.00  0.00    -0.288 OA
ATOM      8  C   UNL     1     -25.574  48.677  45.227  1.00  0.00     0.020 A 
ATOM      9  C   UNL     1     -25.258  49.278  46.442  1.00  0.00     0.047 A 
ATOM     10  C   UNL     1     -25.063  50.658  46.534  1.00  0.00     0.125 A 
ATOM     11  C   UNL     1     -25.163  51.471  45.369  1.00  0.00     0.069 A 
ENDROOT
BRANCH   1  12
ATOM     12  C   UNL     1     -26.564  49.162  40.370  1.00  0.00    -0.011 A 
ATOM     13  C   UNL     1     -25.570  48.797  39.445  1.00  0.00     0.013 A 
ATOM     14  C   UNL     1     -25.922  48.276  38.196  1.00  0.00     0.047 A 
ATOM     15  C   UNL     1     -27.272  48.110  37.858  1.00  0.00     0.115 A 
ATOM     16  C   UNL     1     -27.916  48.984  40.026  1.00  0.00     0.013 A 
ATOM     17  C   UNL     1     -28.265  48.465  38.776  1.00  0.00     0.047 A 
BRANCH  15  18
ATOM     18  O   UNL     1     -27.634  47.593  36.616  1.00  0.00    -0.508 OA
ATOM     19  H   UNL     1     -27.958  46.638  36.514  1.00  0.00     0.293 HD
ENDBRANCH  15  18
ENDBRANCH   1  12
BRANCH  11  20
ATOM     20  C   UNL     1     -24.946  52.981  45.412  1.00  0.00     0.188 C 
ATOM     21  C   UNL     1     -26.244  53.699  45.839  1.00  0.00     0.179 C 
ATOM     22  O   UNL     1     -23.860  53.273  46.276  1.00  0.00    -0.362 OA
ATOM     23  C   UNL     1     -26.023  55.220  45.854  1.00  0.00     0.177 C 
ATOM     24  C   UNL     1     -23.547  54.657  46.349  1.00  0.00     0.176 C 
ATOM     25  C   UNL     1     -24.771  55.561  46.678  1.00  0.00     0.177 C 
BRANCH  21  26
ATOM     26  O   UNL     1     -27.283  53.370  44.953  1.00  0.00    -0.387 OA
ATOM     27  H   UNL     1     -28.013  52.977  45.500  1.00  0.00     0.211 HD
ENDBRANCH  21  26
BRANCH  23  28
ATOM     28  O   UNL     1     -25.904  55.722  44.547  1.00  0.00    -0.387 OA
ATOM     29  H   UNL     1     -25.358  56.550  44.601  1.00  0.00     0.211 HD
ENDBRANCH  23  28
BRANCH  24  30
ATOM     30  C   UNL     1     -22.639  55.121  45.185  1.00  0.00     0.191 C 
BRANCH  30  31
ATOM     31  O   UNL     1     -21.822  56.197  45.545  1.00  0.00    -0.394 OA
ATOM     32  H   UNL     1     -21.006  56.124  44.987  1.00  0.00     0.210 HD
ENDBRANCH  30  31
ENDBRANCH  24  30
BRANCH  25  33
ATOM     33  O   UNL     1     -24.457  56.922  46.522  1.00  0.00    -0.388 OA
ATOM     34  H   UNL     1     -23.545  57.050  46.897  1.00  0.00     0.211 HD
ENDBRANCH  25  33
ENDBRANCH  11  20
BRANCH  10  35
ATOM     35  O   UNL     1     -24.781  51.171  47.804  1.00  0.00    -0.507 OA
ATOM     36  H   UNL     1     -23.945  51.683  48.044  1.00  0.00     0.293 HD
ENDBRANCH  10  35
TORSDOF 9
ENDMDL
MODEL 6
REMARK VINA RESULT:    -3.987      3.406      8.133
REMARK INTER + INTRA:          -6.611
REMARK INTER:                  -5.284
REMARK INTRA:                  -1.327
REMARK UNBOUND:                -1.226
REMARK SMILES O=c1c(-c2ccc(O)cc2)coc2c([C@@H]3O[C@@H](CO)[C@@H](O)[C@@H](O)[C@H]3O)c(O)ccc12
REMARK SMILES IDX 3 1 11 2 12 3 13 4 30 5 2 6 1 7 29 8 28 9 26 10 14 11 4 12
REMARK SMILES IDX 5 13 6 14 7 15 10 16 9 17 8 18 15 20 24 21 16 22 22 23 17 24
REMARK SMILES IDX 20 25 25 26 23 28 18 30 19 31 21 33 27 35
REMARK H PARENT 8 19 25 27 23 29 19 32 21 34 27 36
REMARK Flexibility Score: inf
ROOT
ATOM      1  C   UNL     1     -26.556  46.683  44.467  1.00  0.00     0.065 A 
ATOM      2  C   UNL     1     -26.108  47.825  45.143  1.00  0.00     0.208 A 
ATOM      3  O   UNL     1     -25.984  48.986  44.511  1.00  0.00    -0.463 OA
ATOM      4  C   UNL     1     -26.268  49.150  43.221  1.00  0.00     0.147 A 
ATOM      5  C   UNL     1     -26.727  48.047  42.464  1.00  0.00     0.066 A 
ATOM      6  C   UNL     1     -26.879  46.804  43.105  1.00  0.00     0.200 A 
ATOM      7  O   UNL     1     -27.318  45.808  42.465  1.00  0.00    -0.288 OA
ATOM      8  C   UNL     1     -27.021  48.215  41.105  1.00  0.00     0.020 A 
ATOM      9  C   UNL     1     -26.842  49.454  40.497  1.00  0.00     0.047 A 
ATOM     10  C   UNL     1     -26.381  50.554  41.224  1.00  0.00     0.125 A 
ATOM     11  C   UNL     1     -26.109  50.424  42.616  1.00  0.00     0.069 A 
ENDROOT
BRANCH   1  12
ATOM     12  C   UNL     1     -26.681  45.394  45.195  1.00  0.00    -0.011 A 
ATOM     13  C   UNL     1     -27.882  45.049  45.841  1.00  0.00     0.013 A 
ATOM     14  C   UNL     1     -27.998  43.831  46.517  1.00  0.00     0.047 A 
ATOM     15  C   UNL     1     -26.916  42.940  46.551  1.00  0.00     0.115 A 
ATOM     16  C   UNL     1     -25.604  44.491  45.228  1.00  0.00     0.013 A 
ATOM     17  C   UNL     1     -25.722  43.274  45.906  1.00  0.00     0.047 A 
BRANCH  15  18
ATOM     18  O   UNL     1     -27.020  41.724  47.222  1.00  0.00    -0.508 OA
ATOM     19  H   UNL     1     -27.581  40.963  46.856  1.00  0.00     0.293 HD
ENDBRANCH  15  18
ENDBRANCH   1  12
BRANCH  11  20
ATOM     20  C   UNL     1     -25.617  51.597  43.460  1.00  0.00     0.188 C 
ATOM     21  C   UNL     1     -24.093  51.780  43.291  1.00  0.00     0.179 C 
ATOM     22  O   UNL     1     -26.341  52.765  43.106  1.00  0.00    -0.362 OA
ATOM     23  C   UNL     1     -23.603  52.946  44.164  1.00  0.00     0.177 C 
ATOM     24  C   UNL     1     -25.987  53.908  43.871  1.00  0.00     0.176 C 
ATOM     25  C   UNL     1     -24.456  54.196  43.898  1.00  0.00     0.177 C 
BRANCH  21  26
ATOM     26  O   UNL     1     -23.430  50.594  43.649  1.00  0.00    -0.387 OA
ATOM     27  H   UNL     1     -24.112  49.992  44.047  1.00  0.00     0.211 HD
ENDBRANCH  21  26
BRANCH  23  28
ATOM     28  O   UNL     1     -23.642  52.602  45.526  1.00  0.00    -0.387 OA
ATOM     29  H   UNL     1     -24.468  52.069  45.669  1.00  0.00     0.211 HD
ENDBRANCH  23  28
BRANCH  24  30
ATOM     30  C   UNL     1     -26.723  53.962  45.230  1.00  0.00     0.191 C 
BRANCH  30  31
ATOM     31  O   UNL     1     -27.094  55.263  45.582  1.00  0.00    -0.394 OA
ATOM     32  H   UNL     1     -28.085  55.267  45.627  1.00  0.00     0.210 HD
ENDBRANCH  30  31
ENDBRANCH  24  30
BRANCH  25  33
ATOM     33  O   UNL     1     -24.142  55.193  44.836  1.00  0.00    -0.388 OA
ATOM     34  H   UNL     1     -24.956  55.754  44.941  1.00  0.00     0.211 HD
ENDBRANCH  25  33
ENDBRANCH  11  20
BRANCH  10  35
ATOM     35  O   UNL     1     -26.204  51.747  40.517  1.00  0.00    -0.507 OA
ATOM     36  H   UNL     1     -25.443  52.393  40.661  1.00  0.00     0.293 HD
ENDBRANCH  10  35
TORSDOF 9
ENDMDL
MODEL 7
REMARK VINA RESULT:    -3.975      1.911      2.604
REMARK INTER + INTRA:          -6.594
REMARK INTER:                  -5.335
REMARK INTRA:                  -1.259
REMARK UNBOUND:                -1.226
REMARK SMILES O=c1c(-c2ccc(O)cc2)coc2c([C@@H]3O[C@@H](CO)[C@@H](O)[C@@H](O)[C@H]3O)c(O)ccc12
REMARK SMILES IDX 3 1 11 2 12 3 13 4 30 5 2 6 1 7 29 8 28 9 26 10 14 11 4 12
REMARK SMILES IDX 5 13 6 14 7 15 10 16 9 17 8 18 15 20 24 21 16 22 22 23 17 24
REMARK SMILES IDX 20 25 25 26 23 28 18 30 19 31 21 33 27 35
REMARK H PARENT 8 19 25 27 23 29 19 32 21 34 27 36
REMARK Flexibility Score: inf
ROOT
ATOM      1  C   UNL     1     -25.573  52.268  43.326  1.00  0.00     0.065 A 
ATOM      2  C   UNL     1     -26.379  51.131  43.189  1.00  0.00     0.208 A 
ATOM      3  O   UNL     1     -26.293  50.361  42.111  1.00  0.00    -0.463 OA
ATOM      4  C   UNL     1     -25.457  50.603  41.103  1.00  0.00     0.147 A 
ATOM      5  C   UNL     1     -24.607  51.732  41.162  1.00  0.00     0.066 A 
ATOM      6  C   UNL     1     -24.665  52.565  42.294  1.00  0.00     0.200 A 
ATOM      7  O   UNL     1     -23.896  53.561  42.391  1.00  0.00    -0.288 OA
ATOM      8  C   UNL     1     -23.731  51.994  40.100  1.00  0.00     0.020 A 
ATOM      9  C   UNL     1     -23.710  51.161  38.986  1.00  0.00     0.047 A 
ATOM     10  C   UNL     1     -24.549  50.046  38.904  1.00  0.00     0.125 A 
ATOM     11  C   UNL     1     -25.424  49.733  39.983  1.00  0.00     0.069 A 
ENDROOT
BRANCH   1  12
ATOM     12  C   UNL     1     -25.691  53.117  44.539  1.00  0.00    -0.011 A 
ATOM     13  C   UNL     1     -26.470  54.288  44.521  1.00  0.00     0.013 A 
ATOM     14  C   UNL     1     -26.586  55.078  45.668  1.00  0.00     0.047 A 
ATOM     15  C   UNL     1     -25.927  54.707  46.848  1.00  0.00     0.115 A 
ATOM     16  C   UNL     1     -25.040  52.748  45.729  1.00  0.00     0.013 A 
ATOM     17  C   UNL     1     -25.156  53.541  46.874  1.00  0.00     0.047 A 
BRANCH  15  18
ATOM     18  O   UNL     1     -26.034  55.488  47.997  1.00  0.00    -0.508 OA
ATOM     19  H   UNL     1     -26.387  55.104  48.867  1.00  0.00     0.293 HD
ENDBRANCH  15  18
ENDBRANCH   1  12
BRANCH  11  20
ATOM     20  C   UNL     1     -26.350  48.519  39.951  1.00  0.00     0.188 C 
ATOM     21  C   UNL     1     -27.591  48.813  39.081  1.00  0.00     0.179 C 
ATOM     22  O   UNL     1     -25.625  47.390  39.491  1.00  0.00    -0.362 OA
ATOM     23  C   UNL     1     -28.529  47.595  39.075  1.00  0.00     0.177 C 
ATOM     24  C   UNL     1     -26.391  46.193  39.468  1.00  0.00     0.176 C 
ATOM     25  C   UNL     1     -27.743  46.328  38.707  1.00  0.00     0.177 C 
BRANCH  21  26
ATOM     26  O   UNL     1     -28.264  49.941  39.578  1.00  0.00    -0.387 OA
ATOM     27  H   UNL     1     -28.285  49.850  40.567  1.00  0.00     0.211 HD
ENDBRANCH  21  26
BRANCH  23  28
ATOM     28  O   UNL     1     -29.156  47.441  40.324  1.00  0.00    -0.387 OA
ATOM     29  H   UNL     1     -28.642  47.983  40.978  1.00  0.00     0.211 HD
ENDBRANCH  23  28
BRANCH  24  30
ATOM     30  C   UNL     1     -26.441  45.497  40.848  1.00  0.00     0.191 C 
BRANCH  30  31
ATOM     31  O   UNL     1     -27.707  45.578  41.438  1.00  0.00    -0.394 OA
ATOM     32  H   UNL     1     -28.330  45.112  40.823  1.00  0.00     0.210 HD
ENDBRANCH  30  31
ENDBRANCH  24  30
BRANCH  25  33
ATOM     33  O   UNL     1     -28.551  45.194  38.901  1.00  0.00    -0.388 OA
ATOM     34  H   UNL     1     -28.507  44.664  38.062  1.00  0.00     0.211 HD
ENDBRANCH  25  33
ENDBRANCH  11  20
BRANCH  10  35
ATOM     35  O   UNL     1     -24.477  49.289  37.731  1.00  0.00    -0.507 OA
ATOM     36  H   UNL     1     -25.269  49.049  37.153  1.00  0.00     0.293 HD
ENDBRANCH  10  35
TORSDOF 9
ENDMDL
MODEL 8
REMARK VINA RESULT:    -3.804      2.537      8.051
REMARK INTER + INTRA:          -6.364
REMARK INTER:                  -5.039
REMARK INTRA:                  -1.325
REMARK UNBOUND:                -1.226
REMARK SMILES O=c1c(-c2ccc(O)cc2)coc2c([C@@H]3O[C@@H](CO)[C@@H](O)[C@@H](O)[C@H]3O)c(O)ccc12
REMARK SMILES IDX 3 1 11 2 12 3 13 4 30 5 2 6 1 7 29 8 28 9 26 10 14 11 4 12
REMARK SMILES IDX 5 13 6 14 7 15 10 16 9 17 8 18 15 20 24 21 16 22 22 23 17 24
REMARK SMILES IDX 20 25 25 26 23 28 18 30 19 31 21 33 27 35
REMARK H PARENT 8 19 25 27 23 29 19 32 21 34 27 36
REMARK Flexibility Score: inf
ROOT
ATOM      1  C   UNL     1     -26.911  48.553  40.923  1.00  0.00     0.065 A 
ATOM      2  C   UNL     1     -26.377  49.697  40.318  1.00  0.00     0.208 A 
ATOM      3  O   UNL     1     -25.713  50.598  41.031  1.00  0.00    -0.463 OA
ATOM      4  C   UNL     1     -25.509  50.488  42.342  1.00  0.00     0.147 A 
ATOM      5  C   UNL     1     -26.014  49.362  43.032  1.00  0.00     0.066 A 
ATOM      6  C   UNL     1     -26.716  48.382  42.305  1.00  0.00     0.200 A 
ATOM      7  O   UNL     1     -27.152  47.350  42.886  1.00  0.00    -0.288 OA
ATOM      8  C   UNL     1     -25.807  49.246  44.412  1.00  0.00     0.020 A 
ATOM      9  C   UNL     1     -25.125  50.241  45.105  1.00  0.00     0.047 A 
ATOM     10  C   UNL     1     -24.625  51.366  44.444  1.00  0.00     0.125 A 
ATOM     11  C   UNL     1     -24.788  51.495  43.035  1.00  0.00     0.069 A 
ENDROOT
BRANCH   1  12
ATOM     12  C   UNL     1     -27.655  47.562  40.105  1.00  0.00    -0.011 A 
ATOM     13  C   UNL     1     -29.055  47.633  39.990  1.00  0.00     0.013 A 
ATOM     14  C   UNL     1     -29.750  46.704  39.211  1.00  0.00     0.047 A 
ATOM     15  C   UNL     1     -29.054  45.692  38.535  1.00  0.00     0.115 A 
ATOM     16  C   UNL     1     -26.965  46.548  39.417  1.00  0.00     0.013 A 
ATOM     17  C   UNL     1     -27.662  45.619  38.641  1.00  0.00     0.047 A 
BRANCH  15  18
ATOM     18  O   UNL     1     -29.736  44.759  37.757  1.00  0.00    -0.508 OA
ATOM     19  H   UNL     1     -29.519  43.770  37.805  1.00  0.00     0.293 HD
ENDBRANCH  15  18
ENDBRANCH   1  12
BRANCH  11  20
ATOM     20  C   UNL     1     -24.249  52.696  42.262  1.00  0.00     0.188 C 
ATOM     21  C   UNL     1     -25.258  53.863  42.311  1.00  0.00     0.179 C 
ATOM     22  O   UNL     1     -22.982  53.059  42.786  1.00  0.00    -0.362 OA
ATOM     23  C   UNL     1     -24.719  55.058  41.509  1.00  0.00     0.177 C 
ATOM     24  C   UNL     1     -22.372  54.144  42.101  1.00  0.00     0.176 C 
ATOM     25  C   UNL     1     -23.290  55.395  41.964  1.00  0.00     0.177 C 
BRANCH  21  26
ATOM     26  O   UNL     1     -26.493  53.446  41.786  1.00  0.00    -0.387 OA
ATOM     27  H   UNL     1     -26.428  53.527  40.799  1.00  0.00     0.211 HD
ENDBRANCH  21  26
BRANCH  23  28
ATOM     28  O   UNL     1     -24.746  54.789  40.130  1.00  0.00    -0.387 OA
ATOM     29  H   UNL     1     -25.342  54.005  39.997  1.00  0.00     0.211 HD
ENDBRANCH  23  28
BRANCH  24  30
ATOM     30  C   UNL     1     -21.625  53.693  40.824  1.00  0.00     0.191 C 
BRANCH  30  31
ATOM     31  O   UNL     1     -20.560  54.542  40.504  1.00  0.00    -0.394 OA
ATOM     32  H   UNL     1     -20.959  55.327  40.048  1.00  0.00     0.210 HD
ENDBRANCH  30  31
ENDBRANCH  24  30
BRANCH  25  33
ATOM     33  O   UNL     1     -22.728  56.347  41.097  1.00  0.00    -0.388 OA
ATOM     34  H   UNL     1     -21.809  56.530  41.430  1.00  0.00     0.211 HD
ENDBRANCH  25  33
ENDBRANCH  11  20
BRANCH  10  35
ATOM     35  O   UNL     1     -23.982  52.326  45.232  1.00  0.00    -0.507 OA
ATOM     36  H   UNL     1     -23.185  52.869  44.939  1.00  0.00     0.293 HD
ENDBRANCH  10  35
TORSDOF 9
ENDMDL
MODEL 9
REMARK VINA RESULT:    -3.680      8.088     12.256
REMARK INTER + INTRA:          -6.197
REMARK INTER:                  -5.091
REMARK INTRA:                  -1.106
REMARK UNBOUND:                -1.226
REMARK SMILES O=c1c(-c2ccc(O)cc2)coc2c([C@@H]3O[C@@H](CO)[C@@H](O)[C@@H](O)[C@H]3O)c(O)ccc12
REMARK SMILES IDX 3 1 11 2 12 3 13 4 30 5 2 6 1 7 29 8 28 9 26 10 14 11 4 12
REMARK SMILES IDX 5 13 6 14 7 15 10 16 9 17 8 18 15 20 24 21 16 22 22 23 17 24
REMARK SMILES IDX 20 25 25 26 23 28 18 30 19 31 21 33 27 35
REMARK H PARENT 8 19 25 27 23 29 19 32 21 34 27 36
REMARK Flexibility Score: inf
ROOT
ATOM      1  C   UNL     1     -27.419  52.514  33.101  1.00  0.00     0.065 A 
ATOM      2  C   UNL     1     -27.531  53.115  34.361  1.00  0.00     0.208 A 
ATOM      3  O   UNL     1     -27.083  54.347  34.571  1.00  0.00    -0.463 OA
ATOM      4  C   UNL     1     -26.506  55.086  33.626  1.00  0.00     0.147 A 
ATOM      5  C   UNL     1     -26.352  54.554  32.324  1.00  0.00     0.066 A 
ATOM      6  C   UNL     1     -26.825  53.255  32.065  1.00  0.00     0.200 A 
ATOM      7  O   UNL     1     -26.733  52.764  30.905  1.00  0.00    -0.288 OA
ATOM      8  C   UNL     1     -25.740  55.327  31.329  1.00  0.00     0.020 A 
ATOM      9  C   UNL     1     -25.266  56.601  31.622  1.00  0.00     0.047 A 
ATOM     10  C   UNL     1     -25.399  57.142  32.904  1.00  0.00     0.125 A 
ATOM     11  C   UNL     1     -26.050  56.396  33.928  1.00  0.00     0.069 A 
ENDROOT
BRANCH   1  12
ATOM     12  C   UNL     1     -27.923  51.133  32.893  1.00  0.00    -0.011 A 
ATOM     13  C   UNL     1     -27.037  50.083  32.593  1.00  0.00     0.013 A 
ATOM     14  C   UNL     1     -27.516  48.783  32.407  1.00  0.00     0.047 A 
ATOM     15  C   UNL     1     -28.887  48.515  32.523  1.00  0.00     0.115 A 
ATOM     16  C   UNL     1     -29.296  50.853  33.014  1.00  0.00     0.013 A 
ATOM     17  C   UNL     1     -29.773  49.553  32.826  1.00  0.00     0.047 A 
BRANCH  15  18
ATOM     18  O   UNL     1     -29.376  47.224  32.338  1.00  0.00    -0.508 OA
ATOM     19  H   UNL     1     -28.953  46.588  31.672  1.00  0.00     0.293 HD
ENDBRANCH  15  18
ENDBRANCH   1  12
BRANCH  11  20
ATOM     20  C   UNL     1     -26.234  56.945  35.340  1.00  0.00     0.188 C 
ATOM     21  C   UNL     1     -25.007  56.607  36.213  1.00  0.00     0.179 C 
ATOM     22  O   UNL     1     -26.477  58.341  35.271  1.00  0.00    -0.362 OA
ATOM     23  C   UNL     1     -25.213  57.140  37.639  1.00  0.00     0.177 C 
ATOM     24  C   UNL     1     -26.709  58.941  36.538  1.00  0.00     0.176 C 
ATOM     25  C   UNL     1     -25.607  58.625  37.593  1.00  0.00     0.177 C 
BRANCH  21  26
ATOM     26  O   UNL     1     -24.812  55.215  36.240  1.00  0.00    -0.387 OA
ATOM     27  H   UNL     1     -25.026  54.877  35.331  1.00  0.00     0.211 HD
ENDBRANCH  21  26
BRANCH  23  28
ATOM     28  O   UNL     1     -26.190  56.392  38.318  1.00  0.00    -0.387 OA
ATOM     29  H   UNL     1     -25.933  56.379  39.277  1.00  0.00     0.211 HD
ENDBRANCH  23  28
BRANCH  24  30
ATOM     30  C   UNL     1     -28.175  58.791  37.005  1.00  0.00     0.191 C 
BRANCH  30  31
ATOM     31  O   UNL     1     -28.301  57.913  38.086  1.00  0.00    -0.394 OA
ATOM     32  H   UNL     1     -28.576  58.467  38.862  1.00  0.00     0.210 HD
ENDBRANCH  30  31
ENDBRANCH  24  30
BRANCH  25  33
ATOM     33  O   UNL     1     -25.992  59.055  38.874  1.00  0.00    -0.388 OA
ATOM     34  H   UNL     1     -26.974  59.198  38.846  1.00  0.00     0.211 HD
ENDBRANCH  25  33
ENDBRANCH  11  20
BRANCH  10  35
ATOM     35  O   UNL     1     -24.863  58.417  33.108  1.00  0.00    -0.507 OA
ATOM     36  H   UNL     1     -24.704  59.097  32.380  1.00  0.00     0.293 HD
ENDBRANCH  10  35
TORSDOF 9
ENDMDL
