MODEL 1
REMARK VINA RESULT:    -4.736      0.000      0.000
REMARK INTER + INTRA:          -5.478
REMARK INTER:                  -5.290
REMARK INTRA:                  -0.188
REMARK UNBOUND:                -0.188
REMARK SMILES O=C([O-])c1ccccc1C(=O)[O-]
REMARK SMILES IDX 4 1 9 2 5 3 8 4 6 5 7 6 2 7 1 8 3 9 10 10 11 11 12 12
REMARK H PARENT
REMARK Flexibility Score: inf
ROOT
ATOM      1  C   UNL     1      22.513 -24.630  20.672  1.00  0.00     0.006 A 
ATOM      2  C   UNL     1      22.344 -24.002  21.935  1.00  0.00     0.006 A 
ATOM      3  C   UNL     1      23.507 -24.153  19.797  1.00  0.00     0.010 A 
ATOM      4  C   UNL     1      23.217 -22.961  22.305  1.00  0.00     0.010 A 
ATOM      5  C   UNL     1      24.347 -23.104  20.174  1.00  0.00     0.001 A 
ATOM      6  C   UNL     1      24.209 -22.518  21.431  1.00  0.00     0.001 A 
ENDROOT
BRANCH   1   7
ATOM      7  C   UNL     1      21.734 -25.821  20.261  1.00  0.00     0.072 C 
ATOM      8  O   UNL     1      22.236 -26.972  20.358  1.00  0.00    -0.545 OA
ATOM      9  O   UNL     1      20.420 -25.693  19.825  1.00  0.00    -0.545 OA
ENDBRANCH   1   7
BRANCH   2  10
ATOM     10  C   UNL     1      21.237 -24.347  22.857  1.00  0.00     0.072 C 
ATOM     11  O   UNL     1      21.458 -25.045  23.881  1.00  0.00    -0.545 OA
ATOM     12  O   UNL     1      19.955 -23.853  22.641  1.00  0.00    -0.545 OA
ENDBRANCH   2  10
TORSDOF 2
ENDMDL
MODEL 2
REMARK VINA RESULT:    -4.719      0.087      3.020
REMARK INTER + INTRA:          -5.459
REMARK INTER:                  -5.266
REMARK INTRA:                  -0.193
REMARK UNBOUND:                -0.188
REMARK SMILES O=C([O-])c1ccccc1C(=O)[O-]
REMARK SMILES IDX 4 1 9 2 5 3 8 4 6 5 7 6 2 7 1 8 3 9 10 10 11 11 12 12
REMARK H PARENT
REMARK Flexibility Score: inf
ROOT
ATOM      1  C   UNL     1      22.370 -23.981  21.951  1.00  0.00     0.006 A 
ATOM      2  C   UNL     1      22.541 -24.621  20.693  1.00  0.00     0.006 A 
ATOM      3  C   UNL     1      23.235 -22.930  22.308  1.00  0.00     0.010 A 
ATOM      4  C   UNL     1      23.531 -24.144  19.812  1.00  0.00     0.010 A 
ATOM      5  C   UNL     1      24.224 -22.488  21.429  1.00  0.00     0.001 A 
ATOM      6  C   UNL     1      24.363 -23.087  20.178  1.00  0.00     0.001 A 
ENDROOT
BRANCH   1   7
ATOM      7  C   UNL     1      21.267 -24.324  22.878  1.00  0.00     0.072 C 
ATOM      8  O   UNL     1      21.498 -24.998  23.917  1.00  0.00    -0.545 OA
ATOM      9  O   UNL     1      19.978 -23.855  22.651  1.00  0.00    -0.545 OA
ENDBRANCH   1   7
BRANCH   2  10
ATOM     10  C   UNL     1      21.769 -25.821  20.295  1.00  0.00     0.072 C 
ATOM     11  O   UNL     1      20.632 -25.698  19.771  1.00  0.00    -0.545 OA
ATOM     12  O   UNL     1      22.315 -27.092  20.435  1.00  0.00    -0.545 OA
ENDBRANCH   2  10
TORSDOF 2
ENDMDL
MODEL 3
REMARK VINA RESULT:    -4.667      9.393     11.284
REMARK INTER + INTRA:          -5.401
REMARK INTER:                  -5.198
REMARK INTRA:                  -0.203
REMARK UNBOUND:                -0.188
REMARK SMILES O=C([O-])c1ccccc1C(=O)[O-]
REMARK SMILES IDX 4 1 9 2 5 3 8 4 6 5 7 6 2 7 1 8 3 9 10 10 11 11 12 12
REMARK H PARENT
REMARK Flexibility Score: inf
ROOT
ATOM      1  C   UNL     1      17.155 -33.372  20.729  1.00  0.00     0.006 A 
ATOM      2  C   UNL     1      15.820 -33.856  20.792  1.00  0.00     0.006 A 
ATOM      3  C   UNL     1      18.133 -34.143  20.073  1.00  0.00     0.010 A 
ATOM      4  C   UNL     1      15.497 -35.061  20.140  1.00  0.00     0.010 A 
ATOM      5  C   UNL     1      17.796 -35.347  19.453  1.00  0.00     0.001 A 
ATOM      6  C   UNL     1      16.478 -35.798  19.477  1.00  0.00     0.001 A 
ENDROOT
BRANCH   1   7
ATOM      7  C   UNL     1      17.551 -32.049  21.264  1.00  0.00     0.072 C 
ATOM      8  O   UNL     1      17.626 -31.052  20.498  1.00  0.00    -0.545 OA
ATOM      9  O   UNL     1      17.781 -31.874  22.623  1.00  0.00    -0.545 OA
ENDBRANCH   1   7
BRANCH   2  10
ATOM     10  C   UNL     1      14.762 -33.181  21.579  1.00  0.00     0.072 C 
ATOM     11  O   UNL     1      13.885 -32.488  20.999  1.00  0.00    -0.545 OA
ATOM     12  O   UNL     1      14.683 -33.355  22.956  1.00  0.00    -0.545 OA
ENDBRANCH   2  10
TORSDOF 2
ENDMDL
MODEL 4
REMARK VINA RESULT:    -4.657     10.773     11.607
REMARK INTER + INTRA:          -5.389
REMARK INTER:                  -5.163
REMARK INTRA:                  -0.226
REMARK UNBOUND:                -0.188
REMARK SMILES O=C([O-])c1ccccc1C(=O)[O-]
REMARK SMILES IDX 4 1 9 2 5 3 8 4 6 5 7 6 2 7 1 8 3 9 10 10 11 11 12 12
REMARK H PARENT
REMARK Flexibility Score: inf
ROOT
ATOM      1  C   UNL     1      14.656 -31.990  23.058  1.00  0.00     0.006 A 
ATOM      2  C   UNL     1      14.468 -32.328  21.690  1.00  0.00     0.006 A 
ATOM      3  C   UNL     1      13.818 -31.026  23.647  1.00  0.00     0.010 A 
ATOM      4  C   UNL     1      13.406 -31.736  20.979  1.00  0.00     0.010 A 
ATOM      5  C   UNL     1      12.786 -30.434  22.917  1.00  0.00     0.001 A 
ATOM      6  C   UNL     1      12.574 -30.798  21.589  1.00  0.00     0.001 A 
ENDROOT
BRANCH   1   7
ATOM      7  C   UNL     1      15.655 -32.667  23.917  1.00  0.00     0.072 C 
ATOM      8  O   UNL     1      15.358 -33.734  24.516  1.00  0.00    -0.545 OA
ATOM      9  O   UNL     1      16.950 -32.173  24.022  1.00  0.00    -0.545 OA
ENDBRANCH   1   7
BRANCH   2  10
ATOM     10  C   UNL     1      15.388 -33.226  20.955  1.00  0.00     0.072 C 
ATOM     11  O   UNL     1      16.477 -32.785  20.501  1.00  0.00    -0.545 OA
ATOM     12  O   UNL     1      15.095 -34.578  20.811  1.00  0.00    -0.545 OA
ENDBRANCH   2  10
TORSDOF 2
ENDMDL
MODEL 5
REMARK VINA RESULT:    -4.656     10.844     11.323
REMARK INTER + INTRA:          -5.388
REMARK INTER:                  -5.161
REMARK INTRA:                  -0.227
REMARK UNBOUND:                -0.188
REMARK SMILES O=C([O-])c1ccccc1C(=O)[O-]
REMARK SMILES IDX 4 1 9 2 5 3 8 4 6 5 7 6 2 7 1 8 3 9 10 10 11 11 12 12
REMARK H PARENT
REMARK Flexibility Score: inf
ROOT
ATOM      1  C   UNL     1      14.464 -32.376  21.696  1.00  0.00     0.006 A 
ATOM      2  C   UNL     1      14.610 -32.032  23.068  1.00  0.00     0.006 A 
ATOM      3  C   UNL     1      13.437 -31.776  20.944  1.00  0.00     0.010 A 
ATOM      4  C   UNL     1      13.762 -31.053  23.621  1.00  0.00     0.010 A 
ATOM      5  C   UNL     1      12.593 -30.824  21.519  1.00  0.00     0.001 A 
ATOM      6  C   UNL     1      12.765 -30.455  22.852  1.00  0.00     0.001 A 
ENDROOT
BRANCH   1   7
ATOM      7  C   UNL     1      15.399 -33.289  20.998  1.00  0.00     0.072 C 
ATOM      8  O   UNL     1      16.503 -32.860  20.570  1.00  0.00    -0.545 OA
ATOM      9  O   UNL     1      15.102 -34.640  20.864  1.00  0.00    -0.545 OA
ENDBRANCH   1   7
BRANCH   2  10
ATOM     10  C   UNL     1      15.570 -32.714  23.965  1.00  0.00     0.072 C 
ATOM     11  O   UNL     1      15.234 -33.765  24.572  1.00  0.00    -0.545 OA
ATOM     12  O   UNL     1      16.872 -32.244  24.099  1.00  0.00    -0.545 OA
ENDBRANCH   2  10
TORSDOF 2
ENDMDL
MODEL 6
REMARK VINA RESULT:    -4.638      9.425     11.303
REMARK INTER + INTRA:          -5.368
REMARK INTER:                  -5.162
REMARK INTRA:                  -0.207
REMARK UNBOUND:                -0.188
REMARK SMILES O=C([O-])c1ccccc1C(=O)[O-]
REMARK SMILES IDX 4 1 9 2 5 3 8 4 6 5 7 6 2 7 1 8 3 9 10 10 11 11 12 12
REMARK H PARENT
REMARK Flexibility Score: inf
ROOT
ATOM      1  C   UNL     1      15.867 -33.935  20.769  1.00  0.00     0.006 A 
ATOM      2  C   UNL     1      17.209 -33.466  20.760  1.00  0.00     0.006 A 
ATOM      3  C   UNL     1      15.554 -35.130  20.094  1.00  0.00     0.010 A 
ATOM      4  C   UNL     1      18.201 -34.243  20.131  1.00  0.00     0.010 A 
ATOM      5  C   UNL     1      16.549 -35.872  19.457  1.00  0.00     0.001 A 
ATOM      6  C   UNL     1      17.872 -35.435  19.487  1.00  0.00     0.001 A 
ENDROOT
BRANCH   1   7
ATOM      7  C   UNL     1      14.789 -33.256  21.524  1.00  0.00     0.072 C 
ATOM      8  O   UNL     1      13.889 -32.622  20.913  1.00  0.00    -0.545 OA
ATOM      9  O   UNL     1      14.717 -33.362  22.908  1.00  0.00    -0.545 OA
ENDBRANCH   1   7
BRANCH   2  10
ATOM     10  C   UNL     1      17.601 -32.154  21.323  1.00  0.00     0.072 C 
ATOM     11  O   UNL     1      17.985 -32.065  22.518  1.00  0.00    -0.545 OA
ATOM     12  O   UNL     1      17.611 -31.015  20.525  1.00  0.00    -0.545 OA
ENDBRANCH   2  10
TORSDOF 2
ENDMDL
MODEL 7
REMARK VINA RESULT:    -4.571      8.938     10.391
REMARK INTER + INTRA:          -5.293
REMARK INTER:                  -5.107
REMARK INTRA:                  -0.186
REMARK UNBOUND:                -0.188
REMARK SMILES O=C([O-])c1ccccc1C(=O)[O-]
REMARK SMILES IDX 4 1 9 2 5 3 8 4 6 5 7 6 2 7 1 8 3 9 10 10 11 11 12 12
REMARK H PARENT
REMARK Flexibility Score: inf
ROOT
ATOM      1  C   UNL     1      15.063 -31.014  21.656  1.00  0.00     0.006 A 
ATOM      2  C   UNL     1      15.923 -32.034  21.165  1.00  0.00     0.006 A 
ATOM      3  C   UNL     1      15.595 -29.737  21.919  1.00  0.00     0.010 A 
ATOM      4  C   UNL     1      17.269 -31.722  20.894  1.00  0.00     0.010 A 
ATOM      5  C   UNL     1      16.938 -29.457  21.665  1.00  0.00     0.001 A 
ATOM      6  C   UNL     1      17.770 -30.445  21.142  1.00  0.00     0.001 A 
ENDROOT
BRANCH   1   7
ATOM      7  C   UNL     1      13.607 -31.215  21.834  1.00  0.00     0.072 C 
ATOM      8  O   UNL     1      12.851 -31.302  20.831  1.00  0.00    -0.545 OA
ATOM      9  O   UNL     1      13.063 -31.375  23.103  1.00  0.00    -0.545 OA
ENDBRANCH   1   7
BRANCH   2  10
ATOM     10  C   UNL     1      15.481 -33.437  20.993  1.00  0.00     0.072 C 
ATOM     11  O   UNL     1      15.534 -34.241  21.960  1.00  0.00    -0.545 OA
ATOM     12  O   UNL     1      14.943 -33.868  19.786  1.00  0.00    -0.545 OA
ENDBRANCH   2  10
TORSDOF 2
ENDMDL
MODEL 8
REMARK VINA RESULT:    -4.563      8.929     10.140
REMARK INTER + INTRA:          -5.285
REMARK INTER:                  -5.099
REMARK INTRA:                  -0.186
REMARK UNBOUND:                -0.188
REMARK SMILES O=C([O-])c1ccccc1C(=O)[O-]
REMARK SMILES IDX 4 1 9 2 5 3 8 4 6 5 7 6 2 7 1 8 3 9 10 10 11 11 12 12
REMARK H PARENT
REMARK Flexibility Score: inf
ROOT
ATOM      1  C   UNL     1      15.940 -32.103  21.187  1.00  0.00     0.006 A 
ATOM      2  C   UNL     1      15.103 -31.049  21.645  1.00  0.00     0.006 A 
ATOM      3  C   UNL     1      17.291 -31.830  20.901  1.00  0.00     0.010 A 
ATOM      4  C   UNL     1      15.662 -29.776  21.863  1.00  0.00     0.010 A 
ATOM      5  C   UNL     1      17.820 -30.554  21.102  1.00  0.00     0.001 A 
ATOM      6  C   UNL     1      17.009 -29.533  21.594  1.00  0.00     0.001 A 
ENDROOT
BRANCH   1   7
ATOM      7  C   UNL     1      15.469 -33.502  21.065  1.00  0.00     0.072 C 
ATOM      8  O   UNL     1      15.573 -34.293  22.040  1.00  0.00    -0.545 OA
ATOM      9  O   UNL     1      14.849 -33.943  19.902  1.00  0.00    -0.545 OA
ENDBRANCH   1   7
BRANCH   2  10
ATOM     10  C   UNL     1      13.643 -31.214  21.836  1.00  0.00     0.072 C 
ATOM     11  O   UNL     1      12.880 -31.306  20.839  1.00  0.00    -0.545 OA
ATOM     12  O   UNL     1      13.105 -31.336  23.112  1.00  0.00    -0.545 OA
ENDBRANCH   2  10
TORSDOF 2
ENDMDL
MODEL 9
REMARK VINA RESULT:    -4.544     11.094     12.217
REMARK INTER + INTRA:          -5.264
REMARK INTER:                  -5.048
REMARK INTRA:                  -0.215
REMARK UNBOUND:                -0.188
REMARK SMILES O=C([O-])c1ccccc1C(=O)[O-]
REMARK SMILES IDX 4 1 9 2 5 3 8 4 6 5 7 6 2 7 1 8 3 9 10 10 11 11 12 12
REMARK H PARENT
REMARK Flexibility Score: inf
ROOT
ATOM      1  C   UNL     1      16.443 -34.707  21.130  1.00  0.00     0.006 A 
ATOM      2  C   UNL     1      17.414 -35.391  21.911  1.00  0.00     0.006 A 
ATOM      3  C   UNL     1      16.104 -35.214  19.861  1.00  0.00     0.010 A 
ATOM      4  C   UNL     1      17.964 -36.591  21.423  1.00  0.00     0.010 A 
ATOM      5  C   UNL     1      16.679 -36.394  19.386  1.00  0.00     0.001 A 
ATOM      6  C   UNL     1      17.598 -37.087  20.172  1.00  0.00     0.001 A 
ENDROOT
BRANCH   1   7
ATOM      7  C   UNL     1      15.712 -33.519  21.625  1.00  0.00     0.072 C 
ATOM      8  O   UNL     1      14.760 -33.653  22.439  1.00  0.00    -0.545 OA
ATOM      9  O   UNL     1      16.105 -32.239  21.253  1.00  0.00    -0.545 OA
ENDBRANCH   1   7
BRANCH   2  10
ATOM     10  C   UNL     1      17.930 -34.855  23.192  1.00  0.00     0.072 C 
ATOM     11  O   UNL     1      18.905 -34.059  23.199  1.00  0.00    -0.545 OA
ATOM     12  O   UNL     1      17.307 -35.170  24.395  1.00  0.00    -0.545 OA
ENDBRANCH   2  10
TORSDOF 2
ENDMDL
