MODEL 1
REMARK VINA RESULT:    -5.452      0.000      0.000
REMARK INTER + INTRA:          -6.097
REMARK INTER:                  -5.930
REMARK INTRA:                  -0.167
REMARK UNBOUND:                -0.167
REMARK SMILES CC1=CC[C@H](C(C)(C)O)CC1
REMARK SMILES IDX 6 1 7 2 8 3 5 4 1 5 2 6 3 7 11 8 4 9 10 10 9 11
REMARK H PARENT 9 12
REMARK Flexibility Score: inf
ROOT
ATOM      1  C   UNL     1      -1.651  17.427  46.416  1.00  0.00     0.062 C 
ATOM      2  C   UNL     1      -2.192  16.952  45.048  1.00  0.00     0.042 C 
ATOM      3  C   UNL     1      -1.744  16.252  47.411  1.00  0.00     0.042 C 
ENDROOT
BRANCH   1   4
ATOM      4  C   UNL     1      -2.424  18.705  46.912  1.00  0.00     0.024 C 
ATOM      5  C   UNL     1      -5.180  21.986  47.842  1.00  0.00     0.039 C 
ATOM      6  C   UNL     1      -4.352  20.795  47.440  1.00  0.00    -0.077 C 
ATOM      7  C   UNL     1      -3.633  20.850  46.300  1.00  0.00    -0.028 C 
ATOM      8  C   UNL     1      -4.249  19.621  48.393  1.00  0.00     0.031 C 
ATOM      9  C   UNL     1      -2.812  19.692  45.787  1.00  0.00     0.034 C 
ATOM     10  C   UNL     1      -3.686  18.360  47.727  1.00  0.00     0.011 C 
ENDBRANCH   1   4
BRANCH   1  11
ATOM     11  O   UNL     1      -0.284  17.737  46.268  1.00  0.00    -0.390 OA
ATOM     12  H   UNL     1       0.170  16.950  45.865  1.00  0.00     0.211 HD
ENDBRANCH   1  11
TORSDOF 2
ENDMDL
MODEL 2
REMARK VINA RESULT:    -5.326      0.375      1.546
REMARK INTER + INTRA:          -5.960
REMARK INTER:                  -5.825
REMARK INTRA:                  -0.135
REMARK UNBOUND:                -0.167
REMARK SMILES CC1=CC[C@H](C(C)(C)O)CC1
REMARK SMILES IDX 6 1 7 2 8 3 5 4 1 5 2 6 3 7 11 8 4 9 10 10 9 11
REMARK H PARENT 9 12
REMARK Flexibility Score: inf
ROOT
ATOM      1  C   UNL     1      -1.748  17.294  46.264  1.00  0.00     0.062 C 
ATOM      2  C   UNL     1      -1.952  16.618  44.890  1.00  0.00     0.042 C 
ATOM      3  C   UNL     1      -1.801  16.206  47.356  1.00  0.00     0.042 C 
ENDROOT
BRANCH   1   4
ATOM      4  C   UNL     1      -2.811  18.433  46.492  1.00  0.00     0.024 C 
ATOM      5  C   UNL     1      -5.267  21.860  47.695  1.00  0.00     0.039 C 
ATOM      6  C   UNL     1      -4.317  20.735  47.385  1.00  0.00    -0.077 C 
ATOM      7  C   UNL     1      -4.402  19.590  48.094  1.00  0.00    -0.028 C 
ATOM      8  C   UNL     1      -3.380  20.874  46.202  1.00  0.00     0.031 C 
ATOM      9  C   UNL     1      -3.463  18.426  47.894  1.00  0.00     0.034 C 
ATOM     10  C   UNL     1      -2.248  19.841  46.214  1.00  0.00     0.011 C 
ENDBRANCH   1   4
BRANCH   1  11
ATOM     11  O   UNL     1      -0.455  17.852  46.297  1.00  0.00    -0.390 OA
ATOM     12  H   UNL     1      -0.385  18.514  45.559  1.00  0.00     0.211 HD
ENDBRANCH   1  11
TORSDOF 2
ENDMDL
MODEL 3
REMARK VINA RESULT:    -5.310      2.276      3.256
REMARK INTER + INTRA:          -5.943
REMARK INTER:                  -5.781
REMARK INTRA:                  -0.162
REMARK UNBOUND:                -0.167
REMARK SMILES CC1=CC[C@H](C(C)(C)O)CC1
REMARK SMILES IDX 6 1 7 2 8 3 5 4 1 5 2 6 3 7 11 8 4 9 10 10 9 11
REMARK H PARENT 9 12
REMARK Flexibility Score: inf
ROOT
ATOM      1  C   UNL     1      -3.137  18.992  48.645  1.00  0.00     0.062 C 
ATOM      2  C   UNL     1      -1.785  19.190  47.924  1.00  0.00     0.042 C 
ATOM      3  C   UNL     1      -3.942  17.919  47.884  1.00  0.00     0.042 C 
ENDROOT
BRANCH   1   4
ATOM      4  C   UNL     1      -3.911  20.356  48.769  1.00  0.00     0.024 C 
ATOM      5  C   UNL     1      -5.539  24.423  48.572  1.00  0.00     0.039 C 
ATOM      6  C   UNL     1      -4.880  23.071  48.526  1.00  0.00    -0.077 C 
ATOM      7  C   UNL     1      -3.818  22.831  49.321  1.00  0.00    -0.028 C 
ATOM      8  C   UNL     1      -5.510  21.979  47.684  1.00  0.00     0.031 C 
ATOM      9  C   UNL     1      -3.059  21.527  49.311  1.00  0.00     0.034 C 
ATOM     10  C   UNL     1      -4.568  20.794  47.444  1.00  0.00     0.011 C 
ENDBRANCH   1   4
BRANCH   1  11
ATOM     11  O   UNL     1      -2.882  18.482  49.934  1.00  0.00    -0.390 OA
ATOM     12  H   UNL     1      -1.922  18.228  49.981  1.00  0.00     0.211 HD
ENDBRANCH   1  11
TORSDOF 2
ENDMDL
MODEL 4
REMARK VINA RESULT:    -5.176      1.996      3.312
REMARK INTER + INTRA:          -5.797
REMARK INTER:                  -5.648
REMARK INTRA:                  -0.149
REMARK UNBOUND:                -0.167
REMARK SMILES CC1=CC[C@H](C(C)(C)O)CC1
REMARK SMILES IDX 6 1 7 2 8 3 5 4 1 5 2 6 3 7 11 8 4 9 10 10 9 11
REMARK H PARENT 9 12
REMARK Flexibility Score: inf
ROOT
ATOM      1  C   UNL     1      -3.397  18.957  47.948  1.00  0.00     0.062 C 
ATOM      2  C   UNL     1      -2.872  18.157  49.161  1.00  0.00     0.042 C 
ATOM      3  C   UNL     1      -2.235  19.153  46.954  1.00  0.00     0.042 C 
ENDROOT
BRANCH   1   4
ATOM      4  C   UNL     1      -4.037  20.319  48.409  1.00  0.00     0.024 C 
ATOM      5  C   UNL     1      -5.290  24.448  49.189  1.00  0.00     0.039 C 
ATOM      6  C   UNL     1      -4.761  23.091  48.814  1.00  0.00    -0.077 C 
ATOM      7  C   UNL     1      -3.693  22.597  49.473  1.00  0.00    -0.028 C 
ATOM      8  C   UNL     1      -5.522  22.265  47.796  1.00  0.00     0.031 C 
ATOM      9  C   UNL     1      -3.058  21.269  49.137  1.00  0.00     0.034 C 
ATOM     10  C   UNL     1      -4.704  21.088  47.251  1.00  0.00     0.011 C 
ENDBRANCH   1   4
BRANCH   1  11
ATOM     11  O   UNL     1      -4.375  18.181  47.294  1.00  0.00    -0.390 OA
ATOM     12  H   UNL     1      -4.065  18.012  46.365  1.00  0.00     0.211 HD
ENDBRANCH   1  11
TORSDOF 2
ENDMDL
MODEL 5
REMARK VINA RESULT:    -5.013      4.088      6.735
REMARK INTER + INTRA:          -5.620
REMARK INTER:                  -5.457
REMARK INTRA:                  -0.163
REMARK UNBOUND:                -0.167
REMARK SMILES CC1=CC[C@H](C(C)(C)O)CC1
REMARK SMILES IDX 6 1 7 2 8 3 5 4 1 5 2 6 3 7 11 8 4 9 10 10 9 11
REMARK H PARENT 9 12
REMARK Flexibility Score: inf
ROOT
ATOM      1  C   UNL     1      -5.060  24.970  50.007  1.00  0.00     0.062 C 
ATOM      2  C   UNL     1      -4.701  25.965  48.881  1.00  0.00     0.042 C 
ATOM      3  C   UNL     1      -4.171  25.275  51.229  1.00  0.00     0.042 C 
ENDROOT
BRANCH   1   4
ATOM      4  C   UNL     1      -4.917  23.484  49.508  1.00  0.00     0.024 C 
ATOM      5  C   UNL     1      -4.076  19.663  47.528  1.00  0.00     0.039 C 
ATOM      6  C   UNL     1      -4.271  21.041  48.100  1.00  0.00    -0.077 C 
ATOM      7  C   UNL     1      -5.286  21.804  47.643  1.00  0.00    -0.028 C 
ATOM      8  C   UNL     1      -3.402  21.481  49.261  1.00  0.00     0.031 C 
ATOM      9  C   UNL     1      -5.533  23.215  48.116  1.00  0.00     0.034 C 
ATOM     10  C   UNL     1      -3.455  22.993  49.506  1.00  0.00     0.011 C 
ENDBRANCH   1   4
BRANCH   1  11
ATOM     11  O   UNL     1      -6.394  25.203  50.396  1.00  0.00    -0.390 OA
ATOM     12  H   UNL     1      -6.725  24.393  50.867  1.00  0.00     0.211 HD
ENDBRANCH   1  11
TORSDOF 2
ENDMDL
MODEL 6
REMARK VINA RESULT:    -4.964      4.856      7.764
REMARK INTER + INTRA:          -5.567
REMARK INTER:                  -5.397
REMARK INTRA:                  -0.170
REMARK UNBOUND:                -0.167
REMARK SMILES CC1=CC[C@H](C(C)(C)O)CC1
REMARK SMILES IDX 6 1 7 2 8 3 5 4 1 5 2 6 3 7 11 8 4 9 10 10 9 11
REMARK H PARENT 9 12
REMARK Flexibility Score: inf
ROOT
ATOM      1  C   UNL     1      -5.710  26.196  49.961  1.00  0.00     0.062 C 
ATOM      2  C   UNL     1      -5.723  26.938  48.605  1.00  0.00     0.042 C 
ATOM      3  C   UNL     1      -4.752  26.939  50.914  1.00  0.00     0.042 C 
ENDROOT
BRANCH   1   4
ATOM      4  C   UNL     1      -5.321  24.684  49.768  1.00  0.00     0.024 C 
ATOM      5  C   UNL     1      -3.773  20.741  48.634  1.00  0.00     0.039 C 
ATOM      6  C   UNL     1      -4.207  22.154  48.914  1.00  0.00    -0.077 C 
ATOM      7  C   UNL     1      -5.247  22.670  48.226  1.00  0.00    -0.028 C 
ATOM      8  C   UNL     1      -3.549  22.910  50.051  1.00  0.00     0.031 C 
ATOM      9  C   UNL     1      -5.725  24.091  48.398  1.00  0.00     0.034 C 
ATOM     10  C   UNL     1      -3.820  24.418  50.000  1.00  0.00     0.011 C 
ENDBRANCH   1   4
BRANCH   1  11
ATOM     11  O   UNL     1      -6.999  26.278  50.523  1.00  0.00    -0.390 OA
ATOM     12  H   UNL     1      -6.910  26.620  51.452  1.00  0.00     0.211 HD
ENDBRANCH   1  11
TORSDOF 2
ENDMDL
MODEL 7
REMARK VINA RESULT:    -4.947      2.461      4.706
REMARK INTER + INTRA:          -5.549
REMARK INTER:                  -5.377
REMARK INTRA:                  -0.171
REMARK UNBOUND:                -0.167
REMARK SMILES CC1=CC[C@H](C(C)(C)O)CC1
REMARK SMILES IDX 6 1 7 2 8 3 5 4 1 5 2 6 3 7 11 8 4 9 10 10 9 11
REMARK H PARENT 9 12
REMARK Flexibility Score: inf
ROOT
ATOM      1  C   UNL     1      -4.535  22.128  47.817  1.00  0.00     0.062 C 
ATOM      2  C   UNL     1      -3.754  23.051  46.854  1.00  0.00     0.042 C 
ATOM      3  C   UNL     1      -4.211  22.550  49.265  1.00  0.00     0.042 C 
ENDROOT
BRANCH   1   4
ATOM      4  C   UNL     1      -4.203  20.616  47.537  1.00  0.00     0.024 C 
ATOM      5  C   UNL     1      -2.537  16.594  47.007  1.00  0.00     0.039 C 
ATOM      6  C   UNL     1      -2.968  18.016  47.248  1.00  0.00    -0.077 C 
ATOM      7  C   UNL     1      -2.786  18.931  46.274  1.00  0.00    -0.028 C 
ATOM      8  C   UNL     1      -3.712  18.347  48.527  1.00  0.00     0.031 C 
ATOM      9  C   UNL     1      -3.139  20.389  46.438  1.00  0.00     0.034 C 
ATOM     10  C   UNL     1      -3.773  19.853  48.807  1.00  0.00     0.011 C 
ENDBRANCH   1   4
BRANCH   1  11
ATOM     11  O   UNL     1      -5.913  22.347  47.620  1.00  0.00    -0.390 OA
ATOM     12  H   UNL     1      -6.046  23.308  47.407  1.00  0.00     0.211 HD
ENDBRANCH   1  11
TORSDOF 2
ENDMDL
MODEL 8
REMARK VINA RESULT:    -4.933      2.465      4.788
REMARK INTER + INTRA:          -5.532
REMARK INTER:                  -5.361
REMARK INTRA:                  -0.171
REMARK UNBOUND:                -0.167
REMARK SMILES CC1=CC[C@H](C(C)(C)O)CC1
REMARK SMILES IDX 6 1 7 2 8 3 5 4 1 5 2 6 3 7 11 8 4 9 10 10 9 11
REMARK H PARENT 9 12
REMARK Flexibility Score: inf
ROOT
ATOM      1  C   UNL     1      -3.701  21.599  48.356  1.00  0.00     0.062 C 
ATOM      2  C   UNL     1      -5.111  21.649  47.726  1.00  0.00     0.042 C 
ATOM      3  C   UNL     1      -2.767  22.507  47.531  1.00  0.00     0.042 C 
ENDROOT
BRANCH   1   4
ATOM      4  C   UNL     1      -3.180  20.117  48.447  1.00  0.00     0.024 C 
ATOM      5  C   UNL     1      -2.045  15.908  47.968  1.00  0.00     0.039 C 
ATOM      6  C   UNL     1      -2.489  17.346  47.985  1.00  0.00    -0.077 C 
ATOM      7  C   UNL     1      -3.738  17.642  48.400  1.00  0.00    -0.028 C 
ATOM      8  C   UNL     1      -1.479  18.428  47.659  1.00  0.00     0.031 C 
ATOM      9  C   UNL     1      -4.294  19.045  48.405  1.00  0.00     0.034 C 
ATOM     10  C   UNL     1      -2.131  19.784  47.367  1.00  0.00     0.011 C 
ENDBRANCH   1   4
BRANCH   1  11
ATOM     11  O   UNL     1      -3.774  22.148  49.651  1.00  0.00    -0.390 OA
ATOM     12  H   UNL     1      -4.200  21.477  50.248  1.00  0.00     0.211 HD
ENDBRANCH   1  11
TORSDOF 2
ENDMDL
MODEL 9
REMARK VINA RESULT:    -4.837      3.793      5.646
REMARK INTER + INTRA:          -5.429
REMARK INTER:                  -5.282
REMARK INTRA:                  -0.147
REMARK UNBOUND:                -0.167
REMARK SMILES CC1=CC[C@H](C(C)(C)O)CC1
REMARK SMILES IDX 6 1 7 2 8 3 5 4 1 5 2 6 3 7 11 8 4 9 10 10 9 11
REMARK H PARENT 9 12
REMARK Flexibility Score: inf
ROOT
ATOM      1  C   UNL     1      -4.527  21.741  47.911  1.00  0.00     0.062 C 
ATOM      2  C   UNL     1      -4.267  20.238  48.160  1.00  0.00     0.042 C 
ATOM      3  C   UNL     1      -3.590  22.216  46.782  1.00  0.00     0.042 C 
ENDROOT
BRANCH   1   4
ATOM      4  C   UNL     1      -4.347  22.567  49.238  1.00  0.00     0.024 C 
ATOM      5  C   UNL     1      -3.565  25.448  52.450  1.00  0.00     0.039 C 
ATOM      6  C   UNL     1      -3.789  24.573  51.247  1.00  0.00    -0.077 C 
ATOM      7  C   UNL     1      -2.772  23.814  50.789  1.00  0.00    -0.028 C 
ATOM      8  C   UNL     1      -5.185  24.471  50.666  1.00  0.00     0.031 C 
ATOM      9  C   UNL     1      -2.882  22.943  49.562  1.00  0.00     0.034 C 
ATOM     10  C   UNL     1      -5.204  23.849  49.265  1.00  0.00     0.011 C 
ENDBRANCH   1   4
BRANCH   1  11
ATOM     11  O   UNL     1      -5.848  21.891  47.444  1.00  0.00    -0.390 OA
ATOM     12  H   UNL     1      -6.310  22.548  48.029  1.00  0.00     0.211 HD
ENDBRANCH   1  11
TORSDOF 2
ENDMDL
