MODEL 1
REMARK VINA RESULT:    -3.729      0.000      0.000
REMARK INTER + INTRA:          -7.607
REMARK INTER:                  -6.018
REMARK INTRA:                  -1.589
REMARK UNBOUND:                -1.589
REMARK SMILES CCCCCCCCCCCCO
REMARK SMILES IDX 7 1 6 2 5 3 4 4 3 5 2 6 1 7 8 8 9 9 10 10 11 11 12 12 13 13
REMARK H PARENT 13 14
REMARK Flexibility Score: inf
ROOT
ATOM      1  C   UNL     1     173.680 173.518 149.663  1.00  0.00     0.000 C 
ENDROOT
BRANCH   1   2
ATOM      2  C   UNL     1     172.362 173.427 150.452  1.00  0.00    -0.000 C 
BRANCH   2   3
ATOM      3  C   UNL     1     171.859 171.996 150.718  1.00  0.00    -0.000 C 
BRANCH   3   4
ATOM      4  C   UNL     1     172.564 170.941 149.849  1.00  0.00    -0.000 C 
BRANCH   4   5
ATOM      5  C   UNL     1     173.156 169.792 150.682  1.00  0.00    -0.000 C 
BRANCH   5   6
ATOM      6  C   UNL     1     174.533 170.134 151.270  1.00  0.00    -0.003 C 
ATOM      7  C   UNL     1     175.584 170.254 150.171  1.00  0.00     0.004 C 
ENDBRANCH   5   6
ENDBRANCH   4   5
ENDBRANCH   3   4
ENDBRANCH   2   3
ENDBRANCH   1   2
BRANCH   1   8
ATOM      8  C   UNL     1     174.885 173.873 150.551  1.00  0.00     0.000 C 
BRANCH   8   9
ATOM      9  C   UNL     1     174.478 174.268 151.982  1.00  0.00     0.000 C 
BRANCH   9  10
ATOM     10  C   UNL     1     175.021 173.343 153.087  1.00  0.00     0.002 C 
BRANCH  10  11
ATOM     11  C   UNL     1     173.916 172.772 153.987  1.00  0.00     0.028 C 
BRANCH  11  12
ATOM     12  C   UNL     1     172.725 173.726 154.069  1.00  0.00     0.156 C 
BRANCH  12  13
ATOM     13  O   UNL     1     172.859 174.544 155.198  1.00  0.00    -0.396 OA
ATOM     14  H   UNL     1     172.424 174.056 155.945  1.00  0.00     0.210 HD
ENDBRANCH  12  13
ENDBRANCH  11  12
ENDBRANCH  10  11
ENDBRANCH   9  10
ENDBRANCH   8   9
ENDBRANCH   1   8
TORSDOF 11
ENDMDL
MODEL 2
REMARK VINA RESULT:    -3.562      2.620      4.692
REMARK INTER + INTRA:          -7.337
REMARK INTER:                  -6.053
REMARK INTRA:                  -1.285
REMARK UNBOUND:                -1.589
REMARK SMILES CCCCCCCCCCCCO
REMARK SMILES IDX 7 1 6 2 5 3 4 4 3 5 2 6 1 7 8 8 9 9 10 10 11 11 12 12 13 13
REMARK H PARENT 13 14
REMARK Flexibility Score: inf
ROOT
ATOM      1  C   UNL     1     173.265 172.820 150.104  1.00  0.00     0.000 C 
ENDROOT
BRANCH   1   2
ATOM      2  C   UNL     1     174.584 173.533 149.757  1.00  0.00    -0.000 C 
BRANCH   2   3
ATOM      3  C   UNL     1     175.189 174.375 150.896  1.00  0.00    -0.000 C 
BRANCH   3   4
ATOM      4  C   UNL     1     174.472 174.169 152.240  1.00  0.00    -0.000 C 
BRANCH   4   5
ATOM      5  C   UNL     1     175.393 173.568 153.314  1.00  0.00    -0.000 C 
BRANCH   5   6
ATOM      6  C   UNL     1     174.940 172.173 153.770  1.00  0.00    -0.003 C 
ATOM      7  C   UNL     1     173.418 172.070 153.790  1.00  0.00     0.004 C 
ENDBRANCH   5   6
ENDBRANCH   4   5
ENDBRANCH   3   4
ENDBRANCH   2   3
ENDBRANCH   1   2
BRANCH   1   8
ATOM      8  C   UNL     1     173.399 171.288 150.119  1.00  0.00     0.000 C 
BRANCH   8   9
ATOM      9  C   UNL     1     174.852 170.816 150.316  1.00  0.00     0.000 C 
BRANCH   9  10
ATOM     10  C   UNL     1     175.022 169.293 150.473  1.00  0.00     0.002 C 
BRANCH  10  11
ATOM     11  C   UNL     1     175.264 168.864 151.927  1.00  0.00     0.028 C 
BRANCH  11  12
ATOM     12  C   UNL     1     174.644 167.495 152.206  1.00  0.00     0.156 C 
BRANCH  12  13
ATOM     13  O   UNL     1     175.444 166.798 153.120  1.00  0.00    -0.396 OA
ATOM     14  H   UNL     1     175.683 165.941 152.680  1.00  0.00     0.210 HD
ENDBRANCH  12  13
ENDBRANCH  11  12
ENDBRANCH  10  11
ENDBRANCH   9  10
ENDBRANCH   8   9
ENDBRANCH   1   8
TORSDOF 11
ENDMDL
MODEL 3
REMARK VINA RESULT:    -3.519      1.326      2.000
REMARK INTER + INTRA:          -7.267
REMARK INTER:                  -6.226
REMARK INTRA:                  -1.041
REMARK UNBOUND:                -1.589
REMARK SMILES CCCCCCCCCCCCO
REMARK SMILES IDX 7 1 6 2 5 3 4 4 3 5 2 6 1 7 8 8 9 9 10 10 11 11 12 12 13 13
REMARK H PARENT 13 14
REMARK Flexibility Score: inf
ROOT
ATOM      1  C   UNL     1     173.529 173.122 150.082  1.00  0.00     0.000 C 
ENDROOT
BRANCH   1   2
ATOM      2  C   UNL     1     173.589 171.584 150.090  1.00  0.00    -0.000 C 
BRANCH   2   3
ATOM      3  C   UNL     1     175.008 170.987 150.056  1.00  0.00    -0.000 C 
BRANCH   3   4
ATOM      4  C   UNL     1     175.191 169.821 151.043  1.00  0.00    -0.000 C 
BRANCH   4   5
ATOM      5  C   UNL     1     174.244 168.646 150.749  1.00  0.00    -0.000 C 
BRANCH   5   6
ATOM      6  C   UNL     1     174.659 167.848 149.503  1.00  0.00    -0.003 C 
ATOM      7  C   UNL     1     173.457 167.562 148.609  1.00  0.00     0.004 C 
ENDBRANCH   5   6
ENDBRANCH   4   5
ENDBRANCH   3   4
ENDBRANCH   2   3
ENDBRANCH   1   2
BRANCH   1   8
ATOM      8  C   UNL     1     174.865 173.774 150.479  1.00  0.00     0.000 C 
BRANCH   8   9
ATOM      9  C   UNL     1     174.838 174.379 151.894  1.00  0.00     0.000 C 
BRANCH   9  10
ATOM     10  C   UNL     1     175.275 173.418 153.016  1.00  0.00     0.002 C 
BRANCH  10  11
ATOM     11  C   UNL     1     174.093 172.863 153.824  1.00  0.00     0.028 C 
BRANCH  11  12
ATOM     12  C   UNL     1     172.875 173.780 153.716  1.00  0.00     0.156 C 
BRANCH  12  13
ATOM     13  O   UNL     1     172.757 174.539 154.886  1.00  0.00    -0.396 OA
ATOM     14  H   UNL     1     173.684 174.711 155.198  1.00  0.00     0.210 HD
ENDBRANCH  12  13
ENDBRANCH  11  12
ENDBRANCH  10  11
ENDBRANCH   9  10
ENDBRANCH   8   9
ENDBRANCH   1   8
TORSDOF 11
ENDMDL
MODEL 4
REMARK VINA RESULT:    -3.487      1.961      3.201
REMARK INTER + INTRA:          -7.215
REMARK INTER:                  -6.246
REMARK INTRA:                  -0.969
REMARK UNBOUND:                -1.589
REMARK SMILES CCCCCCCCCCCCO
REMARK SMILES IDX 7 1 6 2 5 3 4 4 3 5 2 6 1 7 8 8 9 9 10 10 11 11 12 12 13 13
REMARK H PARENT 13 14
REMARK Flexibility Score: inf
ROOT
ATOM      1  C   UNL     1     173.527 171.255 150.244  1.00  0.00     0.000 C 
ENDROOT
BRANCH   1   2
ATOM      2  C   UNL     1     174.995 170.798 150.172  1.00  0.00    -0.000 C 
BRANCH   2   3
ATOM      3  C   UNL     1     175.319 169.518 150.966  1.00  0.00    -0.000 C 
BRANCH   3   4
ATOM      4  C   UNL     1     174.418 168.332 150.585  1.00  0.00    -0.000 C 
BRANCH   4   5
ATOM      5  C   UNL     1     174.710 167.800 149.172  1.00  0.00    -0.000 C 
BRANCH   5   6
ATOM      6  C   UNL     1     173.435 167.405 148.412  1.00  0.00    -0.003 C 
ATOM      7  C   UNL     1     172.221 168.153 148.951  1.00  0.00     0.004 C 
ENDBRANCH   5   6
ENDBRANCH   4   5
ENDBRANCH   3   4
ENDBRANCH   2   3
ENDBRANCH   1   2
BRANCH   1   8
ATOM      8  C   UNL     1     173.370 172.780 150.131  1.00  0.00     0.000 C 
BRANCH   8   9
ATOM      9  C   UNL     1     174.703 173.501 149.865  1.00  0.00     0.000 C 
BRANCH   9  10
ATOM     10  C   UNL     1     175.216 174.365 151.033  1.00  0.00     0.002 C 
BRANCH  10  11
ATOM     11  C   UNL     1     174.481 174.086 152.352  1.00  0.00     0.028 C 
BRANCH  11  12
ATOM     12  C   UNL     1     175.443 173.559 153.417  1.00  0.00     0.156 C 
BRANCH  12  13
ATOM     13  O   UNL     1     175.429 172.159 153.407  1.00  0.00    -0.396 OA
ATOM     14  H   UNL     1     176.335 171.872 153.692  1.00  0.00     0.210 HD
ENDBRANCH  12  13
ENDBRANCH  11  12
ENDBRANCH  10  11
ENDBRANCH   9  10
ENDBRANCH   8   9
ENDBRANCH   1   8
TORSDOF 11
ENDMDL
MODEL 5
REMARK VINA RESULT:    -3.447      1.607      2.569
REMARK INTER + INTRA:          -7.152
REMARK INTER:                  -6.362
REMARK INTRA:                  -0.790
REMARK UNBOUND:                -1.589
REMARK SMILES CCCCCCCCCCCCO
REMARK SMILES IDX 7 1 6 2 5 3 4 4 3 5 2 6 1 7 8 8 9 9 10 10 11 11 12 12 13 13
REMARK H PARENT 13 14
REMARK Flexibility Score: inf
ROOT
ATOM      1  C   UNL     1     172.780 172.251 149.858  1.00  0.00     0.000 C 
ENDROOT
BRANCH   1   2
ATOM      2  C   UNL     1     173.487 171.025 150.464  1.00  0.00    -0.000 C 
BRANCH   2   3
ATOM      3  C   UNL     1     175.026 171.076 150.426  1.00  0.00    -0.000 C 
BRANCH   3   4
ATOM      4  C   UNL     1     175.662 169.722 150.066  1.00  0.00    -0.000 C 
BRANCH   4   5
ATOM      5  C   UNL     1     174.690 168.546 150.258  1.00  0.00    -0.000 C 
BRANCH   5   6
ATOM      6  C   UNL     1     174.586 167.654 149.012  1.00  0.00    -0.003 C 
ATOM      7  C   UNL     1     173.141 167.541 148.536  1.00  0.00     0.004 C 
ENDBRANCH   5   6
ENDBRANCH   4   5
ENDBRANCH   3   4
ENDBRANCH   2   3
ENDBRANCH   1   2
BRANCH   1   8
ATOM      8  C   UNL     1     173.576 173.554 150.046  1.00  0.00     0.000 C 
BRANCH   8   9
ATOM      9  C   UNL     1     173.328 174.213 151.415  1.00  0.00     0.000 C 
BRANCH   9  10
ATOM     10  C   UNL     1     171.852 174.259 151.853  1.00  0.00     0.002 C 
BRANCH  10  11
ATOM     11  C   UNL     1     171.591 173.496 153.161  1.00  0.00     0.028 C 
BRANCH  11  12
ATOM     12  C   UNL     1     172.818 173.533 154.072  1.00  0.00     0.156 C 
BRANCH  12  13
ATOM     13  O   UNL     1     172.691 174.589 154.982  1.00  0.00    -0.396 OA
ATOM     14  H   UNL     1     172.102 175.260 154.547  1.00  0.00     0.210 HD
ENDBRANCH  12  13
ENDBRANCH  11  12
ENDBRANCH  10  11
ENDBRANCH   9  10
ENDBRANCH   8   9
ENDBRANCH   1   8
TORSDOF 11
ENDMDL
MODEL 6
REMARK VINA RESULT:    -3.403      1.296      2.456
REMARK INTER + INTRA:          -7.080
REMARK INTER:                  -5.721
REMARK INTRA:                  -1.359
REMARK UNBOUND:                -1.589
REMARK SMILES CCCCCCCCCCCCO
REMARK SMILES IDX 7 1 6 2 5 3 4 4 3 5 2 6 1 7 8 8 9 9 10 10 11 11 12 12 13 13
REMARK H PARENT 13 14
REMARK Flexibility Score: inf
ROOT
ATOM      1  C   UNL     1     175.130 174.266 150.705  1.00  0.00     0.000 C 
ENDROOT
BRANCH   1   2
ATOM      2  C   UNL     1     174.379 173.413 149.667  1.00  0.00    -0.000 C 
BRANCH   2   3
ATOM      3  C   UNL     1     174.245 171.921 150.023  1.00  0.00    -0.000 C 
BRANCH   3   4
ATOM      4  C   UNL     1     172.782 171.457 150.123  1.00  0.00    -0.000 C 
BRANCH   4   5
ATOM      5  C   UNL     1     172.326 171.254 151.577  1.00  0.00    -0.000 C 
BRANCH   5   6
ATOM      6  C   UNL     1     171.045 172.032 151.910  1.00  0.00    -0.003 C 
ATOM      7  C   UNL     1     170.964 173.325 151.105  1.00  0.00     0.004 C 
ENDBRANCH   5   6
ENDBRANCH   4   5
ENDBRANCH   3   4
ENDBRANCH   2   3
ENDBRANCH   1   2
BRANCH   1   8
ATOM      8  C   UNL     1     174.464 174.246 152.091  1.00  0.00     0.000 C 
BRANCH   8   9
ATOM      9  C   UNL     1     175.421 173.796 153.209  1.00  0.00     0.000 C 
BRANCH   9  10
ATOM     10  C   UNL     1     175.020 172.487 153.917  1.00  0.00     0.002 C 
BRANCH  10  11
ATOM     11  C   UNL     1     173.805 172.654 154.841  1.00  0.00     0.028 C 
BRANCH  11  12
ATOM     12  C   UNL     1     173.959 173.884 155.735  1.00  0.00     0.156 C 
BRANCH  12  13
ATOM     13  O   UNL     1     172.930 174.793 155.459  1.00  0.00    -0.396 OA
ATOM     14  H   UNL     1     172.253 174.668 156.174  1.00  0.00     0.210 HD
ENDBRANCH  12  13
ENDBRANCH  11  12
ENDBRANCH  10  11
ENDBRANCH   9  10
ENDBRANCH   8   9
ENDBRANCH   1   8
TORSDOF 11
ENDMDL
MODEL 7
REMARK VINA RESULT:    -3.391      1.391      3.620
REMARK INTER + INTRA:          -7.061
REMARK INTER:                  -5.709
REMARK INTRA:                  -1.352
REMARK UNBOUND:                -1.589
REMARK SMILES CCCCCCCCCCCCO
REMARK SMILES IDX 7 1 6 2 5 3 4 4 3 5 2 6 1 7 8 8 9 9 10 10 11 11 12 12 13 13
REMARK H PARENT 13 14
REMARK Flexibility Score: inf
ROOT
ATOM      1  C   UNL     1     174.166 171.938 150.112  1.00  0.00     0.000 C 
ENDROOT
BRANCH   1   2
ATOM      2  C   UNL     1     174.390 173.401 149.691  1.00  0.00    -0.000 C 
BRANCH   2   3
ATOM      3  C   UNL     1     175.126 174.272 150.727  1.00  0.00    -0.000 C 
BRANCH   3   4
ATOM      4  C   UNL     1     174.518 174.170 152.136  1.00  0.00    -0.000 C 
BRANCH   4   5
ATOM      5  C   UNL     1     175.574 173.873 153.213  1.00  0.00    -0.000 C 
BRANCH   5   6
ATOM      6  C   UNL     1     175.059 172.917 154.299  1.00  0.00    -0.003 C 
ATOM      7  C   UNL     1     174.634 171.581 153.697  1.00  0.00     0.004 C 
ENDBRANCH   5   6
ENDBRANCH   4   5
ENDBRANCH   3   4
ENDBRANCH   2   3
ENDBRANCH   1   2
BRANCH   1   8
ATOM      8  C   UNL     1     172.706 171.484 149.943  1.00  0.00     0.000 C 
BRANCH   8   9
ATOM      9  C   UNL     1     171.822 171.851 151.148  1.00  0.00     0.000 C 
BRANCH   9  10
ATOM     10  C   UNL     1     170.922 173.084 150.938  1.00  0.00     0.002 C 
BRANCH  10  11
ATOM     11  C   UNL     1     170.869 174.003 152.167  1.00  0.00     0.028 C 
BRANCH  11  12
ATOM     12  C   UNL     1     170.942 173.195 153.462  1.00  0.00     0.156 C 
BRANCH  12  13
ATOM     13  O   UNL     1     171.751 173.867 154.386  1.00  0.00    -0.396 OA
ATOM     14  H   UNL     1     172.423 173.205 154.696  1.00  0.00     0.210 HD
ENDBRANCH  12  13
ENDBRANCH  11  12
ENDBRANCH  10  11
ENDBRANCH   9  10
ENDBRANCH   8   9
ENDBRANCH   1   8
TORSDOF 11
ENDMDL
MODEL 8
REMARK VINA RESULT:    -3.321      3.434      5.711
REMARK INTER + INTRA:          -6.949
REMARK INTER:                  -6.230
REMARK INTRA:                  -0.719
REMARK UNBOUND:                -1.589
REMARK SMILES CCCCCCCCCCCCO
REMARK SMILES IDX 7 1 6 2 5 3 4 4 3 5 2 6 1 7 8 8 9 9 10 10 11 11 12 12 13 13
REMARK H PARENT 13 14
REMARK Flexibility Score: inf
ROOT
ATOM      1  C   UNL     1     174.992 171.091 150.240  1.00  0.00     0.000 C 
ENDROOT
BRANCH   1   2
ATOM      2  C   UNL     1     173.662 171.859 150.153  1.00  0.00    -0.000 C 
BRANCH   2   3
ATOM      3  C   UNL     1     173.793 173.356 149.816  1.00  0.00    -0.000 C 
BRANCH   3   4
ATOM      4  C   UNL     1     174.829 174.079 150.693  1.00  0.00    -0.000 C 
BRANCH   4   5
ATOM      5  C   UNL     1     174.374 174.208 152.156  1.00  0.00    -0.000 C 
BRANCH   5   6
ATOM      6  C   UNL     1     175.460 173.780 153.154  1.00  0.00    -0.003 C 
ATOM      7  C   UNL     1     175.071 172.489 153.868  1.00  0.00     0.004 C 
ENDBRANCH   5   6
ENDBRANCH   4   5
ENDBRANCH   3   4
ENDBRANCH   2   3
ENDBRANCH   1   2
BRANCH   1   8
ATOM      8  C   UNL     1     174.830 169.678 150.825  1.00  0.00     0.000 C 
BRANCH   8   9
ATOM      9  C   UNL     1     174.724 168.590 149.741  1.00  0.00     0.000 C 
BRANCH   9  10
ATOM     10  C   UNL     1     173.767 167.431 150.079  1.00  0.00     0.002 C 
BRANCH  10  11
ATOM     11  C   UNL     1     174.502 166.141 150.468  1.00  0.00     0.028 C 
BRANCH  11  12
ATOM     12  C   UNL     1     174.400 165.882 151.971  1.00  0.00     0.156 C 
BRANCH  12  13
ATOM     13  O   UNL     1     175.486 165.101 152.385  1.00  0.00    -0.396 OA
ATOM     14  H   UNL     1     175.893 165.580 153.154  1.00  0.00     0.210 HD
ENDBRANCH  12  13
ENDBRANCH  11  12
ENDBRANCH  10  11
ENDBRANCH   9  10
ENDBRANCH   8   9
ENDBRANCH   1   8
TORSDOF 11
ENDMDL
MODEL 9
REMARK VINA RESULT:    -3.312      2.275      4.854
REMARK INTER + INTRA:          -6.933
REMARK INTER:                  -5.883
REMARK INTRA:                  -1.050
REMARK UNBOUND:                -1.589
REMARK SMILES CCCCCCCCCCCCO
REMARK SMILES IDX 7 1 6 2 5 3 4 4 3 5 2 6 1 7 8 8 9 9 10 10 11 11 12 12 13 13
REMARK H PARENT 13 14
REMARK Flexibility Score: inf
ROOT
ATOM      1  C   UNL     1     174.194 174.193 151.848  1.00  0.00     0.000 C 
ENDROOT
BRANCH   1   2
ATOM      2  C   UNL     1     175.456 174.150 152.728  1.00  0.00    -0.000 C 
BRANCH   2   3
ATOM      3  C   UNL     1     175.428 173.102 153.857  1.00  0.00    -0.000 C 
BRANCH   3   4
ATOM      4  C   UNL     1     174.145 172.253 153.855  1.00  0.00    -0.000 C 
BRANCH   4   5
ATOM      5  C   UNL     1     173.289 172.477 155.112  1.00  0.00    -0.000 C 
BRANCH   5   6
ATOM      6  C   UNL     1     173.930 173.466 156.097  1.00  0.00    -0.003 C 
ATOM      7  C   UNL     1     174.199 172.803 157.444  1.00  0.00     0.004 C 
ENDBRANCH   5   6
ENDBRANCH   4   5
ENDBRANCH   3   4
ENDBRANCH   2   3
ENDBRANCH   1   2
BRANCH   1   8
ATOM      8  C   UNL     1     174.475 173.828 150.381  1.00  0.00     0.000 C 
BRANCH   8   9
ATOM      9  C   UNL     1     173.465 172.815 149.812  1.00  0.00     0.000 C 
BRANCH   9  10
ATOM     10  C   UNL     1     173.680 171.360 150.269  1.00  0.00     0.002 C 
BRANCH  10  11
ATOM     11  C   UNL     1     175.155 170.935 150.242  1.00  0.00     0.028 C 
BRANCH  11  12
ATOM     12  C   UNL     1     175.325 169.507 150.758  1.00  0.00     0.156 C 
BRANCH  12  13
ATOM     13  O   UNL     1     175.653 169.538 152.119  1.00  0.00    -0.396 OA
ATOM     14  H   UNL     1     175.863 170.485 152.330  1.00  0.00     0.210 HD
ENDBRANCH  12  13
ENDBRANCH  11  12
ENDBRANCH  10  11
ENDBRANCH   9  10
ENDBRANCH   8   9
ENDBRANCH   1   8
TORSDOF 11
ENDMDL
