MODEL 1
REMARK VINA RESULT:    -2.928      0.000      0.000
REMARK INTER + INTRA:          -2.798
REMARK INTER:                  -3.185
REMARK INTRA:                   0.386
REMARK UNBOUND:                 0.386
REMARK SMILES C[C@@H]1[C@H]2C3=CC[C@H]4[C@@]5(C)CC[C@@H](O)C(C)(C)[C@H]5CC[C@]4(C)[C@@]3(C)CC[C@@]2(C(=O)[O-])CC[C@@H]1C
REMARK SMILES IDX 26 1 30 2 25 3 3 4 31 5 24 6 4 7 2 8 32 9 22 10 5 11 1 12
REMARK SMILES IDX 33 13 23 14 20 15 6 16 7 17 19 18 21 19 8 20 18 21 17 22
REMARK SMILES IDX 10 23 9 24 14 25 11 26 12 27 15 28 16 29 27 30 28 31 29 32
REMARK SMILES IDX 13 33
REMARK H PARENT 13 34
REMARK Flexibility Score: inf
ROOT
ATOM      1  C   UNL     1       3.011  -4.787  -7.538  1.00  0.00     0.017 C 
ATOM      2  C   UNL     1       2.993  -3.931  -8.836  1.00  0.00     0.014 C 
ATOM      3  C   UNL     1       2.516  -3.927  -6.346  1.00  0.00     0.014 C 
ATOM      4  C   UNL     1       4.464  -5.355  -7.291  1.00  0.00     0.030 C 
ATOM      5  C   UNL     1       3.395  -4.677 -10.125  1.00  0.00     0.004 C 
ATOM      6  C   UNL     1       3.474  -2.822  -5.928  1.00  0.00     0.013 C 
ATOM      7  C   UNL     1       5.422  -4.362  -6.558  1.00  0.00    -0.063 C 
ATOM      8  C   UNL     1       5.115  -5.941  -8.623  1.00  0.00    -0.003 C 
ATOM      9  C   UNL     1       4.235  -5.968  -9.918  1.00  0.00    -0.011 C 
ATOM     10  C   UNL     1       4.904  -3.327  -5.559  1.00  0.00    -0.006 C 
ATOM     11  C   UNL     1       6.773  -4.584  -6.557  1.00  0.00    -0.027 C 
ATOM     12  C   UNL     1       5.783  -7.320  -8.381  1.00  0.00     0.008 C 
ATOM     13  C   UNL     1       3.421  -7.273 -10.122  1.00  0.00     0.008 C 
ATOM     14  C   UNL     1       4.790  -4.080  -4.192  1.00  0.00     0.017 C 
ATOM     15  C   UNL     1       5.933  -2.079  -5.536  1.00  0.00    -0.020 C 
ATOM     16  C   UNL     1       7.801  -3.839  -5.724  1.00  0.00     0.032 C 
ATOM     17  C   UNL     1       7.300  -2.577  -4.953  1.00  0.00     0.006 C 
ATOM     18  C   UNL     1       5.410  -0.945  -4.615  1.00  0.00     0.008 C 
ATOM     19  C   UNL     1       6.133  -1.536  -7.004  1.00  0.00     0.012 C 
ATOM     20  C   UNL     1       8.418  -1.490  -4.594  1.00  0.00    -0.025 C 
ATOM     21  C   UNL     1       6.433   0.166  -4.361  1.00  0.00     0.005 C 
ATOM     22  C   UNL     1       7.770  -0.326  -3.729  1.00  0.00     0.003 C 
ATOM     23  C   UNL     1       9.111  -0.865  -5.844  1.00  0.00     0.010 C 
ATOM     24  C   UNL     1       9.490  -2.262  -3.751  1.00  0.00     0.012 C 
ATOM     25  C   UNL     1       8.752   0.894  -3.407  1.00  0.00    -0.006 C 
ATOM     26  C   UNL     1      10.125   0.239  -5.502  1.00  0.00     0.033 C 
ATOM     27  C   UNL     1       9.506   1.388  -4.693  1.00  0.00     0.120 C 
ATOM     28  C   UNL     1       9.794   0.509  -2.311  1.00  0.00     0.014 C 
ATOM     29  C   UNL     1       7.972   2.096  -2.801  1.00  0.00     0.014 C 
ENDROOT
BRANCH   1  30
ATOM     30  C   UNL     1       1.987  -5.915  -7.612  1.00  0.00     0.048 C 
ATOM     31  O   UNL     1       2.328  -7.121  -7.498  1.00  0.00    -0.550 OA
ATOM     32  O   UNL     1       0.665  -5.637  -7.920  1.00  0.00    -0.550 OA
ENDBRANCH   1  30
BRANCH  27  33
ATOM     33  O   UNL     1       8.654   2.108  -5.551  1.00  0.00    -0.393 OA
ATOM     34  H   UNL     1       8.878   3.068  -5.464  1.00  0.00     0.210 HD
ENDBRANCH  27  33
TORSDOF 2
ENDMDL
MODEL 2
REMARK VINA RESULT:    -1.385      1.723      8.206
REMARK INTER + INTRA:          -1.120
REMARK INTER:                  -0.964
REMARK INTRA:                  -0.156
REMARK UNBOUND:                 0.386
REMARK SMILES C[C@@H]1[C@H]2C3=CC[C@H]4[C@@]5(C)CC[C@@H](O)C(C)(C)[C@H]5CC[C@]4(C)[C@@]3(C)CC[C@@]2(C(=O)[O-])CC[C@@H]1C
REMARK SMILES IDX 26 1 30 2 25 3 3 4 31 5 24 6 4 7 2 8 32 9 22 10 5 11 1 12
REMARK SMILES IDX 33 13 23 14 20 15 6 16 7 17 19 18 21 19 8 20 18 21 17 22
REMARK SMILES IDX 10 23 9 24 14 25 11 26 12 27 15 28 16 29 27 30 28 31 29 32
REMARK SMILES IDX 13 33
REMARK H PARENT 13 34
REMARK Flexibility Score: inf
ROOT
ATOM      1  C   UNL     1       8.394  -1.231  -3.730  1.00  0.00     0.017 C 
ATOM      2  C   UNL     1       9.426  -1.116  -4.888  1.00  0.00     0.014 C 
ATOM      3  C   UNL     1       8.305  -2.709  -3.264  1.00  0.00     0.014 C 
ATOM      4  C   UNL     1       6.993  -0.679  -4.203  1.00  0.00     0.030 C 
ATOM      5  C   UNL     1       9.675   0.314  -5.409  1.00  0.00     0.004 C 
ATOM      6  C   UNL     1       7.657  -3.647  -4.270  1.00  0.00     0.013 C 
ATOM      7  C   UNL     1       6.124  -1.720  -4.980  1.00  0.00    -0.063 C 
ATOM      8  C   UNL     1       7.127   0.698  -4.996  1.00  0.00    -0.003 C 
ATOM      9  C   UNL     1       8.549   1.342  -5.109  1.00  0.00    -0.011 C 
ATOM     10  C   UNL     1       6.218  -3.220  -4.700  1.00  0.00    -0.006 C 
ATOM     11  C   UNL     1       5.046  -1.306  -5.713  1.00  0.00    -0.027 C 
ATOM     12  C   UNL     1       6.084   1.743  -4.519  1.00  0.00     0.008 C 
ATOM     13  C   UNL     1       8.905   2.333  -3.969  1.00  0.00     0.008 C 
ATOM     14  C   UNL     1       5.274  -3.482  -3.479  1.00  0.00     0.017 C 
ATOM     15  C   UNL     1       5.792  -4.018  -6.041  1.00  0.00    -0.020 C 
ATOM     16  C   UNL     1       3.993  -2.202  -6.341  1.00  0.00     0.032 C 
ATOM     17  C   UNL     1       4.275  -3.738  -6.321  1.00  0.00     0.006 C 
ATOM     18  C   UNL     1       5.964  -5.549  -5.855  1.00  0.00     0.008 C 
ATOM     19  C   UNL     1       6.670  -3.517  -7.252  1.00  0.00     0.012 C 
ATOM     20  C   UNL     1       3.536  -4.597  -7.450  1.00  0.00    -0.025 C 
ATOM     21  C   UNL     1       5.365  -6.381  -6.993  1.00  0.00     0.005 C 
ATOM     22  C   UNL     1       3.844  -6.140  -7.231  1.00  0.00     0.003 C 
ATOM     23  C   UNL     1       3.938  -4.202  -8.904  1.00  0.00     0.010 C 
ATOM     24  C   UNL     1       2.007  -4.314  -7.250  1.00  0.00     0.012 C 
ATOM     25  C   UNL     1       3.267  -7.105  -8.368  1.00  0.00    -0.006 C 
ATOM     26  C   UNL     1       3.292  -5.084  -9.986  1.00  0.00     0.033 C 
ATOM     27  C   UNL     1       3.608  -6.576  -9.807  1.00  0.00     0.120 C 
ATOM     28  C   UNL     1       1.722  -7.281  -8.232  1.00  0.00     0.014 C 
ATOM     29  C   UNL     1       3.839  -8.545  -8.224  1.00  0.00     0.014 C 
ENDROOT
BRANCH   1  30
ATOM     30  C   UNL     1       8.882  -0.495  -2.486  1.00  0.00     0.048 C 
ATOM     31  O   UNL     1      10.108  -0.322  -2.263  1.00  0.00    -0.550 OA
ATOM     32  O   UNL     1       7.979  -0.098  -1.513  1.00  0.00    -0.550 OA
ENDBRANCH   1  30
BRANCH  27  33
ATOM     33  O   UNL     1       4.965  -6.770 -10.125  1.00  0.00    -0.393 OA
ATOM     34  H   UNL     1       5.056  -6.715 -11.108  1.00  0.00     0.210 HD
ENDBRANCH  27  33
TORSDOF 2
ENDMDL
MODEL 3
REMARK VINA RESULT:    -1.283     11.452     15.402
REMARK INTER + INTRA:          -1.009
REMARK INTER:                  -0.903
REMARK INTRA:                  -0.107
REMARK UNBOUND:                 0.386
REMARK SMILES C[C@@H]1[C@H]2C3=CC[C@H]4[C@@]5(C)CC[C@@H](O)C(C)(C)[C@H]5CC[C@]4(C)[C@@]3(C)CC[C@@]2(C(=O)[O-])CC[C@@H]1C
REMARK SMILES IDX 26 1 30 2 25 3 3 4 31 5 24 6 4 7 2 8 32 9 22 10 5 11 1 12
REMARK SMILES IDX 33 13 23 14 20 15 6 16 7 17 19 18 21 19 8 20 18 21 17 22
REMARK SMILES IDX 10 23 9 24 14 25 11 26 12 27 15 28 16 29 27 30 28 31 29 32
REMARK SMILES IDX 13 33
REMARK H PARENT 13 34
REMARK Flexibility Score: inf
ROOT
ATOM      1  C   UNL     1       2.236   4.585   8.705  1.00  0.00     0.017 C 
ATOM      2  C   UNL     1       2.578   5.676   7.651  1.00  0.00     0.014 C 
ATOM      3  C   UNL     1       3.484   4.309   9.585  1.00  0.00     0.014 C 
ATOM      4  C   UNL     1       1.729   3.278   7.978  1.00  0.00     0.030 C 
ATOM      5  C   UNL     1       1.407   6.108   6.745  1.00  0.00     0.004 C 
ATOM      6  C   UNL     1       4.622   3.608   8.860  1.00  0.00     0.013 C 
ATOM      7  C   UNL     1       2.874   2.335   7.485  1.00  0.00    -0.063 C 
ATOM      8  C   UNL     1       0.681   3.602   6.820  1.00  0.00    -0.003 C 
ATOM      9  C   UNL     1       0.237   5.091   6.631  1.00  0.00    -0.011 C 
ATOM     10  C   UNL     1       4.218   2.248   8.209  1.00  0.00    -0.006 C 
ATOM     11  C   UNL     1       2.608   1.346   6.578  1.00  0.00    -0.027 C 
ATOM     12  C   UNL     1      -0.550   2.661   6.877  1.00  0.00     0.008 C 
ATOM     13  C   UNL     1      -1.019   5.501   7.444  1.00  0.00     0.008 C 
ATOM     14  C   UNL     1       4.004   1.224   9.374  1.00  0.00     0.017 C 
ATOM     15  C   UNL     1       5.346   1.799   7.141  1.00  0.00    -0.020 C 
ATOM     16  C   UNL     1       3.553   0.230   6.167  1.00  0.00     0.032 C 
ATOM     17  C   UNL     1       5.027   0.337   6.671  1.00  0.00     0.006 C 
ATOM     18  C   UNL     1       6.755   1.789   7.793  1.00  0.00     0.008 C 
ATOM     19  C   UNL     1       5.326   2.783   5.909  1.00  0.00     0.012 C 
ATOM     20  C   UNL     1       6.120  -0.439   5.799  1.00  0.00    -0.025 C 
ATOM     21  C   UNL     1       7.838   1.156   6.915  1.00  0.00     0.005 C 
ATOM     22  C   UNL     1       7.543  -0.316   6.495  1.00  0.00     0.003 C 
ATOM     23  C   UNL     1       6.231   0.073   4.329  1.00  0.00     0.010 C 
ATOM     24  C   UNL     1       5.651  -1.934   5.782  1.00  0.00     0.012 C 
ATOM     25  C   UNL     1       8.753  -0.943   5.660  1.00  0.00    -0.006 C 
ATOM     26  C   UNL     1       7.340  -0.616   3.516  1.00  0.00     0.033 C 
ATOM     27  C   UNL     1       8.726  -0.478   4.159  1.00  0.00     0.120 C 
ATOM     28  C   UNL     1       8.736  -2.502   5.720  1.00  0.00     0.014 C 
ATOM     29  C   UNL     1      10.125  -0.543   6.275  1.00  0.00     0.014 C 
ENDROOT
BRANCH   1  30
ATOM     30  C   UNL     1       1.201   5.092   9.704  1.00  0.00     0.048 C 
ATOM     31  O   UNL     1       0.276   4.351  10.125  1.00  0.00    -0.550 OA
ATOM     32  O   UNL     1       1.195   6.424  10.085  1.00  0.00    -0.550 OA
ENDBRANCH   1  30
BRANCH  27  33
ATOM     33  O   UNL     1       9.132   0.862   4.023  1.00  0.00    -0.393 OA
ATOM     34  H   UNL     1       9.801   0.903   3.295  1.00  0.00     0.210 HD
ENDBRANCH  27  33
TORSDOF 2
ENDMDL
MODEL 4
REMARK VINA RESULT:    -1.239     11.172     15.456
REMARK INTER + INTRA:          -0.962
REMARK INTER:                  -0.878
REMARK INTRA:                  -0.084
REMARK UNBOUND:                 0.386
REMARK SMILES C[C@@H]1[C@H]2C3=CC[C@H]4[C@@]5(C)CC[C@@H](O)C(C)(C)[C@H]5CC[C@]4(C)[C@@]3(C)CC[C@@]2(C(=O)[O-])CC[C@@H]1C
REMARK SMILES IDX 26 1 30 2 25 3 3 4 31 5 24 6 4 7 2 8 32 9 22 10 5 11 1 12
REMARK SMILES IDX 33 13 23 14 20 15 6 16 7 17 19 18 21 19 8 20 18 21 17 22
REMARK SMILES IDX 10 23 9 24 14 25 11 26 12 27 15 28 16 29 27 30 28 31 29 32
REMARK SMILES IDX 13 33
REMARK H PARENT 13 34
REMARK Flexibility Score: inf
ROOT
ATOM      1  C   UNL     1       2.160   3.872   8.737  1.00  0.00     0.017 C 
ATOM      2  C   UNL     1       3.135   4.141   9.919  1.00  0.00     0.014 C 
ATOM      3  C   UNL     1       1.797   2.363   8.701  1.00  0.00     0.014 C 
ATOM      4  C   UNL     1       2.814   4.351   7.383  1.00  0.00     0.030 C 
ATOM      5  C   UNL     1       3.530   5.617  10.125  1.00  0.00     0.004 C 
ATOM      6  C   UNL     1       2.943   1.451   8.292  1.00  0.00     0.013 C 
ATOM      7  C   UNL     1       3.774   3.305   6.730  1.00  0.00    -0.063 C 
ATOM      8  C   UNL     1       3.499   5.786   7.521  1.00  0.00    -0.003 C 
ATOM      9  C   UNL     1       3.352   6.538   8.886  1.00  0.00    -0.011 C 
ATOM     10  C   UNL     1       3.568   1.800   6.904  1.00  0.00    -0.006 C 
ATOM     11  C   UNL     1       4.642   3.689   5.744  1.00  0.00    -0.027 C 
ATOM     12  C   UNL     1       3.132   6.716   6.335  1.00  0.00     0.008 C 
ATOM     13  C   UNL     1       2.117   7.472   8.982  1.00  0.00     0.008 C 
ATOM     14  C   UNL     1       2.526   1.387   5.811  1.00  0.00     0.017 C 
ATOM     15  C   UNL     1       5.001   1.067   6.752  1.00  0.00    -0.020 C 
ATOM     16  C   UNL     1       5.476   2.763   4.876  1.00  0.00     0.032 C 
ATOM     17  C   UNL     1       5.498   1.254   5.277  1.00  0.00     0.006 C 
ATOM     18  C   UNL     1       4.876  -0.457   7.020  1.00  0.00     0.008 C 
ATOM     19  C   UNL     1       6.031   1.711   7.759  1.00  0.00     0.012 C 
ATOM     20  C   UNL     1       6.775   0.422   4.790  1.00  0.00    -0.025 C 
ATOM     21  C   UNL     1       6.139  -1.251   6.671  1.00  0.00     0.005 C 
ATOM     22  C   UNL     1       6.597  -1.106   5.188  1.00  0.00     0.003 C 
ATOM     23  C   UNL     1       8.124   0.943   5.374  1.00  0.00     0.010 C 
ATOM     24  C   UNL     1       6.800   0.578   3.231  1.00  0.00     0.012 C 
ATOM     25  C   UNL     1       7.862  -2.031   4.871  1.00  0.00    -0.006 C 
ATOM     26  C   UNL     1       9.341   0.092   4.973  1.00  0.00     0.033 C 
ATOM     27  C   UNL     1       9.200  -1.381   5.380  1.00  0.00     0.120 C 
ATOM     28  C   UNL     1       7.979  -2.327   3.343  1.00  0.00     0.014 C 
ATOM     29  C   UNL     1       7.712  -3.431   5.531  1.00  0.00     0.014 C 
ENDROOT
BRANCH   1  30
ATOM     30  C   UNL     1       0.816   4.555   8.969  1.00  0.00     0.048 C 
ATOM     31  O   UNL     1       0.428   4.866  10.125  1.00  0.00    -0.550 OA
ATOM     32  O   UNL     1      -0.060   4.747   7.912  1.00  0.00    -0.550 OA
ENDBRANCH   1  30
BRANCH  27  33
ATOM     33  O   UNL     1       9.312  -1.454   6.781  1.00  0.00    -0.393 OA
ATOM     34  H   UNL     1       9.149  -2.392   7.049  1.00  0.00     0.210 HD
ENDBRANCH  27  33
TORSDOF 2
ENDMDL
MODEL 5
REMARK VINA RESULT:    -0.259     11.057     13.087
REMARK INTER + INTRA:           0.104
REMARK INTER:                   0.215
REMARK INTRA:                  -0.111
REMARK UNBOUND:                 0.386
REMARK SMILES C[C@@H]1[C@H]2C3=CC[C@H]4[C@@]5(C)CC[C@@H](O)C(C)(C)[C@H]5CC[C@]4(C)[C@@]3(C)CC[C@@]2(C(=O)[O-])CC[C@@H]1C
REMARK SMILES IDX 26 1 30 2 25 3 3 4 31 5 24 6 4 7 2 8 32 9 22 10 5 11 1 12
REMARK SMILES IDX 33 13 23 14 20 15 6 16 7 17 19 18 21 19 8 20 18 21 17 22
REMARK SMILES IDX 10 23 9 24 14 25 11 26 12 27 15 28 16 29 27 30 28 31 29 32
REMARK SMILES IDX 13 33
REMARK H PARENT 13 34
REMARK Flexibility Score: inf
ROOT
ATOM      1  C   UNL     1       0.922   2.952   5.763  1.00  0.00     0.017 C 
ATOM      2  C   UNL     1       1.381   4.341   5.235  1.00  0.00     0.014 C 
ATOM      3  C   UNL     1       1.594   2.674   7.134  1.00  0.00     0.014 C 
ATOM      4  C   UNL     1       1.266   1.835   4.702  1.00  0.00     0.030 C 
ATOM      5  C   UNL     1       0.737   4.788   3.906  1.00  0.00     0.004 C 
ATOM      6  C   UNL     1       3.092   2.430   7.061  1.00  0.00     0.013 C 
ATOM      7  C   UNL     1       2.731   1.299   4.790  1.00  0.00    -0.063 C 
ATOM      8  C   UNL     1       0.879   2.274   3.218  1.00  0.00    -0.003 C 
ATOM      9  C   UNL     1       0.151   3.647   3.029  1.00  0.00    -0.011 C 
ATOM     10  C   UNL     1       3.499   1.259   6.111  1.00  0.00    -0.006 C 
ATOM     11  C   UNL     1       3.262   0.575   3.757  1.00  0.00    -0.027 C 
ATOM     12  C   UNL     1       0.135   1.145   2.458  1.00  0.00     0.008 C 
ATOM     13  C   UNL     1      -1.399   3.571   3.069  1.00  0.00     0.008 C 
ATOM     14  C   UNL     1       3.069  -0.074   6.810  1.00  0.00     0.017 C 
ATOM     15  C   UNL     1       5.081   1.347   5.786  1.00  0.00    -0.020 C 
ATOM     16  C   UNL     1       4.577  -0.184   3.780  1.00  0.00     0.032 C 
ATOM     17  C   UNL     1       5.501   0.046   5.018  1.00  0.00     0.006 C 
ATOM     18  C   UNL     1       5.914   1.414   7.094  1.00  0.00     0.008 C 
ATOM     19  C   UNL     1       5.365   2.619   4.897  1.00  0.00     0.012 C 
ATOM     20  C   UNL     1       7.058  -0.236   4.788  1.00  0.00    -0.025 C 
ATOM     21  C   UNL     1       7.423   1.266   6.874  1.00  0.00     0.005 C 
ATOM     22  C   UNL     1       7.840  -0.055   6.160  1.00  0.00     0.003 C 
ATOM     23  C   UNL     1       7.711   0.683   3.709  1.00  0.00     0.010 C 
ATOM     24  C   UNL     1       7.142  -1.725   4.307  1.00  0.00     0.012 C 
ATOM     25  C   UNL     1       9.429  -0.185   6.046  1.00  0.00    -0.006 C 
ATOM     26  C   UNL     1       9.226   0.469   3.549  1.00  0.00     0.033 C 
ATOM     27  C   UNL     1       9.999   0.673   4.859  1.00  0.00     0.120 C 
ATOM     28  C   UNL     1       9.865  -1.673   5.866  1.00  0.00     0.014 C 
ATOM     29  C   UNL     1      10.124   0.270   7.361  1.00  0.00     0.014 C 
ENDROOT
BRANCH   1  30
ATOM     30  C   UNL     1      -0.568   2.956   6.091  1.00  0.00     0.048 C 
ATOM     31  O   UNL     1      -1.262   1.909   6.008  1.00  0.00    -0.550 OA
ATOM     32  O   UNL     1      -1.214   4.147   6.382  1.00  0.00    -0.550 OA
ENDBRANCH   1  30
BRANCH  27  33
ATOM     33  O   UNL     1       9.985   2.048   5.158  1.00  0.00    -0.393 OA
ATOM     34  H   UNL     1       9.087   2.396   4.933  1.00  0.00     0.210 HD
ENDBRANCH  27  33
TORSDOF 2
ENDMDL
MODEL 6
REMARK VINA RESULT:    -0.021     10.780     15.119
REMARK INTER + INTRA:           0.364
REMARK INTER:                   0.562
REMARK INTRA:                  -0.199
REMARK UNBOUND:                 0.386
REMARK SMILES C[C@@H]1[C@H]2C3=CC[C@H]4[C@@]5(C)CC[C@@H](O)C(C)(C)[C@H]5CC[C@]4(C)[C@@]3(C)CC[C@@]2(C(=O)[O-])CC[C@@H]1C
REMARK SMILES IDX 26 1 30 2 25 3 3 4 31 5 24 6 4 7 2 8 32 9 22 10 5 11 1 12
REMARK SMILES IDX 33 13 23 14 20 15 6 16 7 17 19 18 21 19 8 20 18 21 17 22
REMARK SMILES IDX 10 23 9 24 14 25 11 26 12 27 15 28 16 29 27 30 28 31 29 32
REMARK SMILES IDX 13 33
REMARK H PARENT 13 34
REMARK Flexibility Score: inf
ROOT
ATOM      1  C   UNL     1      -5.258  -4.373  -6.554  1.00  0.00     0.017 C 
ATOM      2  C   UNL     1      -3.909  -5.129  -6.719  1.00  0.00     0.014 C 
ATOM      3  C   UNL     1      -5.474  -4.024  -5.057  1.00  0.00     0.014 C 
ATOM      4  C   UNL     1      -6.438  -5.251  -7.129  1.00  0.00     0.030 C 
ATOM      5  C   UNL     1      -3.523  -5.481  -8.170  1.00  0.00     0.004 C 
ATOM      6  C   UNL     1      -5.750  -5.225  -4.166  1.00  0.00     0.013 C 
ATOM      7  C   UNL     1      -6.996  -6.310  -6.125  1.00  0.00    -0.063 C 
ATOM      8  C   UNL     1      -6.073  -5.899  -8.540  1.00  0.00    -0.003 C 
ATOM      9  C   UNL     1      -4.699  -5.518  -9.186  1.00  0.00    -0.011 C 
ATOM     10  C   UNL     1      -6.978  -6.078  -4.614  1.00  0.00    -0.006 C 
ATOM     11  C   UNL     1      -7.785  -7.334  -6.573  1.00  0.00    -0.027 C 
ATOM     12  C   UNL     1      -7.227  -5.741  -9.564  1.00  0.00     0.008 C 
ATOM     13  C   UNL     1      -4.743  -4.284 -10.125  1.00  0.00     0.008 C 
ATOM     14  C   UNL     1      -8.263  -5.241  -4.299  1.00  0.00     0.017 C 
ATOM     15  C   UNL     1      -6.938  -7.518  -3.877  1.00  0.00    -0.020 C 
ATOM     16  C   UNL     1      -8.567  -8.306  -5.708  1.00  0.00     0.032 C 
ATOM     17  C   UNL     1      -8.287  -8.261  -4.171  1.00  0.00     0.006 C 
ATOM     18  C   UNL     1      -6.816  -7.351  -2.339  1.00  0.00     0.008 C 
ATOM     19  C   UNL     1      -5.722  -8.358  -4.429  1.00  0.00     0.012 C 
ATOM     20  C   UNL     1      -8.611  -9.604  -3.364  1.00  0.00    -0.025 C 
ATOM     21  C   UNL     1      -7.004  -8.655  -1.559  1.00  0.00     0.005 C 
ATOM     22  C   UNL     1      -8.370  -9.362  -1.812  1.00  0.00     0.003 C 
ATOM     23  C   UNL     1      -7.765 -10.832  -3.822  1.00  0.00     0.010 C 
ATOM     24  C   UNL     1     -10.125  -9.897  -3.640  1.00  0.00     0.012 C 
ATOM     25  C   UNL     1      -8.537 -10.664  -0.899  1.00  0.00    -0.006 C 
ATOM     26  C   UNL     1      -8.016 -12.101  -2.990  1.00  0.00     0.033 C 
ATOM     27  C   UNL     1      -7.756 -11.893  -1.491  1.00  0.00     0.120 C 
ATOM     28  C   UNL     1     -10.040 -11.043  -0.721  1.00  0.00     0.014 C 
ATOM     29  C   UNL     1      -8.024 -10.405   0.546  1.00  0.00     0.014 C 
ENDROOT
BRANCH   1  30
ATOM     30  C   UNL     1      -5.208  -3.008  -7.234  1.00  0.00     0.048 C 
ATOM     31  O   UNL     1      -4.130  -2.369  -7.345  1.00  0.00    -0.550 OA
ATOM     32  O   UNL     1      -6.378  -2.392  -7.646  1.00  0.00    -0.550 OA
ENDBRANCH   1  30
BRANCH  27  33
ATOM     33  O   UNL     1      -6.366 -11.762  -1.310  1.00  0.00    -0.393 OA
ATOM     34  H   UNL     1      -6.217 -11.100  -0.590  1.00  0.00     0.210 HD
ENDBRANCH  27  33
TORSDOF 2
ENDMDL
