MODEL 1
REMARK VINA RESULT:    -5.118      0.000      0.000
REMARK INTER + INTRA:          -5.734
REMARK INTER:                  -5.567
REMARK INTRA:                  -0.168
REMARK UNBOUND:                -0.168
REMARK SMILES CC(=O)[C@@H]1CC[C@@H]2[C@@H]3CC=C4C[C@@H](O)CC[C@@]4(C)[C@@H]3CC[C@@]21C
REMARK SMILES IDX 4 1 5 2 6 3 7 4 22 5 21 6 20 7 19 8 8 9 9 10 10 11 11 12
REMARK SMILES IDX 17 13 16 14 15 15 13 16 12 17 18 18 23 19 2 20 1 21 3 22
REMARK SMILES IDX 14 23
REMARK H PARENT 14 24
REMARK Flexibility Score: inf
ROOT
ATOM      1  C   UNL     1     143.374 148.646 157.975  1.00  0.00     0.062 C 
ATOM      2  C   UNL     1     143.851 148.168 159.346  1.00  0.00     0.012 C 
ATOM      3  C   UNL     1     143.734 146.647 159.320  1.00  0.00     0.005 C 
ATOM      4  C   UNL     1     143.486 146.239 157.852  1.00  0.00    -0.001 C 
ATOM      5  C   UNL     1     143.765 147.506 156.994  1.00  0.00    -0.020 C 
ATOM      6  C   UNL     1     145.264 147.594 156.524  1.00  0.00     0.008 C 
ATOM      7  C   UNL     1     146.206 146.615 157.230  1.00  0.00     0.005 C 
ATOM      8  C   UNL     1     145.746 145.157 156.989  1.00  0.00     0.003 C 
ATOM      9  C   UNL     1     144.232 144.954 157.373  1.00  0.00     0.000 C 
ATOM     10  C   UNL     1     143.966 143.765 158.317  1.00  0.00     0.031 C 
ATOM     11  C   UNL     1     144.761 142.571 157.898  1.00  0.00    -0.027 C 
ATOM     12  C   UNL     1     146.051 142.677 157.525  1.00  0.00    -0.065 C 
ATOM     13  C   UNL     1     146.751 144.057 157.537  1.00  0.00    -0.008 C 
ATOM     14  C   UNL     1     148.065 144.071 156.658  1.00  0.00     0.014 C 
ATOM     15  C   UNL     1     148.238 142.867 155.736  1.00  0.00     0.033 C 
ATOM     16  C   UNL     1     148.151 141.588 156.560  1.00  0.00     0.118 C 
ATOM     17  C   UNL     1     146.719 141.398 157.051  1.00  0.00     0.063 C 
ATOM     18  C   UNL     1     147.171 144.352 159.001  1.00  0.00     0.016 C 
ATOM     19  C   UNL     1     142.839 147.521 155.753  1.00  0.00     0.012 C 
ENDROOT
BRANCH   1  20
ATOM     20  C   UNL     1     143.819 150.048 157.580  1.00  0.00     0.133 C 
ATOM     21  C   UNL     1     145.114 150.652 158.051  1.00  0.00     0.088 C 
ATOM     22  O   UNL     1     143.088 150.720 156.868  1.00  0.00    -0.300 OA
ENDBRANCH   1  20
BRANCH  16  23
ATOM     23  O   UNL     1     148.520 140.483 155.776  1.00  0.00    -0.393 OA
ATOM     24  H   UNL     1     148.550 140.797 154.835  1.00  0.00     0.210 HD
ENDBRANCH  16  23
TORSDOF 2
ENDMDL
MODEL 2
REMARK VINA RESULT:    -5.104      4.426      6.782
REMARK INTER + INTRA:          -5.719
REMARK INTER:                  -5.533
REMARK INTRA:                  -0.186
REMARK UNBOUND:                -0.168
REMARK SMILES CC(=O)[C@@H]1CC[C@@H]2[C@@H]3CC=C4C[C@@H](O)CC[C@@]4(C)[C@@H]3CC[C@@]21C
REMARK SMILES IDX 4 1 5 2 6 3 7 4 22 5 21 6 20 7 19 8 8 9 9 10 10 11 11 12
REMARK SMILES IDX 17 13 16 14 15 15 13 16 12 17 18 18 23 19 2 20 1 21 3 22
REMARK SMILES IDX 14 23
REMARK H PARENT 14 24
REMARK Flexibility Score: inf
ROOT
ATOM      1  C   UNL     1     146.997 143.379 157.939  1.00  0.00     0.062 C 
ATOM      2  C   UNL     1     147.458 143.856 159.316  1.00  0.00     0.012 C 
ATOM      3  C   UNL     1     148.981 143.752 159.304  1.00  0.00     0.005 C 
ATOM      4  C   UNL     1     149.405 143.513 157.839  1.00  0.00    -0.001 C 
ATOM      5  C   UNL     1     148.144 143.782 156.970  1.00  0.00    -0.020 C 
ATOM      6  C   UNL     1     148.047 145.282 156.503  1.00  0.00     0.008 C 
ATOM      7  C   UNL     1     149.011 146.231 157.221  1.00  0.00     0.005 C 
ATOM      8  C   UNL     1     150.476 145.784 156.993  1.00  0.00     0.003 C 
ATOM      9  C   UNL     1     150.687 144.270 157.375  1.00  0.00     0.000 C 
ATOM     10  C   UNL     1     151.870 144.013 158.329  1.00  0.00     0.031 C 
ATOM     11  C   UNL     1     153.060 144.819 157.924  1.00  0.00    -0.027 C 
ATOM     12  C   UNL     1     152.947 146.109 157.553  1.00  0.00    -0.065 C 
ATOM     13  C   UNL     1     151.561 146.797 157.554  1.00  0.00    -0.008 C 
ATOM     14  C   UNL     1     151.544 148.114 156.679  1.00  0.00     0.014 C 
ATOM     15  C   UNL     1     152.756 148.299 155.769  1.00  0.00     0.033 C 
ATOM     16  C   UNL     1     154.028 148.221 156.605  1.00  0.00     0.118 C 
ATOM     17  C   UNL     1     154.225 146.789 157.093  1.00  0.00     0.063 C 
ATOM     18  C   UNL     1     151.248 147.210 159.016  1.00  0.00     0.016 C 
ATOM     19  C   UNL     1     148.148 142.860 155.726  1.00  0.00     0.012 C 
ENDROOT
BRANCH   1  20
ATOM     20  C   UNL     1     145.595 143.814 157.532  1.00  0.00     0.133 C 
ATOM     21  C   UNL     1     144.939 145.052 158.076  1.00  0.00     0.088 C 
ATOM     22  O   UNL     1     144.967 143.119 156.747  1.00  0.00    -0.300 OA
ENDBRANCH   1  20
BRANCH  16  23
ATOM     23  O   UNL     1     155.136 148.602 155.832  1.00  0.00    -0.393 OA
ATOM     24  H   UNL     1     155.945 148.298 156.321  1.00  0.00     0.210 HD
ENDBRANCH  16  23
TORSDOF 2
ENDMDL
MODEL 3
REMARK VINA RESULT:    -5.098      4.350      6.697
REMARK INTER + INTRA:          -5.713
REMARK INTER:                  -5.574
REMARK INTRA:                  -0.139
REMARK UNBOUND:                -0.168
REMARK SMILES CC(=O)[C@@H]1CC[C@@H]2[C@@H]3CC=C4C[C@@H](O)CC[C@@]4(C)[C@@H]3CC[C@@]21C
REMARK SMILES IDX 4 1 5 2 6 3 7 4 22 5 21 6 20 7 19 8 8 9 9 10 10 11 11 12
REMARK SMILES IDX 17 13 16 14 15 15 13 16 12 17 18 18 23 19 2 20 1 21 3 22
REMARK SMILES IDX 14 23
REMARK H PARENT 14 24
REMARK Flexibility Score: inf
ROOT
ATOM      1  C   UNL     1     148.643 152.210 157.959  1.00  0.00     0.062 C 
ATOM      2  C   UNL     1     148.179 151.726 159.334  1.00  0.00     0.012 C 
ATOM      3  C   UNL     1     146.657 151.828 159.319  1.00  0.00     0.005 C 
ATOM      4  C   UNL     1     146.235 152.073 157.853  1.00  0.00    -0.001 C 
ATOM      5  C   UNL     1     147.499 151.809 156.986  1.00  0.00    -0.020 C 
ATOM      6  C   UNL     1     147.600 150.311 156.513  1.00  0.00     0.008 C 
ATOM      7  C   UNL     1     146.635 149.358 157.225  1.00  0.00     0.005 C 
ATOM      8  C   UNL     1     145.170 149.803 156.995  1.00  0.00     0.003 C 
ATOM      9  C   UNL     1     144.955 151.315 157.383  1.00  0.00     0.000 C 
ATOM     10  C   UNL     1     143.770 151.567 158.336  1.00  0.00     0.031 C 
ATOM     11  C   UNL     1     142.582 150.760 157.924  1.00  0.00    -0.027 C 
ATOM     12  C   UNL     1     142.698 149.473 157.548  1.00  0.00    -0.065 C 
ATOM     13  C   UNL     1     144.085 148.786 157.549  1.00  0.00    -0.008 C 
ATOM     14  C   UNL     1     144.106 147.474 156.668  1.00  0.00     0.014 C 
ATOM     15  C   UNL     1     142.897 147.291 155.754  1.00  0.00     0.033 C 
ATOM     16  C   UNL     1     141.623 147.362 156.588  1.00  0.00     0.118 C 
ATOM     17  C   UNL     1     141.423 148.792 157.082  1.00  0.00     0.063 C 
ATOM     18  C   UNL     1     144.395 148.368 159.010  1.00  0.00     0.016 C 
ATOM     19  C   UNL     1     147.496 152.737 155.746  1.00  0.00     0.012 C 
ENDROOT
BRANCH   1  20
ATOM     20  C   UNL     1     150.046 151.780 157.554  1.00  0.00     0.133 C 
ATOM     21  C   UNL     1     150.633 150.452 157.946  1.00  0.00     0.088 C 
ATOM     22  O   UNL     1     150.733 152.550 156.901  1.00  0.00    -0.300 OA
ENDBRANCH   1  20
BRANCH  16  23
ATOM     23  O   UNL     1     140.517 146.983 155.811  1.00  0.00    -0.393 OA
ATOM     24  H   UNL     1     139.834 146.629 156.438  1.00  0.00     0.210 HD
ENDBRANCH  16  23
TORSDOF 2
ENDMDL
MODEL 4
REMARK VINA RESULT:    -5.032      5.131      9.500
REMARK INTER + INTRA:          -5.641
REMARK INTER:                  -5.480
REMARK INTRA:                  -0.161
REMARK UNBOUND:                -0.168
REMARK SMILES CC(=O)[C@@H]1CC[C@@H]2[C@@H]3CC=C4C[C@@H](O)CC[C@@]4(C)[C@@H]3CC[C@@]21C
REMARK SMILES IDX 4 1 5 2 6 3 7 4 22 5 21 6 20 7 19 8 8 9 9 10 10 11 11 12
REMARK SMILES IDX 17 13 16 14 15 15 13 16 12 17 18 18 23 19 2 20 1 21 3 22
REMARK SMILES IDX 14 23
REMARK H PARENT 14 24
REMARK Flexibility Score: inf
ROOT
ATOM      1  C   UNL     1     152.235 146.968 157.997  1.00  0.00     0.062 C 
ATOM      2  C   UNL     1     151.825 147.475 159.380  1.00  0.00     0.012 C 
ATOM      3  C   UNL     1     151.921 148.996 159.311  1.00  0.00     0.005 C 
ATOM      4  C   UNL     1     152.085 149.370 157.822  1.00  0.00    -0.001 C 
ATOM      5  C   UNL     1     151.779 148.079 157.011  1.00  0.00    -0.020 C 
ATOM      6  C   UNL     1     150.258 147.961 156.622  1.00  0.00     0.008 C 
ATOM      7  C   UNL     1     149.341 148.947 157.353  1.00  0.00     0.005 C 
ATOM      8  C   UNL     1     149.769 150.404 157.053  1.00  0.00     0.003 C 
ATOM      9  C   UNL     1     151.299 150.634 157.352  1.00  0.00     0.000 C 
ATOM     10  C   UNL     1     151.598 151.849 158.251  1.00  0.00     0.031 C 
ATOM     11  C   UNL     1     150.767 153.023 157.846  1.00  0.00    -0.027 C 
ATOM     12  C   UNL     1     149.461 152.892 157.544  1.00  0.00    -0.065 C 
ATOM     13  C   UNL     1     148.780 151.505 157.627  1.00  0.00    -0.008 C 
ATOM     14  C   UNL     1     147.422 151.454 156.819  1.00  0.00     0.014 C 
ATOM     15  C   UNL     1     147.186 152.633 155.878  1.00  0.00     0.033 C 
ATOM     16  C   UNL     1     147.299 153.933 156.665  1.00  0.00     0.118 C 
ATOM     17  C   UNL     1     148.752 154.151 157.075  1.00  0.00     0.063 C 
ATOM     18  C   UNL     1     148.442 151.242 159.117  1.00  0.00     0.016 C 
ATOM     19  C   UNL     1     152.638 148.044 155.723  1.00  0.00     0.012 C 
ENDROOT
BRANCH   1  20
ATOM     20  C   UNL     1     151.788 145.552 157.660  1.00  0.00     0.133 C 
ATOM     21  C   UNL     1     150.515 144.954 158.192  1.00  0.00     0.088 C 
ATOM     22  O   UNL     1     152.500 144.863 156.946  1.00  0.00    -0.300 OA
ENDBRANCH   1  20
BRANCH  16  23
ATOM     23  O   UNL     1     146.875 155.013 155.875  1.00  0.00    -0.393 OA
ATOM     24  H   UNL     1     147.677 155.351 155.397  1.00  0.00     0.210 HD
ENDBRANCH  16  23
TORSDOF 2
ENDMDL
MODEL 5
REMARK VINA RESULT:    -5.023      3.566      4.591
REMARK INTER + INTRA:          -5.631
REMARK INTER:                  -5.454
REMARK INTRA:                  -0.177
REMARK UNBOUND:                -0.168
REMARK SMILES CC(=O)[C@@H]1CC[C@@H]2[C@@H]3CC=C4C[C@@H](O)CC[C@@]4(C)[C@@H]3CC[C@@]21C
REMARK SMILES IDX 4 1 5 2 6 3 7 4 22 5 21 6 20 7 19 8 8 9 9 10 10 11 11 12
REMARK SMILES IDX 17 13 16 14 15 15 13 16 12 17 18 18 23 19 2 20 1 21 3 22
REMARK SMILES IDX 14 23
REMARK H PARENT 14 24
REMARK Flexibility Score: inf
ROOT
ATOM      1  C   UNL     1     142.398 149.483 157.988  1.00  0.00     0.062 C 
ATOM      2  C   UNL     1     142.102 149.305 159.478  1.00  0.00     0.012 C 
ATOM      3  C   UNL     1     140.991 148.263 159.560  1.00  0.00     0.005 C 
ATOM      4  C   UNL     1     140.865 147.627 158.159  1.00  0.00    -0.001 C 
ATOM      5  C   UNL     1     142.111 148.093 157.354  1.00  0.00    -0.020 C 
ATOM      6  C   UNL     1     143.323 147.098 157.494  1.00  0.00     0.008 C 
ATOM      7  C   UNL     1     143.158 146.055 158.604  1.00  0.00     0.005 C 
ATOM      8  C   UNL     1     141.898 145.194 158.350  1.00  0.00     0.003 C 
ATOM      9  C   UNL     1     140.617 146.086 158.136  1.00  0.00     0.000 C 
ATOM     10  C   UNL     1     139.413 145.697 159.017  1.00  0.00     0.031 C 
ATOM     11  C   UNL     1     139.249 144.213 159.059  1.00  0.00    -0.027 C 
ATOM     12  C   UNL     1     140.304 143.389 159.206  1.00  0.00    -0.065 C 
ATOM     13  C   UNL     1     141.730 143.973 159.351  1.00  0.00    -0.008 C 
ATOM     14  C   UNL     1     142.851 142.900 159.053  1.00  0.00     0.014 C 
ATOM     15  C   UNL     1     142.356 141.615 158.394  1.00  0.00     0.033 C 
ATOM     16  C   UNL     1     141.243 141.013 159.243  1.00  0.00     0.118 C 
ATOM     17  C   UNL     1     140.005 141.901 159.157  1.00  0.00     0.063 C 
ATOM     18  C   UNL     1     141.900 144.422 160.826  1.00  0.00     0.016 C 
ATOM     19  C   UNL     1     141.750 148.248 155.856  1.00  0.00     0.012 C 
ENDROOT
BRANCH   1  20
ATOM     20  C   UNL     1     143.751 150.101 157.659  1.00  0.00     0.133 C 
ATOM     21  C   UNL     1     144.952 149.946 158.550  1.00  0.00     0.088 C 
ATOM     22  O   UNL     1     143.863 150.767 156.641  1.00  0.00    -0.300 OA
ENDBRANCH   1  20
BRANCH  16  23
ATOM     23  O   UNL     1     140.922 139.728 158.777  1.00  0.00    -0.393 OA
ATOM     24  H   UNL     1     140.112 139.822 158.211  1.00  0.00     0.210 HD
ENDBRANCH  16  23
TORSDOF 2
ENDMDL
MODEL 6
REMARK VINA RESULT:    -5.020      7.038     10.352
REMARK INTER + INTRA:          -5.628
REMARK INTER:                  -5.462
REMARK INTRA:                  -0.166
REMARK UNBOUND:                -0.168
REMARK SMILES CC(=O)[C@@H]1CC[C@@H]2[C@@H]3CC=C4C[C@@H](O)CC[C@@]4(C)[C@@H]3CC[C@@]21C
REMARK SMILES IDX 4 1 5 2 6 3 7 4 22 5 21 6 20 7 19 8 8 9 9 10 10 11 11 12
REMARK SMILES IDX 17 13 16 14 15 15 13 16 12 17 18 18 23 19 2 20 1 21 3 22
REMARK SMILES IDX 14 23
REMARK H PARENT 14 24
REMARK Flexibility Score: inf
ROOT
ATOM      1  C   UNL     1     149.461 152.974 158.002  1.00  0.00     0.062 C 
ATOM      2  C   UNL     1     149.281 153.250 159.495  1.00  0.00     0.012 C 
ATOM      3  C   UNL     1     148.267 154.386 159.589  1.00  0.00     0.005 C 
ATOM      4  C   UNL     1     147.643 154.551 158.186  1.00  0.00    -0.001 C 
ATOM      5  C   UNL     1     148.083 153.307 157.364  1.00  0.00    -0.020 C 
ATOM      6  C   UNL     1     147.057 152.119 157.478  1.00  0.00     0.008 C 
ATOM      7  C   UNL     1     146.011 152.292 158.583  1.00  0.00     0.005 C 
ATOM      8  C   UNL     1     145.183 153.578 158.345  1.00  0.00     0.003 C 
ATOM      9  C   UNL     1     146.110 154.839 158.158  1.00  0.00     0.000 C 
ATOM     10  C   UNL     1     145.746 156.037 159.056  1.00  0.00     0.031 C 
ATOM     11  C   UNL     1     144.266 156.239 159.092  1.00  0.00    -0.027 C 
ATOM     12  C   UNL     1     143.415 155.203 159.216  1.00  0.00    -0.065 C 
ATOM     13  C   UNL     1     143.961 153.760 159.341  1.00  0.00    -0.008 C 
ATOM     14  C   UNL     1     142.861 152.672 159.017  1.00  0.00     0.014 C 
ATOM     15  C   UNL     1     141.594 153.211 158.359  1.00  0.00     0.033 C 
ATOM     16  C   UNL     1     141.015 154.325 159.223  1.00  0.00     0.118 C 
ATOM     17  C   UNL     1     141.934 155.541 159.163  1.00  0.00     0.063 C 
ATOM     18  C   UNL     1     144.396 153.554 160.816  1.00  0.00     0.016 C 
ATOM     19  C   UNL     1     148.257 153.689 155.873  1.00  0.00     0.012 C 
ENDROOT
BRANCH   1  20
ATOM     20  C   UNL     1     150.046 151.612 157.654  1.00  0.00     0.133 C 
ATOM     21  C   UNL     1     149.820 150.391 158.501  1.00  0.00     0.088 C 
ATOM     22  O   UNL     1     150.746 151.508 156.658  1.00  0.00    -0.300 OA
ENDBRANCH   1  20
BRANCH  16  23
ATOM     23  O   UNL     1     139.742 154.686 158.754  1.00  0.00    -0.393 OA
ATOM     24  H   UNL     1     139.747 155.672 158.641  1.00  0.00     0.210 HD
ENDBRANCH  16  23
TORSDOF 2
ENDMDL
MODEL 7
REMARK VINA RESULT:    -5.010      4.143      6.594
REMARK INTER + INTRA:          -5.617
REMARK INTER:                  -5.444
REMARK INTRA:                  -0.174
REMARK UNBOUND:                -0.168
REMARK SMILES CC(=O)[C@@H]1CC[C@@H]2[C@@H]3CC=C4C[C@@H](O)CC[C@@]4(C)[C@@H]3CC[C@@]21C
REMARK SMILES IDX 4 1 5 2 6 3 7 4 22 5 21 6 20 7 19 8 8 9 9 10 10 11 11 12
REMARK SMILES IDX 17 13 16 14 15 15 13 16 12 17 18 18 23 19 2 20 1 21 3 22
REMARK SMILES IDX 14 23
REMARK H PARENT 14 24
REMARK Flexibility Score: inf
ROOT
ATOM      1  C   UNL     1     146.126 142.374 157.983  1.00  0.00     0.062 C 
ATOM      2  C   UNL     1     146.299 142.085 159.475  1.00  0.00     0.012 C 
ATOM      3  C   UNL     1     147.337 140.970 159.565  1.00  0.00     0.005 C 
ATOM      4  C   UNL     1     147.976 140.835 158.166  1.00  0.00    -0.001 C 
ATOM      5  C   UNL     1     147.516 142.079 157.354  1.00  0.00    -0.020 C 
ATOM      6  C   UNL     1     148.514 143.288 157.491  1.00  0.00     0.008 C 
ATOM      7  C   UNL     1     149.554 143.125 158.604  1.00  0.00     0.005 C 
ATOM      8  C   UNL     1     150.412 141.861 158.358  1.00  0.00     0.003 C 
ATOM      9  C   UNL     1     149.515 140.582 158.148  1.00  0.00     0.000 C 
ATOM     10  C   UNL     1     149.898 139.382 159.036  1.00  0.00     0.031 C 
ATOM     11  C   UNL     1     151.382 139.212 159.082  1.00  0.00    -0.027 C 
ATOM     12  C   UNL     1     152.209 140.265 159.226  1.00  0.00    -0.065 C 
ATOM     13  C   UNL     1     151.630 141.694 159.363  1.00  0.00    -0.008 C 
ATOM     14  C   UNL     1     152.708 142.810 159.062  1.00  0.00     0.014 C 
ATOM     15  C   UNL     1     153.992 142.307 158.408  1.00  0.00     0.033 C 
ATOM     16  C   UNL     1     154.589 141.196 159.264  1.00  0.00     0.118 C 
ATOM     17  C   UNL     1     153.697 139.961 159.183  1.00  0.00     0.063 C 
ATOM     18  C   UNL     1     151.178 141.873 160.836  1.00  0.00     0.016 C 
ATOM     19  C   UNL     1     147.363 141.711 155.857  1.00  0.00     0.012 C 
ENDROOT
BRANCH   1  20
ATOM     20  C   UNL     1     145.513 143.727 157.646  1.00  0.00     0.133 C 
ATOM     21  C   UNL     1     145.680 144.935 158.525  1.00  0.00     0.088 C 
ATOM     22  O   UNL     1     144.841 143.833 156.632  1.00  0.00    -0.300 OA
ENDBRANCH   1  20
BRANCH  16  23
ATOM     23  O   UNL     1     155.873 140.869 158.803  1.00  0.00    -0.393 OA
ATOM     24  H   UNL     1     156.510 141.126 159.520  1.00  0.00     0.210 HD
ENDBRANCH  16  23
TORSDOF 2
ENDMDL
MODEL 8
REMARK VINA RESULT:    -4.975      5.380      6.768
REMARK INTER + INTRA:          -5.579
REMARK INTER:                  -5.490
REMARK INTRA:                  -0.088
REMARK UNBOUND:                -0.168
REMARK SMILES CC(=O)[C@@H]1CC[C@@H]2[C@@H]3CC=C4C[C@@H](O)CC[C@@]4(C)[C@@H]3CC[C@@]21C
REMARK SMILES IDX 4 1 5 2 6 3 7 4 22 5 21 6 20 7 19 8 8 9 9 10 10 11 11 12
REMARK SMILES IDX 17 13 16 14 15 15 13 16 12 17 18 18 23 19 2 20 1 21 3 22
REMARK SMILES IDX 14 23
REMARK H PARENT 14 24
REMARK Flexibility Score: inf
ROOT
ATOM      1  C   UNL     1     146.766 153.102 157.943  1.00  0.00     0.062 C 
ATOM      2  C   UNL     1     146.902 152.273 159.220  1.00  0.00     0.012 C 
ATOM      3  C   UNL     1     147.191 150.847 158.761  1.00  0.00     0.005 C 
ATOM      4  C   UNL     1     147.522 150.916 157.255  1.00  0.00    -0.001 C 
ATOM      5  C   UNL     1     147.718 152.422 156.920  1.00  0.00    -0.020 C 
ATOM      6  C   UNL     1     149.214 152.883 157.081  1.00  0.00     0.008 C 
ATOM      7  C   UNL     1     150.110 151.876 157.809  1.00  0.00     0.005 C 
ATOM      8  C   UNL     1     150.135 150.529 157.047  1.00  0.00     0.003 C 
ATOM      9  C   UNL     1     148.681 149.988 156.774  1.00  0.00     0.000 C 
ATOM     10  C   UNL     1     148.450 148.528 157.210  1.00  0.00     0.031 C 
ATOM     11  C   UNL     1     149.613 147.673 156.824  1.00  0.00    -0.027 C 
ATOM     12  C   UNL     1     150.883 148.086 156.999  1.00  0.00    -0.065 C 
ATOM     13  C   UNL     1     151.168 149.472 157.626  1.00  0.00    -0.008 C 
ATOM     14  C   UNL     1     152.640 149.971 157.335  1.00  0.00     0.014 C 
ATOM     15  C   UNL     1     153.390 149.180 156.266  1.00  0.00     0.033 C 
ATOM     16  C   UNL     1     153.383 147.702 156.639  1.00  0.00     0.118 C 
ATOM     17  C   UNL     1     151.968 147.151 156.495  1.00  0.00     0.063 C 
ATOM     18  C   UNL     1     151.026 149.324 159.163  1.00  0.00     0.016 C 
ATOM     19  C   UNL     1     147.249 152.710 155.472  1.00  0.00     0.012 C 
ENDROOT
BRANCH   1  20
ATOM     20  C   UNL     1     146.938 154.605 158.118  1.00  0.00     0.133 C 
ATOM     21  C   UNL     1     146.583 155.594 157.043  1.00  0.00     0.088 C 
ATOM     22  O   UNL     1     147.402 155.028 159.167  1.00  0.00    -0.300 OA
ENDBRANCH   1  20
BRANCH  16  23
ATOM     23  O   UNL     1     154.245 146.988 155.792  1.00  0.00    -0.393 OA
ATOM     24  H   UNL     1     155.054 146.769 156.325  1.00  0.00     0.210 HD
ENDBRANCH  16  23
TORSDOF 2
ENDMDL
MODEL 9
REMARK VINA RESULT:    -4.953      5.121      7.025
REMARK INTER + INTRA:          -5.555
REMARK INTER:                  -5.511
REMARK INTRA:                  -0.045
REMARK UNBOUND:                -0.168
REMARK SMILES CC(=O)[C@@H]1CC[C@@H]2[C@@H]3CC=C4C[C@@H](O)CC[C@@]4(C)[C@@H]3CC[C@@]21C
REMARK SMILES IDX 4 1 5 2 6 3 7 4 22 5 21 6 20 7 19 8 8 9 9 10 10 11 11 12
REMARK SMILES IDX 17 13 16 14 15 15 13 16 12 17 18 18 23 19 2 20 1 21 3 22
REMARK SMILES IDX 14 23
REMARK H PARENT 14 24
REMARK Flexibility Score: inf
ROOT
ATOM      1  C   UNL     1     153.330 148.865 157.776  1.00  0.00     0.062 C 
ATOM      2  C   UNL     1     152.545 148.767 159.085  1.00  0.00     0.012 C 
ATOM      3  C   UNL     1     151.094 148.522 158.682  1.00  0.00     0.005 C 
ATOM      4  C   UNL     1     151.096 148.177 157.177  1.00  0.00    -0.001 C 
ATOM      5  C   UNL     1     152.581 147.929 156.788  1.00  0.00    -0.020 C 
ATOM      6  C   UNL     1     152.998 146.420 156.945  1.00  0.00     0.008 C 
ATOM      7  C   UNL     1     151.990 145.563 157.717  1.00  0.00     0.005 C 
ATOM      8  C   UNL     1     150.615 145.577 157.006  1.00  0.00     0.003 C 
ATOM      9  C   UNL     1     150.113 147.047 156.741  1.00  0.00     0.000 C 
ATOM     10  C   UNL     1     148.679 147.329 157.229  1.00  0.00     0.031 C 
ATOM     11  C   UNL     1     147.771 146.192 156.886  1.00  0.00    -0.027 C 
ATOM     12  C   UNL     1     148.149 144.911 157.056  1.00  0.00    -0.065 C 
ATOM     13  C   UNL     1     149.547 144.584 157.633  1.00  0.00    -0.008 C 
ATOM     14  C   UNL     1     149.986 143.095 157.337  1.00  0.00     0.014 C 
ATOM     15  C   UNL     1     149.131 142.364 156.304  1.00  0.00     0.033 C 
ATOM     16  C   UNL     1     147.670 142.422 156.732  1.00  0.00     0.118 C 
ATOM     17  C   UNL     1     147.160 143.854 156.596  1.00  0.00     0.063 C 
ATOM     18  C   UNL     1     149.462 144.743 159.174  1.00  0.00     0.016 C 
ATOM     19  C   UNL     1     152.830 148.378 155.326  1.00  0.00     0.012 C 
ENDROOT
BRANCH   1  20
ATOM     20  C   UNL     1     154.832 148.645 157.897  1.00  0.00     0.133 C 
ATOM     21  C   UNL     1     155.776 148.840 156.743  1.00  0.00     0.088 C 
ATOM     22  O   UNL     1     155.290 148.275 158.968  1.00  0.00    -0.300 OA
ENDBRANCH   1  20
BRANCH  16  23
ATOM     23  O   UNL     1     146.896 141.578 155.920  1.00  0.00    -0.393 OA
ATOM     24  H   UNL     1     146.028 141.448 156.386  1.00  0.00     0.210 HD
ENDBRANCH  16  23
TORSDOF 2
ENDMDL
