MODEL 1
REMARK VINA RESULT:    -6.168      0.000      0.000
REMARK INTER + INTRA:          -6.732
REMARK INTER:                  -6.529
REMARK INTRA:                  -0.203
REMARK UNBOUND:                -0.203
REMARK SMILES CC1=CC[C@@]23[C@@H]([C@@H]12)[C@H](C(C)C)CC[C@H]3C
REMARK SMILES IDX 15 1 14 2 13 3 12 4 8 5 6 6 5 7 7 8 2 9 3 10 4 11 1 12 9 13
REMARK SMILES IDX 10 14 11 15
REMARK H PARENT
REMARK Flexibility Score: inf
ROOT
ATOM      1  C   UNL     1     -50.634 -48.141  23.872  1.00  0.00     0.008 C 
ATOM      2  C   UNL     1     -51.648 -47.398  22.989  1.00  0.00    -0.007 C 
ATOM      3  C   UNL     1     -52.980 -47.232  23.745  1.00  0.00     0.004 C 
ATOM      4  C   UNL     1     -54.081 -46.723  22.819  1.00  0.00     0.004 C 
ATOM      5  C   UNL     1     -54.436 -47.795  21.769  1.00  0.00    -0.004 C 
ATOM      6  C   UNL     1     -53.189 -48.229  20.956  1.00  0.00     0.007 C 
ATOM      7  C   UNL     1     -51.800 -48.073  21.596  1.00  0.00    -0.013 C 
ATOM      8  C   UNL     1     -52.461 -49.448  21.544  1.00  0.00     0.025 C 
ATOM      9  C   UNL     1     -51.597 -50.217  20.601  1.00  0.00    -0.073 C 
ATOM     10  C   UNL     1     -50.590 -49.499  20.117  1.00  0.00    -0.027 C 
ATOM     11  C   UNL     1     -50.609 -48.099  20.624  1.00  0.00     0.035 C 
ATOM     12  C   UNL     1     -51.843 -51.646  20.231  1.00  0.00     0.039 C 
ENDROOT
BRANCH   5  13
ATOM     13  C   UNL     1     -55.583 -47.357  20.810  1.00  0.00    -0.014 C 
ATOM     14  C   UNL     1     -55.974 -45.875  20.956  1.00  0.00     0.007 C 
ATOM     15  C   UNL     1     -56.827 -48.248  20.949  1.00  0.00     0.007 C 
ENDBRANCH   5  13
TORSDOF 1
ENDMDL
MODEL 2
REMARK VINA RESULT:    -6.140     10.748     14.271
REMARK INTER + INTRA:          -6.702
REMARK INTER:                  -6.496
REMARK INTRA:                  -0.206
REMARK UNBOUND:                -0.203
REMARK SMILES CC1=CC[C@@]23[C@@H]([C@@H]12)[C@H](C(C)C)CC[C@H]3C
REMARK SMILES IDX 15 1 14 2 13 3 12 4 8 5 6 6 5 7 7 8 2 9 3 10 4 11 1 12 9 13
REMARK SMILES IDX 10 14 11 15
REMARK H PARENT
REMARK Flexibility Score: inf
ROOT
ATOM      1  C   UNL     1     -43.731 -48.251  26.310  1.00  0.00     0.008 C 
ATOM      2  C   UNL     1     -42.709 -47.550  27.217  1.00  0.00    -0.007 C 
ATOM      3  C   UNL     1     -41.426 -47.240  26.422  1.00  0.00     0.004 C 
ATOM      4  C   UNL     1     -40.304 -46.771  27.344  1.00  0.00     0.004 C 
ATOM      5  C   UNL     1     -39.848 -47.923  28.262  1.00  0.00    -0.004 C 
ATOM      6  C   UNL     1     -41.031 -48.499  29.082  1.00  0.00     0.007 C 
ATOM      7  C   UNL     1     -42.456 -48.351  28.525  1.00  0.00    -0.013 C 
ATOM      8  C   UNL     1     -41.731 -49.689  28.406  1.00  0.00     0.025 C 
ATOM      9  C   UNL     1     -42.510 -50.592  29.304  1.00  0.00    -0.073 C 
ATOM     10  C   UNL     1     -43.523 -49.978  29.904  1.00  0.00    -0.027 C 
ATOM     11  C   UNL     1     -43.594 -48.535  29.542  1.00  0.00     0.035 C 
ATOM     12  C   UNL     1     -42.179 -52.036  29.514  1.00  0.00     0.039 C 
ENDROOT
BRANCH   5  13
ATOM     13  C   UNL     1     -38.675 -47.525  29.208  1.00  0.00    -0.014 C 
ATOM     14  C   UNL     1     -38.545 -46.006  29.420  1.00  0.00     0.007 C 
ATOM     15  C   UNL     1     -37.332 -48.110  28.744  1.00  0.00     0.007 C 
ENDBRANCH   5  13
TORSDOF 1
ENDMDL
MODEL 3
REMARK VINA RESULT:    -6.128      9.654     12.687
REMARK INTER + INTRA:          -6.689
REMARK INTER:                  -6.397
REMARK INTRA:                  -0.292
REMARK UNBOUND:                -0.203
REMARK SMILES CC1=CC[C@@]23[C@@H]([C@@H]12)[C@H](C(C)C)CC[C@H]3C
REMARK SMILES IDX 15 1 14 2 13 3 12 4 8 5 6 6 5 7 7 8 2 9 3 10 4 11 1 12 9 13
REMARK SMILES IDX 10 14 11 15
REMARK H PARENT
REMARK Flexibility Score: inf
ROOT
ATOM      1  C   UNL     1     -41.042 -49.431  29.360  1.00  0.00     0.008 C 
ATOM      2  C   UNL     1     -42.211 -49.534  30.352  1.00  0.00    -0.007 C 
ATOM      3  C   UNL     1     -42.140 -50.874  31.109  1.00  0.00     0.004 C 
ATOM      4  C   UNL     1     -43.411 -51.119  31.918  1.00  0.00     0.004 C 
ATOM      5  C   UNL     1     -44.611 -51.341  30.975  1.00  0.00    -0.004 C 
ATOM      6  C   UNL     1     -44.798 -50.149  30.003  1.00  0.00     0.007 C 
ATOM      7  C   UNL     1     -43.579 -49.280  29.657  1.00  0.00    -0.013 C 
ATOM      8  C   UNL     1     -44.071 -50.326  28.661  1.00  0.00     0.025 C 
ATOM      9  C   UNL     1     -44.584 -49.509  27.521  1.00  0.00    -0.073 C 
ATOM     10  C   UNL     1     -44.473 -48.202  27.727  1.00  0.00    -0.027 C 
ATOM     11  C   UNL     1     -43.889 -47.897  29.063  1.00  0.00     0.035 C 
ATOM     12  C   UNL     1     -45.172 -50.102  26.278  1.00  0.00     0.039 C 
ENDROOT
BRANCH   5  13
ATOM     13  C   UNL     1     -45.940 -51.636  31.735  1.00  0.00    -0.014 C 
ATOM     14  C   UNL     1     -46.852 -50.404  31.879  1.00  0.00     0.007 C 
ATOM     15  C   UNL     1     -45.692 -52.274  33.110  1.00  0.00     0.007 C 
ENDBRANCH   5  13
TORSDOF 1
ENDMDL
MODEL 4
REMARK VINA RESULT:    -6.004      2.538      5.809
REMARK INTER + INTRA:          -6.558
REMARK INTER:                  -6.278
REMARK INTRA:                  -0.281
REMARK UNBOUND:                -0.203
REMARK SMILES CC1=CC[C@@]23[C@@H]([C@@H]12)[C@H](C(C)C)CC[C@H]3C
REMARK SMILES IDX 15 1 14 2 13 3 12 4 8 5 6 6 5 7 7 8 2 9 3 10 4 11 1 12 9 13
REMARK SMILES IDX 10 14 11 15
REMARK H PARENT
REMARK Flexibility Score: inf
ROOT
ATOM      1  C   UNL     1     -53.018 -49.367  20.800  1.00  0.00     0.008 C 
ATOM      2  C   UNL     1     -51.897 -49.242  19.757  1.00  0.00    -0.007 C 
ATOM      3  C   UNL     1     -51.856 -50.506  18.878  1.00  0.00     0.004 C 
ATOM      4  C   UNL     1     -50.608 -50.527  17.998  1.00  0.00     0.004 C 
ATOM      5  C   UNL     1     -49.344 -50.692  18.866  1.00  0.00    -0.004 C 
ATOM      6  C   UNL     1     -49.243 -49.580  19.940  1.00  0.00     0.007 C 
ATOM      7  C   UNL     1     -50.533 -48.894  20.417  1.00  0.00    -0.013 C 
ATOM      8  C   UNL     1     -49.876 -49.962  21.288  1.00  0.00     0.025 C 
ATOM      9  C   UNL     1     -49.400 -49.198  22.479  1.00  0.00    -0.073 C 
ATOM     10  C   UNL     1     -49.668 -47.900  22.405  1.00  0.00    -0.027 C 
ATOM     11  C   UNL     1     -50.350 -47.544  21.129  1.00  0.00     0.035 C 
ATOM     12  C   UNL     1     -48.687 -49.829  23.634  1.00  0.00     0.039 C 
ENDROOT
BRANCH   5  13
ATOM     13  C   UNL     1     -48.031 -50.759  18.028  1.00  0.00    -0.014 C 
ATOM     14  C   UNL     1     -47.361 -49.388  17.825  1.00  0.00     0.007 C 
ATOM     15  C   UNL     1     -48.244 -51.451  16.673  1.00  0.00     0.007 C 
ENDBRANCH   5  13
TORSDOF 1
ENDMDL
MODEL 5
REMARK VINA RESULT:    -6.003      1.294      1.999
REMARK INTER + INTRA:          -6.557
REMARK INTER:                  -6.255
REMARK INTRA:                  -0.302
REMARK UNBOUND:                -0.203
REMARK SMILES CC1=CC[C@@]23[C@@H]([C@@H]12)[C@H](C(C)C)CC[C@H]3C
REMARK SMILES IDX 15 1 14 2 13 3 12 4 8 5 6 6 5 7 7 8 2 9 3 10 4 11 1 12 9 13
REMARK SMILES IDX 10 14 11 15
REMARK H PARENT
REMARK Flexibility Score: inf
ROOT
ATOM      1  C   UNL     1     -48.995 -49.564  23.113  1.00  0.00     0.008 C 
ATOM      2  C   UNL     1     -50.194 -48.619  22.948  1.00  0.00    -0.007 C 
ATOM      3  C   UNL     1     -51.361 -49.091  23.836  1.00  0.00     0.004 C 
ATOM      4  C   UNL     1     -52.644 -48.327  23.515  1.00  0.00     0.004 C 
ATOM      5  C   UNL     1     -53.142 -48.688  22.102  1.00  0.00    -0.004 C 
ATOM      6  C   UNL     1     -52.057 -48.417  21.029  1.00  0.00     0.007 C 
ATOM      7  C   UNL     1     -50.580 -48.435  21.453  1.00  0.00    -0.013 C 
ATOM      8  C   UNL     1     -51.173 -49.636  20.723  1.00  0.00     0.025 C 
ATOM      9  C   UNL     1     -50.471 -49.627  19.405  1.00  0.00    -0.073 C 
ATOM     10  C   UNL     1     -49.611 -48.622  19.282  1.00  0.00    -0.027 C 
ATOM     11  C   UNL     1     -49.599 -47.749  20.489  1.00  0.00     0.035 C 
ATOM     12  C   UNL     1     -50.717 -50.638  18.330  1.00  0.00     0.039 C 
ENDROOT
BRANCH   5  13
ATOM     13  C   UNL     1     -54.473 -47.971  21.721  1.00  0.00    -0.014 C 
ATOM     14  C   UNL     1     -54.859 -48.138  20.240  1.00  0.00     0.007 C 
ATOM     15  C   UNL     1     -54.457 -46.482  22.099  1.00  0.00     0.007 C 
ENDBRANCH   5  13
TORSDOF 1
ENDMDL
MODEL 6
REMARK VINA RESULT:    -5.941     11.667     13.863
REMARK INTER + INTRA:          -6.491
REMARK INTER:                  -6.194
REMARK INTRA:                  -0.297
REMARK UNBOUND:                -0.203
REMARK SMILES CC1=CC[C@@]23[C@@H]([C@@H]12)[C@H](C(C)C)CC[C@H]3C
REMARK SMILES IDX 15 1 14 2 13 3 12 4 8 5 6 6 5 7 7 8 2 9 3 10 4 11 1 12 9 13
REMARK SMILES IDX 10 14 11 15
REMARK H PARENT
REMARK Flexibility Score: inf
ROOT
ATOM      1  C   UNL     1     -38.330 -47.495  28.329  1.00  0.00     0.008 C 
ATOM      2  C   UNL     1     -39.545 -47.623  29.261  1.00  0.00    -0.007 C 
ATOM      3  C   UNL     1     -39.397 -48.873  30.148  1.00  0.00     0.004 C 
ATOM      4  C   UNL     1     -40.688 -49.169  30.907  1.00  0.00     0.004 C 
ATOM      5  C   UNL     1     -41.799 -49.595  29.927  1.00  0.00    -0.004 C 
ATOM      6  C   UNL     1     -42.036 -48.521  28.834  1.00  0.00     0.007 C 
ATOM      7  C   UNL     1     -40.884 -47.570  28.472  1.00  0.00    -0.013 C 
ATOM      8  C   UNL     1     -41.211 -48.747  27.557  1.00  0.00     0.025 C 
ATOM      9  C   UNL     1     -41.726 -48.094  26.317  1.00  0.00    -0.073 C 
ATOM     10  C   UNL     1     -41.751 -46.769  26.400  1.00  0.00    -0.027 C 
ATOM     11  C   UNL     1     -41.285 -46.286  27.730  1.00  0.00     0.035 C 
ATOM     12  C   UNL     1     -42.175 -48.853  25.108  1.00  0.00     0.039 C 
ENDROOT
BRANCH   5  13
ATOM     13  C   UNL     1     -43.140 -49.949  30.638  1.00  0.00    -0.014 C 
ATOM     14  C   UNL     1     -43.662 -51.357  30.301  1.00  0.00     0.007 C 
ATOM     15  C   UNL     1     -44.232 -48.902  30.371  1.00  0.00     0.007 C 
ENDBRANCH   5  13
TORSDOF 1
ENDMDL
MODEL 7
REMARK VINA RESULT:    -5.932      9.197     12.397
REMARK INTER + INTRA:          -6.482
REMARK INTER:                  -6.162
REMARK INTRA:                  -0.320
REMARK UNBOUND:                -0.203
REMARK SMILES CC1=CC[C@@]23[C@@H]([C@@H]12)[C@H](C(C)C)CC[C@H]3C
REMARK SMILES IDX 15 1 14 2 13 3 12 4 8 5 6 6 5 7 7 8 2 9 3 10 4 11 1 12 9 13
REMARK SMILES IDX 10 14 11 15
REMARK H PARENT
REMARK Flexibility Score: inf
ROOT
ATOM      1  C   UNL     1     -40.146 -48.522  29.371  1.00  0.00     0.008 C 
ATOM      2  C   UNL     1     -40.846 -49.118  28.140  1.00  0.00    -0.007 C 
ATOM      3  C   UNL     1     -41.063 -48.023  27.079  1.00  0.00     0.004 C 
ATOM      4  C   UNL     1     -41.969 -48.515  25.953  1.00  0.00     0.004 C 
ATOM      5  C   UNL     1     -43.400 -48.745  26.480  1.00  0.00    -0.004 C 
ATOM      6  C   UNL     1     -43.414 -49.735  27.673  1.00  0.00     0.007 C 
ATOM      7  C   UNL     1     -42.146 -49.877  28.529  1.00  0.00    -0.013 C 
ATOM      8  C   UNL     1     -43.320 -49.051  29.046  1.00  0.00     0.025 C 
ATOM      9  C   UNL     1     -43.820 -49.840  30.211  1.00  0.00    -0.073 C 
ATOM     10  C   UNL     1     -43.134 -50.959  30.411  1.00  0.00    -0.027 C 
ATOM     11  C   UNL     1     -42.061 -51.145  29.394  1.00  0.00     0.035 C 
ATOM     12  C   UNL     1     -44.978 -49.419  31.059  1.00  0.00     0.039 C 
ENDROOT
BRANCH   5  13
ATOM     13  C   UNL     1     -44.391 -49.215  25.373  1.00  0.00    -0.014 C 
ATOM     14  C   UNL     1     -45.519 -50.119  25.901  1.00  0.00     0.007 C 
ATOM     15  C   UNL     1     -43.670 -49.898  24.201  1.00  0.00     0.007 C 
ENDBRANCH   5  13
TORSDOF 1
ENDMDL
MODEL 8
REMARK VINA RESULT:    -5.867      1.582      4.487
REMARK INTER + INTRA:          -6.413
REMARK INTER:                  -6.093
REMARK INTRA:                  -0.319
REMARK UNBOUND:                -0.203
REMARK SMILES CC1=CC[C@@]23[C@@H]([C@@H]12)[C@H](C(C)C)CC[C@H]3C
REMARK SMILES IDX 15 1 14 2 13 3 12 4 8 5 6 6 5 7 7 8 2 9 3 10 4 11 1 12 9 13
REMARK SMILES IDX 10 14 11 15
REMARK H PARENT
REMARK Flexibility Score: inf
ROOT
ATOM      1  C   UNL     1     -54.074 -48.427  20.476  1.00  0.00     0.008 C 
ATOM      2  C   UNL     1     -53.300 -49.103  21.618  1.00  0.00    -0.007 C 
ATOM      3  C   UNL     1     -53.183 -48.140  22.814  1.00  0.00     0.004 C 
ATOM      4  C   UNL     1     -52.216 -48.679  23.865  1.00  0.00     0.004 C 
ATOM      5  C   UNL     1     -50.776 -48.688  23.313  1.00  0.00    -0.004 C 
ATOM      6  C   UNL     1     -50.676 -49.507  22.001  1.00  0.00     0.007 C 
ATOM      7  C   UNL     1     -51.934 -49.666  21.132  1.00  0.00    -0.013 C 
ATOM      8  C   UNL     1     -50.858 -48.661  20.730  1.00  0.00     0.025 C 
ATOM      9  C   UNL     1     -50.295 -49.235  19.471  1.00  0.00    -0.073 C 
ATOM     10  C   UNL     1     -50.865 -50.383  19.124  1.00  0.00    -0.027 C 
ATOM     11  C   UNL     1     -51.899 -50.811  20.108  1.00  0.00     0.035 C 
ATOM     12  C   UNL     1     -49.198 -48.588  18.686  1.00  0.00     0.039 C 
ENDROOT
BRANCH   5  13
ATOM     13  C   UNL     1     -49.727 -49.194  24.349  1.00  0.00    -0.014 C 
ATOM     14  C   UNL     1     -48.506 -49.875  23.705  1.00  0.00     0.007 C 
ATOM     15  C   UNL     1     -50.353 -50.119  25.404  1.00  0.00     0.007 C 
ENDBRANCH   5  13
TORSDOF 1
ENDMDL
MODEL 9
REMARK VINA RESULT:    -5.684      3.107      5.564
REMARK INTER + INTRA:          -6.220
REMARK INTER:                  -5.919
REMARK INTRA:                  -0.301
REMARK UNBOUND:                -0.203
REMARK SMILES CC1=CC[C@@]23[C@@H]([C@@H]12)[C@H](C(C)C)CC[C@H]3C
REMARK SMILES IDX 15 1 14 2 13 3 12 4 8 5 6 6 5 7 7 8 2 9 3 10 4 11 1 12 9 13
REMARK SMILES IDX 10 14 11 15
REMARK H PARENT
REMARK Flexibility Score: inf
ROOT
ATOM      1  C   UNL     1     -51.865 -50.644  17.720  1.00  0.00     0.008 C 
ATOM      2  C   UNL     1     -51.258 -50.675  19.131  1.00  0.00    -0.007 C 
ATOM      3  C   UNL     1     -52.048 -49.734  20.062  1.00  0.00     0.004 C 
ATOM      4  C   UNL     1     -51.332 -49.550  21.397  1.00  0.00     0.004 C 
ATOM      5  C   UNL     1     -50.013 -48.776  21.195  1.00  0.00    -0.004 C 
ATOM      6  C   UNL     1     -49.091 -49.483  20.169  1.00  0.00     0.007 C 
ATOM      7  C   UNL     1     -49.729 -50.392  19.107  1.00  0.00    -0.013 C 
ATOM      8  C   UNL     1     -49.277 -48.985  18.727  1.00  0.00     0.025 C 
ATOM      9  C   UNL     1     -48.134 -49.224  17.796  1.00  0.00    -0.073 C 
ATOM     10  C   UNL     1     -47.875 -50.513  17.613  1.00  0.00    -0.027 C 
ATOM     11  C   UNL     1     -48.779 -51.383  18.416  1.00  0.00     0.035 C 
ATOM     12  C   UNL     1     -47.356 -48.125  17.143  1.00  0.00     0.039 C 
ENDROOT
BRANCH   5  13
ATOM     13  C   UNL     1     -49.245 -48.518  22.527  1.00  0.00    -0.014 C 
ATOM     14  C   UNL     1     -47.937 -47.729  22.339  1.00  0.00     0.007 C 
ATOM     15  C   UNL     1     -48.973 -49.818  23.300  1.00  0.00     0.007 C 
ENDBRANCH   5  13
TORSDOF 1
ENDMDL
