MODEL 1
REMARK VINA RESULT:    -4.052      0.000      0.000
REMARK INTER + INTRA:          -4.720
REMARK INTER:                  -4.645
REMARK INTRA:                  -0.075
REMARK UNBOUND:                -0.075
REMARK SMILES COc1cc(C(=O)[O-])ccc1O
REMARK SMILES IDX 5 1 9 2 4 3 10 4 3 5 11 6 6 7 7 8 8 9 2 10 1 11 12 12
REMARK H PARENT 12 13
REMARK Flexibility Score: inf
ROOT
ATOM      1  C   UNL     1     -14.591   6.464   3.941  1.00  0.00     0.001 A 
ATOM      2  C   UNL     1     -15.842   6.229   4.536  1.00  0.00     0.014 A 
ATOM      3  C   UNL     1     -13.721   5.380   3.728  1.00  0.00     0.060 A 
ATOM      4  C   UNL     1     -16.214   4.937   4.911  1.00  0.00     0.051 A 
ATOM      5  C   UNL     1     -14.092   4.074   4.105  1.00  0.00     0.161 A 
ATOM      6  C   UNL     1     -15.349   3.860   4.699  1.00  0.00     0.157 A 
ENDROOT
BRANCH   1   7
ATOM      7  C   UNL     1     -14.192   7.833   3.543  1.00  0.00     0.072 C 
ATOM      8  O   UNL     1     -13.255   8.426   4.140  1.00  0.00    -0.545 OA
ATOM      9  O   UNL     1     -14.849   8.485   2.506  1.00  0.00    -0.545 OA
ENDBRANCH   1   7
BRANCH   5  10
ATOM     10  O   UNL     1     -13.243   2.972   3.904  1.00  0.00    -0.493 OA
ATOM     11  C   UNL     1     -11.822   3.048   3.834  1.00  0.00     0.278 C 
ENDBRANCH   5  10
BRANCH   6  12
ATOM     12  O   UNL     1     -15.756   2.584   5.086  1.00  0.00    -0.504 OA
ATOM     13  H   UNL     1     -16.084   2.383   6.024  1.00  0.00     0.293 HD
ENDBRANCH   6  12
TORSDOF 3
ENDMDL
MODEL 2
REMARK VINA RESULT:    -3.986      1.354      4.203
REMARK INTER + INTRA:          -4.644
REMARK INTER:                  -4.542
REMARK INTRA:                  -0.102
REMARK UNBOUND:                -0.075
REMARK SMILES COc1cc(C(=O)[O-])ccc1O
REMARK SMILES IDX 5 1 9 2 4 3 10 4 3 5 11 6 6 7 7 8 8 9 2 10 1 11 12 12
REMARK H PARENT 12 13
REMARK Flexibility Score: inf
ROOT
ATOM      1  C   UNL     1     -15.253   3.903   4.499  1.00  0.00     0.001 A 
ATOM      2  C   UNL     1     -16.188   4.920   4.758  1.00  0.00     0.014 A 
ATOM      3  C   UNL     1     -14.001   4.247   3.962  1.00  0.00     0.060 A 
ATOM      4  C   UNL     1     -15.876   6.252   4.486  1.00  0.00     0.051 A 
ATOM      5  C   UNL     1     -13.680   5.591   3.684  1.00  0.00     0.161 A 
ATOM      6  C   UNL     1     -14.630   6.593   3.951  1.00  0.00     0.157 A 
ENDROOT
BRANCH   1   7
ATOM      7  C   UNL     1     -15.582   2.488   4.787  1.00  0.00     0.072 C 
ATOM      8  O   UNL     1     -14.692   1.599   4.727  1.00  0.00    -0.545 OA
ATOM      9  O   UNL     1     -16.879   2.120   5.125  1.00  0.00    -0.545 OA
ENDBRANCH   1   7
BRANCH   5  10
ATOM     10  O   UNL     1     -12.436   5.964   3.147  1.00  0.00    -0.493 OA
ATOM     11  C   UNL     1     -12.119   5.952   1.759  1.00  0.00     0.278 C 
ENDBRANCH   5  10
BRANCH   6  12
ATOM     12  O   UNL     1     -14.354   7.936   3.692  1.00  0.00    -0.504 OA
ATOM     13  H   UNL     1     -14.656   8.679   4.311  1.00  0.00     0.293 HD
ENDBRANCH   6  12
TORSDOF 3
ENDMDL
MODEL 3
REMARK VINA RESULT:    -3.952      1.790      5.073
REMARK INTER + INTRA:          -4.605
REMARK INTER:                  -4.510
REMARK INTRA:                  -0.095
REMARK UNBOUND:                -0.075
REMARK SMILES COc1cc(C(=O)[O-])ccc1O
REMARK SMILES IDX 5 1 9 2 4 3 10 4 3 5 11 6 6 7 7 8 8 9 2 10 1 11 12 12
REMARK H PARENT 12 13
REMARK Flexibility Score: inf
ROOT
ATOM      1  C   UNL     1     -14.259   5.933   3.755  1.00  0.00     0.001 A 
ATOM      2  C   UNL     1     -13.259   5.581   2.832  1.00  0.00     0.014 A 
ATOM      3  C   UNL     1     -14.674   7.274   3.833  1.00  0.00     0.060 A 
ATOM      4  C   UNL     1     -12.686   6.550   2.007  1.00  0.00     0.051 A 
ATOM      5  C   UNL     1     -14.100   8.256   3.002  1.00  0.00     0.161 A 
ATOM      6  C   UNL     1     -13.100   7.882   2.086  1.00  0.00     0.157 A 
ENDROOT
BRANCH   1   7
ATOM      7  C   UNL     1     -14.867   4.908   4.633  1.00  0.00     0.072 C 
ATOM      8  O   UNL     1     -14.165   3.981   5.117  1.00  0.00    -0.545 OA
ATOM      9  O   UNL     1     -16.224   4.952   4.934  1.00  0.00    -0.545 OA
ENDBRANCH   1   7
BRANCH   5  10
ATOM     10  O   UNL     1     -14.495   9.604   3.059  1.00  0.00    -0.493 OA
ATOM     11  C   UNL     1     -13.936  10.574   3.939  1.00  0.00     0.278 C 
ENDBRANCH   5  10
BRANCH   6  12
ATOM     12  O   UNL     1     -12.505   8.822   1.244  1.00  0.00    -0.504 OA
ATOM     13  H   UNL     1     -12.670   9.817   1.344  1.00  0.00     0.293 HD
ENDBRANCH   6  12
TORSDOF 3
ENDMDL
MODEL 4
REMARK VINA RESULT:    -3.805      1.506      1.695
REMARK INTER + INTRA:          -4.437
REMARK INTER:                  -4.342
REMARK INTRA:                  -0.095
REMARK UNBOUND:                -0.075
REMARK SMILES COc1cc(C(=O)[O-])ccc1O
REMARK SMILES IDX 5 1 9 2 4 3 10 4 3 5 11 6 6 7 7 8 8 9 2 10 1 11 12 12
REMARK H PARENT 12 13
REMARK Flexibility Score: inf
ROOT
ATOM      1  C   UNL     1     -14.726   5.014   4.132  1.00  0.00     0.001 A 
ATOM      2  C   UNL     1     -16.005   4.990   4.714  1.00  0.00     0.014 A 
ATOM      3  C   UNL     1     -14.069   3.797   3.877  1.00  0.00     0.060 A 
ATOM      4  C   UNL     1     -16.613   3.776   5.034  1.00  0.00     0.051 A 
ATOM      5  C   UNL     1     -14.679   2.568   4.197  1.00  0.00     0.161 A 
ATOM      6  C   UNL     1     -15.960   2.567   4.779  1.00  0.00     0.157 A 
ENDROOT
BRANCH   1   7
ATOM      7  C   UNL     1     -14.077   6.300   3.793  1.00  0.00     0.072 C 
ATOM      8  O   UNL     1     -12.891   6.327   3.369  1.00  0.00    -0.545 OA
ATOM      9  O   UNL     1     -14.767   7.498   3.939  1.00  0.00    -0.545 OA
ENDBRANCH   1   7
BRANCH   5  10
ATOM     10  O   UNL     1     -14.047   1.337   3.953  1.00  0.00    -0.493 OA
ATOM     11  C   UNL     1     -12.793   0.948   4.506  1.00  0.00     0.278 C 
ENDBRANCH   5  10
BRANCH   6  12
ATOM     12  O   UNL     1     -16.600   1.373   5.112  1.00  0.00    -0.504 OA
ATOM     13  H   UNL     1     -17.530   1.353   5.513  1.00  0.00     0.293 HD
ENDBRANCH   6  12
TORSDOF 3
ENDMDL
MODEL 5
REMARK VINA RESULT:    -3.766      4.138      6.353
REMARK INTER + INTRA:          -4.392
REMARK INTER:                  -4.293
REMARK INTRA:                  -0.099
REMARK UNBOUND:                -0.075
REMARK SMILES COc1cc(C(=O)[O-])ccc1O
REMARK SMILES IDX 5 1 9 2 4 3 10 4 3 5 11 6 6 7 7 8 8 9 2 10 1 11 12 12
REMARK H PARENT 12 13
REMARK Flexibility Score: inf
ROOT
ATOM      1  C   UNL     1     -11.564  10.265   0.927  1.00  0.00     0.001 A 
ATOM      2  C   UNL     1     -11.037  11.114   1.915  1.00  0.00     0.014 A 
ATOM      3  C   UNL     1     -12.535   9.315   1.290  1.00  0.00     0.060 A 
ATOM      4  C   UNL     1     -11.472  11.015   3.237  1.00  0.00     0.051 A 
ATOM      5  C   UNL     1     -12.978   9.210   2.624  1.00  0.00     0.161 A 
ATOM      6  C   UNL     1     -12.437  10.071   3.597  1.00  0.00     0.157 A 
ENDROOT
BRANCH   1   7
ATOM      7  C   UNL     1     -11.105  10.367  -0.477  1.00  0.00     0.072 C 
ATOM      8  O   UNL     1      -9.875  10.376  -0.749  1.00  0.00    -0.545 OA
ATOM      9  O   UNL     1     -12.024  10.456  -1.515  1.00  0.00    -0.545 OA
ENDBRANCH   1   7
BRANCH   5  10
ATOM     10  O   UNL     1     -13.946   8.271   3.016  1.00  0.00    -0.493 OA
ATOM     11  C   UNL     1     -15.352   8.450   2.871  1.00  0.00     0.278 C 
ENDBRANCH   5  10
BRANCH   6  12
ATOM     12  O   UNL     1     -12.846  10.001   4.929  1.00  0.00    -0.504 OA
ATOM     13  H   UNL     1     -13.100   9.126   5.371  1.00  0.00     0.293 HD
ENDBRANCH   6  12
TORSDOF 3
ENDMDL
MODEL 6
REMARK VINA RESULT:    -3.733      2.381      3.033
REMARK INTER + INTRA:          -4.354
REMARK INTER:                  -4.262
REMARK INTRA:                  -0.092
REMARK UNBOUND:                -0.075
REMARK SMILES COc1cc(C(=O)[O-])ccc1O
REMARK SMILES IDX 5 1 9 2 4 3 10 4 3 5 11 6 6 7 7 8 8 9 2 10 1 11 12 12
REMARK H PARENT 12 13
REMARK Flexibility Score: inf
ROOT
ATOM      1  C   UNL     1     -13.565   8.756   2.723  1.00  0.00     0.001 A 
ATOM      2  C   UNL     1     -14.959   8.692   2.551  1.00  0.00     0.014 A 
ATOM      3  C   UNL     1     -12.940   7.832   3.579  1.00  0.00     0.060 A 
ATOM      4  C   UNL     1     -15.709   7.724   3.220  1.00  0.00     0.051 A 
ATOM      5  C   UNL     1     -13.693   6.853   4.257  1.00  0.00     0.161 A 
ATOM      6  C   UNL     1     -15.087   6.806   4.070  1.00  0.00     0.157 A 
ENDROOT
BRANCH   1   7
ATOM      7  C   UNL     1     -12.766   9.782   2.015  1.00  0.00     0.072 C 
ATOM      8  O   UNL     1     -12.129   9.488   0.970  1.00  0.00    -0.545 OA
ATOM      9  O   UNL     1     -12.706  11.085   2.496  1.00  0.00    -0.545 OA
ENDBRANCH   1   7
BRANCH   5  10
ATOM     10  O   UNL     1     -13.095   5.917   5.118  1.00  0.00    -0.493 OA
ATOM     11  C   UNL     1     -12.206   4.886   4.698  1.00  0.00     0.278 C 
ENDBRANCH   5  10
BRANCH   6  12
ATOM     12  O   UNL     1     -15.870   5.854   4.721  1.00  0.00    -0.504 OA
ATOM     13  H   UNL     1     -15.904   4.886   4.422  1.00  0.00     0.293 HD
ENDBRANCH   6  12
TORSDOF 3
ENDMDL
MODEL 7
REMARK VINA RESULT:    -3.601      1.334      4.729
REMARK INTER + INTRA:          -4.203
REMARK INTER:                  -4.101
REMARK INTRA:                  -0.102
REMARK UNBOUND:                -0.075
REMARK SMILES COc1cc(C(=O)[O-])ccc1O
REMARK SMILES IDX 5 1 9 2 4 3 10 4 3 5 11 6 6 7 7 8 8 9 2 10 1 11 12 12
REMARK H PARENT 12 13
REMARK Flexibility Score: inf
ROOT
ATOM      1  C   UNL     1     -14.518   4.278   4.473  1.00  0.00     0.001 A 
ATOM      2  C   UNL     1     -13.172   3.923   4.281  1.00  0.00     0.014 A 
ATOM      3  C   UNL     1     -14.887   5.631   4.374  1.00  0.00     0.060 A 
ATOM      4  C   UNL     1     -12.216   4.900   3.997  1.00  0.00     0.051 A 
ATOM      5  C   UNL     1     -13.927   6.622   4.087  1.00  0.00     0.161 A 
ATOM      6  C   UNL     1     -12.585   6.244   3.899  1.00  0.00     0.157 A 
ENDROOT
BRANCH   1   7
ATOM      7  C   UNL     1     -15.533   3.244   4.775  1.00  0.00     0.072 C 
ATOM      8  O   UNL     1     -15.239   2.021   4.716  1.00  0.00    -0.545 OA
ATOM      9  O   UNL     1     -16.828   3.609   5.125  1.00  0.00    -0.545 OA
ENDBRANCH   1   7
BRANCH   5  10
ATOM     10  O   UNL     1     -14.268   7.981   3.982  1.00  0.00    -0.493 OA
ATOM     11  C   UNL     1     -14.768   8.600   2.801  1.00  0.00     0.278 C 
ENDBRANCH   5  10
BRANCH   6  12
ATOM     12  O   UNL     1     -11.602   7.192   3.614  1.00  0.00    -0.504 OA
ATOM     13  H   UNL     1     -11.718   8.173   3.837  1.00  0.00     0.293 HD
ENDBRANCH   6  12
TORSDOF 3
ENDMDL
MODEL 8
REMARK VINA RESULT:    -3.325      2.100      4.449
REMARK INTER + INTRA:          -3.887
REMARK INTER:                  -3.786
REMARK INTRA:                  -0.101
REMARK UNBOUND:                -0.075
REMARK SMILES COc1cc(C(=O)[O-])ccc1O
REMARK SMILES IDX 5 1 9 2 4 3 10 4 3 5 11 6 6 7 7 8 8 9 2 10 1 11 12 12
REMARK H PARENT 12 13
REMARK Flexibility Score: inf
ROOT
ATOM      1  C   UNL     1     -14.461   6.280   3.800  1.00  0.00     0.001 A 
ATOM      2  C   UNL     1     -15.299   7.394   3.622  1.00  0.00     0.014 A 
ATOM      3  C   UNL     1     -13.201   6.268   3.178  1.00  0.00     0.060 A 
ATOM      4  C   UNL     1     -14.885   8.472   2.839  1.00  0.00     0.051 A 
ATOM      5  C   UNL     1     -12.777   7.354   2.386  1.00  0.00     0.161 A 
ATOM      6  C   UNL     1     -13.631   8.459   2.221  1.00  0.00     0.157 A 
ENDROOT
BRANCH   1   7
ATOM      7  C   UNL     1     -14.898   5.134   4.629  1.00  0.00     0.072 C 
ATOM      8  O   UNL     1     -14.053   4.343   5.125  1.00  0.00    -0.545 OA
ATOM      9  O   UNL     1     -16.250   4.914   4.872  1.00  0.00    -0.545 OA
ENDBRANCH   1   7
BRANCH   5  10
ATOM     10  O   UNL     1     -11.523   7.369   1.753  1.00  0.00    -0.493 OA
ATOM     11  C   UNL     1     -10.308   7.780   2.373  1.00  0.00     0.278 C 
ENDBRANCH   5  10
BRANCH   6  12
ATOM     12  O   UNL     1     -13.252   9.555   1.446  1.00  0.00    -0.504 OA
ATOM     13  H   UNL     1     -12.292   9.707   1.159  1.00  0.00     0.293 HD
ENDBRANCH   6  12
TORSDOF 3
ENDMDL
