MODEL 1
REMARK VINA RESULT:    22.030      0.000      0.000
REMARK INTER + INTRA:          35.059
REMARK INTER:                  34.265
REMARK INTRA:                   0.794
REMARK UNBOUND:                 0.794
REMARK SMILES COc1ccc([C@@H]2CC(=O)c3c(O)cc(O[C@@H]4O[C@@H](CO[C@H]5O[C@@H](C)[C@@H](O)[C@H](O)[C@@H]5O)[C@H](O)[C@H](O)[C@@H]4O)cc3O2)cc1O
REMARK SMILES IDX 19 1 32 2 34 3 36 4 17 5 18 6 20 7 21 8 22 9 25 10 24 11
REMARK SMILES IDX 26 12 23 13 28 14 30 15 27 16 29 18 31 20 33 22 35 24 16 26
REMARK SMILES IDX 15 27 14 28 38 29 12 30 39 31 11 32 40 33 9 34 7 35 10 36
REMARK SMILES IDX 8 37 13 38 6 40 41 41 5 42 42 43 4 44 3 45 43 46 2 48 1 49
REMARK SMILES IDX 37 50
REMARK H PARENT 27 17 29 19 31 21 33 23 35 25 13 39 43 47 37 51
REMARK Flexibility Score: inf
ROOT
ATOM      1  C   UNL     1      74.823  43.125  21.364  1.00  0.00     0.180 C 
ATOM      2  C   UNL     1      73.912  42.524  22.491  1.00  0.00     0.177 C 
ATOM      3  C   UNL     1      74.128  40.900  22.414  1.00  0.00     0.180 C 
ATOM      4  C   UNL     1      75.678  40.598  22.061  1.00  0.00     0.214 C 
ATOM      5  C   UNL     1      76.569  41.709  22.701  1.00  0.00     0.339 C 
ATOM      6  O   UNL     1      76.140  43.002  22.043  1.00  0.00    -0.332 OA
ENDROOT
BRANCH   1   7
ATOM      7  C   UNL     1      74.425  42.559  19.633  1.00  0.00     0.198 C 
BRANCH   7   8
ATOM      8  O   UNL     1      73.119  41.986  18.943  1.00  0.00    -0.347 OA
BRANCH   8   9
ATOM      9  C   UNL     1      72.222  40.756  18.877  1.00  0.00     0.281 C 
ATOM     10  C   UNL     1      72.394  36.699  19.565  1.00  0.00     0.041 C 
ATOM     11  C   UNL     1      71.946  38.288  19.568  1.00  0.00     0.150 C 
ATOM     12  C   UNL     1      71.798  38.578  21.137  1.00  0.00     0.174 C 
ATOM     13  O   UNL     1      72.807  39.393  18.965  1.00  0.00    -0.344 OA
ATOM     14  C   UNL     1      71.732  40.165  21.339  1.00  0.00     0.179 C 
ATOM     15  C   UNL     1      71.225  40.921  20.107  1.00  0.00     0.202 C 
BRANCH  12  16
ATOM     16  O   UNL     1      72.958  38.169  21.812  1.00  0.00    -0.388 OA
ATOM     17  H   UNL     1      72.720  38.158  22.775  1.00  0.00     0.211 HD
ENDBRANCH  12  16
BRANCH  14  18
ATOM     18  O   UNL     1      71.110  40.541  22.528  1.00  0.00    -0.387 OA
ATOM     19  H   UNL     1      71.807  40.908  23.172  1.00  0.00     0.211 HD
ENDBRANCH  14  18
BRANCH  15  20
ATOM     20  O   UNL     1      69.925  40.530  19.721  1.00  0.00    -0.385 OA
ATOM     21  H   UNL     1      69.512  41.240  19.201  1.00  0.00     0.211 HD
ENDBRANCH  15  20
ENDBRANCH   8   9
ENDBRANCH   7   8
ENDBRANCH   1   7
BRANCH   2  22
ATOM     22  O   UNL     1      74.223  42.837  23.876  1.00  0.00    -0.387 OA
ATOM     23  H   UNL     1      74.750  43.684  23.776  1.00  0.00     0.211 HD
ENDBRANCH   2  22
BRANCH   3  24
ATOM     24  O   UNL     1      73.696  40.236  23.629  1.00  0.00    -0.387 OA
ATOM     25  H   UNL     1      73.707  40.692  24.538  1.00  0.00     0.211 HD
ENDBRANCH   3  24
BRANCH   5  26
ATOM     26  O   UNL     1      76.522  41.603  24.216  1.00  0.00    -0.462 OA
BRANCH  26  27
ATOM     27  C   UNL     1      76.413  40.471  25.201  1.00  0.00     0.130 A 
ATOM     28  C   UNL     1      77.419  39.448  25.500  1.00  0.00     0.093 A 
ATOM     29  C   UNL     1      75.116  40.114  25.940  1.00  0.00     0.094 A 
ATOM     30  C   UNL     1      77.594  39.100  26.911  1.00  0.00     0.133 A 
ATOM     31  C   UNL     1      75.376  39.291  27.265  1.00  0.00     0.138 A 
ATOM     32  C   UNL     1      76.577  39.607  27.769  1.00  0.00     0.102 A 
ATOM     33  O   UNL     1      75.409  37.841  27.834  1.00  0.00    -0.484 OA
ATOM     34  C   UNL     1      76.701  39.847  29.216  1.00  0.00     0.174 C 
ATOM     35  C   UNL     1      76.122  37.477  29.156  1.00  0.00     0.211 C 
ATOM     36  O   UNL     1      76.478  41.005  29.627  1.00  0.00    -0.294 OA
ATOM     37  C   UNL     1      76.222  38.660  30.090  1.00  0.00     0.131 C 
BRANCH  30  38
ATOM     38  O   UNL     1      78.147  37.808  27.211  1.00  0.00    -0.507 OA
ATOM     39  H   UNL     1      77.474  37.077  27.269  1.00  0.00     0.293 HD
ENDBRANCH  30  38
BRANCH  35  40
ATOM     40  C   UNL     1      76.583  36.063  29.733  1.00  0.00    -0.003 A 
ATOM     41  C   UNL     1      77.637  35.573  28.986  1.00  0.00     0.057 A 
ATOM     42  C   UNL     1      76.564  35.726  31.151  1.00  0.00     0.011 A 
ATOM     43  C   UNL     1      78.911  35.506  29.598  1.00  0.00     0.158 A 
ATOM     44  C   UNL     1      77.851  35.512  31.707  1.00  0.00     0.051 A 
ATOM     45  C   UNL     1      78.975  35.363  30.934  1.00  0.00     0.160 A 
BRANCH  43  46
ATOM     46  O   UNL     1      80.067  35.643  28.825  1.00  0.00    -0.504 OA
ATOM     47  H   UNL     1      80.842  34.921  28.996  1.00  0.00     0.293 HD
ENDBRANCH  43  46
BRANCH  45  48
ATOM     48  O   UNL     1      80.176  35.288  31.646  1.00  0.00    -0.493 OA
ATOM     49  C   UNL     1      80.666  34.012  32.168  1.00  0.00     0.278 C 
ENDBRANCH  45  48
ENDBRANCH  35  40
ENDBRANCH  26  27
ENDBRANCH   5  26
BRANCH   4  50
ATOM     50  O   UNL     1      76.085  39.299  22.380  1.00  0.00    -0.384 OA
ATOM     51  H   UNL     1      75.957  38.760  21.547  1.00  0.00     0.211 HD
ENDBRANCH   4  50
TORSDOF 15
ENDMDL
MODEL 2
REMARK VINA RESULT:    23.886      1.854     10.886
REMARK INTER + INTRA:          37.946
REMARK INTER:                  38.413
REMARK INTRA:                  -0.467
REMARK UNBOUND:                 0.794
REMARK SMILES COc1ccc([C@@H]2CC(=O)c3c(O)cc(O[C@@H]4O[C@@H](CO[C@H]5O[C@@H](C)[C@@H](O)[C@H](O)[C@@H]5O)[C@H](O)[C@H](O)[C@@H]4O)cc3O2)cc1O
REMARK SMILES IDX 19 1 32 2 34 3 36 4 17 5 18 6 20 7 21 8 22 9 25 10 24 11
REMARK SMILES IDX 26 12 23 13 28 14 30 15 27 16 29 18 31 20 33 22 35 24 16 26
REMARK SMILES IDX 15 27 14 28 38 29 12 30 39 31 11 32 40 33 9 34 7 35 10 36
REMARK SMILES IDX 8 37 13 38 6 40 41 41 5 42 42 43 4 44 3 45 43 46 2 48 1 49
REMARK SMILES IDX 37 50
REMARK H PARENT 27 17 29 19 31 21 33 23 35 25 13 39 43 47 37 51
REMARK Flexibility Score: inf
ROOT
ATOM      1  C   UNL     1      76.549  38.233  27.967  1.00  0.00     0.180 C 
ATOM      2  C   UNL     1      75.152  38.890  28.243  1.00  0.00     0.177 C 
ATOM      3  C   UNL     1      75.464  40.233  29.132  1.00  0.00     0.180 C 
ATOM      4  C   UNL     1      76.838  40.901  28.599  1.00  0.00     0.214 C 
ATOM      5  C   UNL     1      76.959  40.653  27.063  1.00  0.00     0.339 C 
ATOM      6  O   UNL     1      77.028  39.150  26.899  1.00  0.00    -0.332 OA
ENDROOT
BRANCH   1   7
ATOM      7  C   UNL     1      77.504  37.727  29.485  1.00  0.00     0.198 C 
BRANCH   7   8
ATOM      8  O   UNL     1      77.820  36.330  30.163  1.00  0.00    -0.347 OA
BRANCH   8   9
ATOM      9  C   UNL     1      78.841  35.199  30.193  1.00  0.00     0.281 C 
ATOM     10  C   UNL     1      81.749  33.655  32.668  1.00  0.00     0.041 C 
ATOM     11  C   UNL     1      80.443  33.822  31.671  1.00  0.00     0.150 C 
ATOM     12  C   UNL     1      79.294  33.098  32.519  1.00  0.00     0.174 C 
ATOM     13  O   UNL     1      79.912  35.180  31.224  1.00  0.00    -0.344 OA
ATOM     14  C   UNL     1      77.883  33.492  31.873  1.00  0.00     0.179 C 
ATOM     15  C   UNL     1      77.971  33.880  30.394  1.00  0.00     0.202 C 
BRANCH  12  16
ATOM     16  O   UNL     1      79.260  33.617  33.823  1.00  0.00    -0.388 OA
ATOM     17  H   UNL     1      78.445  33.238  34.242  1.00  0.00     0.211 HD
ENDBRANCH  12  16
BRANCH  14  18
ATOM     18  O   UNL     1      76.875  32.574  32.157  1.00  0.00    -0.387 OA
ATOM     19  H   UNL     1      76.342  32.384  31.311  1.00  0.00     0.211 HD
ENDBRANCH  14  18
BRANCH  15  20
ATOM     20  O   UNL     1      78.487  32.844  29.585  1.00  0.00    -0.385 OA
ATOM     21  H   UNL     1      78.860  32.146  30.149  1.00  0.00     0.211 HD
ENDBRANCH  15  20
ENDBRANCH   8   9
ENDBRANCH   7   8
ENDBRANCH   1   7
BRANCH   2  22
ATOM     22  O   UNL     1      74.391  39.404  27.116  1.00  0.00    -0.387 OA
ATOM     23  H   UNL     1      75.123  39.689  26.494  1.00  0.00     0.211 HD
ENDBRANCH   2  22
BRANCH   3  24
ATOM     24  O   UNL     1      74.352  41.165  29.117  1.00  0.00    -0.387 OA
ATOM     25  H   UNL     1      73.423  40.908  28.791  1.00  0.00     0.211 HD
ENDBRANCH   3  24
BRANCH   5  26
ATOM     26  O   UNL     1      75.879  41.426  26.325  1.00  0.00    -0.462 OA
BRANCH  26  27
ATOM     27  C   UNL     1      75.333  41.417  24.923  1.00  0.00     0.130 A 
ATOM     28  C   UNL     1      74.843  40.264  24.164  1.00  0.00     0.093 A 
ATOM     29  C   UNL     1      75.371  42.637  23.993  1.00  0.00     0.094 A 
ATOM     30  C   UNL     1      73.626  40.473  23.377  1.00  0.00     0.133 A 
ATOM     31  C   UNL     1      74.295  42.556  22.837  1.00  0.00     0.138 A 
ATOM     32  C   UNL     1      73.241  41.838  23.246  1.00  0.00     0.102 A 
ATOM     33  O   UNL     1      74.113  42.156  21.342  1.00  0.00    -0.484 OA
ATOM     34  C   UNL     1      71.886  42.335  22.957  1.00  0.00     0.174 C 
ATOM     35  C   UNL     1      72.730  41.871  20.715  1.00  0.00     0.211 C 
ATOM     36  O   UNL     1      71.376  43.125  23.779  1.00  0.00    -0.294 OA
ATOM     37  C   UNL     1      71.617  42.579  21.450  1.00  0.00     0.131 C 
BRANCH  30  38
ATOM     38  O   UNL     1      73.402  39.599  22.258  1.00  0.00    -0.507 OA
ATOM     39  H   UNL     1      73.328  38.636  22.499  1.00  0.00     0.293 HD
ENDBRANCH  30  38
BRANCH  35  40
ATOM     40  C   UNL     1      72.337  41.124  19.361  1.00  0.00    -0.003 A 
ATOM     41  C   UNL     1      73.408  40.376  18.910  1.00  0.00     0.057 A 
ATOM     42  C   UNL     1      71.004  40.602  19.086  1.00  0.00     0.011 A 
ATOM     43  C   UNL     1      73.300  38.966  18.955  1.00  0.00     0.158 A 
ATOM     44  C   UNL     1      70.950  39.189  18.983  1.00  0.00     0.051 A 
ATOM     45  C   UNL     1      72.077  38.413  18.875  1.00  0.00     0.160 A 
BRANCH  43  46
ATOM     46  O   UNL     1      74.443  38.181  19.135  1.00  0.00    -0.504 OA
ATOM     47  H   UNL     1      75.350  38.708  19.360  1.00  0.00     0.293 HD
ENDBRANCH  43  46
BRANCH  45  48
ATOM     48  O   UNL     1      71.849  37.033  18.911  1.00  0.00    -0.493 OA
ATOM     49  C   UNL     1      72.468  36.192  19.936  1.00  0.00     0.278 C 
ENDBRANCH  45  48
ENDBRANCH  35  40
ENDBRANCH  26  27
ENDBRANCH   5  26
BRANCH   4  50
ATOM     50  O   UNL     1      76.990  42.242  28.965  1.00  0.00    -0.384 OA
ATOM     51  H   UNL     1      76.523  42.340  29.844  1.00  0.00     0.211 HD
ENDBRANCH   4  50
TORSDOF 15
ENDMDL
