MODEL 1
REMARK VINA RESULT:    -4.049      0.000      0.000
REMARK INTER + INTRA:          -6.563
REMARK INTER:                  -5.942
REMARK INTRA:                  -0.621
REMARK UNBOUND:                -0.621
REMARK SMILES O=C([O-])CCCCCCCC(=O)[O-]
REMARK SMILES IDX 7 1 6 2 5 3 4 4 2 5 1 6 3 7 8 8 9 9 10 10 11 11 12 12 13 13
REMARK H PARENT
REMARK Flexibility Score: inf
ROOT
ATOM      1  C   UNL     1      -8.219  -3.839   9.147  1.00  0.00     0.000 C 
ENDROOT
BRANCH   1   2
ATOM      2  C   UNL     1      -9.148  -2.991   8.263  1.00  0.00     0.000 C 
BRANCH   2   3
ATOM      3  C   UNL     1      -8.456  -2.497   6.981  1.00  0.00     0.006 C 
BRANCH   3   4
ATOM      4  C   UNL     1      -8.814  -3.359   5.762  1.00  0.00     0.053 C 
BRANCH   4   5
ATOM      5  C   UNL     1      -7.733  -4.345   5.443  1.00  0.00     0.041 C 
ATOM      6  O   UNL     1      -6.575  -3.946   5.154  1.00  0.00    -0.550 OA
ATOM      7  O   UNL     1      -7.999  -5.708   5.492  1.00  0.00    -0.550 OA
ENDBRANCH   4   5
ENDBRANCH   3   4
ENDBRANCH   2   3
ENDBRANCH   1   2
BRANCH   1   8
ATOM      8  C   UNL     1      -6.734  -3.511   8.933  1.00  0.00     0.000 C 
BRANCH   8   9
ATOM      9  C   UNL     1      -5.918  -4.789   8.699  1.00  0.00     0.006 C 
BRANCH   9  10
ATOM     10  C   UNL     1      -4.499  -4.646   9.259  1.00  0.00     0.053 C 
BRANCH  10  11
ATOM     11  C   UNL     1      -3.489  -4.791   8.165  1.00  0.00     0.041 C 
ATOM     12  O   UNL     1      -3.796  -4.505   6.977  1.00  0.00    -0.550 OA
ATOM     13  O   UNL     1      -2.195  -5.199   8.462  1.00  0.00    -0.550 OA
ENDBRANCH  10  11
ENDBRANCH   9  10
ENDBRANCH   8   9
ENDBRANCH   1   8
TORSDOF 8
ENDMDL
MODEL 2
REMARK VINA RESULT:    -4.026     13.744     15.872
REMARK INTER + INTRA:          -6.530
REMARK INTER:                  -5.918
REMARK INTRA:                  -0.612
REMARK UNBOUND:                -0.621
REMARK SMILES O=C([O-])CCCCCCCC(=O)[O-]
REMARK SMILES IDX 7 1 6 2 5 3 4 4 2 5 1 6 3 7 8 8 9 9 10 10 11 11 12 12 13 13
REMARK H PARENT
REMARK Flexibility Score: inf
ROOT
ATOM      1  C   UNL     1       8.215   4.321   8.900  1.00  0.00     0.000 C 
ENDROOT
BRANCH   1   2
ATOM      2  C   UNL     1       6.721   4.024   8.692  1.00  0.00     0.000 C 
BRANCH   2   3
ATOM      3  C   UNL     1       5.918   5.276   8.297  1.00  0.00     0.006 C 
BRANCH   3   4
ATOM      4  C   UNL     1       4.496   5.257   8.874  1.00  0.00     0.053 C 
BRANCH   4   5
ATOM      5  C   UNL     1       3.465   5.059   7.807  1.00  0.00     0.041 C 
ATOM      6  O   UNL     1       2.259   5.343   8.028  1.00  0.00    -0.550 OA
ATOM      7  O   UNL     1       3.842   4.586   6.555  1.00  0.00    -0.550 OA
ENDBRANCH   4   5
ENDBRANCH   3   4
ENDBRANCH   2   3
ENDBRANCH   1   2
BRANCH   1   8
ATOM      8  C   UNL     1       9.125   3.339   8.147  1.00  0.00     0.000 C 
BRANCH   8   9
ATOM      9  C   UNL     1       8.426   2.791   6.897  1.00  0.00     0.006 C 
BRANCH   9  10
ATOM     10  C   UNL     1       8.866   3.552   5.642  1.00  0.00     0.053 C 
BRANCH  10  11
ATOM     11  C   UNL     1       7.784   4.479   5.188  1.00  0.00     0.041 C 
ATOM     12  O   UNL     1       7.965   5.726   5.215  1.00  0.00    -0.550 OA
ATOM     13  O   UNL     1       6.592   3.968   4.690  1.00  0.00    -0.550 OA
ENDBRANCH  10  11
ENDBRANCH   9  10
ENDBRANCH   8   9
ENDBRANCH   1   8
TORSDOF 8
ENDMDL
MODEL 3
REMARK VINA RESULT:    -3.915     13.790     16.198
REMARK INTER + INTRA:          -6.367
REMARK INTER:                  -5.852
REMARK INTRA:                  -0.515
REMARK UNBOUND:                -0.621
REMARK SMILES O=C([O-])CCCCCCCC(=O)[O-]
REMARK SMILES IDX 7 1 6 2 5 3 4 4 2 5 1 6 3 7 8 8 9 9 10 10 11 11 12 12 13 13
REMARK H PARENT
REMARK Flexibility Score: inf
ROOT
ATOM      1  C   UNL     1       8.113   3.862   9.028  1.00  0.00     0.000 C 
ENDROOT
BRANCH   1   2
ATOM      2  C   UNL     1       9.207   3.596   7.982  1.00  0.00     0.000 C 
BRANCH   2   3
ATOM      3  C   UNL     1       8.685   2.815   6.764  1.00  0.00     0.006 C 
BRANCH   3   4
ATOM      4  C   UNL     1       9.018   3.517   5.440  1.00  0.00     0.053 C 
BRANCH   4   5
ATOM      5  C   UNL     1       7.959   4.502   5.052  1.00  0.00     0.041 C 
ATOM      6  O   UNL     1       8.279   5.643   4.628  1.00  0.00    -0.550 OA
ATOM      7  O   UNL     1       6.617   4.149   5.133  1.00  0.00    -0.550 OA
ENDBRANCH   4   5
ENDBRANCH   3   4
ENDBRANCH   2   3
ENDBRANCH   1   2
BRANCH   1   8
ATOM      8  C   UNL     1       7.064   4.875   8.545  1.00  0.00     0.000 C 
BRANCH   8   9
ATOM      9  C   UNL     1       5.651   4.283   8.627  1.00  0.00     0.006 C 
BRANCH   9  10
ATOM     10  C   UNL     1       4.604   5.383   8.825  1.00  0.00     0.053 C 
BRANCH  10  11
ATOM     11  C   UNL     1       3.378   5.088   8.021  1.00  0.00     0.041 C 
ATOM     12  O   UNL     1       3.443   5.035   6.764  1.00  0.00    -0.550 OA
ATOM     13  O   UNL     1       2.173   4.826   8.659  1.00  0.00    -0.550 OA
ENDBRANCH  10  11
ENDBRANCH   9  10
ENDBRANCH   8   9
ENDBRANCH   1   8
TORSDOF 8
ENDMDL
MODEL 4
REMARK VINA RESULT:    -3.907      0.382      4.743
REMARK INTER + INTRA:          -6.356
REMARK INTER:                  -5.824
REMARK INTRA:                  -0.532
REMARK UNBOUND:                -0.621
REMARK SMILES O=C([O-])CCCCCCCC(=O)[O-]
REMARK SMILES IDX 7 1 6 2 5 3 4 4 2 5 1 6 3 7 8 8 9 9 10 10 11 11 12 12 13 13
REMARK H PARENT
REMARK Flexibility Score: inf
ROOT
ATOM      1  C   UNL     1      -8.204  -3.743   8.827  1.00  0.00     0.000 C 
ENDROOT
BRANCH   1   2
ATOM      2  C   UNL     1      -6.698  -3.522   9.041  1.00  0.00     0.000 C 
BRANCH   2   3
ATOM      3  C   UNL     1      -5.864  -4.773   8.719  1.00  0.00     0.006 C 
BRANCH   3   4
ATOM      4  C   UNL     1      -4.490  -4.744   9.404  1.00  0.00     0.053 C 
BRANCH   4   5
ATOM      5  C   UNL     1      -3.372  -4.772   8.408  1.00  0.00     0.041 C 
ATOM      6  O   UNL     1      -3.612  -4.637   7.180  1.00  0.00    -0.550 OA
ATOM      7  O   UNL     1      -2.059  -4.920   8.841  1.00  0.00    -0.550 OA
ENDBRANCH   4   5
ENDBRANCH   3   4
ENDBRANCH   2   3
ENDBRANCH   1   2
BRANCH   1   8
ATOM      8  C   UNL     1      -8.883  -2.561   8.121  1.00  0.00     0.000 C 
BRANCH   8   9
ATOM      9  C   UNL     1      -8.340  -2.386   6.697  1.00  0.00     0.006 C 
BRANCH   9  10
ATOM     10  C   UNL     1      -8.983  -3.391   5.736  1.00  0.00     0.053 C 
BRANCH  10  11
ATOM     11  C   UNL     1      -7.972  -4.391   5.273  1.00  0.00     0.041 C 
ATOM     12  O   UNL     1      -6.741  -4.149   5.391  1.00  0.00    -0.550 OA
ATOM     13  O   UNL     1      -8.387  -5.611   4.754  1.00  0.00    -0.550 OA
ENDBRANCH  10  11
ENDBRANCH   9  10
ENDBRANCH   8   9
ENDBRANCH   1   8
TORSDOF 8
ENDMDL
MODEL 5
REMARK VINA RESULT:    -3.769     13.543     15.502
REMARK INTER + INTRA:          -6.153
REMARK INTER:                  -5.687
REMARK INTRA:                  -0.466
REMARK UNBOUND:                -0.621
REMARK SMILES O=C([O-])CCCCCCCC(=O)[O-]
REMARK SMILES IDX 7 1 6 2 5 3 4 4 2 5 1 6 3 7 8 8 9 9 10 10 11 11 12 12 13 13
REMARK H PARENT
REMARK Flexibility Score: inf
ROOT
ATOM      1  C   UNL     1       7.815   4.490   7.887  1.00  0.00     0.000 C 
ENDROOT
BRANCH   1   2
ATOM      2  C   UNL     1       8.474   3.844   9.116  1.00  0.00     0.000 C 
BRANCH   2   3
ATOM      3  C   UNL     1       8.473   2.307   9.048  1.00  0.00     0.006 C 
BRANCH   3   4
ATOM      4  C   UNL     1       8.414   1.792   7.603  1.00  0.00     0.053 C 
BRANCH   4   5
ATOM      5  C   UNL     1       7.472   0.636   7.463  1.00  0.00     0.041 C 
ATOM      6  O   UNL     1       7.548  -0.127   6.465  1.00  0.00    -0.550 OA
ATOM      7  O   UNL     1       6.528   0.385   8.452  1.00  0.00    -0.550 OA
ENDBRANCH   4   5
ENDBRANCH   3   4
ENDBRANCH   2   3
ENDBRANCH   1   2
BRANCH   1   8
ATOM      8  C   UNL     1       6.588   5.340   8.249  1.00  0.00     0.000 C 
BRANCH   8   9
ATOM      9  C   UNL     1       5.384   4.450   8.585  1.00  0.00     0.006 C 
BRANCH   9  10
ATOM     10  C   UNL     1       4.191   5.291   9.049  1.00  0.00     0.053 C 
BRANCH  10  11
ATOM     11  C   UNL     1       3.118   5.297   8.006  1.00  0.00     0.041 C 
ATOM     12  O   UNL     1       1.961   5.704   8.290  1.00  0.00    -0.550 OA
ATOM     13  O   UNL     1       3.408   4.896   6.708  1.00  0.00    -0.550 OA
ENDBRANCH  10  11
ENDBRANCH   9  10
ENDBRANCH   8   9
ENDBRANCH   1   8
TORSDOF 8
ENDMDL
MODEL 6
REMARK VINA RESULT:    -3.737     12.905     14.749
REMARK INTER + INTRA:          -6.106
REMARK INTER:                  -5.706
REMARK INTRA:                  -0.400
REMARK UNBOUND:                -0.621
REMARK SMILES O=C([O-])CCCCCCCC(=O)[O-]
REMARK SMILES IDX 7 1 6 2 5 3 4 4 2 5 1 6 3 7 8 8 9 9 10 10 11 11 12 12 13 13
REMARK H PARENT
REMARK Flexibility Score: inf
ROOT
ATOM      1  C   UNL     1       5.290   4.589   8.787  1.00  0.00     0.000 C 
ENDROOT
BRANCH   1   2
ATOM      2  C   UNL     1       3.969   5.326   9.062  1.00  0.00     0.000 C 
BRANCH   2   3
ATOM      3  C   UNL     1       2.981   5.230   7.886  1.00  0.00     0.006 C 
BRANCH   3   4
ATOM      4  C   UNL     1       2.480   3.796   7.668  1.00  0.00     0.053 C 
BRANCH   4   5
ATOM      5  C   UNL     1       2.917   3.249   6.344  1.00  0.00     0.041 C 
ATOM      6  O   UNL     1       2.535   2.109   5.971  1.00  0.00    -0.550 OA
ATOM      7  O   UNL     1       3.724   4.012   5.510  1.00  0.00    -0.550 OA
ENDBRANCH   4   5
ENDBRANCH   3   4
ENDBRANCH   2   3
ENDBRANCH   1   2
BRANCH   1   8
ATOM      8  C   UNL     1       6.366   5.505   8.185  1.00  0.00     0.000 C 
BRANCH   8   9
ATOM      9  C   UNL     1       7.701   4.764   8.043  1.00  0.00     0.006 C 
BRANCH   9  10
ATOM     10  C   UNL     1       7.737   3.520   8.935  1.00  0.00     0.053 C 
BRANCH  10  11
ATOM     11  C   UNL     1       9.127   3.269   9.427  1.00  0.00     0.041 C 
ATOM     12  O   UNL     1      10.014   4.154   9.296  1.00  0.00    -0.550 OA
ATOM     13  O   UNL     1       9.433   2.078  10.072  1.00  0.00    -0.550 OA
ENDBRANCH  10  11
ENDBRANCH   9  10
ENDBRANCH   8   9
ENDBRANCH   1   8
TORSDOF 8
ENDMDL
MODEL 7
REMARK VINA RESULT:    -3.700     13.141     15.096
REMARK INTER + INTRA:          -6.052
REMARK INTER:                  -5.550
REMARK INTRA:                  -0.502
REMARK UNBOUND:                -0.621
REMARK SMILES O=C([O-])CCCCCCCC(=O)[O-]
REMARK SMILES IDX 7 1 6 2 5 3 4 4 2 5 1 6 3 7 8 8 9 9 10 10 11 11 12 12 13 13
REMARK H PARENT
REMARK Flexibility Score: inf
ROOT
ATOM      1  C   UNL     1       6.025   3.433   8.878  1.00  0.00     0.000 C 
ENDROOT
BRANCH   1   2
ATOM      2  C   UNL     1       5.520   4.802   8.393  1.00  0.00     0.000 C 
BRANCH   2   3
ATOM      3  C   UNL     1       4.155   5.177   8.995  1.00  0.00     0.006 C 
BRANCH   3   4
ATOM      4  C   UNL     1       3.070   5.326   7.919  1.00  0.00     0.053 C 
BRANCH   4   5
ATOM      5  C   UNL     1       3.014   4.132   7.017  1.00  0.00     0.041 C 
ATOM      6  O   UNL     1       2.537   3.044   7.434  1.00  0.00    -0.550 OA
ATOM      7  O   UNL     1       3.463   4.230   5.706  1.00  0.00    -0.550 OA
ENDBRANCH   4   5
ENDBRANCH   3   4
ENDBRANCH   2   3
ENDBRANCH   1   2
BRANCH   1   8
ATOM      8  C   UNL     1       7.546   3.276   8.735  1.00  0.00     0.000 C 
BRANCH   8   9
ATOM      9  C   UNL     1       8.122   4.348   7.802  1.00  0.00     0.006 C 
BRANCH   9  10
ATOM     10  C   UNL     1       8.600   3.732   6.483  1.00  0.00     0.053 C 
BRANCH  10  11
ATOM     11  C   UNL     1       7.892   4.361   5.325  1.00  0.00     0.041 C 
ATOM     12  O   UNL     1       6.666   4.143   5.138  1.00  0.00    -0.550 OA
ATOM     13  O   UNL     1       8.575   5.226   4.479  1.00  0.00    -0.550 OA
ENDBRANCH  10  11
ENDBRANCH   9  10
ENDBRANCH   8   9
ENDBRANCH   1   8
TORSDOF 8
ENDMDL
MODEL 8
REMARK VINA RESULT:    -3.689     12.169     13.836
REMARK INTER + INTRA:          -6.035
REMARK INTER:                  -5.566
REMARK INTRA:                  -0.469
REMARK UNBOUND:                -0.621
REMARK SMILES O=C([O-])CCCCCCCC(=O)[O-]
REMARK SMILES IDX 7 1 6 2 5 3 4 4 2 5 1 6 3 7 8 8 9 9 10 10 11 11 12 12 13 13
REMARK H PARENT
REMARK Flexibility Score: inf
ROOT
ATOM      1  C   UNL     1       4.243   5.307   8.804  1.00  0.00     0.000 C 
ENDROOT
BRANCH   1   2
ATOM      2  C   UNL     1       2.858   5.295   8.137  1.00  0.00     0.000 C 
BRANCH   2   3
ATOM      3  C   UNL     1       1.827   4.472   8.928  1.00  0.00     0.006 C 
BRANCH   3   4
ATOM      4  C   UNL     1       0.833   3.751   8.008  1.00  0.00     0.053 C 
BRANCH   4   5
ATOM      5  C   UNL     1       1.409   2.485   7.450  1.00  0.00     0.041 C 
ATOM      6  O   UNL     1       1.760   1.554   8.221  1.00  0.00    -0.550 OA
ATOM      7  O   UNL     1       1.531   2.324   6.075  1.00  0.00    -0.550 OA
ENDBRANCH   4   5
ENDBRANCH   3   4
ENDBRANCH   2   3
ENDBRANCH   1   2
BRANCH   1   8
ATOM      8  C   UNL     1       4.910   3.923   8.811  1.00  0.00     0.000 C 
BRANCH   8   9
ATOM      9  C   UNL     1       6.434   4.047   8.692  1.00  0.00     0.006 C 
BRANCH   9  10
ATOM     10  C   UNL     1       6.839   5.465   8.277  1.00  0.00     0.053 C 
BRANCH  10  11
ATOM     11  C   UNL     1       7.506   5.448   6.939  1.00  0.00     0.041 C 
ATOM     12  O   UNL     1       7.493   6.476   6.211  1.00  0.00    -0.550 OA
ATOM     13  O   UNL     1       8.182   4.312   6.513  1.00  0.00    -0.550 OA
ENDBRANCH  10  11
ENDBRANCH   9  10
ENDBRANCH   8   9
ENDBRANCH   1   8
TORSDOF 8
ENDMDL
MODEL 9
REMARK VINA RESULT:    -3.675     13.668     15.736
REMARK INTER + INTRA:          -6.016
REMARK INTER:                  -5.713
REMARK INTRA:                  -0.303
REMARK UNBOUND:                -0.621
REMARK SMILES O=C([O-])CCCCCCCC(=O)[O-]
REMARK SMILES IDX 7 1 6 2 5 3 4 4 2 5 1 6 3 7 8 8 9 9 10 10 11 11 12 12 13 13
REMARK H PARENT
REMARK Flexibility Score: inf
ROOT
ATOM      1  C   UNL     1       7.175   5.216   7.210  1.00  0.00     0.000 C 
ENDROOT
BRANCH   1   2
ATOM      2  C   UNL     1       6.336   5.654   8.422  1.00  0.00     0.000 C 
BRANCH   2   3
ATOM      3  C   UNL     1       5.182   4.683   8.725  1.00  0.00     0.006 C 
BRANCH   3   4
ATOM      4  C   UNL     1       3.858   5.419   8.976  1.00  0.00     0.053 C 
BRANCH   4   5
ATOM      5  C   UNL     1       2.924   5.295   7.812  1.00  0.00     0.041 C 
ATOM      6  O   UNL     1       1.710   5.600   7.938  1.00  0.00    -0.550 OA
ATOM      7  O   UNL     1       3.403   4.869   6.579  1.00  0.00    -0.550 OA
ENDBRANCH   4   5
ENDBRANCH   3   4
ENDBRANCH   2   3
ENDBRANCH   1   2
BRANCH   1   8
ATOM      8  C   UNL     1       8.146   4.074   7.542  1.00  0.00     0.000 C 
BRANCH   8   9
ATOM      9  C   UNL     1       8.624   4.166   8.996  1.00  0.00     0.006 C 
BRANCH   9  10
ATOM     10  C   UNL     1       9.761   3.175   9.266  1.00  0.00     0.053 C 
BRANCH  10  11
ATOM     11  C   UNL     1       9.386   2.235  10.367  1.00  0.00     0.041 C 
ATOM     12  O   UNL     1      10.125   2.120  11.381  1.00  0.00    -0.550 OA
ATOM     13  O   UNL     1       8.196   1.521  10.298  1.00  0.00    -0.550 OA
ENDBRANCH  10  11
ENDBRANCH   9  10
ENDBRANCH   8   9
ENDBRANCH   1   8
TORSDOF 8
ENDMDL
