MODEL 1
REMARK VINA RESULT:    -5.031      0.000      0.000
REMARK INTER + INTRA:          -6.450
REMARK INTER:                  -6.060
REMARK INTRA:                  -0.390
REMARK UNBOUND:                -0.390
REMARK SMILES Oc1cc(O)c2c(c1)O[C@@H](c1ccc(O)c(O)c1)[C@@H](O)C2
REMARK SMILES IDX 21 1 19 2 10 3 9 4 7 5 8 6 2 7 3 8 4 9 6 10 20 11 11 13
REMARK SMILES IDX 18 14 12 15 16 16 13 17 14 18 17 19 15 21 5 23 1 25
REMARK H PARENT 20 12 17 20 15 22 5 24 1 26
REMARK Flexibility Score: inf
ROOT
ATOM      1  C   UNL     1      -4.002 -16.428  -5.306  1.00  0.00     0.079 C 
ATOM      2  C   UNL     1      -4.206 -16.978  -6.733  1.00  0.00     0.164 C 
ATOM      3  C   UNL     1      -5.474 -17.854  -6.794  1.00  0.00     0.232 C 
ATOM      4  O   UNL     1      -6.605 -17.118  -6.328  1.00  0.00    -0.482 OA
ATOM      5  C   UNL     1      -6.528 -16.248  -5.236  1.00  0.00     0.131 A 
ATOM      6  C   UNL     1      -7.709 -15.730  -4.699  1.00  0.00     0.093 A 
ATOM      7  C   UNL     1      -7.667 -14.869  -3.601  1.00  0.00     0.122 A 
ATOM      8  C   UNL     1      -6.436 -14.532  -3.029  1.00  0.00     0.092 A 
ATOM      9  C   UNL     1      -5.242 -15.041  -3.553  1.00  0.00     0.126 A 
ATOM     10  C   UNL     1      -5.277 -15.880  -4.692  1.00  0.00     0.039 A 
ENDROOT
BRANCH   2  11
ATOM     11  O   UNL     1      -4.252 -15.930  -7.674  1.00  0.00    -0.389 OA
ATOM     12  H   UNL     1      -5.203 -15.698  -7.830  1.00  0.00     0.211 HD
ENDBRANCH   2  11
BRANCH   3  13
ATOM     13  C   UNL     1      -5.718 -18.381  -8.189  1.00  0.00    -0.001 A 
ATOM     14  C   UNL     1      -6.920 -18.079  -8.850  1.00  0.00     0.057 A 
ATOM     15  C   UNL     1      -4.787 -19.227  -8.816  1.00  0.00     0.012 A 
ATOM     16  C   UNL     1      -7.178 -18.589 -10.131  1.00  0.00     0.157 A 
ATOM     17  C   UNL     1      -5.043 -19.736 -10.092  1.00  0.00     0.050 A 
ATOM     18  C   UNL     1      -6.232 -19.420 -10.755  1.00  0.00     0.157 A 
BRANCH  16  19
ATOM     19  O   UNL     1      -8.370 -18.276 -10.783  1.00  0.00    -0.504 OA
ATOM     20  H   UNL     1      -8.574 -18.623 -11.712  1.00  0.00     0.293 HD
ENDBRANCH  16  19
BRANCH  18  21
ATOM     21  O   UNL     1      -6.459 -19.942 -12.028  1.00  0.00    -0.504 OA
ATOM     22  H   UNL     1      -5.898 -20.694 -12.408  1.00  0.00     0.293 HD
ENDBRANCH  18  21
ENDBRANCH   3  13
BRANCH   9  23
ATOM     23  O   UNL     1      -4.047 -14.701  -2.914  1.00  0.00    -0.507 OA
ATOM     24  H   UNL     1      -3.138 -14.799  -3.347  1.00  0.00     0.293 HD
ENDBRANCH   9  23
BRANCH   7  25
ATOM     25  O   UNL     1      -8.856 -14.360  -3.080  1.00  0.00    -0.508 OA
ATOM     26  H   UNL     1      -9.114 -14.505  -2.111  1.00  0.00     0.293 HD
ENDBRANCH   7  25
TORSDOF 6
ENDMDL
MODEL 2
REMARK VINA RESULT:    -4.789      1.192      1.909
REMARK INTER + INTRA:          -6.159
REMARK INTER:                  -5.991
REMARK INTRA:                  -0.168
REMARK UNBOUND:                -0.390
REMARK SMILES Oc1cc(O)c2c(c1)O[C@@H](c1ccc(O)c(O)c1)[C@@H](O)C2
REMARK SMILES IDX 21 1 19 2 10 3 9 4 7 5 8 6 2 7 3 8 4 9 6 10 20 11 11 13
REMARK SMILES IDX 18 14 12 15 16 16 13 17 14 18 17 19 15 21 5 23 1 25
REMARK H PARENT 20 12 17 20 15 22 5 24 1 26
REMARK Flexibility Score: inf
ROOT
ATOM      1  C   UNL     1      -3.729 -17.786  -5.992  1.00  0.00     0.079 C 
ATOM      2  C   UNL     1      -4.370 -18.060  -7.368  1.00  0.00     0.164 C 
ATOM      3  C   UNL     1      -5.883 -18.316  -7.213  1.00  0.00     0.232 C 
ATOM      4  O   UNL     1      -6.501 -17.224  -6.533  1.00  0.00    -0.482 OA
ATOM      5  C   UNL     1      -5.889 -16.574  -5.457  1.00  0.00     0.131 A 
ATOM      6  C   UNL     1      -6.633 -15.664  -4.703  1.00  0.00     0.093 A 
ATOM      7  C   UNL     1      -6.055 -15.010  -3.615  1.00  0.00     0.122 A 
ATOM      8  C   UNL     1      -4.724 -15.274  -3.271  1.00  0.00     0.092 A 
ATOM      9  C   UNL     1      -3.963 -16.182  -4.015  1.00  0.00     0.126 A 
ATOM     10  C   UNL     1      -4.532 -16.817  -5.145  1.00  0.00     0.039 A 
ENDROOT
BRANCH   2  11
ATOM     11  O   UNL     1      -4.110 -17.004  -8.264  1.00  0.00    -0.389 OA
ATOM     12  H   UNL     1      -4.955 -16.504  -8.403  1.00  0.00     0.211 HD
ENDBRANCH   2  11
BRANCH   3  13
ATOM     13  C   UNL     1      -6.546 -18.557  -8.549  1.00  0.00    -0.001 A 
ATOM     14  C   UNL     1      -5.850 -19.236  -9.563  1.00  0.00     0.057 A 
ATOM     15  C   UNL     1      -7.831 -18.055  -8.821  1.00  0.00     0.012 A 
ATOM     16  C   UNL     1      -6.437 -19.437 -10.821  1.00  0.00     0.157 A 
ATOM     17  C   UNL     1      -8.417 -18.254 -10.073  1.00  0.00     0.050 A 
ATOM     18  C   UNL     1      -7.729 -18.945 -11.075  1.00  0.00     0.157 A 
BRANCH  16  19
ATOM     19  O   UNL     1      -5.742 -20.120 -11.818  1.00  0.00    -0.504 OA
ATOM     20  H   UNL     1      -6.185 -20.380 -12.691  1.00  0.00     0.293 HD
ENDBRANCH  16  19
BRANCH  18  21
ATOM     21  O   UNL     1      -8.340 -19.129 -12.314  1.00  0.00    -0.504 OA
ATOM     22  H   UNL     1      -9.282 -18.810 -12.502  1.00  0.00     0.293 HD
ENDBRANCH  18  21
ENDBRANCH   3  13
BRANCH   9  23
ATOM     23  O   UNL     1      -2.653 -16.436  -3.599  1.00  0.00    -0.507 OA
ATOM     24  H   UNL     1      -2.423 -17.067  -2.843  1.00  0.00     0.293 HD
ENDBRANCH   9  23
BRANCH   7  25
ATOM     25  O   UNL     1      -6.813 -14.103  -2.875  1.00  0.00    -0.508 OA
ATOM     26  H   UNL     1      -6.656 -13.967  -1.883  1.00  0.00     0.293 HD
ENDBRANCH   7  25
TORSDOF 6
ENDMDL
MODEL 3
REMARK VINA RESULT:    -4.520      2.099      3.137
REMARK INTER + INTRA:          -5.835
REMARK INTER:                  -6.274
REMARK INTRA:                   0.439
REMARK UNBOUND:                -0.390
REMARK SMILES Oc1cc(O)c2c(c1)O[C@@H](c1ccc(O)c(O)c1)[C@@H](O)C2
REMARK SMILES IDX 21 1 19 2 10 3 9 4 7 5 8 6 2 7 3 8 4 9 6 10 20 11 11 13
REMARK SMILES IDX 18 14 12 15 16 16 13 17 14 18 17 19 15 21 5 23 1 25
REMARK H PARENT 20 12 17 20 15 22 5 24 1 26
REMARK Flexibility Score: inf
ROOT
ATOM      1  C   UNL     1      -3.741 -19.640  -5.734  1.00  0.00     0.079 C 
ATOM      2  C   UNL     1      -4.445 -19.708  -7.104  1.00  0.00     0.164 C 
ATOM      3  C   UNL     1      -5.737 -18.865  -7.085  1.00  0.00     0.232 C 
ATOM      4  O   UNL     1      -5.446 -17.525  -6.689  1.00  0.00    -0.482 OA
ATOM      5  C   UNL     1      -4.522 -17.230  -5.682  1.00  0.00     0.131 A 
ATOM      6  C   UNL     1      -4.443 -15.923  -5.196  1.00  0.00     0.093 A 
ATOM      7  C   UNL     1      -3.541 -15.600  -4.182  1.00  0.00     0.122 A 
ATOM      8  C   UNL     1      -2.716 -16.593  -3.643  1.00  0.00     0.092 A 
ATOM      9  C   UNL     1      -2.780 -17.909  -4.117  1.00  0.00     0.126 A 
ATOM     10  C   UNL     1      -3.664 -18.232  -5.174  1.00  0.00     0.039 A 
ENDROOT
BRANCH   2  11
ATOM     11  O   UNL     1      -3.576 -19.305  -8.138  1.00  0.00    -0.389 OA
ATOM     12  H   UNL     1      -2.915 -20.030  -8.282  1.00  0.00     0.211 HD
ENDBRANCH   2  11
BRANCH   3  13
ATOM     13  C   UNL     1      -6.434 -18.886  -8.426  1.00  0.00    -0.001 A 
ATOM     14  C   UNL     1      -5.816 -19.504  -9.526  1.00  0.00     0.057 A 
ATOM     15  C   UNL     1      -7.668 -18.239  -8.610  1.00  0.00     0.012 A 
ATOM     16  C   UNL     1      -6.433 -19.502 -10.786  1.00  0.00     0.157 A 
ATOM     17  C   UNL     1      -8.284 -18.236  -9.863  1.00  0.00     0.050 A 
ATOM     18  C   UNL     1      -7.675 -18.866 -10.953  1.00  0.00     0.157 A 
BRANCH  16  19
ATOM     19  O   UNL     1      -5.817 -20.125 -11.869  1.00  0.00    -0.504 OA
ATOM     20  H   UNL     1      -4.814 -20.087 -12.003  1.00  0.00     0.293 HD
ENDBRANCH  16  19
BRANCH  18  21
ATOM     21  O   UNL     1      -8.315 -18.848 -12.192  1.00  0.00    -0.504 OA
ATOM     22  H   UNL     1      -9.096 -19.456 -12.403  1.00  0.00     0.293 HD
ENDBRANCH  18  21
ENDBRANCH   3  13
BRANCH   9  23
ATOM     23  O   UNL     1      -1.961 -18.865  -3.511  1.00  0.00    -0.507 OA
ATOM     24  H   UNL     1      -2.298 -19.534  -2.832  1.00  0.00     0.293 HD
ENDBRANCH   9  23
BRANCH   7  25
ATOM     25  O   UNL     1      -3.475 -14.290  -3.711  1.00  0.00    -0.508 OA
ATOM     26  H   UNL     1      -2.897 -13.592  -4.165  1.00  0.00     0.293 HD
ENDBRANCH   7  25
TORSDOF 6
ENDMDL
MODEL 4
REMARK VINA RESULT:    -4.174      2.310      3.768
REMARK INTER + INTRA:          -5.418
REMARK INTER:                  -5.120
REMARK INTRA:                  -0.298
REMARK UNBOUND:                -0.390
REMARK SMILES Oc1cc(O)c2c(c1)O[C@@H](c1ccc(O)c(O)c1)[C@@H](O)C2
REMARK SMILES IDX 21 1 19 2 10 3 9 4 7 5 8 6 2 7 3 8 4 9 6 10 20 11 11 13
REMARK SMILES IDX 18 14 12 15 16 16 13 17 14 18 17 19 15 21 5 23 1 25
REMARK H PARENT 20 12 17 20 15 22 5 24 1 26
REMARK Flexibility Score: inf
ROOT
ATOM      1  C   UNL     1      -4.336 -15.901  -5.337  1.00  0.00     0.079 C 
ATOM      2  C   UNL     1      -5.467 -16.533  -6.174  1.00  0.00     0.164 C 
ATOM      3  C   UNL     1      -4.911 -17.674  -7.050  1.00  0.00     0.232 C 
ATOM      4  O   UNL     1      -4.233 -18.633  -6.240  1.00  0.00    -0.482 OA
ATOM      5  C   UNL     1      -3.427 -18.259  -5.160  1.00  0.00     0.131 A 
ATOM      6  C   UNL     1      -2.625 -19.225  -4.547  1.00  0.00     0.093 A 
ATOM      7  C   UNL     1      -1.800 -18.880  -3.476  1.00  0.00     0.122 A 
ATOM      8  C   UNL     1      -1.770 -17.558  -3.019  1.00  0.00     0.092 A 
ATOM      9  C   UNL     1      -2.567 -16.577  -3.620  1.00  0.00     0.126 A 
ATOM     10  C   UNL     1      -3.436 -16.930  -4.679  1.00  0.00     0.039 A 
ENDROOT
BRANCH   2  11
ATOM     11  O   UNL     1      -6.518 -16.977  -5.346  1.00  0.00    -0.389 OA
ATOM     12  H   UNL     1      -7.264 -17.272  -5.929  1.00  0.00     0.211 HD
ENDBRANCH   2  11
BRANCH   3  13
ATOM     13  C   UNL     1      -6.003 -18.335  -7.859  1.00  0.00    -0.001 A 
ATOM     14  C   UNL     1      -6.490 -17.710  -9.020  1.00  0.00     0.057 A 
ATOM     15  C   UNL     1      -6.589 -19.540  -7.435  1.00  0.00     0.012 A 
ATOM     16  C   UNL     1      -7.527 -18.293  -9.763  1.00  0.00     0.157 A 
ATOM     17  C   UNL     1      -7.622 -20.122  -8.174  1.00  0.00     0.050 A 
ATOM     18  C   UNL     1      -8.093 -19.507  -9.338  1.00  0.00     0.157 A 
BRANCH  16  19
ATOM     19  O   UNL     1      -7.997 -17.670 -10.918  1.00  0.00    -0.504 OA
ATOM     20  H   UNL     1      -7.843 -18.069 -11.836  1.00  0.00     0.293 HD
ENDBRANCH  16  19
BRANCH  18  21
ATOM     21  O   UNL     1      -9.124 -20.112 -10.055  1.00  0.00    -0.504 OA
ATOM     22  H   UNL     1      -9.165 -20.083 -11.066  1.00  0.00     0.293 HD
ENDBRANCH  18  21
ENDBRANCH   3  13
BRANCH   9  23
ATOM     23  O   UNL     1      -2.462 -15.266  -3.147  1.00  0.00    -0.507 OA
ATOM     24  H   UNL     1      -2.054 -14.513  -3.684  1.00  0.00     0.293 HD
ENDBRANCH   9  23
BRANCH   7  25
ATOM     25  O   UNL     1      -1.008 -19.858  -2.876  1.00  0.00    -0.508 OA
ATOM     26  H   UNL     1       0.002 -19.845  -2.959  1.00  0.00     0.293 HD
ENDBRANCH   7  25
TORSDOF 6
ENDMDL
MODEL 5
REMARK VINA RESULT:    -3.991     13.641     15.331
REMARK INTER + INTRA:          -5.198
REMARK INTER:                  -4.817
REMARK INTRA:                  -0.381
REMARK UNBOUND:                -0.390
REMARK SMILES Oc1cc(O)c2c(c1)O[C@@H](c1ccc(O)c(O)c1)[C@@H](O)C2
REMARK SMILES IDX 21 1 19 2 10 3 9 4 7 5 8 6 2 7 3 8 4 9 6 10 20 11 11 13
REMARK SMILES IDX 18 14 12 15 16 16 13 17 14 18 17 19 15 21 5 23 1 25
REMARK H PARENT 20 12 17 20 15 22 5 24 1 26
REMARK Flexibility Score: inf
ROOT
ATOM      1  C   UNL     1      -7.213  -0.226  -5.718  1.00  0.00     0.079 C 
ATOM      2  C   UNL     1      -7.851  -0.424  -7.108  1.00  0.00     0.164 C 
ATOM      3  C   UNL     1      -6.916  -1.251  -8.014  1.00  0.00     0.232 C 
ATOM      4  O   UNL     1      -6.588  -2.489  -7.385  1.00  0.00    -0.482 OA
ATOM      5  C   UNL     1      -6.332  -2.583  -6.013  1.00  0.00     0.131 A 
ATOM      6  C   UNL     1      -5.809  -3.773  -5.502  1.00  0.00     0.093 A 
ATOM      7  C   UNL     1      -5.531  -3.893  -4.140  1.00  0.00     0.122 A 
ATOM      8  C   UNL     1      -5.769  -2.813  -3.283  1.00  0.00     0.092 A 
ATOM      9  C   UNL     1      -6.294  -1.613  -3.777  1.00  0.00     0.126 A 
ATOM     10  C   UNL     1      -6.617  -1.500  -5.151  1.00  0.00     0.039 A 
ENDROOT
BRANCH   2  11
ATOM     11  O   UNL     1      -9.125  -1.015  -6.999  1.00  0.00    -0.389 OA
ATOM     12  H   UNL     1      -9.149  -1.807  -7.595  1.00  0.00     0.211 HD
ENDBRANCH   2  11
BRANCH   3  13
ATOM     13  C   UNL     1      -7.527  -1.489  -9.375  1.00  0.00    -0.001 A 
ATOM     14  C   UNL     1      -7.913  -2.786  -9.751  1.00  0.00     0.057 A 
ATOM     15  C   UNL     1      -7.660  -0.441 -10.302  1.00  0.00     0.012 A 
ATOM     16  C   UNL     1      -8.450  -3.031 -11.024  1.00  0.00     0.157 A 
ATOM     17  C   UNL     1      -8.195  -0.683 -11.570  1.00  0.00     0.050 A 
ATOM     18  C   UNL     1      -8.593  -1.972 -11.936  1.00  0.00     0.157 A 
BRANCH  16  19
ATOM     19  O   UNL     1      -8.839  -4.320 -11.384  1.00  0.00    -0.504 OA
ATOM     20  H   UNL     1      -9.298  -4.939 -10.727  1.00  0.00     0.293 HD
ENDBRANCH  16  19
BRANCH  18  21
ATOM     21  O   UNL     1      -9.125  -2.182 -13.208  1.00  0.00    -0.504 OA
ATOM     22  H   UNL     1     -10.088  -1.966 -13.430  1.00  0.00     0.293 HD
ENDBRANCH  18  21
ENDBRANCH   3  13
BRANCH   9  23
ATOM     23  O   UNL     1      -6.472  -0.556  -2.881  1.00  0.00    -0.507 OA
ATOM     24  H   UNL     1      -6.368   0.416  -3.141  1.00  0.00     0.293 HD
ENDBRANCH   9  23
BRANCH   7  25
ATOM     25  O   UNL     1      -5.010  -5.089  -3.647  1.00  0.00    -0.508 OA
ATOM     26  H   UNL     1      -4.894  -5.901  -4.242  1.00  0.00     0.293 HD
ENDBRANCH   7  25
TORSDOF 6
ENDMDL
MODEL 6
REMARK VINA RESULT:    -3.672      0.818      1.578
REMARK INTER + INTRA:          -4.814
REMARK INTER:                  -4.554
REMARK INTRA:                  -0.259
REMARK UNBOUND:                -0.390
REMARK SMILES Oc1cc(O)c2c(c1)O[C@@H](c1ccc(O)c(O)c1)[C@@H](O)C2
REMARK SMILES IDX 21 1 19 2 10 3 9 4 7 5 8 6 2 7 3 8 4 9 6 10 20 11 11 13
REMARK SMILES IDX 18 14 12 15 16 16 13 17 14 18 17 19 15 21 5 23 1 25
REMARK H PARENT 20 12 17 20 15 22 5 24 1 26
REMARK Flexibility Score: inf
ROOT
ATOM      1  C   UNL     1      -3.849 -16.293  -5.235  1.00  0.00     0.079 C 
ATOM      2  C   UNL     1      -4.024 -16.920  -6.633  1.00  0.00     0.164 C 
ATOM      3  C   UNL     1      -5.192 -17.927  -6.627  1.00  0.00     0.232 C 
ATOM      4  O   UNL     1      -6.385 -17.296  -6.160  1.00  0.00    -0.482 OA
ATOM      5  C   UNL     1      -6.378 -16.378  -5.106  1.00  0.00     0.131 A 
ATOM      6  C   UNL     1      -7.595 -15.965  -4.560  1.00  0.00     0.093 A 
ATOM      7  C   UNL     1      -7.621 -15.059  -3.498  1.00  0.00     0.122 A 
ATOM      8  C   UNL     1      -6.421 -14.569  -2.973  1.00  0.00     0.092 A 
ATOM      9  C   UNL     1      -5.191 -14.971  -3.507  1.00  0.00     0.126 A 
ATOM     10  C   UNL     1      -5.161 -15.857  -4.611  1.00  0.00     0.039 A 
ENDROOT
BRANCH   2  11
ATOM     11  O   UNL     1      -4.202 -15.924  -7.614  1.00  0.00    -0.389 OA
ATOM     12  H   UNL     1      -4.571 -15.118  -7.169  1.00  0.00     0.211 HD
ENDBRANCH   2  11
BRANCH   3  13
ATOM     13  C   UNL     1      -5.409 -18.535  -7.993  1.00  0.00    -0.001 A 
ATOM     14  C   UNL     1      -4.305 -18.942  -8.761  1.00  0.00     0.057 A 
ATOM     15  C   UNL     1      -6.700 -18.645  -8.539  1.00  0.00     0.012 A 
ATOM     16  C   UNL     1      -4.487 -19.476 -10.045  1.00  0.00     0.157 A 
ATOM     17  C   UNL     1      -6.882 -19.177  -9.818  1.00  0.00     0.050 A 
ATOM     18  C   UNL     1      -5.784 -19.596 -10.574  1.00  0.00     0.157 A 
BRANCH  16  19
ATOM     19  O   UNL     1      -3.386 -19.884 -10.796  1.00  0.00    -0.504 OA
ATOM     20  H   UNL     1      -3.366 -20.783 -11.263  1.00  0.00     0.293 HD
ENDBRANCH  16  19
BRANCH  18  21
ATOM     21  O   UNL     1      -5.997 -20.124 -11.847  1.00  0.00    -0.504 OA
ATOM     22  H   UNL     1      -6.516 -19.623 -12.557  1.00  0.00     0.293 HD
ENDBRANCH  18  21
ENDBRANCH   3  13
BRANCH   9  23
ATOM     23  O   UNL     1      -4.026 -14.480  -2.913  1.00  0.00    -0.507 OA
ATOM     24  H   UNL     1      -3.293 -15.076  -2.553  1.00  0.00     0.293 HD
ENDBRANCH   9  23
BRANCH   7  25
ATOM     25  O   UNL     1      -8.846 -14.657  -2.967  1.00  0.00    -0.508 OA
ATOM     26  H   UNL     1      -8.898 -14.025  -2.177  1.00  0.00     0.293 HD
ENDBRANCH   7  25
TORSDOF 6
ENDMDL
MODEL 7
REMARK VINA RESULT:    -3.635      1.747      3.448
REMARK INTER + INTRA:          -4.769
REMARK INTER:                  -4.848
REMARK INTRA:                   0.078
REMARK UNBOUND:                -0.390
REMARK SMILES Oc1cc(O)c2c(c1)O[C@@H](c1ccc(O)c(O)c1)[C@@H](O)C2
REMARK SMILES IDX 21 1 19 2 10 3 9 4 7 5 8 6 2 7 3 8 4 9 6 10 20 11 11 13
REMARK SMILES IDX 18 14 12 15 16 16 13 17 14 18 17 19 15 21 5 23 1 25
REMARK H PARENT 20 12 17 20 15 22 5 24 1 26
REMARK Flexibility Score: inf
ROOT
ATOM      1  C   UNL     1      -6.736 -16.055  -5.375  1.00  0.00     0.079 C 
ATOM      2  C   UNL     1      -7.453 -16.836  -6.495  1.00  0.00     0.164 C 
ATOM      3  C   UNL     1      -6.456 -17.209  -7.611  1.00  0.00     0.232 C 
ATOM      4  O   UNL     1      -5.352 -17.930  -7.065  1.00  0.00    -0.482 OA
ATOM      5  C   UNL     1      -4.778 -17.595  -5.835  1.00  0.00     0.131 A 
ATOM      6  C   UNL     1      -3.574 -18.197  -5.463  1.00  0.00     0.093 A 
ATOM      7  C   UNL     1      -2.969 -17.874  -4.247  1.00  0.00     0.122 A 
ATOM      8  C   UNL     1      -3.569 -16.934  -3.401  1.00  0.00     0.092 A 
ATOM      9  C   UNL     1      -4.775 -16.321  -3.756  1.00  0.00     0.126 A 
ATOM     10  C   UNL     1      -5.414 -16.677  -4.969  1.00  0.00     0.039 A 
ENDROOT
BRANCH   2  11
ATOM     11  O   UNL     1      -8.105 -17.973  -5.978  1.00  0.00    -0.389 OA
ATOM     12  H   UNL     1      -7.411 -18.627  -5.704  1.00  0.00     0.211 HD
ENDBRANCH   2  11
BRANCH   3  13
ATOM     13  C   UNL     1      -7.123 -18.004  -8.709  1.00  0.00    -0.001 A 
ATOM     14  C   UNL     1      -6.338 -18.679  -9.659  1.00  0.00     0.057 A 
ATOM     15  C   UNL     1      -8.522 -18.029  -8.837  1.00  0.00     0.012 A 
ATOM     16  C   UNL     1      -6.940 -19.392 -10.706  1.00  0.00     0.157 A 
ATOM     17  C   UNL     1      -9.124 -18.739  -9.879  1.00  0.00     0.050 A 
ATOM     18  C   UNL     1      -8.341 -19.423 -10.813  1.00  0.00     0.157 A 
BRANCH  16  19
ATOM     19  O   UNL     1      -6.153 -20.066 -11.638  1.00  0.00    -0.504 OA
ATOM     20  H   UNL     1      -6.516 -20.844 -12.175  1.00  0.00     0.293 HD
ENDBRANCH  16  19
BRANCH  18  21
ATOM     21  O   UNL     1      -8.970 -20.125 -11.842  1.00  0.00    -0.504 OA
ATOM     22  H   UNL     1      -8.795 -19.921 -12.817  1.00  0.00     0.293 HD
ENDBRANCH  18  21
ENDBRANCH   3  13
BRANCH   9  23
ATOM     23  O   UNL     1      -5.304 -15.361  -2.890  1.00  0.00    -0.507 OA
ATOM     24  H   UNL     1      -5.000 -14.396  -2.877  1.00  0.00     0.293 HD
ENDBRANCH   9  23
BRANCH   7  25
ATOM     25  O   UNL     1      -1.769 -18.486  -3.892  1.00  0.00    -0.508 OA
ATOM     26  H   UNL     1      -1.739 -19.239  -3.214  1.00  0.00     0.293 HD
ENDBRANCH   7  25
TORSDOF 6
ENDMDL
MODEL 8
REMARK VINA RESULT:    -3.553      2.089      6.860
REMARK INTER + INTRA:          -4.670
REMARK INTER:                  -5.109
REMARK INTRA:                   0.439
REMARK UNBOUND:                -0.390
REMARK SMILES Oc1cc(O)c2c(c1)O[C@@H](c1ccc(O)c(O)c1)[C@@H](O)C2
REMARK SMILES IDX 21 1 19 2 10 3 9 4 7 5 8 6 2 7 3 8 4 9 6 10 20 11 11 13
REMARK SMILES IDX 18 14 12 15 16 16 13 17 14 18 17 19 15 21 5 23 1 25
REMARK H PARENT 20 12 17 20 15 22 5 24 1 26
REMARK Flexibility Score: inf
ROOT
ATOM      1  C   UNL     1      -7.442 -17.450  -7.384  1.00  0.00     0.079 C 
ATOM      2  C   UNL     1      -6.283 -17.138  -6.416  1.00  0.00     0.164 C 
ATOM      3  C   UNL     1      -5.369 -18.370  -6.260  1.00  0.00     0.232 C 
ATOM      4  O   UNL     1      -4.908 -18.808  -7.538  1.00  0.00    -0.482 OA
ATOM      5  C   UNL     1      -5.734 -18.812  -8.666  1.00  0.00     0.131 A 
ATOM      6  C   UNL     1      -5.292 -19.451  -9.827  1.00  0.00     0.093 A 
ATOM      7  C   UNL     1      -6.099 -19.484 -10.965  1.00  0.00     0.122 A 
ATOM      8  C   UNL     1      -7.362 -18.882 -10.940  1.00  0.00     0.092 A 
ATOM      9  C   UNL     1      -7.822 -18.237  -9.786  1.00  0.00     0.126 A 
ATOM     10  C   UNL     1      -6.990 -18.164  -8.643  1.00  0.00     0.039 A 
ENDROOT
BRANCH   2  11
ATOM     11  O   UNL     1      -5.561 -16.006  -6.844  1.00  0.00    -0.389 OA
ATOM     12  H   UNL     1      -5.331 -16.131  -7.800  1.00  0.00     0.211 HD
ENDBRANCH   2  11
BRANCH   3  13
ATOM     13  C   UNL     1      -4.204 -18.086  -5.341  1.00  0.00    -0.001 A 
ATOM     14  C   UNL     1      -3.995 -16.783  -4.859  1.00  0.00     0.057 A 
ATOM     15  C   UNL     1      -3.281 -19.093  -5.009  1.00  0.00     0.012 A 
ATOM     16  C   UNL     1      -2.898 -16.494  -4.033  1.00  0.00     0.157 A 
ATOM     17  C   UNL     1      -2.188 -18.807  -4.187  1.00  0.00     0.050 A 
ATOM     18  C   UNL     1      -1.992 -17.513  -3.695  1.00  0.00     0.157 A 
BRANCH  16  19
ATOM     19  O   UNL     1      -2.705 -15.200  -3.553  1.00  0.00    -0.504 OA
ATOM     20  H   UNL     1      -3.461 -14.671  -3.134  1.00  0.00     0.293 HD
ENDBRANCH  16  19
BRANCH  18  21
ATOM     21  O   UNL     1      -0.893 -17.258  -2.875  1.00  0.00    -0.504 OA
ATOM     22  H   UNL     1      -0.313 -18.001  -2.508  1.00  0.00     0.293 HD
ENDBRANCH  18  21
ENDBRANCH   3  13
BRANCH   9  23
ATOM     23  O   UNL     1      -9.107 -17.690  -9.809  1.00  0.00    -0.507 OA
ATOM     24  H   UNL     1      -9.288 -16.695  -9.792  1.00  0.00     0.293 HD
ENDBRANCH   9  23
BRANCH   7  25
ATOM     25  O   UNL     1      -5.640 -20.125 -12.115  1.00  0.00    -0.508 OA
ATOM     26  H   UNL     1      -5.820 -21.108 -12.281  1.00  0.00     0.293 HD
ENDBRANCH   7  25
TORSDOF 6
ENDMDL
MODEL 9
REMARK VINA RESULT:    -3.423      4.291      6.422
REMARK INTER + INTRA:          -4.513
REMARK INTER:                  -4.148
REMARK INTRA:                  -0.365
REMARK UNBOUND:                -0.390
REMARK SMILES Oc1cc(O)c2c(c1)O[C@@H](c1ccc(O)c(O)c1)[C@@H](O)C2
REMARK SMILES IDX 21 1 19 2 10 3 9 4 7 5 8 6 2 7 3 8 4 9 6 10 20 11 11 13
REMARK SMILES IDX 18 14 12 15 16 16 13 17 14 18 17 19 15 21 5 23 1 25
REMARK H PARENT 20 12 17 20 15 22 5 24 1 26
REMARK Flexibility Score: inf
ROOT
ATOM      1  C   UNL     1      -1.129 -17.515  -3.110  1.00  0.00     0.079 C 
ATOM      2  C   UNL     1      -2.591 -17.574  -3.598  1.00  0.00     0.164 C 
ATOM      3  C   UNL     1      -3.440 -16.509  -2.876  1.00  0.00     0.232 C 
ATOM      4  O   UNL     1      -2.861 -15.216  -3.048  1.00  0.00    -0.482 OA
ATOM      5  C   UNL     1      -1.479 -15.008  -3.010  1.00  0.00     0.131 A 
ATOM      6  C   UNL     1      -0.991 -13.700  -2.968  1.00  0.00     0.093 A 
ATOM      7  C   UNL     1       0.382 -13.460  -2.916  1.00  0.00     0.122 A 
ATOM      8  C   UNL     1       1.276 -14.536  -2.897  1.00  0.00     0.092 A 
ATOM      9  C   UNL     1       0.807 -15.854  -2.939  1.00  0.00     0.126 A 
ATOM     10  C   UNL     1      -0.584 -16.102  -3.034  1.00  0.00     0.039 A 
ENDROOT
BRANCH   2  11
ATOM     11  O   UNL     1      -2.660 -17.433  -4.999  1.00  0.00    -0.389 OA
ATOM     12  H   UNL     1      -1.910 -16.851  -5.286  1.00  0.00     0.211 HD
ENDBRANCH   2  11
BRANCH   3  13
ATOM     13  C   UNL     1      -4.873 -16.520  -3.357  1.00  0.00    -0.001 A 
ATOM     14  C   UNL     1      -5.632 -17.699  -3.266  1.00  0.00     0.057 A 
ATOM     15  C   UNL     1      -5.444 -15.384  -3.956  1.00  0.00     0.012 A 
ATOM     16  C   UNL     1      -6.951 -17.737  -3.741  1.00  0.00     0.157 A 
ATOM     17  C   UNL     1      -6.758 -15.420  -4.429  1.00  0.00     0.050 A 
ATOM     18  C   UNL     1      -7.517 -16.589  -4.323  1.00  0.00     0.157 A 
BRANCH  16  19
ATOM     19  O   UNL     1      -7.699 -18.908  -3.638  1.00  0.00    -0.504 OA
ATOM     20  H   UNL     1      -7.760 -19.424  -2.769  1.00  0.00     0.293 HD
ENDBRANCH  16  19
BRANCH  18  21
ATOM     21  O   UNL     1      -8.826 -16.594  -4.802  1.00  0.00    -0.504 OA
ATOM     22  H   UNL     1      -9.047 -16.380  -5.766  1.00  0.00     0.293 HD
ENDBRANCH  18  21
ENDBRANCH   3  13
BRANCH   9  23
ATOM     23  O   UNL     1       1.745 -16.887  -2.875  1.00  0.00    -0.507 OA
ATOM     24  H   UNL     1       1.595 -17.743  -2.357  1.00  0.00     0.293 HD
ENDBRANCH   9  23
BRANCH   7  25
ATOM     25  O   UNL     1       0.850 -12.147  -2.876  1.00  0.00    -0.508 OA
ATOM     26  H   UNL     1       1.264 -11.758  -2.037  1.00  0.00     0.293 HD
ENDBRANCH   7  25
TORSDOF 6
ENDMDL
