MODEL 1
REMARK VINA RESULT:    -3.528      0.000      0.000
REMARK INTER + INTRA:          -4.448
REMARK INTER:                  -4.249
REMARK INTRA:                  -0.199
REMARK UNBOUND:                -0.199
REMARK SMILES C=CCc1ccc(O)c(OC)c1
REMARK SMILES IDX 9 1 7 2 6 3 5 4 4 5 12 6 10 7 11 8 8 9 3 11 2 12 1 13
REMARK H PARENT 8 10
REMARK Flexibility Score: inf
ROOT
ATOM      1  C   UNL     1     143.176 140.508 140.839  1.00  0.00     0.160 A 
ATOM      2  C   UNL     1     143.263 140.283 142.224  1.00  0.00     0.157 A 
ATOM      3  C   UNL     1     142.702 141.198 143.120  1.00  0.00     0.050 A 
ATOM      4  C   UNL     1     142.055 142.342 142.650  1.00  0.00     0.008 A 
ATOM      5  C   UNL     1     141.969 142.588 141.272  1.00  0.00    -0.040 A 
ATOM      6  C   UNL     1     142.523 141.666 140.370  1.00  0.00     0.054 A 
ENDROOT
BRANCH   1   7
ATOM      7  O   UNL     1     143.744 139.569 139.962  1.00  0.00    -0.493 OA
ATOM      8  C   UNL     1     145.075 139.635 139.461  1.00  0.00     0.278 C 
ENDBRANCH   1   7
BRANCH   2   9
ATOM      9  O   UNL     1     143.902 139.151 142.732  1.00  0.00    -0.504 OA
ATOM     10  H   UNL     1     143.513 138.221 142.630  1.00  0.00     0.293 HD
ENDBRANCH   2   9
BRANCH   5  11
ATOM     11  C   UNL     1     141.243 143.808 140.768  1.00  0.00     0.062 C 
BRANCH  11  12
ATOM     12  C   UNL     1     141.968 144.414 139.599  1.00  0.00    -0.030 C 
ATOM     13  C   UNL     1     142.074 145.738 139.446  1.00  0.00     0.004 C 
ENDBRANCH  11  12
ENDBRANCH   5  11
TORSDOF 4
ENDMDL
MODEL 2
REMARK VINA RESULT:    -3.468      4.840      6.343
REMARK INTER + INTRA:          -4.377
REMARK INTER:                  -4.167
REMARK INTRA:                  -0.210
REMARK UNBOUND:                -0.199
REMARK SMILES C=CCc1ccc(O)c(OC)c1
REMARK SMILES IDX 9 1 7 2 6 3 5 4 4 5 12 6 10 7 11 8 8 9 3 11 2 12 1 13
REMARK H PARENT 8 10
REMARK Flexibility Score: inf
ROOT
ATOM      1  C   UNL     1     138.301 141.250 140.691  1.00  0.00     0.160 A 
ATOM      2  C   UNL     1     138.319 141.425 142.086  1.00  0.00     0.157 A 
ATOM      3  C   UNL     1     139.041 140.541 142.894  1.00  0.00     0.050 A 
ATOM      4  C   UNL     1     139.746 139.478 142.326  1.00  0.00     0.008 A 
ATOM      5  C   UNL     1     139.729 139.282 140.938  1.00  0.00    -0.040 A 
ATOM      6  C   UNL     1     139.013 140.174 140.123  1.00  0.00     0.054 A 
ENDROOT
BRANCH   1   7
ATOM      7  O   UNL     1     137.572 142.156 139.904  1.00  0.00    -0.493 OA
ATOM      8  C   UNL     1     136.223 141.963 139.491  1.00  0.00     0.278 C 
ENDBRANCH   1   7
BRANCH   2   9
ATOM      9  O   UNL     1     137.627 142.474 142.691  1.00  0.00    -0.504 OA
ATOM     10  H   UNL     1     137.186 143.210 142.152  1.00  0.00     0.293 HD
ENDBRANCH   2   9
BRANCH   5  11
ATOM     11  C   UNL     1     140.516 138.153 140.326  1.00  0.00     0.062 C 
BRANCH  11  12
ATOM     12  C   UNL     1     139.751 136.863 140.412  1.00  0.00    -0.030 C 
ATOM     13  C   UNL     1     139.679 136.016 139.379  1.00  0.00     0.004 C 
ENDBRANCH  11  12
ENDBRANCH   5  11
TORSDOF 4
ENDMDL
MODEL 3
REMARK VINA RESULT:    -3.448      3.360      4.538
REMARK INTER + INTRA:          -4.352
REMARK INTER:                  -4.124
REMARK INTRA:                  -0.228
REMARK UNBOUND:                -0.199
REMARK SMILES C=CCc1ccc(O)c(OC)c1
REMARK SMILES IDX 9 1 7 2 6 3 5 4 4 5 12 6 10 7 11 8 8 9 3 11 2 12 1 13
REMARK H PARENT 8 10
REMARK Flexibility Score: inf
ROOT
ATOM      1  C   UNL     1     140.360 138.252 140.390  1.00  0.00     0.160 A 
ATOM      2  C   UNL     1     140.145 138.122 141.774  1.00  0.00     0.157 A 
ATOM      3  C   UNL     1     140.993 138.769 142.679  1.00  0.00     0.050 A 
ATOM      4  C   UNL     1     142.059 139.545 142.218  1.00  0.00     0.008 A 
ATOM      5  C   UNL     1     142.294 139.676 140.842  1.00  0.00    -0.040 A 
ATOM      6  C   UNL     1     141.438 139.035 139.932  1.00  0.00     0.054 A 
ENDROOT
BRANCH   1   7
ATOM      7  O   UNL     1     139.489 137.596 139.505  1.00  0.00    -0.493 OA
ATOM      8  C   UNL     1     139.699 136.286 138.989  1.00  0.00     0.278 C 
ENDBRANCH   1   7
BRANCH   2   9
ATOM      9  O   UNL     1     139.092 137.356 142.272  1.00  0.00    -0.504 OA
ATOM     10  H   UNL     1     139.226 136.663 143.000  1.00  0.00     0.293 HD
ENDBRANCH   2   9
BRANCH   5  11
ATOM     11  C   UNL     1     143.426 140.538 140.349  1.00  0.00     0.062 C 
BRANCH  11  12
ATOM     12  C   UNL     1     144.724 139.782 140.377  1.00  0.00    -0.030 C 
ATOM     13  C   UNL     1     145.345 139.409 139.253  1.00  0.00     0.004 C 
ENDBRANCH  11  12
ENDBRANCH   5  11
TORSDOF 4
ENDMDL
MODEL 4
REMARK VINA RESULT:    -3.394      3.916      4.459
REMARK INTER + INTRA:          -4.288
REMARK INTER:                  -4.018
REMARK INTRA:                  -0.270
REMARK UNBOUND:                -0.199
REMARK SMILES C=CCc1ccc(O)c(OC)c1
REMARK SMILES IDX 9 1 7 2 6 3 5 4 4 5 12 6 10 7 11 8 8 9 3 11 2 12 1 13
REMARK H PARENT 8 10
REMARK Flexibility Score: inf
ROOT
ATOM      1  C   UNL     1     139.498 138.746 139.900  1.00  0.00     0.160 A 
ATOM      2  C   UNL     1     139.865 137.795 140.870  1.00  0.00     0.157 A 
ATOM      3  C   UNL     1     139.859 138.138 142.225  1.00  0.00     0.050 A 
ATOM      4  C   UNL     1     139.493 139.424 142.628  1.00  0.00     0.008 A 
ATOM      5  C   UNL     1     139.135 140.387 141.674  1.00  0.00    -0.040 A 
ATOM      6  C   UNL     1     139.130 140.043 140.313  1.00  0.00     0.054 A 
ENDROOT
BRANCH   1   7
ATOM      7  O   UNL     1     139.507 138.372 138.547  1.00  0.00    -0.493 OA
ATOM      8  C   UNL     1     138.776 139.034 137.521  1.00  0.00     0.278 C 
ENDBRANCH   1   7
BRANCH   2   9
ATOM      9  O   UNL     1     140.237 136.501 140.507  1.00  0.00    -0.504 OA
ATOM     10  H   UNL     1     141.151 136.290 140.122  1.00  0.00     0.293 HD
ENDBRANCH   2   9
BRANCH   5  11
ATOM     11  C   UNL     1     138.711 141.764 142.114  1.00  0.00     0.062 C 
BRANCH  11  12
ATOM     12  C   UNL     1     139.789 142.418 142.932  1.00  0.00    -0.030 C 
ATOM     13  C   UNL     1     140.920 142.865 142.377  1.00  0.00     0.004 C 
ENDBRANCH  11  12
ENDBRANCH   5  11
TORSDOF 4
ENDMDL
MODEL 5
REMARK VINA RESULT:    -3.392      3.978      5.351
REMARK INTER + INTRA:          -4.285
REMARK INTER:                  -4.037
REMARK INTRA:                  -0.248
REMARK UNBOUND:                -0.199
REMARK SMILES C=CCc1ccc(O)c(OC)c1
REMARK SMILES IDX 9 1 7 2 6 3 5 4 4 5 12 6 10 7 11 8 8 9 3 11 2 12 1 13
REMARK H PARENT 8 10
REMARK Flexibility Score: inf
ROOT
ATOM      1  C   UNL     1     138.433 142.089 139.595  1.00  0.00     0.160 A 
ATOM      2  C   UNL     1     137.555 141.827 140.663  1.00  0.00     0.157 A 
ATOM      3  C   UNL     1     138.013 141.904 141.982  1.00  0.00     0.050 A 
ATOM      4  C   UNL     1     139.341 142.238 142.251  1.00  0.00     0.008 A 
ATOM      5  C   UNL     1     140.233 142.490 141.199  1.00  0.00    -0.040 A 
ATOM      6  C   UNL     1     139.774 142.424 139.874  1.00  0.00     0.054 A 
ENDROOT
BRANCH   1   7
ATOM      7  O   UNL     1     137.945 142.010 138.281  1.00  0.00    -0.493 OA
ATOM      8  C   UNL     1     137.364 143.097 137.569  1.00  0.00     0.278 C 
ENDBRANCH   1   7
BRANCH   2   9
ATOM      9  O   UNL     1     136.221 141.492 140.434  1.00  0.00    -0.504 OA
ATOM     10  H   UNL     1     135.467 142.156 140.567  1.00  0.00     0.293 HD
ENDBRANCH   2   9
BRANCH   5  11
ATOM     11  C   UNL     1     141.658 142.879 141.495  1.00  0.00     0.062 C 
BRANCH  11  12
ATOM     12  C   UNL     1     142.160 142.173 142.722  1.00  0.00    -0.030 C 
ATOM     13  C   UNL     1     142.772 140.986 142.650  1.00  0.00     0.004 C 
ENDBRANCH  11  12
ENDBRANCH   5  11
TORSDOF 4
ENDMDL
MODEL 6
REMARK VINA RESULT:    -3.390      3.466      4.544
REMARK INTER + INTRA:          -4.283
REMARK INTER:                  -4.090
REMARK INTRA:                  -0.193
REMARK UNBOUND:                -0.199
REMARK SMILES C=CCc1ccc(O)c(OC)c1
REMARK SMILES IDX 9 1 7 2 6 3 5 4 4 5 12 6 10 7 11 8 8 9 3 11 2 12 1 13
REMARK H PARENT 8 10
REMARK Flexibility Score: inf
ROOT
ATOM      1  C   UNL     1     141.248 143.370 140.406  1.00  0.00     0.160 A 
ATOM      2  C   UNL     1     141.429 143.328 141.800  1.00  0.00     0.157 A 
ATOM      3  C   UNL     1     140.553 142.586 142.598  1.00  0.00     0.050 A 
ATOM      4  C   UNL     1     139.493 141.883 142.021  1.00  0.00     0.008 A 
ATOM      5  C   UNL     1     139.291 141.924 140.634  1.00  0.00    -0.040 A 
ATOM      6  C   UNL     1     140.175 142.661 139.829  1.00  0.00     0.054 A 
ENDROOT
BRANCH   1   7
ATOM      7  O   UNL     1     142.146 144.120 139.629  1.00  0.00    -0.493 OA
ATOM      8  C   UNL     1     142.034 145.519 139.389  1.00  0.00     0.278 C 
ENDBRANCH   1   7
BRANCH   2   9
ATOM      9  O   UNL     1     142.476 144.016 142.413  1.00  0.00    -0.504 OA
ATOM     10  H   UNL     1     142.368 144.472 143.312  1.00  0.00     0.293 HD
ENDBRANCH   2   9
BRANCH   5  11
ATOM     11  C   UNL     1     138.165 141.141 140.012  1.00  0.00     0.062 C 
BRANCH  11  12
ATOM     12  C   UNL     1     136.839 141.773 140.327  1.00  0.00    -0.030 C 
ATOM     13  C   UNL     1     135.987 142.138 139.364  1.00  0.00     0.004 C 
ENDBRANCH  11  12
ENDBRANCH   5  11
TORSDOF 4
ENDMDL
MODEL 7
REMARK VINA RESULT:    -3.377      2.612      4.426
REMARK INTER + INTRA:          -4.266
REMARK INTER:                  -4.000
REMARK INTRA:                  -0.267
REMARK UNBOUND:                -0.199
REMARK SMILES C=CCc1ccc(O)c(OC)c1
REMARK SMILES IDX 9 1 7 2 6 3 5 4 4 5 12 6 10 7 11 8 8 9 3 11 2 12 1 13
REMARK H PARENT 8 10
REMARK Flexibility Score: inf
ROOT
ATOM      1  C   UNL     1     142.160 142.876 139.832  1.00  0.00     0.160 A 
ATOM      2  C   UNL     1     141.761 143.809 140.808  1.00  0.00     0.157 A 
ATOM      3  C   UNL     1     141.732 143.443 142.157  1.00  0.00     0.050 A 
ATOM      4  C   UNL     1     142.095 142.152 142.548  1.00  0.00     0.008 A 
ATOM      5  C   UNL     1     142.483 141.207 141.588  1.00  0.00    -0.040 A 
ATOM      6  C   UNL     1     142.523 141.575 140.233  1.00  0.00     0.054 A 
ENDROOT
BRANCH   1   7
ATOM      7  O   UNL     1     142.185 143.274 138.486  1.00  0.00    -0.493 OA
ATOM      8  C   UNL     1     142.868 142.574 137.450  1.00  0.00     0.278 C 
ENDBRANCH   1   7
BRANCH   2   9
ATOM      9  O   UNL     1     141.393 145.107 140.456  1.00  0.00    -0.504 OA
ATOM     10  H   UNL     1     140.606 145.298 139.847  1.00  0.00     0.293 HD
ENDBRANCH   2   9
BRANCH   5  11
ATOM     11  C   UNL     1     142.902 139.825 142.016  1.00  0.00     0.062 C 
BRANCH  11  12
ATOM     12  C   UNL     1     141.857 139.200 142.896  1.00  0.00    -0.030 C 
ATOM     13  C   UNL     1     140.735 138.675 142.392  1.00  0.00     0.004 C 
ENDBRANCH  11  12
ENDBRANCH   5  11
TORSDOF 4
ENDMDL
MODEL 8
REMARK VINA RESULT:    -3.353      3.110      3.826
REMARK INTER + INTRA:          -4.238
REMARK INTER:                  -3.966
REMARK INTRA:                  -0.271
REMARK UNBOUND:                -0.199
REMARK SMILES C=CCc1ccc(O)c(OC)c1
REMARK SMILES IDX 9 1 7 2 6 3 5 4 4 5 12 6 10 7 11 8 8 9 3 11 2 12 1 13
REMARK H PARENT 8 10
REMARK Flexibility Score: inf
ROOT
ATOM      1  C   UNL     1     143.069 139.465 139.748  1.00  0.00     0.160 A 
ATOM      2  C   UNL     1     143.991 139.728 140.777  1.00  0.00     0.157 A 
ATOM      3  C   UNL     1     143.591 139.647 142.114  1.00  0.00     0.050 A 
ATOM      4  C   UNL     1     142.277 139.307 142.440  1.00  0.00     0.008 A 
ATOM      5  C   UNL     1     141.341 139.053 141.427  1.00  0.00    -0.040 A 
ATOM      6  C   UNL     1     141.743 139.124 140.083  1.00  0.00     0.054 A 
ENDROOT
BRANCH   1   7
ATOM      7  O   UNL     1     143.500 139.549 138.414  1.00  0.00    -0.493 OA
ATOM      8  C   UNL     1     143.337 140.694 137.583  1.00  0.00     0.278 C 
ENDBRANCH   1   7
BRANCH   2   9
ATOM      9  O   UNL     1     145.313 140.070 140.491  1.00  0.00    -0.504 OA
ATOM     10  H   UNL     1     145.981 140.293 141.219  1.00  0.00     0.293 HD
ENDBRANCH   2   9
BRANCH   5  11
ATOM     11  C   UNL     1     139.932 138.658 141.783  1.00  0.00     0.062 C 
BRANCH  11  12
ATOM     12  C   UNL     1     139.434 139.457 142.953  1.00  0.00    -0.030 C 
ATOM     13  C   UNL     1     138.859 140.654 142.794  1.00  0.00     0.004 C 
ENDBRANCH  11  12
ENDBRANCH   5  11
TORSDOF 4
ENDMDL
MODEL 9
REMARK VINA RESULT:    -3.305      6.622      7.417
REMARK INTER + INTRA:          -4.181
REMARK INTER:                  -3.966
REMARK INTRA:                  -0.214
REMARK UNBOUND:                -0.199
REMARK SMILES C=CCc1ccc(O)c(OC)c1
REMARK SMILES IDX 9 1 7 2 6 3 5 4 4 5 12 6 10 7 11 8 8 9 3 11 2 12 1 13
REMARK H PARENT 8 10
REMARK Flexibility Score: inf
ROOT
ATOM      1  C   UNL     1     150.082 139.059 139.740  1.00  0.00     0.160 A 
ATOM      2  C   UNL     1     150.061 139.846 140.906  1.00  0.00     0.157 A 
ATOM      3  C   UNL     1     149.298 141.017 140.947  1.00  0.00     0.050 A 
ATOM      4  C   UNL     1     148.554 141.416 139.835  1.00  0.00     0.008 A 
ATOM      5  C   UNL     1     148.573 140.650 138.661  1.00  0.00    -0.040 A 
ATOM      6  C   UNL     1     149.331 139.469 138.620  1.00  0.00     0.054 A 
ENDROOT
BRANCH   1   7
ATOM      7  O   UNL     1     150.853 137.886 139.729  1.00  0.00    -0.493 OA
ATOM      8  C   UNL     1     150.981 137.014 138.610  1.00  0.00     0.278 C 
ENDBRANCH   1   7
BRANCH   2   9
ATOM      9  O   UNL     1     150.790 139.480 142.037  1.00  0.00    -0.504 OA
ATOM     10  H   UNL     1     150.430 139.608 142.975  1.00  0.00     0.293 HD
ENDBRANCH   2   9
BRANCH   5  11
ATOM     11  C   UNL     1     147.745 141.068 137.474  1.00  0.00     0.062 C 
BRANCH  11  12
ATOM     12  C   UNL     1     148.459 140.753 136.190  1.00  0.00    -0.030 C 
ATOM     13  C   UNL     1     149.130 141.689 135.509  1.00  0.00     0.004 C 
ENDBRANCH  11  12
ENDBRANCH   5  11
TORSDOF 4
ENDMDL
