MODEL 1
REMARK VINA RESULT:    -4.449      0.000      0.000
REMARK INTER + INTRA:          -3.971
REMARK INTER:                  -5.489
REMARK INTRA:                   1.518
REMARK UNBOUND:                 1.518
REMARK SMILES C=C1CC[C@@H]2[C@H]([C@@H]3[C@@H](C)CC[C@@H]13)C2(C)C
REMARK SMILES IDX 3 1 2 2 1 3 12 4 9 5 8 6 10 7 7 8 11 9 4 11 5 12 6 13 13 14
REMARK SMILES IDX 14 16 15 17
REMARK H PARENT
REMARK Flexibility Score: 80.00
ROOT
ATOM      1  C   UNL     1       1.918  -1.798  16.144  1.00  0.00     0.031 C 
ENDROOT
BRANCH   1   2
ATOM      2  C   UNL     1       3.398  -2.124  16.285  1.00  0.00    -0.074 C 
ATOM      3  C   UNL     1       4.141  -2.181  15.161  1.00  0.00     0.008 C 
BRANCH   2   4
ATOM      4  C   UNL     1       4.033  -2.158  17.684  1.00  0.00     0.018 C 
ATOM      5  C   UNL     1       4.488  -4.991  20.034  1.00  0.00     0.008 C 
ATOM      6  C   UNL     1       4.433  -3.495  19.699  1.00  0.00    -0.010 C 
ATOM      7  C   UNL     1       5.773  -2.976  19.161  1.00  0.00     0.004 C 
ATOM      8  C   UNL     1       3.374  -3.185  18.617  1.00  0.00     0.003 CG0
ATOM      9  C   UNL     1       5.513  -2.542  17.730  1.00  0.00     0.008 C 
ATOM     10  G   UNL     1       2.088  -2.615  19.264  1.00  0.00     0.000 G0
ENDBRANCH   2   4
ENDBRANCH   1   2
BRANCH   1  11
ATOM     11  C   UNL     1       1.012  -2.803  16.866  1.00  0.00     0.009 C 
BRANCH  11  12
ATOM     12  C   UNL     1       0.851  -2.423  18.348  1.00  0.00    -0.001 C 
ATOM     13  C   UNL     1       2.073  -2.623  19.258  1.00  0.00     0.002 CG0
ATOM     14  C   UNL     1       0.819  -3.498  19.449  1.00  0.00    -0.029 C 
ATOM     15  G   UNL     1       3.361  -3.191  18.614  1.00  0.00     0.000 G0
ATOM     16  C   UNL     1      -0.046  -3.127  20.659  1.00  0.00     0.011 C 
ATOM     17  C   UNL     1       0.772  -4.985  19.045  1.00  0.00     0.011 C 
ENDBRANCH  11  12
ENDBRANCH   1  11
TORSDOF 0
ENDMDL
MODEL 2
REMARK VINA RESULT:    -4.277      1.205      3.325
REMARK INTER + INTRA:          -3.759
REMARK INTER:                  -5.291
REMARK INTRA:                   1.532
REMARK UNBOUND:                 1.518
REMARK SMILES C=C1CC[C@@H]2[C@H]([C@@H]3[C@@H](C)CC[C@@H]13)C2(C)C
REMARK SMILES IDX 3 1 2 2 1 3 12 4 9 5 8 6 10 7 7 8 11 9 4 11 5 12 6 13 13 14
REMARK SMILES IDX 14 16 15 17
REMARK H PARENT
REMARK Flexibility Score: 80.00
ROOT
ATOM      1  C   UNL     1       4.718  -3.473  20.531  1.00  0.00     0.031 C 
ENDROOT
BRANCH   1   2
ATOM      2  C   UNL     1       4.855  -2.651  19.258  1.00  0.00    -0.074 C 
ATOM      3  C   UNL     1       5.845  -1.737  19.200  1.00  0.00     0.008 C 
BRANCH   2   4
ATOM      4  C   UNL     1       4.025  -3.031  18.021  1.00  0.00     0.018 C 
ATOM      5  C   UNL     1       0.701  -1.818  16.909  1.00  0.00     0.008 C 
ATOM      6  C   UNL     1       1.863  -2.820  16.884  1.00  0.00    -0.010 C 
ATOM      7  C   UNL     1       2.982  -2.378  15.931  1.00  0.00     0.004 C 
ATOM      8  C   UNL     1       2.511  -2.985  18.277  1.00  0.00     0.003 CG0
ATOM      9  C   UNL     1       4.201  -2.126  16.801  1.00  0.00     0.008 C 
ATOM     10  G   UNL     1       2.014  -4.285  18.955  1.00  0.00     0.000 G0
ENDBRANCH   2   4
ENDBRANCH   1   2
BRANCH   1  11
ATOM     11  C   UNL     1       3.293  -3.465  21.098  1.00  0.00     0.009 C 
BRANCH  11  12
ATOM     12  C   UNL     1       2.431  -4.542  20.418  1.00  0.00    -0.001 C 
ATOM     13  C   UNL     1       2.022  -4.291  18.958  1.00  0.00     0.002 CG0
ATOM     14  C   UNL     1       0.954  -4.281  20.070  1.00  0.00    -0.029 C 
ATOM     15  G   UNL     1       2.506  -2.980  18.293  1.00  0.00     0.000 G0
ATOM     16  C   UNL     1       0.069  -5.531  20.123  1.00  0.00     0.011 C 
ATOM     17  C   UNL     1       0.284  -2.985  20.567  1.00  0.00     0.011 C 
ENDBRANCH  11  12
ENDBRANCH   1  11
TORSDOF 0
ENDMDL
MODEL 3
REMARK VINA RESULT:    -4.262      1.399      4.072
REMARK INTER + INTRA:          -3.741
REMARK INTER:                  -5.268
REMARK INTRA:                   1.528
REMARK UNBOUND:                 1.518
REMARK SMILES C=C1CC[C@@H]2[C@H]([C@@H]3[C@@H](C)CC[C@@H]13)C2(C)C
REMARK SMILES IDX 3 1 2 2 1 3 12 4 9 5 8 6 10 7 7 8 11 9 4 11 5 12 6 13 13 14
REMARK SMILES IDX 14 16 15 17
REMARK H PARENT
REMARK Flexibility Score: 80.00
ROOT
ATOM      1  C   UNL     1       2.109  -2.333  17.564  1.00  0.00     0.031 C 
ENDROOT
BRANCH   1   2
ATOM      2  C   UNL     1       1.631  -3.048  18.819  1.00  0.00    -0.074 C 
ATOM      3  C   UNL     1       0.375  -2.803  19.246  1.00  0.00     0.008 C 
BRANCH   2   4
ATOM      4  C   UNL     1       2.490  -4.171  19.421  1.00  0.00     0.018 C 
ATOM      5  C   UNL     1       5.119  -4.029  22.033  1.00  0.00     0.008 C 
ATOM      6  C   UNL     1       4.388  -4.718  20.873  1.00  0.00    -0.010 C 
ATOM      7  C   UNL     1       3.147  -5.484  21.351  1.00  0.00     0.004 C 
ATOM      8  C   UNL     1       3.898  -3.702  19.816  1.00  0.00     0.003 CG0
ATOM      9  C   UNL     1       1.954  -4.797  20.709  1.00  0.00     0.008 C 
ATOM     10  G   UNL     1       4.851  -3.688  18.596  1.00  0.00     0.000 G0
ENDBRANCH   2   4
ENDBRANCH   1   2
BRANCH   1  11
ATOM     11  C   UNL     1       3.458  -1.628  17.754  1.00  0.00     0.009 C 
BRANCH  11  12
ATOM     12  C   UNL     1       4.621  -2.607  17.517  1.00  0.00    -0.001 C 
ATOM     13  C   UNL     1       4.858  -3.683  18.589  1.00  0.00     0.002 CG0
ATOM     14  C   UNL     1       5.893  -2.560  18.383  1.00  0.00    -0.029 C 
ATOM     15  G   UNL     1       3.913  -3.693  19.815  1.00  0.00     0.000 G0
ATOM     16  C   UNL     1       7.166  -2.987  17.645  1.00  0.00     0.011 C 
ATOM     17  C   UNL     1       6.076  -1.403  19.385  1.00  0.00     0.011 C 
ENDBRANCH  11  12
ENDBRANCH   1  11
TORSDOF 0
ENDMDL
MODEL 4
REMARK VINA RESULT:    -4.138      3.114      5.382
REMARK INTER + INTRA:          -3.587
REMARK INTER:                  -5.056
REMARK INTRA:                   1.469
REMARK UNBOUND:                 1.518
REMARK SMILES C=C1CC[C@@H]2[C@H]([C@@H]3[C@@H](C)CC[C@@H]13)C2(C)C
REMARK SMILES IDX 3 1 2 2 1 3 12 4 9 5 8 6 10 7 7 8 11 9 4 11 5 12 6 13 13 14
REMARK SMILES IDX 14 16 15 17
REMARK H PARENT
REMARK Flexibility Score: 80.00
ROOT
ATOM      1  C   UNL     1       3.938  -1.176  14.302  1.00  0.00     0.031 C 
ENDROOT
BRANCH   1   2
ATOM      2  C   UNL     1       3.279  -1.624  13.006  1.00  0.00    -0.074 C 
ATOM      3  C   UNL     1       3.790  -1.162  11.846  1.00  0.00     0.008 C 
BRANCH   2   4
ATOM      4  C   UNL     1       2.222  -2.738  13.043  1.00  0.00     0.018 C 
ATOM      5  C   UNL     1      -1.471  -2.520  13.315  1.00  0.00     0.008 C 
ATOM      6  C   UNL     1      -0.142  -3.282  13.401  1.00  0.00    -0.010 C 
ATOM      7  C   UNL     1       0.301  -3.821  12.034  1.00  0.00     0.004 C 
ATOM      8  C   UNL     1       1.006  -2.383  13.912  1.00  0.00     0.003 CG0
ATOM      9  C   UNL     1       1.595  -3.102  11.696  1.00  0.00     0.008 C 
ATOM     10  G   UNL     1       1.284  -2.658  15.410  1.00  0.00     0.000 G0
ENDBRANCH   2   4
ENDBRANCH   1   2
BRANCH   1  11
ATOM     11  C   UNL     1       2.938  -0.606  15.316  1.00  0.00     0.009 C 
BRANCH  11  12
ATOM     12  C   UNL     1       2.302  -1.735  16.145  1.00  0.00    -0.001 C 
ATOM     13  C   UNL     1       1.299  -2.651  15.426  1.00  0.00     0.002 CG0
ATOM     14  C   UNL     1       0.813  -1.697  16.536  1.00  0.00    -0.029 C 
ATOM     15  G   UNL     1       1.009  -2.364  13.933  1.00  0.00     0.000 G0
ATOM     16  C   UNL     1       0.502  -2.375  17.875  1.00  0.00     0.011 C 
ATOM     17  C   UNL     1      -0.008  -0.428  16.240  1.00  0.00     0.011 C 
ENDBRANCH  11  12
ENDBRANCH   1  11
TORSDOF 0
ENDMDL
MODEL 5
REMARK VINA RESULT:    -4.092      1.135      3.664
REMARK INTER + INTRA:          -3.531
REMARK INTER:                  -5.095
REMARK INTRA:                   1.564
REMARK UNBOUND:                 1.518
REMARK SMILES C=C1CC[C@@H]2[C@H]([C@@H]3[C@@H](C)CC[C@@H]13)C2(C)C
REMARK SMILES IDX 3 1 2 2 1 3 12 4 9 5 8 6 10 7 7 8 11 9 4 11 5 12 6 13 13 14
REMARK SMILES IDX 14 16 15 17
REMARK H PARENT
REMARK Flexibility Score: 80.00
ROOT
ATOM      1  C   UNL     1      -0.047  -2.764  19.387  1.00  0.00     0.031 C 
ENDROOT
BRANCH   1   2
ATOM      2  C   UNL     1       1.041  -3.109  20.394  1.00  0.00    -0.074 C 
ATOM      3  C   UNL     1       0.803  -2.845  21.695  1.00  0.00     0.008 C 
BRANCH   2   4
ATOM      4  C   UNL     1       2.256  -3.933  19.938  1.00  0.00     0.018 C 
ATOM      5  C   UNL     1       5.557  -2.819  18.667  1.00  0.00     0.008 C 
ATOM      6  C   UNL     1       4.464  -3.875  18.874  1.00  0.00    -0.010 C 
ATOM      7  C   UNL     1       4.578  -4.560  20.243  1.00  0.00     0.004 C 
ATOM      8  C   UNL     1       3.048  -3.259  18.808  1.00  0.00     0.003 CG0
ATOM      9  C   UNL     1       3.320  -4.189  21.007  1.00  0.00     0.008 C 
ATOM     10  G   UNL     1       2.402  -3.532  17.427  1.00  0.00     0.000 G0
ENDBRANCH   2   4
ENDBRANCH   1   2
BRANCH   1  11
ATOM     11  C   UNL     1       0.473  -1.941  18.202  1.00  0.00     0.009 C 
BRANCH  11  12
ATOM     12  C   UNL     1       1.061  -2.862  17.117  1.00  0.00    -0.001 C 
ATOM     13  C   UNL     1       2.402  -3.543  17.430  1.00  0.00     0.002 CG0
ATOM     14  C   UNL     1       2.323  -2.465  16.331  1.00  0.00    -0.029 C 
ATOM     15  G   UNL     1       3.053  -3.247  18.803  1.00  0.00     0.000 G0
ATOM     16  C   UNL     1       2.361  -3.005  14.897  1.00  0.00     0.011 C 
ATOM     17  C   UNL     1       2.905  -1.050  16.511  1.00  0.00     0.011 C 
ENDBRANCH  11  12
ENDBRANCH   1  11
TORSDOF 0
ENDMDL
MODEL 6
REMARK VINA RESULT:    -4.087      1.863      3.575
REMARK INTER + INTRA:          -3.524
REMARK INTER:                  -5.078
REMARK INTRA:                   1.554
REMARK UNBOUND:                 1.518
REMARK SMILES C=C1CC[C@@H]2[C@H]([C@@H]3[C@@H](C)CC[C@@H]13)C2(C)C
REMARK SMILES IDX 3 1 2 2 1 3 12 4 9 5 8 6 10 7 7 8 11 9 4 11 5 12 6 13 13 14
REMARK SMILES IDX 14 16 15 17
REMARK H PARENT
REMARK Flexibility Score: 80.00
ROOT
ATOM      1  C   UNL     1       4.570  -1.288  14.273  1.00  0.00     0.031 C 
ENDROOT
BRANCH   1   2
ATOM      2  C   UNL     1       4.959  -2.017  15.550  1.00  0.00    -0.074 C 
ATOM      3  C   UNL     1       6.185  -2.575  15.610  1.00  0.00     0.008 C 
BRANCH   2   4
ATOM      4  C   UNL     1       4.054  -1.906  16.787  1.00  0.00     0.018 C 
ATOM      5  C   UNL     1       1.275  -4.087  17.919  1.00  0.00     0.008 C 
ATOM      6  C   UNL     1       2.068  -2.773  17.934  1.00  0.00    -0.010 C 
ATOM      7  C   UNL     1       3.270  -2.838  18.885  1.00  0.00     0.004 C 
ATOM      8  C   UNL     1       2.629  -2.423  16.537  1.00  0.00     0.003 CG0
ATOM      9  C   UNL     1       4.506  -2.704  18.012  1.00  0.00     0.008 C 
ATOM     10  G   UNL     1       1.752  -1.346  15.854  1.00  0.00     0.000 G0
ENDBRANCH   2   4
ENDBRANCH   1   2
BRANCH   1  11
ATOM     11  C   UNL     1       3.213  -1.737  13.717  1.00  0.00     0.009 C 
BRANCH  11  12
ATOM     12  C   UNL     1       2.066  -0.972  14.399  1.00  0.00    -0.001 C 
ATOM     13  C   UNL     1       1.760  -1.329  15.862  1.00  0.00     0.002 CG0
ATOM     14  C   UNL     1       0.741  -1.671  14.757  1.00  0.00    -0.029 C 
ATOM     15  G   UNL     1       2.624  -2.427  16.527  1.00  0.00     0.000 G0
ATOM     16  C   UNL     1      -0.484  -0.751  14.705  1.00  0.00     0.011 C 
ATOM     17  C   UNL     1       0.497  -3.111  14.267  1.00  0.00     0.011 C 
ENDBRANCH  11  12
ENDBRANCH   1  11
TORSDOF 0
ENDMDL
MODEL 7
REMARK VINA RESULT:    -4.059      1.712      4.119
REMARK INTER + INTRA:          -3.490
REMARK INTER:                  -4.963
REMARK INTRA:                   1.473
REMARK UNBOUND:                 1.518
REMARK SMILES C=C1CC[C@@H]2[C@H]([C@@H]3[C@@H](C)CC[C@@H]13)C2(C)C
REMARK SMILES IDX 3 1 2 2 1 3 12 4 9 5 8 6 10 7 7 8 11 9 4 11 5 12 6 13 13 14
REMARK SMILES IDX 14 16 15 17
REMARK H PARENT
REMARK Flexibility Score: 80.00
ROOT
ATOM      1  C   UNL     1       5.565  -3.245  18.683  1.00  0.00     0.031 C 
ENDROOT
BRANCH   1   2
ATOM      2  C   UNL     1       4.164  -3.081  18.114  1.00  0.00    -0.074 C 
ATOM      3  C   UNL     1       3.967  -2.121  17.187  1.00  0.00     0.008 C 
BRANCH   2   4
ATOM      4  C   UNL     1       3.091  -4.133  18.438  1.00  0.00     0.018 C 
ATOM      5  C   UNL     1       0.570  -4.218  21.157  1.00  0.00     0.008 C 
ATOM      6  C   UNL     1       1.400  -4.879  20.048  1.00  0.00    -0.010 C 
ATOM      7  C   UNL     1       0.748  -4.716  18.669  1.00  0.00     0.004 C 
ATOM      8  C   UNL     1       2.814  -4.265  19.943  1.00  0.00     0.003 CG0
ATOM      9  C   UNL     1       1.704  -3.868  17.848  1.00  0.00     0.008 C 
ATOM     10  G   UNL     1       3.856  -5.181  20.630  1.00  0.00     0.000 G0
ENDBRANCH   2   4
ENDBRANCH   1   2
BRANCH   1  11
ATOM     11  C   UNL     1       5.593  -3.244  20.216  1.00  0.00     0.009 C 
BRANCH  11  12
ATOM     12  C   UNL     1       5.313  -4.655  20.765  1.00  0.00    -0.001 C 
ATOM     13  C   UNL     1       3.877  -5.185  20.632  1.00  0.00     0.002 CG0
ATOM     14  C   UNL     1       4.454  -4.865  22.025  1.00  0.00    -0.029 C 
ATOM     15  G   UNL     1       2.832  -4.261  19.961  1.00  0.00     0.000 G0
ATOM     16  C   UNL     1       4.850  -6.092  22.853  1.00  0.00     0.011 C 
ATOM     17  C   UNL     1       4.013  -3.638  22.846  1.00  0.00     0.011 C 
ENDBRANCH  11  12
ENDBRANCH   1  11
TORSDOF 0
ENDMDL
MODEL 8
REMARK VINA RESULT:    -3.925      1.589      3.666
REMARK INTER + INTRA:          -3.324
REMARK INTER:                  -4.831
REMARK INTRA:                   1.507
REMARK UNBOUND:                 1.518
REMARK SMILES C=C1CC[C@@H]2[C@H]([C@@H]3[C@@H](C)CC[C@@H]13)C2(C)C
REMARK SMILES IDX 3 1 2 2 1 3 12 4 9 5 8 6 10 7 7 8 11 9 4 11 5 12 6 13 13 14
REMARK SMILES IDX 14 16 15 17
REMARK H PARENT
REMARK Flexibility Score: 80.00
ROOT
ATOM      1  C   UNL     1       4.629  -4.394  19.349  1.00  0.00     0.031 C 
ENDROOT
BRANCH   1   2
ATOM      2  C   UNL     1       4.068  -3.331  18.417  1.00  0.00    -0.074 C 
ATOM      3  C   UNL     1       4.943  -2.537  17.766  1.00  0.00     0.008 C 
BRANCH   2   4
ATOM      4  C   UNL     1       2.569  -3.338  18.080  1.00  0.00     0.018 C 
ATOM      5  C   UNL     1      -0.259  -1.592  19.727  1.00  0.00     0.008 C 
ATOM      6  C   UNL     1       0.323  -2.668  18.800  1.00  0.00    -0.010 C 
ATOM      7  C   UNL     1       0.584  -2.129  17.387  1.00  0.00     0.004 C 
ATOM      8  C   UNL     1       1.674  -3.208  19.322  1.00  0.00     0.003 CG0
ATOM      9  C   UNL     1       2.087  -2.199  17.180  1.00  0.00     0.008 C 
ATOM     10  G   UNL     1       1.478  -4.575  20.021  1.00  0.00     0.000 G0
ENDBRANCH   2   4
ENDBRANCH   1   2
BRANCH   1  11
ATOM     11  C   UNL     1       3.998  -4.359  20.746  1.00  0.00     0.009 C 
BRANCH  11  12
ATOM     12  C   UNL     1       2.694  -5.175  20.774  1.00  0.00    -0.001 C 
ATOM     13  C   UNL     1       1.481  -4.578  20.042  1.00  0.00     0.002 CG0
ATOM     14  C   UNL     1       1.471  -4.697  21.578  1.00  0.00    -0.029 C 
ATOM     15  G   UNL     1       1.669  -3.211  19.341  1.00  0.00     0.000 G0
ATOM     16  C   UNL     1       0.603  -5.834  22.129  1.00  0.00     0.011 C 
ATOM     17  C   UNL     1       1.614  -3.476  22.508  1.00  0.00     0.011 C 
ENDBRANCH  11  12
ENDBRANCH   1  11
TORSDOF 0
ENDMDL
