MODEL 1
REMARK VINA RESULT:    -2.722      0.000      0.000
REMARK INTER + INTRA:          -3.288
REMARK INTER:                  -3.200
REMARK INTRA:                  -0.088
REMARK UNBOUND:                -0.088
REMARK SMILES CCCCC(=O)[O-]
REMARK SMILES IDX 4 1 5 2 6 3 7 4 3 5 2 6 1 7
REMARK H PARENT
REMARK Flexibility Score: inf
ROOT
ATOM      1  C   UNL     1      35.016   5.314 -31.374  1.00  0.00     0.053 C 
ENDROOT
BRANCH   1   2
ATOM      2  C   UNL     1      34.856   5.068 -32.842  1.00  0.00     0.041 C 
ATOM      3  O   UNL     1      35.666   5.577 -33.661  1.00  0.00    -0.550 OA
ATOM      4  O   UNL     1      33.782   4.320 -33.310  1.00  0.00    -0.550 OA
ENDBRANCH   1   2
BRANCH   1   5
ATOM      5  C   UNL     1      35.413   6.773 -31.116  1.00  0.00     0.006 C 
BRANCH   5   6
ATOM      6  C   UNL     1      34.210   7.728 -31.161  1.00  0.00    -0.003 C 
ATOM      7  C   UNL     1      33.186   7.441 -30.063  1.00  0.00     0.004 C 
ENDBRANCH   5   6
ENDBRANCH   1   5
TORSDOF 3
ENDMDL
MODEL 2
REMARK VINA RESULT:    -2.683      2.321      3.557
REMARK INTER + INTRA:          -3.241
REMARK INTER:                  -3.134
REMARK INTRA:                  -0.107
REMARK UNBOUND:                -0.088
REMARK SMILES CCCCC(=O)[O-]
REMARK SMILES IDX 4 1 5 2 6 3 7 4 3 5 2 6 1 7
REMARK H PARENT
REMARK Flexibility Score: inf
ROOT
ATOM      1  C   UNL     1      35.345   6.950 -31.099  1.00  0.00     0.053 C 
ENDROOT
BRANCH   1   2
ATOM      2  C   UNL     1      33.970   7.490 -30.859  1.00  0.00     0.041 C 
ATOM      3  O   UNL     1      33.079   6.756 -30.356  1.00  0.00    -0.550 OA
ATOM      4  O   UNL     1      33.657   8.790 -31.239  1.00  0.00    -0.550 OA
ENDBRANCH   1   2
BRANCH   1   5
ATOM      5  C   UNL     1      35.276   5.467 -31.486  1.00  0.00     0.006 C 
BRANCH   5   6
ATOM      6  C   UNL     1      34.912   5.260 -32.964  1.00  0.00    -0.003 C 
ATOM      7  C   UNL     1      33.782   4.249 -33.159  1.00  0.00     0.004 C 
ENDBRANCH   5   6
ENDBRANCH   1   5
TORSDOF 3
ENDMDL
MODEL 3
REMARK VINA RESULT:    -2.663      2.308      3.622
REMARK INTER + INTRA:          -3.218
REMARK INTER:                  -3.174
REMARK INTRA:                  -0.044
REMARK UNBOUND:                -0.088
REMARK SMILES CCCCC(=O)[O-]
REMARK SMILES IDX 4 1 5 2 6 3 7 4 3 5 2 6 1 7
REMARK H PARENT
REMARK Flexibility Score: inf
ROOT
ATOM      1  C   UNL     1      35.006   5.356 -32.953  1.00  0.00     0.053 C 
ENDROOT
BRANCH   1   2
ATOM      2  C   UNL     1      35.425   5.736 -31.567  1.00  0.00     0.041 C 
ATOM      3  O   UNL     1      36.125   6.765 -31.377  1.00  0.00    -0.550 OA
ATOM      4  O   UNL     1      35.085   4.925 -30.491  1.00  0.00    -0.550 OA
ENDBRANCH   1   2
BRANCH   1   5
ATOM      5  C   UNL     1      33.579   4.794 -32.945  1.00  0.00     0.006 C 
BRANCH   5   6
ATOM      6  C   UNL     1      33.540   3.281 -33.209  1.00  0.00    -0.003 C 
ATOM      7  C   UNL     1      32.138   2.776 -33.551  1.00  0.00     0.004 C 
ENDBRANCH   5   6
ENDBRANCH   1   5
TORSDOF 3
ENDMDL
MODEL 4
REMARK VINA RESULT:    -2.612      1.399      1.901
REMARK INTER + INTRA:          -3.158
REMARK INTER:                  -3.067
REMARK INTRA:                  -0.092
REMARK UNBOUND:                -0.088
REMARK SMILES CCCCC(=O)[O-]
REMARK SMILES IDX 4 1 5 2 6 3 7 4 3 5 2 6 1 7
REMARK H PARENT
REMARK Flexibility Score: inf
ROOT
ATOM      1  C   UNL     1      34.673   5.344 -33.020  1.00  0.00     0.053 C 
ENDROOT
BRANCH   1   2
ATOM      2  C   UNL     1      33.488   4.430 -32.991  1.00  0.00     0.041 C 
ATOM      3  O   UNL     1      33.598   3.237 -33.378  1.00  0.00    -0.550 OA
ATOM      4  O   UNL     1      32.249   4.911 -32.584  1.00  0.00    -0.550 OA
ENDBRANCH   1   2
BRANCH   1   5
ATOM      5  C   UNL     1      35.349   5.386 -31.643  1.00  0.00     0.006 C 
BRANCH   5   6
ATOM      6  C   UNL     1      35.546   6.821 -31.128  1.00  0.00    -0.003 C 
ATOM      7  C   UNL     1      34.250   7.631 -31.123  1.00  0.00     0.004 C 
ENDBRANCH   5   6
ENDBRANCH   1   5
TORSDOF 3
ENDMDL
MODEL 5
REMARK VINA RESULT:    -2.608     16.365     16.895
REMARK INTER + INTRA:          -3.154
REMARK INTER:                  -3.077
REMARK INTRA:                  -0.077
REMARK UNBOUND:                -0.088
REMARK SMILES CCCCC(=O)[O-]
REMARK SMILES IDX 4 1 5 2 6 3 7 4 3 5 2 6 1 7
REMARK H PARENT
REMARK Flexibility Score: inf
ROOT
ATOM      1  C   UNL     1      24.661  -7.782 -28.779  1.00  0.00     0.053 C 
ENDROOT
BRANCH   1   2
ATOM      2  C   UNL     1      24.219  -6.458 -29.322  1.00  0.00     0.041 C 
ATOM      3  O   UNL     1      23.920  -6.341 -30.540  1.00  0.00    -0.550 OA
ATOM      4  O   UNL     1      24.187  -5.343 -28.494  1.00  0.00    -0.550 OA
ENDBRANCH   1   2
BRANCH   1   5
ATOM      5  C   UNL     1      24.776  -7.721 -27.251  1.00  0.00     0.006 C 
BRANCH   5   6
ATOM      6  C   UNL     1      26.171  -8.123 -26.749  1.00  0.00    -0.003 C 
ATOM      7  C   UNL     1      27.223  -8.117 -27.858  1.00  0.00     0.004 C 
ENDBRANCH   5   6
ENDBRANCH   1   5
TORSDOF 3
ENDMDL
MODEL 6
REMARK VINA RESULT:    -2.530      3.303      4.242
REMARK INTER + INTRA:          -3.062
REMARK INTER:                  -3.046
REMARK INTRA:                  -0.016
REMARK UNBOUND:                -0.088
REMARK SMILES CCCCC(=O)[O-]
REMARK SMILES IDX 4 1 5 2 6 3 7 4 3 5 2 6 1 7
REMARK H PARENT
REMARK Flexibility Score: inf
ROOT
ATOM      1  C   UNL     1      33.235   7.485 -30.831  1.00  0.00     0.053 C 
ENDROOT
BRANCH   1   2
ATOM      2  C   UNL     1      33.056   8.911 -30.412  1.00  0.00     0.041 C 
ATOM      3  O   UNL     1      33.268   9.843 -31.231  1.00  0.00    -0.550 OA
ATOM      4  O   UNL     1      32.703   9.212 -29.102  1.00  0.00    -0.550 OA
ENDBRANCH   1   2
BRANCH   1   5
ATOM      5  C   UNL     1      34.702   7.213 -31.189  1.00  0.00     0.006 C 
BRANCH   5   6
ATOM      6  C   UNL     1      34.977   5.725 -31.455  1.00  0.00    -0.003 C 
ATOM      7  C   UNL     1      35.005   5.386 -32.945  1.00  0.00     0.004 C 
ENDBRANCH   5   6
ENDBRANCH   1   5
TORSDOF 3
ENDMDL
MODEL 7
REMARK VINA RESULT:    -2.503     15.946     16.701
REMARK INTER + INTRA:          -3.030
REMARK INTER:                  -2.935
REMARK INTRA:                  -0.095
REMARK UNBOUND:                -0.088
REMARK SMILES CCCCC(=O)[O-]
REMARK SMILES IDX 4 1 5 2 6 3 7 4 3 5 2 6 1 7
REMARK H PARENT
REMARK Flexibility Score: inf
ROOT
ATOM      1  C   UNL     1      25.246  -6.856 -28.991  1.00  0.00     0.053 C 
ENDROOT
BRANCH   1   2
ATOM      2  C   UNL     1      24.337  -5.937 -29.745  1.00  0.00     0.041 C 
ATOM      3  O   UNL     1      24.037  -6.185 -30.943  1.00  0.00    -0.550 OA
ATOM      4  O   UNL     1      23.860  -4.780 -29.141  1.00  0.00    -0.550 OA
ENDBRANCH   1   2
BRANCH   1   5
ATOM      5  C   UNL     1      24.429  -7.860 -28.168  1.00  0.00     0.006 C 
BRANCH   5   6
ATOM      6  C   UNL     1      24.769  -7.809 -26.670  1.00  0.00    -0.003 C 
ATOM      7  C   UNL     1      24.366  -6.488 -26.016  1.00  0.00     0.004 C 
ENDBRANCH   5   6
ENDBRANCH   1   5
TORSDOF 3
ENDMDL
MODEL 8
REMARK VINA RESULT:    -2.496     15.451     16.235
REMARK INTER + INTRA:          -3.022
REMARK INTER:                  -2.948
REMARK INTRA:                  -0.074
REMARK UNBOUND:                -0.088
REMARK SMILES CCCCC(=O)[O-]
REMARK SMILES IDX 4 1 5 2 6 3 7 4 3 5 2 6 1 7
REMARK H PARENT
REMARK Flexibility Score: inf
ROOT
ATOM      1  C   UNL     1      26.731  -7.979 -28.405  1.00  0.00     0.053 C 
ENDROOT
BRANCH   1   2
ATOM      2  C   UNL     1      27.615  -6.794 -28.638  1.00  0.00     0.041 C 
ATOM      3  O   UNL     1      27.205  -5.823 -29.326  1.00  0.00    -0.550 OA
ATOM      4  O   UNL     1      28.912  -6.784 -28.139  1.00  0.00    -0.550 OA
ENDBRANCH   1   2
BRANCH   1   5
ATOM      5  C   UNL     1      25.288  -7.658 -28.817  1.00  0.00     0.006 C 
BRANCH   5   6
ATOM      6  C   UNL     1      24.325  -7.637 -27.620  1.00  0.00    -0.003 C 
ATOM      7  C   UNL     1      24.978  -8.124 -26.326  1.00  0.00     0.004 C 
ENDBRANCH   5   6
ENDBRANCH   1   5
TORSDOF 3
ENDMDL
MODEL 9
REMARK VINA RESULT:    -2.348      8.886      9.985
REMARK INTER + INTRA:          -2.848
REMARK INTER:                  -2.823
REMARK INTRA:                  -0.025
REMARK UNBOUND:                -0.088
REMARK SMILES CCCCC(=O)[O-]
REMARK SMILES IDX 4 1 5 2 6 3 7 4 3 5 2 6 1 7
REMARK H PARENT
REMARK Flexibility Score: inf
ROOT
ATOM      1  C   UNL     1      31.164   0.866 -38.511  1.00  0.00     0.053 C 
ENDROOT
BRANCH   1   2
ATOM      2  C   UNL     1      30.071   1.236 -39.464  1.00  0.00     0.041 C 
ATOM      3  O   UNL     1      29.138   0.424 -39.704  1.00  0.00    -0.550 OA
ATOM      4  O   UNL     1      30.108   2.457 -40.125  1.00  0.00    -0.550 OA
ENDBRANCH   1   2
BRANCH   1   5
ATOM      5  C   UNL     1      31.475  -0.634 -38.610  1.00  0.00     0.006 C 
BRANCH   5   6
ATOM      6  C   UNL     1      32.942  -0.954 -38.283  1.00  0.00    -0.003 C 
ATOM      7  C   UNL     1      33.437  -0.239 -37.025  1.00  0.00     0.004 C 
ENDBRANCH   5   6
ENDBRANCH   1   5
TORSDOF 3
ENDMDL
