MODEL 1
REMARK VINA RESULT:    -3.725      0.000      0.000
REMARK INTER + INTRA:          -8.036
REMARK INTER:                  -5.685
REMARK INTRA:                  -2.351
REMARK UNBOUND:                -2.351
REMARK SMILES CC(=O)CCC=C(C)CCC=C(C)CCC=C(C)C
REMARK SMILES IDX 10 1 11 2 12 3 13 4 14 5 15 6 16 7 18 8 17 9 19 10 9 11 7 12
REMARK SMILES IDX 6 13 8 14 5 15 4 16 2 17 3 18 1 19
REMARK H PARENT
REMARK Flexibility Score: inf
ROOT
ATOM      1  C   UNL     1     -37.356  -6.054  50.470  1.00  0.00     0.032 C 
ENDROOT
BRANCH   1   2
ATOM      2  C   UNL     1     -37.930  -7.281  49.798  1.00  0.00    -0.028 C 
ATOM      3  C   UNL     1     -38.835  -7.262  48.793  1.00  0.00    -0.077 C 
ATOM      4  C   UNL     1     -39.375  -5.971  48.227  1.00  0.00     0.039 C 
BRANCH   3   5
ATOM      5  C   UNL     1     -39.318  -8.576  48.213  1.00  0.00     0.034 C 
BRANCH   5   6
ATOM      6  C   UNL     1     -38.193  -9.331  47.495  1.00  0.00     0.032 C 
BRANCH   6   7
ATOM      7  C   UNL     1     -37.566  -8.476  46.416  1.00  0.00    -0.028 C 
ATOM      8  C   UNL     1     -35.292  -8.490  47.461  1.00  0.00     0.039 C 
ATOM      9  C   UNL     1     -36.276  -8.076  46.394  1.00  0.00    -0.080 C 
ATOM     10  C   UNL     1     -35.820  -7.183  45.270  1.00  0.00     0.039 C 
ENDBRANCH   6   7
ENDBRANCH   5   6
ENDBRANCH   3   5
ENDBRANCH   1   2
BRANCH   1  11
ATOM     11  C   UNL     1     -36.009  -5.655  49.852  1.00  0.00     0.034 C 
BRANCH  11  12
ATOM     12  C   UNL     1     -36.117  -4.399  49.010  1.00  0.00    -0.077 C 
ATOM     13  C   UNL     1     -36.816  -3.345  49.489  1.00  0.00    -0.028 C 
ATOM     14  C   UNL     1     -35.436  -4.355  47.661  1.00  0.00     0.039 C 
BRANCH  13  15
ATOM     15  C   UNL     1     -37.035  -2.050  48.743  1.00  0.00     0.035 C 
BRANCH  15  16
ATOM     16  C   UNL     1     -38.293  -2.102  47.867  1.00  0.00     0.079 C 
BRANCH  16  17
ATOM     17  C   UNL     1     -38.013  -1.623  46.466  1.00  0.00     0.130 C 
ATOM     18  O   UNL     1     -37.749  -0.445  46.272  1.00  0.00    -0.300 OA
ATOM     19  C   UNL     1     -38.013  -2.576  45.309  1.00  0.00     0.087 C 
ENDBRANCH  16  17
ENDBRANCH  15  16
ENDBRANCH  13  15
ENDBRANCH  11  12
ENDBRANCH   1  11
TORSDOF 9
ENDMDL
MODEL 2
REMARK VINA RESULT:    -3.702     11.193     13.070
REMARK INTER + INTRA:          -8.001
REMARK INTER:                  -6.537
REMARK INTRA:                  -1.464
REMARK UNBOUND:                -2.351
REMARK SMILES CC(=O)CCC=C(C)CCC=C(C)CCC=C(C)C
REMARK SMILES IDX 10 1 11 2 12 3 13 4 14 5 15 6 16 7 18 8 17 9 19 10 9 11 7 12
REMARK SMILES IDX 6 13 8 14 5 15 4 16 2 17 3 18 1 19
REMARK H PARENT
REMARK Flexibility Score: inf
ROOT
ATOM      1  C   UNL     1     -32.520   2.475  57.380  1.00  0.00     0.032 C 
ENDROOT
BRANCH   1   2
ATOM      2  C   UNL     1     -33.145   1.489  58.342  1.00  0.00    -0.028 C 
ATOM      3  C   UNL     1     -34.060   1.804  59.287  1.00  0.00    -0.077 C 
ATOM      4  C   UNL     1     -34.562   3.215  59.477  1.00  0.00     0.039 C 
BRANCH   3   5
ATOM      5  C   UNL     1     -34.602   0.707  60.180  1.00  0.00     0.034 C 
BRANCH   5   6
ATOM      6  C   UNL     1     -33.494   0.049  61.011  1.00  0.00     0.032 C 
BRANCH   6   7
ATOM      7  C   UNL     1     -33.958  -1.268  61.591  1.00  0.00    -0.028 C 
ATOM      8  C   UNL     1     -32.644  -2.658  59.977  1.00  0.00     0.039 C 
ATOM      9  C   UNL     1     -33.602  -2.488  61.130  1.00  0.00    -0.080 C 
ATOM     10  C   UNL     1     -34.193  -3.706  61.791  1.00  0.00     0.039 C 
ENDBRANCH   6   7
ENDBRANCH   5   6
ENDBRANCH   3   5
ENDBRANCH   1   2
BRANCH   1  11
ATOM     11  C   UNL     1     -33.041   2.269  55.951  1.00  0.00     0.034 C 
BRANCH  11  12
ATOM     12  C   UNL     1     -34.407   2.893  55.746  1.00  0.00    -0.077 C 
ATOM     13  C   UNL     1     -34.507   4.239  55.656  1.00  0.00    -0.028 C 
ATOM     14  C   UNL     1     -35.619   1.996  55.639  1.00  0.00     0.039 C 
BRANCH  13  15
ATOM     15  C   UNL     1     -35.805   4.993  55.489  1.00  0.00     0.035 C 
BRANCH  15  16
ATOM     16  C   UNL     1     -35.823   5.820  54.198  1.00  0.00     0.079 C 
BRANCH  16  17
ATOM     17  C   UNL     1     -36.782   5.247  53.186  1.00  0.00     0.130 C 
ATOM     18  O   UNL     1     -36.806   5.702  52.052  1.00  0.00    -0.300 OA
ATOM     19  C   UNL     1     -37.681   4.100  53.537  1.00  0.00     0.087 C 
ENDBRANCH  16  17
ENDBRANCH  15  16
ENDBRANCH  13  15
ENDBRANCH  11  12
ENDBRANCH   1  11
TORSDOF 9
ENDMDL
MODEL 3
REMARK VINA RESULT:    -3.696      2.572      4.309
REMARK INTER + INTRA:          -7.992
REMARK INTER:                  -5.861
REMARK INTRA:                  -2.131
REMARK UNBOUND:                -2.351
REMARK SMILES CC(=O)CCC=C(C)CCC=C(C)CCC=C(C)C
REMARK SMILES IDX 10 1 11 2 12 3 13 4 14 5 15 6 16 7 18 8 17 9 19 10 9 11 7 12
REMARK SMILES IDX 6 13 8 14 5 15 4 16 2 17 3 18 1 19
REMARK H PARENT
REMARK Flexibility Score: inf
ROOT
ATOM      1  C   UNL     1     -37.351  -4.611  49.401  1.00  0.00     0.032 C 
ENDROOT
BRANCH   1   2
ATOM      2  C   UNL     1     -37.801  -5.998  49.000  1.00  0.00    -0.028 C 
ATOM      3  C   UNL     1     -38.873  -6.269  48.221  1.00  0.00    -0.077 C 
ATOM      4  C   UNL     1     -39.751  -5.176  47.659  1.00  0.00     0.039 C 
BRANCH   3   5
ATOM      5  C   UNL     1     -39.202  -7.712  47.898  1.00  0.00     0.034 C 
BRANCH   5   6
ATOM      6  C   UNL     1     -38.051  -8.409  47.162  1.00  0.00     0.032 C 
BRANCH   6   7
ATOM      7  C   UNL     1     -37.606  -9.651  47.900  1.00  0.00    -0.028 C 
ATOM      8  C   UNL     1     -35.394  -8.690  48.571  1.00  0.00     0.039 C 
ATOM      9  C   UNL     1     -36.414  -9.800  48.520  1.00  0.00    -0.080 C 
ATOM     10  C   UNL     1     -36.105 -11.123  49.171  1.00  0.00     0.039 C 
ENDBRANCH   6   7
ENDBRANCH   5   6
ENDBRANCH   3   5
ENDBRANCH   1   2
BRANCH   1  11
ATOM     11  C   UNL     1     -35.936  -4.311  48.888  1.00  0.00     0.034 C 
BRANCH  11  12
ATOM     12  C   UNL     1     -35.822  -4.496  47.387  1.00  0.00    -0.077 C 
ATOM     13  C   UNL     1     -35.100  -5.534  46.907  1.00  0.00    -0.028 C 
ATOM     14  C   UNL     1     -36.524  -3.523  46.469  1.00  0.00     0.039 C 
BRANCH  13  15
ATOM     15  C   UNL     1     -34.874  -5.816  45.441  1.00  0.00     0.035 C 
BRANCH  15  16
ATOM     16  C   UNL     1     -35.303  -7.238  45.060  1.00  0.00     0.079 C 
BRANCH  16  17
ATOM     17  C   UNL     1     -34.128  -8.075  44.625  1.00  0.00     0.130 C 
ATOM     18  O   UNL     1     -33.795  -8.084  43.449  1.00  0.00    -0.300 OA
ATOM     19  C   UNL     1     -33.332  -8.866  45.620  1.00  0.00     0.087 C 
ENDBRANCH  16  17
ENDBRANCH  15  16
ENDBRANCH  13  15
ENDBRANCH  11  12
ENDBRANCH   1  11
TORSDOF 9
ENDMDL
MODEL 4
REMARK VINA RESULT:    -3.680     12.736     15.163
REMARK INTER + INTRA:          -7.968
REMARK INTER:                  -5.734
REMARK INTRA:                  -2.233
REMARK UNBOUND:                -2.351
REMARK SMILES CC(=O)CCC=C(C)CCC=C(C)CCC=C(C)C
REMARK SMILES IDX 10 1 11 2 12 3 13 4 14 5 15 6 16 7 18 8 17 9 19 10 9 11 7 12
REMARK SMILES IDX 6 13 8 14 5 15 4 16 2 17 3 18 1 19
REMARK H PARENT
REMARK Flexibility Score: inf
ROOT
ATOM      1  C   UNL     1     -51.904   0.769  45.418  1.00  0.00     0.032 C 
ENDROOT
BRANCH   1   2
ATOM      2  C   UNL     1     -50.686  -0.111  45.586  1.00  0.00    -0.028 C 
ATOM      3  C   UNL     1     -49.682  -0.223  44.686  1.00  0.00    -0.077 C 
ATOM      4  C   UNL     1     -49.683   0.545  43.386  1.00  0.00     0.039 C 
BRANCH   3   5
ATOM      5  C   UNL     1     -48.518  -1.143  44.993  1.00  0.00     0.034 C 
BRANCH   5   6
ATOM      6  C   UNL     1     -47.238  -0.359  45.307  1.00  0.00     0.032 C 
BRANCH   6   7
ATOM      7  C   UNL     1     -47.298   0.249  46.690  1.00  0.00    -0.028 C 
ATOM      8  C   UNL     1     -47.633   2.584  45.855  1.00  0.00     0.039 C 
ATOM      9  C   UNL     1     -47.456   1.565  46.953  1.00  0.00    -0.080 C 
ATOM     10  C   UNL     1     -47.445   2.015  48.391  1.00  0.00     0.039 C 
ENDBRANCH   6   7
ENDBRANCH   5   6
ENDBRANCH   3   5
ENDBRANCH   1   2
BRANCH   1  11
ATOM     11  C   UNL     1     -52.124   1.662  46.646  1.00  0.00     0.034 C 
BRANCH  11  12
ATOM     12  C   UNL     1     -51.346   2.960  46.555  1.00  0.00    -0.077 C 
ATOM     13  C   UNL     1     -50.813   3.486  47.681  1.00  0.00    -0.028 C 
ATOM     14  C   UNL     1     -51.179   3.626  45.208  1.00  0.00     0.039 C 
BRANCH  13  15
ATOM     15  C   UNL     1     -50.048   4.787  47.740  1.00  0.00     0.035 C 
BRANCH  15  16
ATOM     16  C   UNL     1     -50.139   5.440  49.125  1.00  0.00     0.079 C 
BRANCH  16  17
ATOM     17  C   UNL     1     -49.793   6.906  49.071  1.00  0.00     0.130 C 
ATOM     18  O   UNL     1     -50.168   7.581  48.124  1.00  0.00    -0.300 OA
ATOM     19  C   UNL     1     -49.029   7.561  50.183  1.00  0.00     0.087 C 
ENDBRANCH  16  17
ENDBRANCH  15  16
ENDBRANCH  13  15
ENDBRANCH  11  12
ENDBRANCH   1  11
TORSDOF 9
ENDMDL
MODEL 5
REMARK VINA RESULT:    -3.590     11.782     14.655
REMARK INTER + INTRA:          -7.830
REMARK INTER:                  -5.742
REMARK INTRA:                  -2.088
REMARK UNBOUND:                -2.351
REMARK SMILES CC(=O)CCC=C(C)CCC=C(C)CCC=C(C)C
REMARK SMILES IDX 10 1 11 2 12 3 13 4 14 5 15 6 16 7 18 8 17 9 19 10 9 11 7 12
REMARK SMILES IDX 6 13 8 14 5 15 4 16 2 17 3 18 1 19
REMARK H PARENT
REMARK Flexibility Score: inf
ROOT
ATOM      1  C   UNL     1     -51.941   0.392  44.600  1.00  0.00     0.032 C 
ENDROOT
BRANCH   1   2
ATOM      2  C   UNL     1     -52.025   1.291  45.813  1.00  0.00    -0.028 C 
ATOM      3  C   UNL     1     -51.835   2.631  45.798  1.00  0.00    -0.077 C 
ATOM      4  C   UNL     1     -51.510   3.379  44.528  1.00  0.00     0.039 C 
BRANCH   3   5
ATOM      5  C   UNL     1     -51.956   3.405  47.094  1.00  0.00     0.034 C 
BRANCH   5   6
ATOM      6  C   UNL     1     -50.627   4.059  47.494  1.00  0.00     0.032 C 
BRANCH   6   7
ATOM      7  C   UNL     1     -49.616   3.019  47.921  1.00  0.00    -0.028 C 
ATOM      8  C   UNL     1     -48.110   3.405  45.959  1.00  0.00     0.039 C 
ATOM      9  C   UNL     1     -48.494   2.701  47.237  1.00  0.00    -0.080 C 
ATOM     10  C   UNL     1     -47.613   1.604  47.774  1.00  0.00     0.039 C 
ENDBRANCH   6   7
ENDBRANCH   5   6
ENDBRANCH   3   5
ENDBRANCH   1   2
BRANCH   1  11
ATOM     11  C   UNL     1     -51.125  -0.874  44.897  1.00  0.00     0.034 C 
BRANCH  11  12
ATOM     12  C   UNL     1     -49.633  -0.625  44.808  1.00  0.00    -0.077 C 
ATOM     13  C   UNL     1     -48.794  -1.395  45.538  1.00  0.00    -0.028 C 
ATOM     14  C   UNL     1     -49.121   0.470  43.901  1.00  0.00     0.039 C 
BRANCH  13  15
ATOM     15  C   UNL     1     -47.293  -1.233  45.574  1.00  0.00     0.035 C 
BRANCH  15  16
ATOM     16  C   UNL     1     -46.571  -2.585  45.508  1.00  0.00     0.079 C 
BRANCH  16  17
ATOM     17  C   UNL     1     -45.796  -2.861  46.770  1.00  0.00     0.130 C 
ATOM     18  O   UNL     1     -44.714  -3.425  46.703  1.00  0.00    -0.300 OA
ATOM     19  C   UNL     1     -46.312  -2.419  48.107  1.00  0.00     0.087 C 
ENDBRANCH  16  17
ENDBRANCH  15  16
ENDBRANCH  13  15
ENDBRANCH  11  12
ENDBRANCH   1  11
TORSDOF 9
ENDMDL
MODEL 6
REMARK VINA RESULT:    -3.587      1.875      3.727
REMARK INTER + INTRA:          -7.825
REMARK INTER:                  -5.249
REMARK INTRA:                  -2.576
REMARK UNBOUND:                -2.351
REMARK SMILES CC(=O)CCC=C(C)CCC=C(C)CCC=C(C)C
REMARK SMILES IDX 10 1 11 2 12 3 13 4 14 5 15 6 16 7 18 8 17 9 19 10 9 11 7 12
REMARK SMILES IDX 6 13 8 14 5 15 4 16 2 17 3 18 1 19
REMARK H PARENT
REMARK Flexibility Score: inf
ROOT
ATOM      1  C   UNL     1     -37.537  -8.431  46.370  1.00  0.00     0.032 C 
ENDROOT
BRANCH   1   2
ATOM      2  C   UNL     1     -37.818  -9.406  47.491  1.00  0.00    -0.028 C 
ATOM      3  C   UNL     1     -38.648  -9.169  48.533  1.00  0.00    -0.077 C 
ATOM      4  C   UNL     1     -39.396  -7.866  48.680  1.00  0.00     0.039 C 
BRANCH   3   5
ATOM      5  C   UNL     1     -38.836 -10.245  49.582  1.00  0.00     0.034 C 
BRANCH   5   6
ATOM      6  C   UNL     1     -38.451  -9.750  50.982  1.00  0.00     0.032 C 
BRANCH   6   7
ATOM      7  C   UNL     1     -37.004  -9.315  51.027  1.00  0.00    -0.028 C 
ATOM      8  C   UNL     1     -37.482  -7.198  52.272  1.00  0.00     0.039 C 
ATOM      9  C   UNL     1     -36.555  -8.169  51.584  1.00  0.00    -0.080 C 
ATOM     10  C   UNL     1     -35.083  -7.859  51.502  1.00  0.00     0.039 C 
ENDBRANCH   6   7
ENDBRANCH   5   6
ENDBRANCH   3   5
ENDBRANCH   1   2
BRANCH   1  11
ATOM     11  C   UNL     1     -36.090  -7.921  46.420  1.00  0.00     0.034 C 
BRANCH  11  12
ATOM     12  C   UNL     1     -35.999  -6.522  46.996  1.00  0.00    -0.077 C 
ATOM     13  C   UNL     1     -36.018  -6.362  48.339  1.00  0.00    -0.028 C 
ATOM     14  C   UNL     1     -35.880  -5.344  46.057  1.00  0.00     0.039 C 
BRANCH  13  15
ATOM     15  C   UNL     1     -35.971  -5.028  49.045  1.00  0.00     0.035 C 
BRANCH  15  16
ATOM     16  C   UNL     1     -37.353  -4.605  49.559  1.00  0.00     0.079 C 
BRANCH  16  17
ATOM     17  C   UNL     1     -38.056  -3.701  48.579  1.00  0.00     0.130 C 
ATOM     18  O   UNL     1     -37.752  -2.519  48.522  1.00  0.00    -0.300 OA
ATOM     19  C   UNL     1     -39.097  -4.238  47.642  1.00  0.00     0.087 C 
ENDBRANCH  16  17
ENDBRANCH  15  16
ENDBRANCH  13  15
ENDBRANCH  11  12
ENDBRANCH   1  11
TORSDOF 9
ENDMDL
MODEL 7
REMARK VINA RESULT:    -3.581      2.839      4.745
REMARK INTER + INTRA:          -7.816
REMARK INTER:                  -5.144
REMARK INTRA:                  -2.672
REMARK UNBOUND:                -2.351
REMARK SMILES CC(=O)CCC=C(C)CCC=C(C)CCC=C(C)C
REMARK SMILES IDX 10 1 11 2 12 3 13 4 14 5 15 6 16 7 18 8 17 9 19 10 9 11 7 12
REMARK SMILES IDX 6 13 8 14 5 15 4 16 2 17 3 18 1 19
REMARK H PARENT
REMARK Flexibility Score: inf
ROOT
ATOM      1  C   UNL     1     -34.316  -8.154  50.723  1.00  0.00     0.032 C 
ENDROOT
BRANCH   1   2
ATOM      2  C   UNL     1     -35.548  -7.800  51.525  1.00  0.00    -0.028 C 
ATOM      3  C   UNL     1     -36.349  -6.736  51.285  1.00  0.00    -0.077 C 
ATOM      4  C   UNL     1     -36.079  -5.770  50.156  1.00  0.00     0.039 C 
BRANCH   3   5
ATOM      5  C   UNL     1     -37.555  -6.508  52.172  1.00  0.00     0.034 C 
BRANCH   5   6
ATOM      6  C   UNL     1     -38.561  -7.662  52.074  1.00  0.00     0.032 C 
BRANCH   6   7
ATOM      7  C   UNL     1     -39.141  -7.763  50.682  1.00  0.00    -0.028 C 
ATOM      8  C   UNL     1     -38.248 -10.064  50.271  1.00  0.00     0.039 C 
ATOM      9  C   UNL     1     -38.996  -8.822  49.855  1.00  0.00    -0.080 C 
ATOM     10  C   UNL     1     -39.597  -8.744  48.476  1.00  0.00     0.039 C 
ENDBRANCH   6   7
ENDBRANCH   5   6
ENDBRANCH   3   5
ENDBRANCH   1   2
BRANCH   1  11
ATOM     11  C   UNL     1     -34.599  -9.293  49.734  1.00  0.00     0.034 C 
BRANCH  11  12
ATOM     12  C   UNL     1     -34.713  -8.794  48.307  1.00  0.00    -0.077 C 
ATOM     13  C   UNL     1     -35.938  -8.524  47.801  1.00  0.00    -0.028 C 
ATOM     14  C   UNL     1     -33.456  -8.602  47.491  1.00  0.00     0.039 C 
BRANCH  13  15
ATOM     15  C   UNL     1     -36.199  -8.058  46.389  1.00  0.00     0.035 C 
BRANCH  15  16
ATOM     16  C   UNL     1     -36.454  -6.547  46.325  1.00  0.00     0.079 C 
BRANCH  16  17
ATOM     17  C   UNL     1     -35.211  -5.791  45.934  1.00  0.00     0.130 C 
ATOM     18  O   UNL     1     -34.645  -6.060  44.885  1.00  0.00    -0.300 OA
ATOM     19  C   UNL     1     -34.678  -4.683  46.792  1.00  0.00     0.087 C 
ENDBRANCH  16  17
ENDBRANCH  15  16
ENDBRANCH  13  15
ENDBRANCH  11  12
ENDBRANCH   1  11
TORSDOF 9
ENDMDL
MODEL 8
REMARK VINA RESULT:    -3.496     11.165     13.702
REMARK INTER + INTRA:          -7.686
REMARK INTER:                  -4.901
REMARK INTRA:                  -2.786
REMARK UNBOUND:                -2.351
REMARK SMILES CC(=O)CCC=C(C)CCC=C(C)CCC=C(C)C
REMARK SMILES IDX 10 1 11 2 12 3 13 4 14 5 15 6 16 7 18 8 17 9 19 10 9 11 7 12
REMARK SMILES IDX 6 13 8 14 5 15 4 16 2 17 3 18 1 19
REMARK H PARENT
REMARK Flexibility Score: inf
ROOT
ATOM      1  C   UNL     1     -35.554   5.354  55.531  1.00  0.00     0.032 C 
ENDROOT
BRANCH   1   2
ATOM      2  C   UNL     1     -34.485   4.285  55.585  1.00  0.00    -0.028 C 
ATOM      3  C   UNL     1     -34.690   2.972  55.330  1.00  0.00    -0.077 C 
ATOM      4  C   UNL     1     -36.048   2.432  54.956  1.00  0.00     0.039 C 
BRANCH   3   5
ATOM      5  C   UNL     1     -33.519   2.015  55.420  1.00  0.00     0.034 C 
BRANCH   5   6
ATOM      6  C   UNL     1     -32.608   2.338  56.611  1.00  0.00     0.032 C 
BRANCH   6   7
ATOM      7  C   UNL     1     -33.163   1.758  57.893  1.00  0.00    -0.028 C 
ATOM      8  C   UNL     1     -32.922   3.889  59.183  1.00  0.00     0.039 C 
ATOM      9  C   UNL     1     -33.294   2.432  59.057  1.00  0.00    -0.080 C 
ATOM     10  C   UNL     1     -33.821   1.694  60.259  1.00  0.00     0.039 C 
ENDBRANCH   6   7
ENDBRANCH   5   6
ENDBRANCH   3   5
ENDBRANCH   1   2
BRANCH   1  11
ATOM     11  C   UNL     1     -36.022   5.750  56.937  1.00  0.00     0.034 C 
BRANCH  11  12
ATOM     12  C   UNL     1     -36.971   4.728  57.532  1.00  0.00    -0.077 C 
ATOM     13  C   UNL     1     -36.514   3.888  58.489  1.00  0.00    -0.028 C 
ATOM     14  C   UNL     1     -38.401   4.679  57.047  1.00  0.00     0.039 C 
BRANCH  13  15
ATOM     15  C   UNL     1     -37.337   2.801  59.140  1.00  0.00     0.035 C 
BRANCH  15  16
ATOM     16  C   UNL     1     -37.155   1.450  58.437  1.00  0.00     0.079 C 
BRANCH  16  17
ATOM     17  C   UNL     1     -38.480   0.840  58.059  1.00  0.00     0.130 C 
ATOM     18  O   UNL     1     -39.240   0.456  58.936  1.00  0.00    -0.300 OA
ATOM     19  C   UNL     1     -38.900   0.732  56.624  1.00  0.00     0.087 C 
ENDBRANCH  16  17
ENDBRANCH  15  16
ENDBRANCH  13  15
ENDBRANCH  11  12
ENDBRANCH   1  11
TORSDOF 9
ENDMDL
MODEL 9
REMARK VINA RESULT:    -3.465      3.349      5.920
REMARK INTER + INTRA:          -7.639
REMARK INTER:                  -5.286
REMARK INTRA:                  -2.353
REMARK UNBOUND:                -2.351
REMARK SMILES CC(=O)CCC=C(C)CCC=C(C)CCC=C(C)C
REMARK SMILES IDX 10 1 11 2 12 3 13 4 14 5 15 6 16 7 18 8 17 9 19 10 9 11 7 12
REMARK SMILES IDX 6 13 8 14 5 15 4 16 2 17 3 18 1 19
REMARK H PARENT
REMARK Flexibility Score: inf
ROOT
ATOM      1  C   UNL     1     -34.261  -7.024  44.569  1.00  0.00     0.032 C 
ENDROOT
BRANCH   1   2
ATOM      2  C   UNL     1     -33.728  -8.404  44.882  1.00  0.00    -0.028 C 
ATOM      3  C   UNL     1     -32.712  -8.667  45.736  1.00  0.00    -0.077 C 
ATOM      4  C   UNL     1     -31.990  -7.571  46.481  1.00  0.00     0.039 C 
BRANCH   3   5
ATOM      5  C   UNL     1     -32.288 -10.105  45.954  1.00  0.00     0.034 C 
BRANCH   5   6
ATOM      6  C   UNL     1     -32.177 -10.446  47.445  1.00  0.00     0.032 C 
BRANCH   6   7
ATOM      7  C   UNL     1     -33.543 -10.565  48.080  1.00  0.00    -0.028 C 
ATOM      8  C   UNL     1     -33.032  -8.959  49.931  1.00  0.00     0.039 C 
ATOM      9  C   UNL     1     -33.937  -9.921  49.201  1.00  0.00    -0.080 C 
ATOM     10  C   UNL     1     -35.321 -10.186  49.733  1.00  0.00     0.039 C 
ENDBRANCH   6   7
ENDBRANCH   5   6
ENDBRANCH   3   5
ENDBRANCH   1   2
BRANCH   1  11
ATOM     11  C   UNL     1     -35.605  -6.771  45.264  1.00  0.00     0.034 C 
BRANCH  11  12
ATOM     12  C   UNL     1     -35.428  -6.186  46.652  1.00  0.00    -0.077 C 
ATOM     13  C   UNL     1     -35.717  -6.951  47.729  1.00  0.00    -0.028 C 
ATOM     14  C   UNL     1     -34.927  -4.767  46.796  1.00  0.00     0.039 C 
BRANCH  13  15
ATOM     15  C   UNL     1     -35.622  -6.486  49.162  1.00  0.00     0.035 C 
BRANCH  15  16
ATOM     16  C   UNL     1     -36.991  -6.483  49.853  1.00  0.00     0.079 C 
BRANCH  16  17
ATOM     17  C   UNL     1     -36.895  -6.967  51.277  1.00  0.00     0.130 C 
ATOM     18  O   UNL     1     -36.236  -6.332  52.088  1.00  0.00    -0.300 OA
ATOM     19  C   UNL     1     -37.629  -8.194  51.727  1.00  0.00     0.087 C 
ENDBRANCH  16  17
ENDBRANCH  15  16
ENDBRANCH  13  15
ENDBRANCH  11  12
ENDBRANCH   1  11
TORSDOF 9
ENDMDL
