MODEL 1
REMARK VINA RESULT:    -4.048      0.000      0.000
REMARK INTER + INTRA:          -8.449
REMARK INTER:                  -6.888
REMARK INTRA:                  -1.561
REMARK UNBOUND:                -1.561
REMARK SMILES CCCCCCCCCCCCCC(=O)[O-]
REMARK SMILES IDX 8 1 9 2 10 3 11 4 12 5 13 6 14 7 15 8 16 9 7 10 6 11 5 12
REMARK SMILES IDX 4 13 3 14 2 15 1 16
REMARK H PARENT
REMARK Flexibility Score: inf
ROOT
ATOM      1  C   UNL     1      -2.128  10.267 -11.383  1.00  0.00     0.000 C 
ENDROOT
BRANCH   1   2
ATOM      2  C   UNL     1      -3.441  10.904 -11.864  1.00  0.00     0.000 C 
BRANCH   2   3
ATOM      3  C   UNL     1      -3.556  10.841 -13.393  1.00  0.00     0.000 C 
BRANCH   3   4
ATOM      4  C   UNL     1      -2.192  11.035 -14.093  1.00  0.00     0.000 C 
BRANCH   4   5
ATOM      5  C   UNL     1      -1.938  10.031 -15.233  1.00  0.00     0.006 C 
BRANCH   5   6
ATOM      6  C   UNL     1      -2.280  10.569 -16.630  1.00  0.00     0.053 C 
BRANCH   6   7
ATOM      7  C   UNL     1      -3.585  10.029 -17.131  1.00  0.00     0.041 C 
ATOM      8  O   UNL     1      -4.650  10.680 -16.962  1.00  0.00    -0.550 OA
ATOM      9  O   UNL     1      -3.628   8.796 -17.768  1.00  0.00    -0.550 OA
ENDBRANCH   6   7
ENDBRANCH   5   6
ENDBRANCH   4   5
ENDBRANCH   3   4
ENDBRANCH   2   3
ENDBRANCH   1   2
BRANCH   1  10
ATOM     10  C   UNL     1      -1.324  11.192 -10.457  1.00  0.00     0.000 C 
BRANCH  10  11
ATOM     11  C   UNL     1      -0.227  11.969 -11.201  1.00  0.00    -0.000 C 
BRANCH  11  12
ATOM     12  C   UNL     1      -0.369  13.477 -10.968  1.00  0.00    -0.000 C 
BRANCH  12  13
ATOM     13  C   UNL     1      -0.254  14.252 -12.287  1.00  0.00    -0.000 C 
BRANCH  13  14
ATOM     14  C   UNL     1      -1.422  15.231 -12.455  1.00  0.00    -0.000 C 
BRANCH  14  15
ATOM     15  C   UNL     1      -2.758  14.484 -12.529  1.00  0.00    -0.003 C 
ATOM     16  C   UNL     1      -3.403  14.644 -13.903  1.00  0.00     0.004 C 
ENDBRANCH  14  15
ENDBRANCH  13  14
ENDBRANCH  12  13
ENDBRANCH  11  12
ENDBRANCH  10  11
ENDBRANCH   1  10
TORSDOF 12
ENDMDL
MODEL 2
REMARK VINA RESULT:    -3.974      5.601      7.878
REMARK INTER + INTRA:          -8.323
REMARK INTER:                  -7.054
REMARK INTRA:                  -1.269
REMARK UNBOUND:                -1.561
REMARK SMILES CCCCCCCCCCCCCC(=O)[O-]
REMARK SMILES IDX 8 1 9 2 10 3 11 4 12 5 13 6 14 7 15 8 16 9 7 10 6 11 5 12
REMARK SMILES IDX 4 13 3 14 2 15 1 16
REMARK H PARENT
REMARK Flexibility Score: inf
ROOT
ATOM      1  C   UNL     1      -1.881  11.216  -9.515  1.00  0.00     0.000 C 
ENDROOT
BRANCH   1   2
ATOM      2  C   UNL     1      -2.854  12.239 -10.120  1.00  0.00     0.000 C 
BRANCH   2   3
ATOM      3  C   UNL     1      -2.987  13.474  -9.217  1.00  0.00     0.000 C 
BRANCH   3   4
ATOM      4  C   UNL     1      -4.320  13.491  -8.438  1.00  0.00     0.000 C 
BRANCH   4   5
ATOM      5  C   UNL     1      -4.231  14.215  -7.081  1.00  0.00     0.006 C 
BRANCH   5   6
ATOM      6  C   UNL     1      -5.519  14.142  -6.247  1.00  0.00     0.053 C 
BRANCH   6   7
ATOM      7  C   UNL     1      -6.715  14.593  -7.028  1.00  0.00     0.041 C 
ATOM      8  O   UNL     1      -6.846  15.803  -7.353  1.00  0.00    -0.550 OA
ATOM      9  O   UNL     1      -7.699  13.678  -7.382  1.00  0.00    -0.550 OA
ENDBRANCH   6   7
ENDBRANCH   5   6
ENDBRANCH   4   5
ENDBRANCH   3   4
ENDBRANCH   2   3
ENDBRANCH   1   2
BRANCH   1  10
ATOM     10  C   UNL     1      -2.490   9.808  -9.412  1.00  0.00     0.000 C 
BRANCH  10  11
ATOM     11  C   UNL     1      -3.988   9.834  -9.072  1.00  0.00    -0.000 C 
BRANCH  11  12
ATOM     12  C   UNL     1      -4.742   8.742  -9.840  1.00  0.00    -0.000 C 
BRANCH  12  13
ATOM     13  C   UNL     1      -5.885   9.341 -10.670  1.00  0.00    -0.000 C 
BRANCH  13  14
ATOM     14  C   UNL     1      -6.280  10.726 -10.144  1.00  0.00    -0.000 C 
BRANCH  14  15
ATOM     15  C   UNL     1      -7.759  10.760  -9.743  1.00  0.00    -0.003 C 
ATOM     16  C   UNL     1      -8.460   9.457 -10.117  1.00  0.00     0.004 C 
ENDBRANCH  14  15
ENDBRANCH  13  14
ENDBRANCH  12  13
ENDBRANCH  11  12
ENDBRANCH  10  11
ENDBRANCH   1  10
TORSDOF 12
ENDMDL
MODEL 3
REMARK VINA RESULT:    -3.962     14.841     17.015
REMARK INTER + INTRA:          -8.304
REMARK INTER:                  -6.514
REMARK INTRA:                  -1.789
REMARK UNBOUND:                -1.561
REMARK SMILES CCCCCCCCCCCCCC(=O)[O-]
REMARK SMILES IDX 8 1 9 2 10 3 11 4 12 5 13 6 14 7 15 8 16 9 7 10 6 11 5 12
REMARK SMILES IDX 4 13 3 14 2 15 1 16
REMARK H PARENT
REMARK Flexibility Score: inf
ROOT
ATOM      1  C   UNL     1     -15.860  17.900 -17.581  1.00  0.00     0.000 C 
ENDROOT
BRANCH   1   2
ATOM      2  C   UNL     1     -15.368  18.034 -19.030  1.00  0.00     0.000 C 
BRANCH   2   3
ATOM      3  C   UNL     1     -16.214  17.175 -19.981  1.00  0.00     0.000 C 
BRANCH   3   4
ATOM      4  C   UNL     1     -17.150  18.028 -20.865  1.00  0.00     0.000 C 
BRANCH   4   5
ATOM      5  C   UNL     1     -18.634  17.628 -20.753  1.00  0.00     0.006 C 
BRANCH   5   6
ATOM      6  C   UNL     1     -19.461  18.540 -19.834  1.00  0.00     0.053 C 
BRANCH   6   7
ATOM      7  C   UNL     1     -19.561  17.987 -18.445  1.00  0.00     0.041 C 
ATOM      8  O   UNL     1     -19.342  16.766 -18.227  1.00  0.00    -0.550 OA
ATOM      9  O   UNL     1     -19.919  18.819 -17.391  1.00  0.00    -0.550 OA
ENDBRANCH   6   7
ENDBRANCH   5   6
ENDBRANCH   4   5
ENDBRANCH   3   4
ENDBRANCH   2   3
ENDBRANCH   1   2
BRANCH   1  10
ATOM     10  C   UNL     1     -16.384  19.226 -17.007  1.00  0.00     0.000 C 
BRANCH  10  11
ATOM     11  C   UNL     1     -16.438  20.346 -18.058  1.00  0.00    -0.000 C 
BRANCH  11  12
ATOM     12  C   UNL     1     -15.990  21.683 -17.457  1.00  0.00    -0.000 C 
BRANCH  12  13
ATOM     13  C   UNL     1     -14.561  22.031 -17.894  1.00  0.00    -0.000 C 
BRANCH  13  14
ATOM     14  C   UNL     1     -13.649  22.239 -16.679  1.00  0.00    -0.000 C 
BRANCH  14  15
ATOM     15  C   UNL     1     -13.001  20.918 -16.247  1.00  0.00    -0.003 C 
ATOM     16  C   UNL     1     -12.268  20.258 -17.411  1.00  0.00     0.004 C 
ENDBRANCH  14  15
ENDBRANCH  13  14
ENDBRANCH  12  13
ENDBRANCH  11  12
ENDBRANCH  10  11
ENDBRANCH   1  10
TORSDOF 12
ENDMDL
MODEL 4
REMARK VINA RESULT:    -3.940     12.279     14.206
REMARK INTER + INTRA:          -8.265
REMARK INTER:                  -6.661
REMARK INTRA:                  -1.604
REMARK UNBOUND:                -1.561
REMARK SMILES CCCCCCCCCCCCCC(=O)[O-]
REMARK SMILES IDX 8 1 9 2 10 3 11 4 12 5 13 6 14 7 15 8 16 9 7 10 6 11 5 12
REMARK SMILES IDX 4 13 3 14 2 15 1 16
REMARK H PARENT
REMARK Flexibility Score: inf
ROOT
ATOM      1  C   UNL     1     -12.106  17.841 -14.275  1.00  0.00     0.000 C 
ENDROOT
BRANCH   1   2
ATOM      2  C   UNL     1     -13.460  17.115 -14.274  1.00  0.00     0.000 C 
BRANCH   2   3
ATOM      3  C   UNL     1     -14.592  18.060 -13.848  1.00  0.00     0.000 C 
BRANCH   3   4
ATOM      4  C   UNL     1     -15.797  18.003 -14.811  1.00  0.00     0.000 C 
BRANCH   4   5
ATOM      5  C   UNL     1     -17.019  17.268 -14.227  1.00  0.00     0.006 C 
BRANCH   5   6
ATOM      6  C   UNL     1     -17.058  15.767 -14.546  1.00  0.00     0.053 C 
BRANCH   6   7
ATOM      7  C   UNL     1     -16.800  14.931 -13.330  1.00  0.00     0.041 C 
ATOM      8  O   UNL     1     -16.435  15.470 -12.252  1.00  0.00    -0.550 OA
ATOM      9  O   UNL     1     -16.944  13.550 -13.393  1.00  0.00    -0.550 OA
ENDBRANCH   6   7
ENDBRANCH   5   6
ENDBRANCH   4   5
ENDBRANCH   3   4
ENDBRANCH   2   3
ENDBRANCH   1   2
BRANCH   1  10
ATOM     10  C   UNL     1     -12.254  19.370 -14.207  1.00  0.00     0.000 C 
BRANCH  10  11
ATOM     11  C   UNL     1     -11.934  20.056 -15.544  1.00  0.00    -0.000 C 
BRANCH  11  12
ATOM     12  C   UNL     1     -13.162  20.793 -16.089  1.00  0.00    -0.000 C 
BRANCH  12  13
ATOM     13  C   UNL     1     -13.677  20.130 -17.374  1.00  0.00    -0.000 C 
BRANCH  13  14
ATOM     14  C   UNL     1     -12.674  19.096 -17.900  1.00  0.00    -0.000 C 
BRANCH  14  15
ATOM     15  C   UNL     1     -13.373  17.774 -18.234  1.00  0.00    -0.003 C 
ATOM     16  C   UNL     1     -12.965  17.269 -19.615  1.00  0.00     0.004 C 
ENDBRANCH  14  15
ENDBRANCH  13  14
ENDBRANCH  12  13
ENDBRANCH  11  12
ENDBRANCH  10  11
ENDBRANCH   1  10
TORSDOF 12
ENDMDL
MODEL 5
REMARK VINA RESULT:    -3.910     15.223     17.487
REMARK INTER + INTRA:          -8.214
REMARK INTER:                  -6.695
REMARK INTRA:                  -1.519
REMARK UNBOUND:                -1.561
REMARK SMILES CCCCCCCCCCCCCC(=O)[O-]
REMARK SMILES IDX 8 1 9 2 10 3 11 4 12 5 13 6 14 7 15 8 16 9 7 10 6 11 5 12
REMARK SMILES IDX 4 13 3 14 2 15 1 16
REMARK H PARENT
REMARK Flexibility Score: inf
ROOT
ATOM      1  C   UNL     1     -19.604  17.197 -18.028  1.00  0.00     0.000 C 
ENDROOT
BRANCH   1   2
ATOM      2  C   UNL     1     -19.138  18.415 -17.215  1.00  0.00     0.000 C 
BRANCH   2   3
ATOM      3  C   UNL     1     -18.111  18.005 -16.151  1.00  0.00     0.000 C 
BRANCH   3   4
ATOM      4  C   UNL     1     -16.660  18.078 -16.676  1.00  0.00     0.000 C 
BRANCH   4   5
ATOM      5  C   UNL     1     -16.243  19.487 -17.138  1.00  0.00     0.006 C 
BRANCH   5   6
ATOM      6  C   UNL     1     -14.837  19.904 -16.684  1.00  0.00     0.053 C 
BRANCH   6   7
ATOM      7  C   UNL     1     -14.525  21.320 -17.063  1.00  0.00     0.041 C 
ATOM      8  O   UNL     1     -15.310  21.969 -17.804  1.00  0.00    -0.550 OA
ATOM      9  O   UNL     1     -13.354  21.918 -16.613  1.00  0.00    -0.550 OA
ENDBRANCH   6   7
ENDBRANCH   5   6
ENDBRANCH   4   5
ENDBRANCH   3   4
ENDBRANCH   2   3
ENDBRANCH   1   2
BRANCH   1  10
ATOM     10  C   UNL     1     -19.207  17.287 -19.511  1.00  0.00     0.000 C 
BRANCH  10  11
ATOM     11  C   UNL     1     -18.688  18.679 -19.902  1.00  0.00    -0.000 C 
BRANCH  11  12
ATOM     12  C   UNL     1     -17.335  18.578 -20.615  1.00  0.00    -0.000 C 
BRANCH  12  13
ATOM     13  C   UNL     1     -16.855  17.123 -20.683  1.00  0.00    -0.000 C 
BRANCH  13  14
ATOM     14  C   UNL     1     -15.557  16.933 -19.890  1.00  0.00    -0.000 C 
BRANCH  14  15
ATOM     15  C   UNL     1     -14.667  15.867 -20.539  1.00  0.00    -0.003 C 
ATOM     16  C   UNL     1     -14.928  15.772 -22.040  1.00  0.00     0.004 C 
ENDBRANCH  14  15
ENDBRANCH  13  14
ENDBRANCH  12  13
ENDBRANCH  11  12
ENDBRANCH  10  11
ENDBRANCH   1  10
TORSDOF 12
ENDMDL
MODEL 6
REMARK VINA RESULT:    -3.907      5.158      6.677
REMARK INTER + INTRA:          -8.210
REMARK INTER:                  -6.824
REMARK INTRA:                  -1.386
REMARK UNBOUND:                -1.561
REMARK SMILES CCCCCCCCCCCCCC(=O)[O-]
REMARK SMILES IDX 8 1 9 2 10 3 11 4 12 5 13 6 14 7 15 8 16 9 7 10 6 11 5 12
REMARK SMILES IDX 4 13 3 14 2 15 1 16
REMARK H PARENT
REMARK Flexibility Score: inf
ROOT
ATOM      1  C   UNL     1      -2.449   9.769  -8.671  1.00  0.00     0.000 C 
ENDROOT
BRANCH   1   2
ATOM      2  C   UNL     1      -3.461  10.119  -9.772  1.00  0.00     0.000 C 
BRANCH   2   3
ATOM      3  C   UNL     1      -3.733  11.630  -9.811  1.00  0.00     0.000 C 
BRANCH   3   4
ATOM      4  C   UNL     1      -3.437  12.314  -8.458  1.00  0.00     0.000 C 
BRANCH   4   5
ATOM      5  C   UNL     1      -4.110  13.691  -8.305  1.00  0.00     0.006 C 
BRANCH   5   6
ATOM      6  C   UNL     1      -4.420  14.079  -6.852  1.00  0.00     0.053 C 
BRANCH   6   7
ATOM      7  C   UNL     1      -5.755  14.748  -6.726  1.00  0.00     0.041 C 
ATOM      8  O   UNL     1      -6.776  14.240  -7.260  1.00  0.00    -0.550 OA
ATOM      9  O   UNL     1      -5.868  15.948  -6.034  1.00  0.00    -0.550 OA
ENDBRANCH   6   7
ENDBRANCH   5   6
ENDBRANCH   4   5
ENDBRANCH   3   4
ENDBRANCH   2   3
ENDBRANCH   1   2
BRANCH   1  10
ATOM     10  C   UNL     1      -1.038   9.512  -9.223  1.00  0.00     0.000 C 
BRANCH  10  11
ATOM     11  C   UNL     1      -0.106  10.722  -9.055  1.00  0.00    -0.000 C 
BRANCH  11  12
ATOM     12  C   UNL     1       0.117  11.432 -10.395  1.00  0.00    -0.000 C 
BRANCH  12  13
ATOM     13  C   UNL     1      -0.214  12.926 -10.289  1.00  0.00    -0.000 C 
BRANCH  13  14
ATOM     14  C   UNL     1      -0.510  13.524 -11.669  1.00  0.00    -0.000 C 
BRANCH  14  15
ATOM     15  C   UNL     1      -1.848  14.272 -11.668  1.00  0.00    -0.003 C 
ATOM     16  C   UNL     1      -1.733  15.609 -12.394  1.00  0.00     0.004 C 
ENDBRANCH  14  15
ENDBRANCH  13  14
ENDBRANCH  12  13
ENDBRANCH  11  12
ENDBRANCH  10  11
ENDBRANCH   1  10
TORSDOF 12
ENDMDL
MODEL 7
REMARK VINA RESULT:    -3.903      3.857      5.806
REMARK INTER + INTRA:          -8.202
REMARK INTER:                  -6.337
REMARK INTRA:                  -1.865
REMARK UNBOUND:                -1.561
REMARK SMILES CCCCCCCCCCCCCC(=O)[O-]
REMARK SMILES IDX 8 1 9 2 10 3 11 4 12 5 13 6 14 7 15 8 16 9 7 10 6 11 5 12
REMARK SMILES IDX 4 13 3 14 2 15 1 16
REMARK H PARENT
REMARK Flexibility Score: inf
ROOT
ATOM      1  C   UNL     1      -1.954  13.858 -11.102  1.00  0.00     0.000 C 
ENDROOT
BRANCH   1   2
ATOM      2  C   UNL     1      -3.409  13.565 -10.707  1.00  0.00     0.000 C 
BRANCH   2   3
ATOM      3  C   UNL     1      -3.499  13.095  -9.248  1.00  0.00     0.000 C 
BRANCH   3   4
ATOM      4  C   UNL     1      -4.238  11.746  -9.110  1.00  0.00     0.000 C 
BRANCH   4   5
ATOM      5  C   UNL     1      -4.452  11.022 -10.454  1.00  0.00     0.006 C 
BRANCH   5   6
ATOM      6  C   UNL     1      -4.473   9.491 -10.343  1.00  0.00     0.053 C 
BRANCH   6   7
ATOM      7  C   UNL     1      -5.868   8.946 -10.405  1.00  0.00     0.041 C 
ATOM      8  O   UNL     1      -6.073   7.708 -10.310  1.00  0.00    -0.550 OA
ATOM      9  O   UNL     1      -6.942   9.809 -10.587  1.00  0.00    -0.550 OA
ENDBRANCH   6   7
ENDBRANCH   5   6
ENDBRANCH   4   5
ENDBRANCH   3   4
ENDBRANCH   2   3
ENDBRANCH   1   2
BRANCH   1  10
ATOM     10  C   UNL     1      -1.402  12.850 -12.123  1.00  0.00     0.000 C 
BRANCH  10  11
ATOM     11  C   UNL     1      -0.276  11.978 -11.545  1.00  0.00    -0.000 C 
BRANCH  11  12
ATOM     12  C   UNL     1      -0.849  10.763 -10.805  1.00  0.00    -0.000 C 
BRANCH  12  13
ATOM     13  C   UNL     1      -0.517  10.824  -9.308  1.00  0.00    -0.000 C 
BRANCH  13  14
ATOM     14  C   UNL     1      -1.115   9.624  -8.563  1.00  0.00    -0.000 C 
BRANCH  14  15
ATOM     15  C   UNL     1      -1.152   8.383  -9.461  1.00  0.00    -0.003 C 
ATOM     16  C   UNL     1      -0.953   7.108  -8.646  1.00  0.00     0.004 C 
ENDBRANCH  14  15
ENDBRANCH  13  14
ENDBRANCH  12  13
ENDBRANCH  11  12
ENDBRANCH  10  11
ENDBRANCH   1  10
TORSDOF 12
ENDMDL
MODEL 8
REMARK VINA RESULT:    -3.902      1.819      2.466
REMARK INTER + INTRA:          -8.201
REMARK INTER:                  -6.584
REMARK INTRA:                  -1.616
REMARK UNBOUND:                -1.561
REMARK SMILES CCCCCCCCCCCCCC(=O)[O-]
REMARK SMILES IDX 8 1 9 2 10 3 11 4 12 5 13 6 14 7 15 8 16 9 7 10 6 11 5 12
REMARK SMILES IDX 4 13 3 14 2 15 1 16
REMARK H PARENT
REMARK Flexibility Score: inf
ROOT
ATOM      1  C   UNL     1      -2.569  11.711 -13.482  1.00  0.00     0.000 C 
ENDROOT
BRANCH   1   2
ATOM      2  C   UNL     1      -3.947  12.261 -13.083  1.00  0.00     0.000 C 
BRANCH   2   3
ATOM      3  C   UNL     1      -4.805  12.549 -14.324  1.00  0.00     0.000 C 
BRANCH   3   4
ATOM      4  C   UNL     1      -3.987  13.189 -15.466  1.00  0.00     0.000 C 
BRANCH   4   5
ATOM      5  C   UNL     1      -4.279  12.577 -16.850  1.00  0.00     0.006 C 
BRANCH   5   6
ATOM      6  C   UNL     1      -4.574  11.070 -16.818  1.00  0.00     0.053 C 
BRANCH   6   7
ATOM      7  C   UNL     1      -3.369  10.258 -17.183  1.00  0.00     0.041 C 
ATOM      8  O   UNL     1      -2.211  10.714 -16.992  1.00  0.00    -0.550 OA
ATOM      9  O   UNL     1      -3.527   9.001 -17.755  1.00  0.00    -0.550 OA
ENDBRANCH   6   7
ENDBRANCH   5   6
ENDBRANCH   4   5
ENDBRANCH   3   4
ENDBRANCH   2   3
ENDBRANCH   1   2
BRANCH   1  10
ATOM     10  C   UNL     1      -1.411  12.537 -12.900  1.00  0.00     0.000 C 
BRANCH  10  11
ATOM     11  C   UNL     1      -1.896  13.732 -12.064  1.00  0.00    -0.000 C 
BRANCH  11  12
ATOM     12  C   UNL     1      -1.101  14.998 -12.406  1.00  0.00    -0.000 C 
BRANCH  12  13
ATOM     13  C   UNL     1      -2.017  16.227 -12.456  1.00  0.00    -0.000 C 
BRANCH  13  14
ATOM     14  C   UNL     1      -3.351  15.892 -13.135  1.00  0.00    -0.000 C 
BRANCH  14  15
ATOM     15  C   UNL     1      -4.524  16.086 -12.167  1.00  0.00    -0.003 C 
ATOM     16  C   UNL     1      -5.861  15.988 -12.895  1.00  0.00     0.004 C 
ENDBRANCH  14  15
ENDBRANCH  13  14
ENDBRANCH  12  13
ENDBRANCH  11  12
ENDBRANCH  10  11
ENDBRANCH   1  10
TORSDOF 12
ENDMDL
MODEL 9
REMARK VINA RESULT:    -3.898      2.046      3.856
REMARK INTER + INTRA:          -8.194
REMARK INTER:                  -6.066
REMARK INTRA:                  -2.128
REMARK UNBOUND:                -1.561
REMARK SMILES CCCCCCCCCCCCCC(=O)[O-]
REMARK SMILES IDX 8 1 9 2 10 3 11 4 12 5 13 6 14 7 15 8 16 9 7 10 6 11 5 12
REMARK SMILES IDX 4 13 3 14 2 15 1 16
REMARK H PARENT
REMARK Flexibility Score: inf
ROOT
ATOM      1  C   UNL     1       0.125  10.588 -10.221  1.00  0.00     0.000 C 
ENDROOT
BRANCH   1   2
ATOM      2  C   UNL     1      -0.034  12.091  -9.948  1.00  0.00     0.000 C 
BRANCH   2   3
ATOM      3  C   UNL     1      -0.656  12.807 -11.156  1.00  0.00     0.000 C 
BRANCH   3   4
ATOM      4  C   UNL     1      -0.713  11.905 -12.408  1.00  0.00     0.000 C 
BRANCH   4   5
ATOM      5  C   UNL     1      -2.125  11.783 -13.014  1.00  0.00     0.006 C 
BRANCH   5   6
ATOM      6  C   UNL     1      -2.413  10.421 -13.661  1.00  0.00     0.053 C 
BRANCH   6   7
ATOM      7  C   UNL     1      -2.559  10.530 -15.149  1.00  0.00     0.041 C 
ATOM      8  O   UNL     1      -3.685  10.758 -15.663  1.00  0.00    -0.550 OA
ATOM      9  O   UNL     1      -1.451  10.359 -15.970  1.00  0.00    -0.550 OA
ENDBRANCH   6   7
ENDBRANCH   5   6
ENDBRANCH   4   5
ENDBRANCH   3   4
ENDBRANCH   2   3
ENDBRANCH   1   2
BRANCH   1  10
ATOM     10  C   UNL     1      -0.574   9.717  -9.165  1.00  0.00     0.000 C 
BRANCH  10  11
ATOM     11  C   UNL     1      -1.763   8.930  -9.738  1.00  0.00    -0.000 C 
BRANCH  11  12
ATOM     12  C   UNL     1      -3.088   9.441  -9.159  1.00  0.00    -0.000 C 
BRANCH  12  13
ATOM     13  C   UNL     1      -3.980  10.028 -10.260  1.00  0.00    -0.000 C 
BRANCH  13  14
ATOM     14  C   UNL     1      -4.173  11.537 -10.067  1.00  0.00    -0.000 C 
BRANCH  14  15
ATOM     15  C   UNL     1      -3.480  12.019  -8.787  1.00  0.00    -0.003 C 
ATOM     16  C   UNL     1      -3.448  13.544  -8.720  1.00  0.00     0.004 C 
ENDBRANCH  14  15
ENDBRANCH  13  14
ENDBRANCH  12  13
ENDBRANCH  11  12
ENDBRANCH  10  11
ENDBRANCH   1  10
TORSDOF 12
ENDMDL
