MODEL 1
REMARK VINA RESULT:    -3.806      0.000      0.000
REMARK INTER + INTRA:          -4.060
REMARK INTER:                  -4.696
REMARK INTRA:                   0.635
REMARK UNBOUND:                 0.635
REMARK SMILES C=C1[C@@H]2CC[C@H]3[C@@H]2C(C)(C)CCC[C@@]13C
REMARK SMILES IDX 14 1 6 2 7 3 3 4 2 5 1 6 4 7 5 8 15 9 8 10 9 11 10 12 11 13
REMARK SMILES IDX 13 15 12 16
REMARK H PARENT
REMARK Flexibility Score: 80.00
ROOT
ATOM      1  C   UNL     1     136.890 133.795 134.206  1.00  0.00    -0.008 C 
ATOM      2  C   UNL     1     135.612 133.887 133.282  1.00  0.00     0.003 C 
ATOM      3  C   UNL     1     134.494 133.199 134.093  1.00  0.00     0.006 C 
ATOM      4  C   UNL     1     135.316 131.933 134.337  1.00  0.00     0.019 C 
ATOM      5  C   UNL     1     136.592 132.490 134.901  1.00  0.00    -0.068 C 
ATOM      6  C   UNL     1     137.370 131.875 135.800  1.00  0.00     0.009 C 
ATOM      7  C   UNL     1     135.627 131.500 132.884  1.00  0.00     0.008 C 
ATOM      8  C   UNL     1     135.728 132.850 132.132  1.00  0.00     0.005 C 
ATOM      9  C   UNL     1     138.222 133.704 133.414  1.00  0.00     0.016 C 
ENDROOT
BRANCH   3  10
ATOM     10  C   UNL     1     133.823 133.955 135.318  1.00  0.00    -0.032 C 
ATOM     11  C   UNL     1     133.597 133.002 136.520  1.00  0.00     0.011 C 
ATOM     12  C   UNL     1     132.411 134.428 134.872  1.00  0.00     0.011 C 
BRANCH  10  13
ATOM     13  C   UNL     1     134.561 135.245 135.777  1.00  0.00     0.007 CG0
ATOM     14  G   UNL     1     135.981 135.050 136.301  1.00  0.00     0.000 G0
ENDBRANCH  10  13
ENDBRANCH   3  10
BRANCH   1  15
ATOM     15  C   UNL     1     137.013 134.996 135.183  1.00  0.00     0.011 C 
BRANCH  15  16
ATOM     16  C   UNL     1     135.980 135.054 136.303  1.00  0.00     0.001 CG0
ATOM     17  G   UNL     1     134.559 135.245 135.778  1.00  0.00     0.000 G0
ENDBRANCH  15  16
ENDBRANCH   1  15
TORSDOF 0
ENDMDL
MODEL 2
REMARK VINA RESULT:    -3.804      2.937      4.797
REMARK INTER + INTRA:          -4.059
REMARK INTER:                  -4.693
REMARK INTRA:                   0.634
REMARK UNBOUND:                 0.635
REMARK SMILES C=C1[C@@H]2CC[C@H]3[C@@H]2C(C)(C)CCC[C@@]13C
REMARK SMILES IDX 14 1 6 2 7 3 3 4 2 5 1 6 4 7 5 8 15 9 8 10 9 11 10 12 11 13
REMARK SMILES IDX 13 15 12 16
REMARK H PARENT
REMARK Flexibility Score: 80.00
ROOT
ATOM      1  C   UNL     1     138.926 136.897 134.109  1.00  0.00    -0.008 C 
ATOM      2  C   UNL     1     138.833 135.642 133.155  1.00  0.00     0.003 C 
ATOM      3  C   UNL     1     139.503 134.499 133.946  1.00  0.00     0.006 C 
ATOM      4  C   UNL     1     140.774 135.304 134.222  1.00  0.00     0.019 C 
ATOM      5  C   UNL     1     140.222 136.572 134.811  1.00  0.00    -0.068 C 
ATOM      6  C   UNL     1     140.834 137.323 135.734  1.00  0.00     0.009 C 
ATOM      7  C   UNL     1     141.225 135.646 132.782  1.00  0.00     0.008 C 
ATOM      8  C   UNL     1     139.883 135.776 132.018  1.00  0.00     0.005 C 
ATOM      9  C   UNL     1     139.037 138.246 133.350  1.00  0.00     0.016 C 
ENDROOT
BRANCH   3  10
ATOM     10  C   UNL     1     138.729 133.806 135.148  1.00  0.00    -0.032 C 
ATOM     11  C   UNL     1     139.668 133.541 136.352  1.00  0.00     0.011 C 
ATOM     12  C   UNL     1     138.247 132.411 134.662  1.00  0.00     0.011 C 
BRANCH  10  13
ATOM     13  C   UNL     1     137.442 134.546 135.612  1.00  0.00     0.007 CG0
ATOM     14  G   UNL     1     137.647 135.947 136.182  1.00  0.00     0.000 G0
ENDBRANCH  10  13
ENDBRANCH   3  10
BRANCH   1  15
ATOM     15  C   UNL     1     137.716 137.007 135.076  1.00  0.00     0.011 C 
BRANCH  15  16
ATOM     16  C   UNL     1     137.637 135.947 136.170  1.00  0.00     0.001 CG0
ATOM     17  G   UNL     1     137.438 134.542 135.608  1.00  0.00     0.000 G0
ENDBRANCH  15  16
ENDBRANCH   1  15
TORSDOF 0
ENDMDL
MODEL 3
REMARK VINA RESULT:    -3.795      4.478      6.702
REMARK INTER + INTRA:          -4.047
REMARK INTER:                  -4.674
REMARK INTRA:                   0.627
REMARK UNBOUND:                 0.635
REMARK SMILES C=C1[C@@H]2CC[C@H]3[C@@H]2C(C)(C)CCC[C@@]13C
REMARK SMILES IDX 14 1 6 2 7 3 3 4 2 5 1 6 4 7 5 8 15 9 8 10 9 11 10 12 11 13
REMARK SMILES IDX 13 15 12 16
REMARK H PARENT
REMARK Flexibility Score: 80.00
ROOT
ATOM      1  C   UNL     1     135.736 138.884 134.209  1.00  0.00    -0.008 C 
ATOM      2  C   UNL     1     137.013 138.829 133.282  1.00  0.00     0.003 C 
ATOM      3  C   UNL     1     138.147 139.425 134.143  1.00  0.00     0.006 C 
ATOM      4  C   UNL     1     137.357 140.690 134.482  1.00  0.00     0.019 C 
ATOM      5  C   UNL     1     136.065 140.124 135.002  1.00  0.00    -0.068 C 
ATOM      6  C   UNL     1     135.301 140.689 135.944  1.00  0.00     0.009 C 
ATOM      7  C   UNL     1     137.060 141.239 133.066  1.00  0.00     0.008 C 
ATOM      8  C   UNL     1     136.926 139.953 132.213  1.00  0.00     0.005 C 
ATOM      9  C   UNL     1     134.408 139.069 133.426  1.00  0.00     0.016 C 
ENDROOT
BRANCH   3  10
ATOM     10  C   UNL     1     138.795 138.561 135.308  1.00  0.00    -0.032 C 
ATOM     11  C   UNL     1     139.050 139.416 136.576  1.00  0.00     0.011 C 
ATOM     12  C   UNL     1     140.192 138.081 134.825  1.00  0.00     0.011 C 
BRANCH  10  13
ATOM     13  C   UNL     1     138.019 137.263 135.672  1.00  0.00     0.007 CG0
ATOM     14  G   UNL     1     136.603 137.461 136.205  1.00  0.00     0.000 G0
ENDBRANCH  10  13
ENDBRANCH   3  10
BRANCH   1  15
ATOM     15  C   UNL     1     135.580 137.616 135.092  1.00  0.00     0.011 C 
BRANCH  15  16
ATOM     16  C   UNL     1     136.603 137.451 136.211  1.00  0.00     0.001 CG0
ATOM     17  G   UNL     1     138.024 137.274 135.681  1.00  0.00     0.000 G0
ENDBRANCH  15  16
ENDBRANCH   1  15
TORSDOF 0
ENDMDL
MODEL 4
REMARK VINA RESULT:    -3.792      2.883      4.746
REMARK INTER + INTRA:          -4.043
REMARK INTER:                  -4.670
REMARK INTRA:                   0.627
REMARK UNBOUND:                 0.635
REMARK SMILES C=C1[C@@H]2CC[C@H]3[C@@H]2C(C)(C)CCC[C@@]13C
REMARK SMILES IDX 14 1 6 2 7 3 3 4 2 5 1 6 4 7 5 8 15 9 8 10 9 11 10 12 11 13
REMARK SMILES IDX 13 15 12 16
REMARK H PARENT
REMARK Flexibility Score: 80.00
ROOT
ATOM      1  C   UNL     1     133.787 135.734 134.355  1.00  0.00    -0.008 C 
ATOM      2  C   UNL     1     133.874 137.025 133.450  1.00  0.00     0.003 C 
ATOM      3  C   UNL     1     133.222 138.139 134.294  1.00  0.00     0.006 C 
ATOM      4  C   UNL     1     131.950 137.331 134.557  1.00  0.00     0.019 C 
ATOM      5  C   UNL     1     132.504 136.038 135.088  1.00  0.00    -0.068 C 
ATOM      6  C   UNL     1     131.900 135.255 135.989  1.00  0.00     0.009 C 
ATOM      7  C   UNL     1     131.477 137.048 133.111  1.00  0.00     0.008 C 
ATOM      8  C   UNL     1     132.807 136.940 132.324  1.00  0.00     0.005 C 
ATOM      9  C   UNL     1     133.657 134.415 133.545  1.00  0.00     0.016 C 
ENDROOT
BRANCH   3  10
ATOM     10  C   UNL     1     134.017 138.781 135.510  1.00  0.00    -0.032 C 
ATOM     11  C   UNL     1     133.096 139.008 136.736  1.00  0.00     0.011 C 
ATOM     12  C   UNL     1     134.505 140.190 135.071  1.00  0.00     0.011 C 
BRANCH  10  13
ATOM     13  C   UNL     1     135.304 138.014 135.930  1.00  0.00     0.007 CG0
ATOM     14  G   UNL     1     135.096 136.590 136.438  1.00  0.00     0.000 G0
ENDBRANCH  10  13
ENDBRANCH   3  10
BRANCH   1  15
ATOM     15  C   UNL     1     135.010 135.579 135.300  1.00  0.00     0.011 C 
BRANCH  15  16
ATOM     16  C   UNL     1     135.108 136.591 136.437  1.00  0.00     0.001 CG0
ATOM     17  G   UNL     1     135.316 138.017 135.933  1.00  0.00     0.000 G0
ENDBRANCH  15  16
ENDBRANCH   1  15
TORSDOF 0
ENDMDL
MODEL 5
REMARK VINA RESULT:    -3.573      3.565      5.832
REMARK INTER + INTRA:          -3.773
REMARK INTER:                  -4.408
REMARK INTRA:                   0.635
REMARK UNBOUND:                 0.635
REMARK SMILES C=C1[C@@H]2CC[C@H]3[C@@H]2C(C)(C)CCC[C@@]13C
REMARK SMILES IDX 14 1 6 2 7 3 3 4 2 5 1 6 4 7 5 8 15 9 8 10 9 11 10 12 11 13
REMARK SMILES IDX 13 15 12 16
REMARK H PARENT
REMARK Flexibility Score: 80.00
ROOT
ATOM      1  C   UNL     1     138.643 136.062 135.866  1.00  0.00    -0.008 C 
ATOM      2  C   UNL     1     138.479 137.585 136.250  1.00  0.00     0.003 C 
ATOM      3  C   UNL     1     138.999 138.356 135.020  1.00  0.00     0.006 C 
ATOM      4  C   UNL     1     140.325 137.595 134.980  1.00  0.00     0.019 C 
ATOM      5  C   UNL     1     139.866 136.164 134.988  1.00  0.00    -0.068 C 
ATOM      6  C   UNL     1     140.500 135.148 134.390  1.00  0.00     0.009 C 
ATOM      7  C   UNL     1     140.876 137.890 136.396  1.00  0.00     0.008 C 
ATOM      8  C   UNL     1     139.592 137.987 137.257  1.00  0.00     0.005 C 
ATOM      9  C   UNL     1     138.918 135.140 137.085  1.00  0.00     0.016 C 
ENDROOT
BRANCH   3  10
ATOM     10  C   UNL     1     138.104 138.456 133.711  1.00  0.00    -0.032 C 
ATOM     11  C   UNL     1     138.953 138.274 132.426  1.00  0.00     0.011 C 
ATOM     12  C   UNL     1     137.520 139.895 133.641  1.00  0.00     0.011 C 
BRANCH  10  13
ATOM     13  C   UNL     1     136.869 137.511 133.687  1.00  0.00     0.007 CG0
ATOM     14  G   UNL     1     137.173 136.016 133.706  1.00  0.00     0.000 G0
ENDBRANCH  10  13
ENDBRANCH   3  10
BRANCH   1  15
ATOM     15  C   UNL     1     137.403 135.492 135.125  1.00  0.00     0.011 C 
BRANCH  15  16
ATOM     16  C   UNL     1     137.171 136.015 133.711  1.00  0.00     0.001 CG0
ATOM     17  G   UNL     1     136.882 137.514 133.684  1.00  0.00     0.000 G0
ENDBRANCH  15  16
ENDBRANCH   1  15
TORSDOF 0
ENDMDL
MODEL 6
REMARK VINA RESULT:    -3.571      4.884      6.349
REMARK INTER + INTRA:          -3.771
REMARK INTER:                  -4.409
REMARK INTRA:                   0.638
REMARK UNBOUND:                 0.635
REMARK SMILES C=C1[C@@H]2CC[C@H]3[C@@H]2C(C)(C)CCC[C@@]13C
REMARK SMILES IDX 14 1 6 2 7 3 3 4 2 5 1 6 4 7 5 8 15 9 8 10 9 11 10 12 11 13
REMARK SMILES IDX 13 15 12 16
REMARK H PARENT
REMARK Flexibility Score: 80.00
ROOT
ATOM      1  C   UNL     1     137.011 138.567 133.536  1.00  0.00    -0.008 C 
ATOM      2  C   UNL     1     137.314 138.041 134.994  1.00  0.00     0.003 C 
ATOM      3  C   UNL     1     136.822 139.167 135.926  1.00  0.00     0.006 C 
ATOM      4  C   UNL     1     137.618 140.251 135.197  1.00  0.00     0.019 C 
ATOM      5  C   UNL     1     137.194 140.046 133.770  1.00  0.00    -0.068 C 
ATOM      6  C   UNL     1     137.092 141.012 132.850  1.00  0.00     0.009 C 
ATOM      7  C   UNL     1     139.055 139.691 135.315  1.00  0.00     0.008 C 
ATOM      8  C   UNL     1     138.837 138.159 135.281  1.00  0.00     0.005 C 
ATOM      9  C   UNL     1     138.015 138.051 132.470  1.00  0.00     0.016 C 
ENDROOT
BRANCH   3  10
ATOM     10  C   UNL     1     135.267 139.363 136.180  1.00  0.00    -0.032 C 
ATOM     11  C   UNL     1     134.874 140.863 136.179  1.00  0.00     0.011 C 
ATOM     12  C   UNL     1     134.946 138.836 137.607  1.00  0.00     0.011 C 
BRANCH  10  13
ATOM     13  C   UNL     1     134.339 138.556 135.227  1.00  0.00     0.007 CG0
ATOM     14  G   UNL     1     134.436 138.911 133.745  1.00  0.00     0.000 G0
ENDBRANCH  10  13
ENDBRANCH   3  10
BRANCH   1  15
ATOM     15  C   UNL     1     135.585 138.195 133.048  1.00  0.00     0.011 C 
BRANCH  15  16
ATOM     16  C   UNL     1     134.432 138.904 133.752  1.00  0.00     0.001 CG0
ATOM     17  G   UNL     1     134.347 138.550 135.234  1.00  0.00     0.000 G0
ENDBRANCH  15  16
ENDBRANCH   1  15
TORSDOF 0
ENDMDL
MODEL 7
REMARK VINA RESULT:    -3.540      2.812      4.440
REMARK INTER + INTRA:          -3.732
REMARK INTER:                  -4.362
REMARK INTRA:                   0.630
REMARK UNBOUND:                 0.635
REMARK SMILES C=C1[C@@H]2CC[C@H]3[C@@H]2C(C)(C)CCC[C@@]13C
REMARK SMILES IDX 14 1 6 2 7 3 3 4 2 5 1 6 4 7 5 8 15 9 8 10 9 11 10 12 11 13
REMARK SMILES IDX 13 15 12 16
REMARK H PARENT
REMARK Flexibility Score: 80.00
ROOT
ATOM      1  C   UNL     1     133.642 136.290 136.753  1.00  0.00    -0.008 C 
ATOM      2  C   UNL     1     132.666 135.250 137.431  1.00  0.00     0.003 C 
ATOM      3  C   UNL     1     133.579 134.089 137.876  1.00  0.00     0.006 C 
ATOM      4  C   UNL     1     134.214 133.930 136.493  1.00  0.00     0.019 C 
ATOM      5  C   UNL     1     134.663 135.332 136.190  1.00  0.00    -0.068 C 
ATOM      6  C   UNL     1     135.738 135.657 135.462  1.00  0.00     0.009 C 
ATOM      7  C   UNL     1     132.962 133.669 135.622  1.00  0.00     0.008 C 
ATOM      8  C   UNL     1     131.864 134.499 136.332  1.00  0.00     0.005 C 
ATOM      9  C   UNL     1     132.978 137.114 135.617  1.00  0.00     0.016 C 
ENDROOT
BRANCH   3  10
ATOM     10  C   UNL     1     134.504 134.253 139.157  1.00  0.00    -0.032 C 
ATOM     11  C   UNL     1     135.912 133.650 138.923  1.00  0.00     0.011 C 
ATOM     12  C   UNL     1     133.868 133.430 140.312  1.00  0.00     0.011 C 
BRANCH  10  13
ATOM     13  C   UNL     1     134.616 135.706 139.703  1.00  0.00     0.007 CG0
ATOM     14  G   UNL     1     135.250 136.725 138.760  1.00  0.00     0.000 G0
ENDBRANCH  10  13
ENDBRANCH   3  10
BRANCH   1  15
ATOM     15  C   UNL     1     134.243 137.300 137.768  1.00  0.00     0.011 C 
BRANCH  15  16
ATOM     16  C   UNL     1     135.247 136.728 138.764  1.00  0.00     0.001 CG0
ATOM     17  G   UNL     1     134.619 135.698 139.699  1.00  0.00     0.000 G0
ENDBRANCH  15  16
ENDBRANCH   1  15
TORSDOF 0
ENDMDL
MODEL 8
REMARK VINA RESULT:    -3.538      3.492      5.265
REMARK INTER + INTRA:          -3.730
REMARK INTER:                  -4.368
REMARK INTRA:                   0.638
REMARK UNBOUND:                 0.635
REMARK SMILES C=C1[C@@H]2CC[C@H]3[C@@H]2C(C)(C)CCC[C@@]13C
REMARK SMILES IDX 14 1 6 2 7 3 3 4 2 5 1 6 4 7 5 8 15 9 8 10 9 11 10 12 11 13
REMARK SMILES IDX 13 15 12 16
REMARK H PARENT
REMARK Flexibility Score: 80.00
ROOT
ATOM      1  C   UNL     1     138.492 135.543 133.628  1.00  0.00    -0.008 C 
ATOM      2  C   UNL     1     138.049 135.238 135.112  1.00  0.00     0.003 C 
ATOM      3  C   UNL     1     139.212 135.761 135.982  1.00  0.00     0.006 C 
ATOM      4  C   UNL     1     140.274 134.985 135.201  1.00  0.00     0.019 C 
ATOM      5  C   UNL     1     139.985 135.395 133.784  1.00  0.00    -0.068 C 
ATOM      6  C   UNL     1     140.899 135.513 132.814  1.00  0.00     0.009 C 
ATOM      7  C   UNL     1     139.754 133.536 135.356  1.00  0.00     0.008 C 
ATOM      8  C   UNL     1     138.217 133.720 135.401  1.00  0.00     0.005 C 
ATOM      9  C   UNL     1     137.944 134.521 132.595  1.00  0.00     0.016 C 
ENDROOT
BRANCH   3  10
ATOM     10  C   UNL     1     139.386 137.322 136.217  1.00  0.00    -0.032 C 
ATOM     11  C   UNL     1     140.873 137.749 136.129  1.00  0.00     0.011 C 
ATOM     12  C   UNL     1     138.932 137.638 137.670  1.00  0.00     0.011 C 
BRANCH  10  13
ATOM     13  C   UNL     1     138.504 138.225 135.307  1.00  0.00     0.007 CG0
ATOM     14  G   UNL     1     138.783 138.135 133.809  1.00  0.00     0.000 G0
ENDBRANCH  10  13
ENDBRANCH   3  10
BRANCH   1  15
ATOM     15  C   UNL     1     138.062 136.958 133.152  1.00  0.00     0.011 C 
BRANCH  15  16
ATOM     16  C   UNL     1     138.783 138.131 133.809  1.00  0.00     0.001 CG0
ATOM     17  G   UNL     1     138.509 138.217 135.309  1.00  0.00     0.000 G0
ENDBRANCH  15  16
ENDBRANCH   1  15
TORSDOF 0
ENDMDL
MODEL 9
REMARK VINA RESULT:    -3.523      3.830      6.333
REMARK INTER + INTRA:          -3.711
REMARK INTER:                  -4.346
REMARK INTRA:                   0.635
REMARK UNBOUND:                 0.635
REMARK SMILES C=C1[C@@H]2CC[C@H]3[C@@H]2C(C)(C)CCC[C@@]13C
REMARK SMILES IDX 14 1 6 2 7 3 3 4 2 5 1 6 4 7 5 8 15 9 8 10 9 11 10 12 11 13
REMARK SMILES IDX 13 15 12 16
REMARK H PARENT
REMARK Flexibility Score: 80.00
ROOT
ATOM      1  C   UNL     1     134.254 137.995 136.020  1.00  0.00    -0.008 C 
ATOM      2  C   UNL     1     135.219 138.825 135.085  1.00  0.00     0.003 C 
ATOM      3  C   UNL     1     136.301 139.380 136.035  1.00  0.00     0.006 C 
ATOM      4  C   UNL     1     135.281 139.981 137.004  1.00  0.00     0.019 C 
ATOM      5  C   UNL     1     134.386 138.807 137.285  1.00  0.00    -0.068 C 
ATOM      6  C   UNL     1     133.747 138.585 138.439  1.00  0.00     0.009 C 
ATOM      7  C   UNL     1     134.494 140.920 136.059  1.00  0.00     0.008 C 
ATOM      8  C   UNL     1     134.541 140.171 134.704  1.00  0.00     0.005 C 
ATOM      9  C   UNL     1     132.781 137.978 135.530  1.00  0.00     0.016 C 
ENDROOT
BRANCH   3  10
ATOM     10  C   UNL     1     137.443 138.422 136.582  1.00  0.00    -0.032 C 
ATOM     11  C   UNL     1     137.734 138.681 138.083  1.00  0.00     0.011 C 
ATOM     12  C   UNL     1     138.756 138.764 135.824  1.00  0.00     0.011 C 
BRANCH  10  13
ATOM     13  C   UNL     1     137.206 136.906 136.327  1.00  0.00     0.007 CG0
ATOM     14  G   UNL     1     135.979 136.300 137.005  1.00  0.00     0.000 G0
ENDBRANCH  10  13
ENDBRANCH   3  10
BRANCH   1  15
ATOM     15  C   UNL     1     134.704 136.519 136.189  1.00  0.00     0.011 C 
BRANCH  15  16
ATOM     16  C   UNL     1     135.980 136.298 136.995  1.00  0.00     0.001 CG0
ATOM     17  G   UNL     1     137.207 136.913 136.326  1.00  0.00     0.000 G0
ENDBRANCH  15  16
ENDBRANCH   1  15
TORSDOF 0
ENDMDL
