MODEL 1
REMARK VINA RESULT:    -0.144      0.000      0.000
REMARK INTER + INTRA:          -0.538
REMARK INTER:                  -0.178
REMARK INTRA:                  -0.360
REMARK UNBOUND:                -0.360
REMARK SMILES O=c1c(O)c(-c2cc(O)c(O)c(O)c2)oc2cc(O)cc(O)c12
REMARK SMILES IDX 5 1 3 2 2 3 1 4 23 5 21 6 20 7 18 8 17 9 16 10 15 11 6 12
REMARK SMILES IDX 7 13 8 14 14 15 10 16 12 17 9 18 11 20 13 22 4 24 22 26
REMARK SMILES IDX 19 28
REMARK H PARENT 9 19 11 21 13 23 4 25 22 27 19 29
REMARK Flexibility Score: inf
ROOT
ATOM      1  C   UNL     1      13.151  -9.769 -28.139  1.00  0.00     0.180 A 
ATOM      2  C   UNL     1      13.682 -10.477 -27.044  1.00  0.00     0.208 A 
ATOM      3  C   UNL     1      13.182 -11.757 -26.757  1.00  0.00     0.238 A 
ATOM      4  O   UNL     1      13.658 -12.405 -25.785  1.00  0.00    -0.285 OA
ATOM      5  C   UNL     1      12.152 -12.297 -27.552  1.00  0.00     0.111 A 
ATOM      6  C   UNL     1      11.590 -13.578 -27.328  1.00  0.00     0.134 A 
ATOM      7  C   UNL     1      10.559 -14.042 -28.159  1.00  0.00     0.093 A 
ATOM      8  C   UNL     1      10.080 -13.252 -29.207  1.00  0.00     0.123 A 
ATOM      9  C   UNL     1      10.631 -11.986 -29.434  1.00  0.00     0.094 A 
ATOM     10  C   UNL     1      11.659 -11.507 -28.617  1.00  0.00     0.146 A 
ATOM     11  O   UNL     1      12.168 -10.305 -28.859  1.00  0.00    -0.452 OA
ENDROOT
BRANCH   1  12
ATOM     12  C   UNL     1      13.638  -8.422 -28.517  1.00  0.00     0.029 A 
ATOM     13  C   UNL     1      12.914  -7.291 -28.118  1.00  0.00     0.062 A 
ATOM     14  C   UNL     1      13.343  -6.007 -28.480  1.00  0.00     0.162 A 
ATOM     15  C   UNL     1      14.780  -8.257 -29.316  1.00  0.00     0.062 A 
ATOM     16  C   UNL     1      14.497  -5.841 -29.260  1.00  0.00     0.200 A 
ATOM     17  C   UNL     1      15.218  -6.980 -29.688  1.00  0.00     0.162 A 
BRANCH  14  18
ATOM     18  O   UNL     1      12.626  -4.887 -28.065  1.00  0.00    -0.504 OA
ATOM     19  H   UNL     1      13.034  -3.959 -28.078  1.00  0.00     0.293 HD
ENDBRANCH  14  18
BRANCH  16  20
ATOM     20  O   UNL     1      14.886  -4.539 -29.585  1.00  0.00    -0.502 OA
ATOM     21  H   UNL     1      14.400  -3.710 -29.277  1.00  0.00     0.293 HD
ENDBRANCH  16  20
BRANCH  17  22
ATOM     22  O   UNL     1      16.363  -6.893 -30.484  1.00  0.00    -0.504 OA
ATOM     23  H   UNL     1      16.394  -6.431 -31.382  1.00  0.00     0.293 HD
ENDBRANCH  17  22
ENDBRANCH   1  12
BRANCH   2  24
ATOM     24  O   UNL     1      14.668  -9.899 -26.241  1.00  0.00    -0.502 OA
ATOM     25  H   UNL     1      15.657 -10.073 -26.384  1.00  0.00     0.293 HD
ENDBRANCH   2  24
BRANCH   6  26
ATOM     26  O   UNL     1      12.047 -14.390 -26.289  1.00  0.00    -0.507 OA
ATOM     27  H   UNL     1      12.874 -14.154 -25.753  1.00  0.00     0.293 HD
ENDBRANCH   6  26
BRANCH   8  28
ATOM     28  O   UNL     1       9.055 -13.735 -30.016  1.00  0.00    -0.508 OA
ATOM     29  H   UNL     1       8.594 -14.616 -29.819  1.00  0.00     0.293 HD
ENDBRANCH   8  28
TORSDOF 7
ENDMDL
MODEL 2
REMARK VINA RESULT:     0.341      0.089      1.762
REMARK INTER + INTRA:           0.061
REMARK INTER:                   0.396
REMARK INTRA:                  -0.336
REMARK UNBOUND:                -0.360
REMARK SMILES O=c1c(O)c(-c2cc(O)c(O)c(O)c2)oc2cc(O)cc(O)c12
REMARK SMILES IDX 5 1 3 2 2 3 1 4 23 5 21 6 20 7 18 8 17 9 16 10 15 11 6 12
REMARK SMILES IDX 7 13 8 14 14 15 10 16 12 17 9 18 11 20 13 22 4 24 22 26
REMARK SMILES IDX 19 28
REMARK H PARENT 9 19 11 21 13 23 4 25 22 27 19 29
REMARK Flexibility Score: inf
ROOT
ATOM      1  C   UNL     1      13.123  -9.775 -28.157  1.00  0.00     0.180 A 
ATOM      2  C   UNL     1      13.709 -10.485 -27.093  1.00  0.00     0.208 A 
ATOM      3  C   UNL     1      13.250 -11.781 -26.807  1.00  0.00     0.238 A 
ATOM      4  O   UNL     1      13.775 -12.431 -25.862  1.00  0.00    -0.285 OA
ATOM      5  C   UNL     1      12.205 -12.335 -27.574  1.00  0.00     0.111 A 
ATOM      6  C   UNL     1      11.682 -13.631 -27.350  1.00  0.00     0.134 A 
ATOM      7  C   UNL     1      10.635 -14.108 -28.152  1.00  0.00     0.093 A 
ATOM      8  C   UNL     1      10.100 -13.316 -29.170  1.00  0.00     0.123 A 
ATOM      9  C   UNL     1      10.613 -12.034 -29.397  1.00  0.00     0.094 A 
ATOM     10  C   UNL     1      11.657 -11.542 -28.610  1.00  0.00     0.146 A 
ATOM     11  O   UNL     1      12.129 -10.324 -28.851  1.00  0.00    -0.452 OA
ENDROOT
BRANCH   1  12
ATOM     12  C   UNL     1      13.565  -8.412 -28.532  1.00  0.00     0.029 A 
ATOM     13  C   UNL     1      14.716  -8.251 -29.313  1.00  0.00     0.062 A 
ATOM     14  C   UNL     1      15.166  -6.971 -29.664  1.00  0.00     0.162 A 
ATOM     15  C   UNL     1      12.886  -7.272 -28.071  1.00  0.00     0.062 A 
ATOM     16  C   UNL     1      14.475  -5.833 -29.222  1.00  0.00     0.200 A 
ATOM     17  C   UNL     1      13.327  -5.987 -28.411  1.00  0.00     0.162 A 
BRANCH  14  18
ATOM     18  O   UNL     1      16.304  -6.821 -30.455  1.00  0.00    -0.504 OA
ATOM     19  H   UNL     1      16.245  -6.756 -31.464  1.00  0.00     0.293 HD
ENDBRANCH  14  18
BRANCH  16  20
ATOM     20  O   UNL     1      14.961  -4.581 -29.607  1.00  0.00    -0.502 OA
ATOM     21  H   UNL     1      15.930  -4.390 -29.816  1.00  0.00     0.293 HD
ENDBRANCH  16  20
BRANCH  17  22
ATOM     22  O   UNL     1      12.601  -4.900 -27.917  1.00  0.00    -0.504 OA
ATOM     23  H   UNL     1      12.545  -4.655 -26.939  1.00  0.00     0.293 HD
ENDBRANCH  17  22
ENDBRANCH   1  12
BRANCH   2  24
ATOM     24  O   UNL     1      14.709  -9.895 -26.316  1.00  0.00    -0.502 OA
ATOM     25  H   UNL     1      14.773  -8.891 -26.184  1.00  0.00     0.293 HD
ENDBRANCH   2  24
BRANCH   6  26
ATOM     26  O   UNL     1      12.195 -14.447 -26.340  1.00  0.00    -0.507 OA
ATOM     27  H   UNL     1      12.555 -15.374 -26.535  1.00  0.00     0.293 HD
ENDBRANCH   6  26
BRANCH   8  28
ATOM     28  O   UNL     1       9.059 -13.812 -29.951  1.00  0.00    -0.508 OA
ATOM     29  H   UNL     1       9.096 -13.785 -30.964  1.00  0.00     0.293 HD
ENDBRANCH   8  28
TORSDOF 7
ENDMDL
MODEL 3
REMARK VINA RESULT:     0.769      1.846      2.955
REMARK INTER + INTRA:           0.589
REMARK INTER:                   0.851
REMARK INTRA:                  -0.262
REMARK UNBOUND:                -0.360
REMARK SMILES O=c1c(O)c(-c2cc(O)c(O)c(O)c2)oc2cc(O)cc(O)c12
REMARK SMILES IDX 5 1 3 2 2 3 1 4 23 5 21 6 20 7 18 8 17 9 16 10 15 11 6 12
REMARK SMILES IDX 7 13 8 14 14 15 10 16 12 17 9 18 11 20 13 22 4 24 22 26
REMARK SMILES IDX 19 28
REMARK H PARENT 9 19 11 21 13 23 4 25 22 27 19 29
REMARK Flexibility Score: inf
ROOT
ATOM      1  C   UNL     1      12.412  -9.793 -27.893  1.00  0.00     0.180 A 
ATOM      2  C   UNL     1      12.099 -10.882 -28.728  1.00  0.00     0.208 A 
ATOM      3  C   UNL     1      11.546 -12.038 -28.156  1.00  0.00     0.238 A 
ATOM      4  O   UNL     1      11.252 -13.017 -28.895  1.00  0.00    -0.285 OA
ATOM      5  C   UNL     1      11.334 -12.094 -26.763  1.00  0.00     0.111 A 
ATOM      6  C   UNL     1      10.785 -13.222 -26.107  1.00  0.00     0.134 A 
ATOM      7  C   UNL     1      10.613 -13.203 -24.715  1.00  0.00     0.093 A 
ATOM      8  C   UNL     1      10.979 -12.081 -23.968  1.00  0.00     0.123 A 
ATOM      9  C   UNL     1      11.523 -10.963 -24.610  1.00  0.00     0.094 A 
ATOM     10  C   UNL     1      11.700 -10.963 -25.996  1.00  0.00     0.146 A 
ATOM     11  O   UNL     1      12.212  -9.886 -26.581  1.00  0.00    -0.452 OA
ENDROOT
BRANCH   1  12
ATOM     12  C   UNL     1      12.981  -8.533 -28.424  1.00  0.00     0.029 A 
ATOM     13  C   UNL     1      12.173  -7.391 -28.503  1.00  0.00     0.062 A 
ATOM     14  C   UNL     1      12.682  -6.192 -29.020  1.00  0.00     0.162 A 
ATOM     15  C   UNL     1      14.299  -8.472 -28.906  1.00  0.00     0.062 A 
ATOM     16  C   UNL     1      14.005  -6.126 -29.480  1.00  0.00     0.200 A 
ATOM     17  C   UNL     1      14.819  -7.282 -29.429  1.00  0.00     0.162 A 
BRANCH  14  18
ATOM     18  O   UNL     1      11.875  -5.057 -29.080  1.00  0.00    -0.504 OA
ATOM     19  H   UNL     1      11.094  -4.927 -28.447  1.00  0.00     0.293 HD
ENDBRANCH  14  18
BRANCH  16  20
ATOM     20  O   UNL     1      14.465  -4.905 -29.978  1.00  0.00    -0.502 OA
ATOM     21  H   UNL     1      14.288  -4.012 -29.540  1.00  0.00     0.293 HD
ENDBRANCH  16  20
BRANCH  17  22
ATOM     22  O   UNL     1      16.138  -7.296 -29.887  1.00  0.00    -0.504 OA
ATOM     23  H   UNL     1      16.721  -8.121 -29.911  1.00  0.00     0.293 HD
ENDBRANCH  17  22
ENDBRANCH   1  12
BRANCH   2  24
ATOM     24  O   UNL     1      12.365 -10.821 -30.098  1.00  0.00    -0.502 OA
ATOM     25  H   UNL     1      11.716 -10.411 -30.760  1.00  0.00     0.293 HD
ENDBRANCH   2  24
BRANCH   6  26
ATOM     26  O   UNL     1      10.409 -14.358 -26.826  1.00  0.00    -0.507 OA
ATOM     27  H   UNL     1      10.310 -14.342 -27.834  1.00  0.00     0.293 HD
ENDBRANCH   6  26
BRANCH   8  28
ATOM     28  O   UNL     1      10.800 -12.088 -22.586  1.00  0.00    -0.508 OA
ATOM     29  H   UNL     1      11.411 -12.619 -21.975  1.00  0.00     0.293 HD
ENDBRANCH   8  28
TORSDOF 7
ENDMDL
MODEL 4
REMARK VINA RESULT:     1.164      1.919      2.761
REMARK INTER + INTRA:           1.076
REMARK INTER:                   0.642
REMARK INTRA:                   0.434
REMARK UNBOUND:                -0.360
REMARK SMILES O=c1c(O)c(-c2cc(O)c(O)c(O)c2)oc2cc(O)cc(O)c12
REMARK SMILES IDX 5 1 3 2 2 3 1 4 23 5 21 6 20 7 18 8 17 9 16 10 15 11 6 12
REMARK SMILES IDX 7 13 8 14 14 15 10 16 12 17 9 18 11 20 13 22 4 24 22 26
REMARK SMILES IDX 19 28
REMARK H PARENT 9 19 11 21 13 23 4 25 22 27 19 29
REMARK Flexibility Score: inf
ROOT
ATOM      1  C   UNL     1      13.265  -9.693 -27.635  1.00  0.00     0.180 A 
ATOM      2  C   UNL     1      11.977  -9.893 -27.103  1.00  0.00     0.208 A 
ATOM      3  C   UNL     1      11.666 -11.135 -26.528  1.00  0.00     0.238 A 
ATOM      4  O   UNL     1      10.519 -11.323 -26.039  1.00  0.00    -0.285 OA
ATOM      5  C   UNL     1      12.636 -12.158 -26.512  1.00  0.00     0.111 A 
ATOM      6  C   UNL     1      12.403 -13.439 -25.956  1.00  0.00     0.134 A 
ATOM      7  C   UNL     1      13.418 -14.407 -25.986  1.00  0.00     0.093 A 
ATOM      8  C   UNL     1      14.658 -14.121 -26.561  1.00  0.00     0.123 A 
ATOM      9  C   UNL     1      14.895 -12.857 -27.113  1.00  0.00     0.094 A 
ATOM     10  C   UNL     1      13.897 -11.879 -27.090  1.00  0.00     0.146 A 
ATOM     11  O   UNL     1      14.151 -10.685 -27.615  1.00  0.00    -0.452 OA
ENDROOT
BRANCH   1  12
ATOM     12  C   UNL     1      13.674  -8.404 -28.241  1.00  0.00     0.029 A 
ATOM     13  C   UNL     1      12.912  -7.255 -27.995  1.00  0.00     0.062 A 
ATOM     14  C   UNL     1      13.267  -6.028 -28.573  1.00  0.00     0.162 A 
ATOM     15  C   UNL     1      14.778  -8.322 -29.105  1.00  0.00     0.062 A 
ATOM     16  C   UNL     1      14.383  -5.942 -29.418  1.00  0.00     0.200 A 
ATOM     17  C   UNL     1      15.142  -7.104 -29.692  1.00  0.00     0.162 A 
BRANCH  14  18
ATOM     18  O   UNL     1      12.513  -4.886 -28.310  1.00  0.00    -0.504 OA
ATOM     19  H   UNL     1      11.500  -4.898 -28.347  1.00  0.00     0.293 HD
ENDBRANCH  14  18
BRANCH  16  20
ATOM     20  O   UNL     1      14.698  -4.694 -29.961  1.00  0.00    -0.502 OA
ATOM     21  H   UNL     1      15.587  -4.231 -29.838  1.00  0.00     0.293 HD
ENDBRANCH  16  20
BRANCH  17  22
ATOM     22  O   UNL     1      16.252  -7.097 -30.540  1.00  0.00    -0.504 OA
ATOM     23  H   UNL     1      16.958  -7.820 -30.553  1.00  0.00     0.293 HD
ENDBRANCH  17  22
ENDBRANCH   1  12
BRANCH   2  24
ATOM     24  O   UNL     1      11.018  -8.880 -27.176  1.00  0.00    -0.502 OA
ATOM     25  H   UNL     1      10.645  -8.424 -26.351  1.00  0.00     0.293 HD
ENDBRANCH   2  24
BRANCH   6  26
ATOM     26  O   UNL     1      11.175 -13.756 -25.374  1.00  0.00    -0.507 OA
ATOM     27  H   UNL     1      10.595 -14.507 -25.730  1.00  0.00     0.293 HD
ENDBRANCH   6  26
BRANCH   8  28
ATOM     28  O   UNL     1      15.648 -15.100 -26.581  1.00  0.00    -0.508 OA
ATOM     29  H   UNL     1      15.575 -15.916 -27.177  1.00  0.00     0.293 HD
ENDBRANCH   8  28
TORSDOF 7
ENDMDL
MODEL 5
REMARK VINA RESULT:     1.272      1.984      3.301
REMARK INTER + INTRA:           1.209
REMARK INTER:                   0.932
REMARK INTRA:                   0.277
REMARK UNBOUND:                -0.360
REMARK SMILES O=c1c(O)c(-c2cc(O)c(O)c(O)c2)oc2cc(O)cc(O)c12
REMARK SMILES IDX 5 1 3 2 2 3 1 4 23 5 21 6 20 7 18 8 17 9 16 10 15 11 6 12
REMARK SMILES IDX 7 13 8 14 14 15 10 16 12 17 9 18 11 20 13 22 4 24 22 26
REMARK SMILES IDX 19 28
REMARK H PARENT 9 19 11 21 13 23 4 25 22 27 19 29
REMARK Flexibility Score: inf
ROOT
ATOM      1  C   UNL     1      13.271  -9.728 -27.568  1.00  0.00     0.180 A 
ATOM      2  C   UNL     1      12.010  -9.941 -26.981  1.00  0.00     0.208 A 
ATOM      3  C   UNL     1      11.739 -11.184 -26.387  1.00  0.00     0.238 A 
ATOM      4  O   UNL     1      10.616 -11.384 -25.849  1.00  0.00    -0.285 OA
ATOM      5  C   UNL     1      12.721 -12.195 -26.408  1.00  0.00     0.111 A 
ATOM      6  C   UNL     1      12.528 -13.476 -25.836  1.00  0.00     0.134 A 
ATOM      7  C   UNL     1      13.552 -14.432 -25.905  1.00  0.00     0.093 A 
ATOM      8  C   UNL     1      14.763 -14.133 -26.535  1.00  0.00     0.123 A 
ATOM      9  C   UNL     1      14.961 -12.870 -27.101  1.00  0.00     0.094 A 
ATOM     10  C   UNL     1      13.953 -11.904 -27.041  1.00  0.00     0.146 A 
ATOM     11  O   UNL     1      14.169 -10.710 -27.582  1.00  0.00    -0.452 OA
ENDROOT
BRANCH   1  12
ATOM     12  C   UNL     1      13.638  -8.439 -28.198  1.00  0.00     0.029 A 
ATOM     13  C   UNL     1      14.669  -8.403 -29.146  1.00  0.00     0.062 A 
ATOM     14  C   UNL     1      15.049  -7.193 -29.741  1.00  0.00     0.162 A 
ATOM     15  C   UNL     1      13.014  -7.238 -27.821  1.00  0.00     0.062 A 
ATOM     16  C   UNL     1      14.409  -5.998 -29.381  1.00  0.00     0.200 A 
ATOM     17  C   UNL     1      13.386  -6.021 -28.405  1.00  0.00     0.162 A 
BRANCH  14  18
ATOM     18  O   UNL     1      16.065  -7.170 -30.695  1.00  0.00    -0.504 OA
ATOM     19  H   UNL     1      15.898  -7.449 -31.655  1.00  0.00     0.293 HD
ENDBRANCH  14  18
BRANCH  16  20
ATOM     20  O   UNL     1      14.820  -4.820 -30.011  1.00  0.00    -0.502 OA
ATOM     21  H   UNL     1      14.209  -4.222 -30.547  1.00  0.00     0.293 HD
ENDBRANCH  16  20
BRANCH  17  22
ATOM     22  O   UNL     1      12.720  -4.868 -27.982  1.00  0.00    -0.504 OA
ATOM     23  H   UNL     1      12.887  -3.947 -28.362  1.00  0.00     0.293 HD
ENDBRANCH  17  22
ENDBRANCH   1  12
BRANCH   2  24
ATOM     24  O   UNL     1      11.036  -8.940 -27.018  1.00  0.00    -0.502 OA
ATOM     25  H   UNL     1      11.258  -7.960 -26.888  1.00  0.00     0.293 HD
ENDBRANCH   2  24
BRANCH   6  26
ATOM     26  O   UNL     1      11.329 -13.804 -25.201  1.00  0.00    -0.507 OA
ATOM     27  H   UNL     1      11.166 -14.727 -24.815  1.00  0.00     0.293 HD
ENDBRANCH   6  26
BRANCH   8  28
ATOM     28  O   UNL     1      15.763 -15.101 -26.592  1.00  0.00    -0.508 OA
ATOM     29  H   UNL     1      15.557 -16.063 -26.833  1.00  0.00     0.293 HD
ENDBRANCH   8  28
TORSDOF 7
ENDMDL
