MODEL 1
REMARK VINA RESULT:    -5.589      0.000      0.000
REMARK INTER + INTRA:          -6.149
REMARK INTER:                  -5.916
REMARK INTRA:                  -0.233
REMARK UNBOUND:                -0.233
REMARK SMILES O=c1cc(-c2ccccc2)oc2ccccc12
REMARK SMILES IDX 4 1 3 2 2 3 1 4 17 5 16 6 15 7 14 8 13 9 12 10 11 11 5 12
REMARK SMILES IDX 8 13 7 14 9 15 6 16 10 17
REMARK H PARENT
REMARK Flexibility Score: inf
ROOT
ATOM      1  C   UNL     1      -0.183 -23.210 -44.656  1.00  0.00     0.138 A 
ATOM      2  C   UNL     1       1.086 -23.551 -45.168  1.00  0.00     0.100 A 
ATOM      3  C   UNL     1       1.204 -24.607 -46.074  1.00  0.00     0.193 A 
ATOM      4  O   UNL     1       2.340 -24.911 -46.529  1.00  0.00    -0.289 OA
ATOM      5  C   UNL     1       0.057 -25.313 -46.462  1.00  0.00     0.065 A 
ATOM      6  C   UNL     1       0.106 -26.385 -47.371  1.00  0.00     0.016 A 
ATOM      7  C   UNL     1      -1.070 -27.056 -47.725  1.00  0.00     0.001 A 
ATOM      8  C   UNL     1      -2.295 -26.663 -47.180  1.00  0.00     0.004 A 
ATOM      9  C   UNL     1      -2.352 -25.598 -46.276  1.00  0.00     0.048 A 
ATOM     10  C   UNL     1      -1.182 -24.920 -45.914  1.00  0.00     0.138 A 
ATOM     11  O   UNL     1      -1.248 -23.909 -45.055  1.00  0.00    -0.456 OA
ENDROOT
BRANCH   1  12
ATOM     12  C   UNL     1      -0.398 -22.094 -43.684  1.00  0.00     0.017 A 
ATOM     13  C   UNL     1      -0.764 -19.927 -41.912  1.00  0.00     0.000 A 
ATOM     14  C   UNL     1      -1.146 -21.213 -41.530  1.00  0.00     0.001 A 
ATOM     15  C   UNL     1      -0.202 -19.713 -43.170  1.00  0.00     0.001 A 
ATOM     16  C   UNL     1      -0.966 -22.291 -42.404  1.00  0.00     0.012 A 
ATOM     17  C   UNL     1      -0.019 -20.785 -44.049  1.00  0.00     0.012 A 
ENDBRANCH   1  12
TORSDOF 1
ENDMDL
MODEL 2
REMARK VINA RESULT:    -5.345     14.795     16.446
REMARK INTER + INTRA:          -5.890
REMARK INTER:                  -5.669
REMARK INTRA:                  -0.221
REMARK UNBOUND:                -0.233
REMARK SMILES O=c1cc(-c2ccccc2)oc2ccccc12
REMARK SMILES IDX 4 1 3 2 2 3 1 4 17 5 16 6 15 7 14 8 13 9 12 10 11 11 5 12
REMARK SMILES IDX 8 13 7 14 9 15 6 16 10 17
REMARK H PARENT
REMARK Flexibility Score: inf
ROOT
ATOM      1  C   UNL     1      -1.219  -9.287 -38.643  1.00  0.00     0.138 A 
ATOM      2  C   UNL     1      -0.706  -8.274 -37.806  1.00  0.00     0.100 A 
ATOM      3  C   UNL     1      -0.573  -8.512 -36.437  1.00  0.00     0.193 A 
ATOM      4  O   UNL     1      -0.115  -7.604 -35.690  1.00  0.00    -0.289 OA
ATOM      5  C   UNL     1      -0.951  -9.756 -35.913  1.00  0.00     0.065 A 
ATOM      6  C   UNL     1      -0.841 -10.060 -34.544  1.00  0.00     0.016 A 
ATOM      7  C   UNL     1      -1.233 -11.318 -34.074  1.00  0.00     0.001 A 
ATOM      8  C   UNL     1      -1.732 -12.276 -34.961  1.00  0.00     0.004 A 
ATOM      9  C   UNL     1      -1.843 -11.982 -36.323  1.00  0.00     0.048 A 
ATOM     10  C   UNL     1      -1.455 -10.726 -36.804  1.00  0.00     0.138 A 
ATOM     11  O   UNL     1      -1.564 -10.457 -38.100  1.00  0.00    -0.456 OA
ENDROOT
BRANCH   1  12
ATOM     12  C   UNL     1      -1.393  -9.116 -40.118  1.00  0.00     0.017 A 
ATOM     13  C   UNL     1      -1.808  -8.749 -42.886  1.00  0.00     0.000 A 
ATOM     14  C   UNL     1      -0.643  -9.365 -42.431  1.00  0.00     0.001 A 
ATOM     15  C   UNL     1      -2.767  -8.314 -41.973  1.00  0.00     0.001 A 
ATOM     16  C   UNL     1      -0.432  -9.550 -41.060  1.00  0.00     0.012 A 
ATOM     17  C   UNL     1      -2.565  -8.495 -40.601  1.00  0.00     0.012 A 
ENDBRANCH   1  12
TORSDOF 1
ENDMDL
MODEL 3
REMARK VINA RESULT:    -5.316     14.528     16.423
REMARK INTER + INTRA:          -5.860
REMARK INTER:                  -5.627
REMARK INTRA:                  -0.232
REMARK UNBOUND:                -0.233
REMARK SMILES O=c1cc(-c2ccccc2)oc2ccccc12
REMARK SMILES IDX 4 1 3 2 2 3 1 4 17 5 16 6 15 7 14 8 13 9 12 10 11 11 5 12
REMARK SMILES IDX 8 13 7 14 9 15 6 16 10 17
REMARK H PARENT
REMARK Flexibility Score: inf
ROOT
ATOM      1  C   UNL     1      -0.664 -10.338 -35.632  1.00  0.00     0.138 A 
ATOM      2  C   UNL     1      -0.342  -8.967 -35.716  1.00  0.00     0.100 A 
ATOM      3  C   UNL     1      -0.527  -8.289 -36.923  1.00  0.00     0.193 A 
ATOM      4  O   UNL     1      -0.238  -7.063 -36.997  1.00  0.00    -0.289 OA
ATOM      5  C   UNL     1      -1.031  -8.980 -38.033  1.00  0.00     0.065 A 
ATOM      6  C   UNL     1      -1.242  -8.356 -39.276  1.00  0.00     0.016 A 
ATOM      7  C   UNL     1      -1.748  -9.094 -40.352  1.00  0.00     0.001 A 
ATOM      8  C   UNL     1      -2.046 -10.450 -40.196  1.00  0.00     0.004 A 
ATOM      9  C   UNL     1      -1.840 -11.078 -38.964  1.00  0.00     0.048 A 
ATOM     10  C   UNL     1      -1.334 -10.350 -37.881  1.00  0.00     0.138 A 
ATOM     11  O   UNL     1      -1.142 -10.955 -36.714  1.00  0.00    -0.456 OA
ENDROOT
BRANCH   1  12
ATOM     12  C   UNL     1      -0.496 -11.139 -34.380  1.00  0.00     0.017 A 
ATOM     13  C   UNL     1      -0.116 -12.707 -32.063  1.00  0.00     0.000 A 
ATOM     14  C   UNL     1      -1.007 -11.634 -32.042  1.00  0.00     0.001 A 
ATOM     15  C   UNL     1       0.587 -13.003 -33.231  1.00  0.00     0.001 A 
ATOM     16  C   UNL     1      -1.200 -10.853 -33.187  1.00  0.00     0.012 A 
ATOM     17  C   UNL     1       0.400 -12.229 -34.379  1.00  0.00     0.012 A 
ENDBRANCH   1  12
TORSDOF 1
ENDMDL
MODEL 4
REMARK VINA RESULT:    -5.272     16.176     16.909
REMARK INTER + INTRA:          -5.813
REMARK INTER:                  -5.586
REMARK INTRA:                  -0.227
REMARK UNBOUND:                -0.233
REMARK SMILES O=c1cc(-c2ccccc2)oc2ccccc12
REMARK SMILES IDX 4 1 3 2 2 3 1 4 17 5 16 6 15 7 14 8 13 9 12 10 11 11 5 12
REMARK SMILES IDX 8 13 7 14 9 15 6 16 10 17
REMARK H PARENT
REMARK Flexibility Score: inf
ROOT
ATOM      1  C   UNL     1      -0.953 -10.440 -35.194  1.00  0.00     0.138 A 
ATOM      2  C   UNL     1       0.199 -11.184 -34.866  1.00  0.00     0.100 A 
ATOM      3  C   UNL     1       0.105 -12.230 -33.945  1.00  0.00     0.193 A 
ATOM      4  O   UNL     1       1.136 -12.894 -33.652  1.00  0.00    -0.289 OA
ATOM      5  C   UNL     1      -1.134 -12.525 -33.361  1.00  0.00     0.065 A 
ATOM      6  C   UNL     1      -1.298 -13.565 -32.428  1.00  0.00     0.016 A 
ATOM      7  C   UNL     1      -2.559 -13.816 -31.875  1.00  0.00     0.001 A 
ATOM      8  C   UNL     1      -3.658 -13.039 -32.248  1.00  0.00     0.004 A 
ATOM      9  C   UNL     1      -3.504 -12.003 -33.175  1.00  0.00     0.048 A 
ATOM     10  C   UNL     1      -2.248 -11.742 -33.734  1.00  0.00     0.138 A 
ATOM     11  O   UNL     1      -2.112 -10.757 -34.614  1.00  0.00    -0.456 OA
ENDROOT
BRANCH   1  12
ATOM     12  C   UNL     1      -0.940  -9.306 -36.169  1.00  0.00     0.017 A 
ATOM     13  C   UNL     1      -0.930  -7.104 -37.936  1.00  0.00     0.000 A 
ATOM     14  C   UNL     1      -0.740  -8.395 -38.429  1.00  0.00     0.001 A 
ATOM     15  C   UNL     1      -1.124  -6.902 -36.570  1.00  0.00     0.001 A 
ATOM     16  C   UNL     1      -0.744  -9.490 -37.558  1.00  0.00     0.012 A 
ATOM     17  C   UNL     1      -1.130  -7.991 -35.693  1.00  0.00     0.012 A 
ENDBRANCH   1  12
TORSDOF 1
ENDMDL
MODEL 5
REMARK VINA RESULT:    -5.261     14.905     15.940
REMARK INTER + INTRA:          -5.802
REMARK INTER:                  -5.575
REMARK INTRA:                  -0.227
REMARK UNBOUND:                -0.233
REMARK SMILES O=c1cc(-c2ccccc2)oc2ccccc12
REMARK SMILES IDX 4 1 3 2 2 3 1 4 17 5 16 6 15 7 14 8 13 9 12 10 11 11 5 12
REMARK SMILES IDX 8 13 7 14 9 15 6 16 10 17
REMARK H PARENT
REMARK Flexibility Score: inf
ROOT
ATOM      1  C   UNL     1      -3.632  -8.736 -43.683  1.00  0.00     0.138 A 
ATOM      2  C   UNL     1      -4.781  -9.533 -43.863  1.00  0.00     0.100 A 
ATOM      3  C   UNL     1      -5.482  -9.472 -45.069  1.00  0.00     0.193 A 
ATOM      4  O   UNL     1      -6.510 -10.185 -45.228  1.00  0.00    -0.289 OA
ATOM      5  C   UNL     1      -5.032  -8.618 -46.085  1.00  0.00     0.065 A 
ATOM      6  C   UNL     1      -5.690  -8.509 -47.323  1.00  0.00     0.016 A 
ATOM      7  C   UNL     1      -5.197  -7.640 -48.303  1.00  0.00     0.001 A 
ATOM      8  C   UNL     1      -4.050  -6.880 -48.058  1.00  0.00     0.004 A 
ATOM      9  C   UNL     1      -3.390  -6.982 -46.829  1.00  0.00     0.048 A 
ATOM     10  C   UNL     1      -3.874  -7.848 -45.841  1.00  0.00     0.138 A 
ATOM     11  O   UNL     1      -3.239  -7.938 -44.678  1.00  0.00    -0.456 OA
ENDROOT
BRANCH   1  12
ATOM     12  C   UNL     1      -2.824  -8.741 -42.424  1.00  0.00     0.017 A 
ATOM     13  C   UNL     1      -1.229  -8.798 -40.096  1.00  0.00     0.000 A 
ATOM     14  C   UNL     1      -2.492  -8.206 -40.063  1.00  0.00     0.001 A 
ATOM     15  C   UNL     1      -0.756  -9.362 -41.280  1.00  0.00     0.001 A 
ATOM     16  C   UNL     1      -3.287  -8.175 -41.214  1.00  0.00     0.012 A 
ATOM     17  C   UNL     1      -1.544  -9.335 -42.435  1.00  0.00     0.012 A 
ENDBRANCH   1  12
TORSDOF 1
ENDMDL
MODEL 6
REMARK VINA RESULT:    -5.255     14.898     16.516
REMARK INTER + INTRA:          -5.795
REMARK INTER:                  -5.566
REMARK INTRA:                  -0.229
REMARK UNBOUND:                -0.233
REMARK SMILES O=c1cc(-c2ccccc2)oc2ccccc12
REMARK SMILES IDX 4 1 3 2 2 3 1 4 17 5 16 6 15 7 14 8 13 9 12 10 11 11 5 12
REMARK SMILES IDX 8 13 7 14 9 15 6 16 10 17
REMARK H PARENT
REMARK Flexibility Score: inf
ROOT
ATOM      1  C   UNL     1      -3.665  -8.321 -43.776  1.00  0.00     0.138 A 
ATOM      2  C   UNL     1      -4.413  -7.723 -42.740  1.00  0.00     0.100 A 
ATOM      3  C   UNL     1      -3.900  -7.706 -41.441  1.00  0.00     0.193 A 
ATOM      4  O   UNL     1      -4.570  -7.172 -40.516  1.00  0.00    -0.289 OA
ATOM      5  C   UNL     1      -2.648  -8.283 -41.186  1.00  0.00     0.065 A 
ATOM      6  C   UNL     1      -2.074  -8.299 -39.903  1.00  0.00     0.016 A 
ATOM      7  C   UNL     1      -0.821  -8.889 -39.704  1.00  0.00     0.001 A 
ATOM      8  C   UNL     1      -0.135  -9.462 -40.778  1.00  0.00     0.004 A 
ATOM      9  C   UNL     1      -0.698  -9.450 -42.058  1.00  0.00     0.048 A 
ATOM     10  C   UNL     1      -1.952  -8.863 -42.268  1.00  0.00     0.138 A 
ATOM     11  O   UNL     1      -2.478  -8.857 -43.488  1.00  0.00    -0.456 OA
ENDROOT
BRANCH   1  12
ATOM     12  C   UNL     1      -4.140  -8.382 -45.193  1.00  0.00     0.017 A 
ATOM     13  C   UNL     1      -4.965  -8.436 -47.892  1.00  0.00     0.000 A 
ATOM     14  C   UNL     1      -5.656  -9.181 -46.936  1.00  0.00     0.001 A 
ATOM     15  C   UNL     1      -3.867  -7.666 -47.513  1.00  0.00     0.001 A 
ATOM     16  C   UNL     1      -5.252  -9.157 -45.597  1.00  0.00     0.012 A 
ATOM     17  C   UNL     1      -3.456  -7.637 -46.177  1.00  0.00     0.012 A 
ENDBRANCH   1  12
TORSDOF 1
ENDMDL
MODEL 7
REMARK VINA RESULT:    -5.175     14.599     15.430
REMARK INTER + INTRA:          -5.711
REMARK INTER:                  -5.486
REMARK INTRA:                  -0.225
REMARK UNBOUND:                -0.233
REMARK SMILES O=c1cc(-c2ccccc2)oc2ccccc12
REMARK SMILES IDX 4 1 3 2 2 3 1 4 17 5 16 6 15 7 14 8 13 9 12 10 11 11 5 12
REMARK SMILES IDX 8 13 7 14 9 15 6 16 10 17
REMARK H PARENT
REMARK Flexibility Score: inf
ROOT
ATOM      1  C   UNL     1      -3.677  -8.752 -43.790  1.00  0.00     0.138 A 
ATOM      2  C   UNL     1      -3.398  -7.926 -44.899  1.00  0.00     0.100 A 
ATOM      3  C   UNL     1      -4.176  -8.035 -46.053  1.00  0.00     0.193 A 
ATOM      4  O   UNL     1      -3.925  -7.296 -47.044  1.00  0.00    -0.289 OA
ATOM      5  C   UNL     1      -5.224  -8.965 -46.094  1.00  0.00     0.065 A 
ATOM      6  C   UNL     1      -6.045  -9.125 -47.225  1.00  0.00     0.016 A 
ATOM      7  C   UNL     1      -7.077 -10.069 -47.212  1.00  0.00     0.001 A 
ATOM      8  C   UNL     1      -7.298 -10.854 -46.077  1.00  0.00     0.004 A 
ATOM      9  C   UNL     1      -6.486 -10.702 -44.948  1.00  0.00     0.048 A 
ATOM     10  C   UNL     1      -5.450  -9.761 -44.951  1.00  0.00     0.138 A 
ATOM     11  O   UNL     1      -4.685  -9.623 -43.873  1.00  0.00    -0.456 OA
ENDROOT
BRANCH   1  12
ATOM     12  C   UNL     1      -2.895  -8.700 -42.517  1.00  0.00     0.017 A 
ATOM     13  C   UNL     1      -1.490  -8.550 -40.073  1.00  0.00     0.000 A 
ATOM     14  C   UNL     1      -0.930  -9.222 -41.160  1.00  0.00     0.001 A 
ATOM     15  C   UNL     1      -2.744  -7.953 -40.195  1.00  0.00     0.001 A 
ATOM     16  C   UNL     1      -1.622  -9.299 -42.373  1.00  0.00     0.012 A 
ATOM     17  C   UNL     1      -3.442  -8.025 -41.405  1.00  0.00     0.012 A 
ENDBRANCH   1  12
TORSDOF 1
ENDMDL
MODEL 8
REMARK VINA RESULT:    -5.102     14.894     16.197
REMARK INTER + INTRA:          -5.633
REMARK INTER:                  -5.405
REMARK INTRA:                  -0.228
REMARK UNBOUND:                -0.233
REMARK SMILES O=c1cc(-c2ccccc2)oc2ccccc12
REMARK SMILES IDX 4 1 3 2 2 3 1 4 17 5 16 6 15 7 14 8 13 9 12 10 11 11 5 12
REMARK SMILES IDX 8 13 7 14 9 15 6 16 10 17
REMARK H PARENT
REMARK Flexibility Score: inf
ROOT
ATOM      1  C   UNL     1      -1.477  -8.789 -39.615  1.00  0.00     0.138 A 
ATOM      2  C   UNL     1      -0.708  -9.403 -40.626  1.00  0.00     0.100 A 
ATOM      3  C   UNL     1      -1.142  -9.344 -41.952  1.00  0.00     0.193 A 
ATOM      4  O   UNL     1      -0.454  -9.894 -42.856  1.00  0.00    -0.289 OA
ATOM      5  C   UNL     1      -2.335  -8.676 -42.259  1.00  0.00     0.065 A 
ATOM      6  C   UNL     1      -2.827  -8.579 -43.573  1.00  0.00     0.016 A 
ATOM      7  C   UNL     1      -4.024  -7.899 -43.824  1.00  0.00     0.001 A 
ATOM      8  C   UNL     1      -4.733  -7.313 -42.772  1.00  0.00     0.004 A 
ATOM      9  C   UNL     1      -4.251  -7.405 -41.463  1.00  0.00     0.048 A 
ATOM     10  C   UNL     1      -3.055  -8.083 -41.200  1.00  0.00     0.138 A 
ATOM     11  O   UNL     1      -2.605  -8.163 -39.953  1.00  0.00    -0.456 OA
ENDROOT
BRANCH   1  12
ATOM     12  C   UNL     1      -1.085  -8.805 -38.171  1.00  0.00     0.017 A 
ATOM     13  C   UNL     1      -0.362  -8.930 -35.445  1.00  0.00     0.000 A 
ATOM     14  C   UNL     1      -0.322  -7.711 -36.123  1.00  0.00     0.001 A 
ATOM     15  C   UNL     1      -0.760 -10.086 -36.116  1.00  0.00     0.001 A 
ATOM     16  C   UNL     1      -0.679  -7.644 -37.474  1.00  0.00     0.012 A 
ATOM     17  C   UNL     1      -1.118 -10.027 -37.466  1.00  0.00     0.012 A 
ENDBRANCH   1  12
TORSDOF 1
ENDMDL
