MODEL 1
REMARK VINA RESULT:    -0.254      0.000      0.000
REMARK INTER + INTRA:          -1.539
REMARK INTER:                  -0.580
REMARK INTRA:                  -0.959
REMARK UNBOUND:                -0.959
REMARK SMILES CCCCCCCCCCCCCCCCCCCCCCCC(=O)[O-]
REMARK SMILES IDX 13 1 14 2 15 3 16 4 17 5 18 6 19 7 20 8 21 9 22 10 23 11
REMARK SMILES IDX 24 12 25 13 26 14 12 15 11 16 10 17 9 18 8 19 7 20 6 21 5 22
REMARK SMILES IDX 4 23 3 24 2 25 1 26
REMARK H PARENT
REMARK Flexibility Score: inf
ROOT
ATOM      1  C   UNL     1     -12.310  -9.899  -9.932  1.00  0.00     0.000 C 
ENDROOT
BRANCH   1   2
ATOM      2  C   UNL     1     -11.493  -9.619 -11.208  1.00  0.00     0.000 C 
BRANCH   2   3
ATOM      3  C   UNL     1     -11.187 -10.856 -12.073  1.00  0.00     0.000 C 
BRANCH   3   4
ATOM      4  C   UNL     1     -10.590 -12.058 -11.317  1.00  0.00     0.000 C 
BRANCH   4   5
ATOM      5  C   UNL     1      -9.541 -12.853 -12.123  1.00  0.00     0.000 C 
BRANCH   5   6
ATOM      6  C   UNL     1      -8.155 -12.182 -12.125  1.00  0.00     0.000 C 
BRANCH   6   7
ATOM      7  C   UNL     1      -7.066 -13.088 -11.514  1.00  0.00     0.000 C 
BRANCH   7   8
ATOM      8  C   UNL     1      -5.958 -12.321 -10.765  1.00  0.00     0.000 C 
BRANCH   8   9
ATOM      9  C   UNL     1      -5.891 -10.817 -11.101  1.00  0.00     0.000 C 
BRANCH   9  10
ATOM     10  C   UNL     1      -4.641 -10.451 -11.921  1.00  0.00     0.006 C 
BRANCH  10  11
ATOM     11  C   UNL     1      -3.517  -9.883 -11.046  1.00  0.00     0.053 C 
BRANCH  11  12
ATOM     12  C   UNL     1      -2.459 -10.904 -10.765  1.00  0.00     0.041 C 
ATOM     13  O   UNL     1      -1.344 -10.837 -11.344  1.00  0.00    -0.550 OA
ATOM     14  O   UNL     1      -2.715 -11.948  -9.884  1.00  0.00    -0.550 OA
ENDBRANCH  11  12
ENDBRANCH  10  11
ENDBRANCH   9  10
ENDBRANCH   8   9
ENDBRANCH   7   8
ENDBRANCH   6   7
ENDBRANCH   5   6
ENDBRANCH   4   5
ENDBRANCH   3   4
ENDBRANCH   2   3
ENDBRANCH   1   2
BRANCH   1  15
ATOM     15  C   UNL     1     -13.380 -10.999 -10.067  1.00  0.00     0.000 C 
BRANCH  15  16
ATOM     16  C   UNL     1     -14.701 -10.515 -10.701  1.00  0.00     0.000 C 
BRANCH  16  17
ATOM     17  C   UNL     1     -15.898 -11.416 -10.348  1.00  0.00     0.000 C 
BRANCH  17  18
ATOM     18  C   UNL     1     -16.882 -11.560 -11.523  1.00  0.00    -0.000 C 
BRANCH  18  19
ATOM     19  C   UNL     1     -17.937 -12.646 -11.265  1.00  0.00    -0.000 C 
BRANCH  19  20
ATOM     20  C   UNL     1     -19.332 -12.032 -11.073  1.00  0.00    -0.000 C 
BRANCH  20  21
ATOM     21  C   UNL     1     -20.347 -13.034 -10.497  1.00  0.00    -0.000 C 
BRANCH  21  22
ATOM     22  C   UNL     1     -20.596 -12.833  -8.994  1.00  0.00    -0.000 C 
BRANCH  22  23
ATOM     23  C   UNL     1     -19.909 -11.555  -8.491  1.00  0.00    -0.000 C 
BRANCH  23  24
ATOM     24  C   UNL     1     -20.046 -11.356  -6.971  1.00  0.00    -0.000 C 
BRANCH  24  25
ATOM     25  C   UNL     1     -20.541 -12.592  -6.196  1.00  0.00    -0.003 C 
ATOM     26  C   UNL     1     -20.116 -12.590  -4.728  1.00  0.00     0.004 C 
ENDBRANCH  24  25
ENDBRANCH  23  24
ENDBRANCH  22  23
ENDBRANCH  21  22
ENDBRANCH  20  21
ENDBRANCH  19  20
ENDBRANCH  18  19
ENDBRANCH  17  18
ENDBRANCH  16  17
ENDBRANCH  15  16
ENDBRANCH   1  15
TORSDOF 22
ENDMDL
MODEL 2
REMARK VINA RESULT:     0.064      1.546      1.923
REMARK INTER + INTRA:          -0.814
REMARK INTER:                  -0.238
REMARK INTRA:                  -0.576
REMARK UNBOUND:                -0.959
REMARK SMILES CCCCCCCCCCCCCCCCCCCCCCCC(=O)[O-]
REMARK SMILES IDX 13 1 14 2 15 3 16 4 17 5 18 6 19 7 20 8 21 9 22 10 23 11
REMARK SMILES IDX 24 12 25 13 26 14 12 15 11 16 10 17 9 18 8 19 7 20 6 21 5 22
REMARK SMILES IDX 4 23 3 24 2 25 1 26
REMARK H PARENT
REMARK Flexibility Score: inf
ROOT
ATOM      1  C   UNL     1     -13.226  -9.518 -11.084  1.00  0.00     0.000 C 
ENDROOT
BRANCH   1   2
ATOM      2  C   UNL     1     -11.699  -9.541 -10.881  1.00  0.00     0.000 C 
BRANCH   2   3
ATOM      3  C   UNL     1     -10.886 -10.032 -12.095  1.00  0.00     0.000 C 
BRANCH   3   4
ATOM      4  C   UNL     1      -9.803 -11.082 -11.781  1.00  0.00     0.000 C 
BRANCH   4   5
ATOM      5  C   UNL     1      -8.367 -10.627 -12.120  1.00  0.00     0.000 C 
BRANCH   5   6
ATOM      6  C   UNL     1      -7.297 -11.361 -11.292  1.00  0.00     0.000 C 
BRANCH   6   7
ATOM      7  C   UNL     1      -6.563 -12.443 -12.112  1.00  0.00     0.000 C 
BRANCH   7   8
ATOM      8  C   UNL     1      -5.038 -12.472 -11.891  1.00  0.00     0.000 C 
BRANCH   8   9
ATOM      9  C   UNL     1      -4.372 -11.081 -11.884  1.00  0.00     0.000 C 
BRANCH   9  10
ATOM     10  C   UNL     1      -3.447 -10.875 -10.672  1.00  0.00     0.006 C 
BRANCH  10  11
ATOM     11  C   UNL     1      -2.257  -9.963 -10.997  1.00  0.00     0.053 C 
BRANCH  11  12
ATOM     12  C   UNL     1      -2.083  -8.888  -9.968  1.00  0.00     0.041 C 
ATOM     13  O   UNL     1      -2.703  -8.951  -8.875  1.00  0.00    -0.550 OA
ATOM     14  O   UNL     1      -1.256  -7.802 -10.229  1.00  0.00    -0.550 OA
ENDBRANCH  11  12
ENDBRANCH  10  11
ENDBRANCH   9  10
ENDBRANCH   8   9
ENDBRANCH   7   8
ENDBRANCH   6   7
ENDBRANCH   5   6
ENDBRANCH   4   5
ENDBRANCH   3   4
ENDBRANCH   2   3
ENDBRANCH   1   2
BRANCH   1  15
ATOM     15  C   UNL     1     -13.858 -10.872 -11.461  1.00  0.00     0.000 C 
BRANCH  15  16
ATOM     16  C   UNL     1     -15.400 -10.883 -11.395  1.00  0.00     0.000 C 
BRANCH  16  17
ATOM     17  C   UNL     1     -16.015 -12.131 -12.053  1.00  0.00     0.000 C 
BRANCH  17  18
ATOM     18  C   UNL     1     -16.603 -13.104 -11.014  1.00  0.00    -0.000 C 
BRANCH  18  19
ATOM     19  C   UNL     1     -18.075 -12.797 -10.702  1.00  0.00    -0.000 C 
BRANCH  19  20
ATOM     20  C   UNL     1     -18.939 -12.863 -11.972  1.00  0.00    -0.000 C 
BRANCH  20  21
ATOM     21  C   UNL     1     -20.428 -12.604 -11.689  1.00  0.00    -0.000 C 
BRANCH  21  22
ATOM     22  C   UNL     1     -20.667 -11.898 -10.345  1.00  0.00    -0.000 C 
BRANCH  22  23
ATOM     23  C   UNL     1     -20.652 -12.907  -9.187  1.00  0.00    -0.000 C 
BRANCH  23  24
ATOM     24  C   UNL     1     -21.013 -12.272  -7.831  1.00  0.00    -0.000 C 
BRANCH  24  25
ATOM     25  C   UNL     1     -20.145 -11.065  -7.429  1.00  0.00    -0.003 C 
ATOM     26  C   UNL     1     -20.911 -10.020  -6.618  1.00  0.00     0.004 C 
ENDBRANCH  24  25
ENDBRANCH  23  24
ENDBRANCH  22  23
ENDBRANCH  21  22
ENDBRANCH  20  21
ENDBRANCH  19  20
ENDBRANCH  18  19
ENDBRANCH  17  18
ENDBRANCH  16  17
ENDBRANCH  15  16
ENDBRANCH   1  15
TORSDOF 22
ENDMDL
MODEL 3
REMARK VINA RESULT:     0.317      6.422     10.881
REMARK INTER + INTRA:          -0.234
REMARK INTER:                  -0.789
REMARK INTRA:                   0.555
REMARK UNBOUND:                -0.959
REMARK SMILES CCCCCCCCCCCCCCCCCCCCCCCC(=O)[O-]
REMARK SMILES IDX 13 1 14 2 15 3 16 4 17 5 18 6 19 7 20 8 21 9 22 10 23 11
REMARK SMILES IDX 24 12 25 13 26 14 12 15 11 16 10 17 9 18 8 19 7 20 6 21 5 22
REMARK SMILES IDX 4 23 3 24 2 25 1 26
REMARK H PARENT
REMARK Flexibility Score: inf
ROOT
ATOM      1  C   UNL     1     -13.921 -10.579 -10.030  1.00  0.00     0.000 C 
ENDROOT
BRANCH   1   2
ATOM      2  C   UNL     1     -13.762 -11.914 -10.782  1.00  0.00     0.000 C 
BRANCH   2   3
ATOM      3  C   UNL     1     -15.004 -12.825 -10.766  1.00  0.00     0.000 C 
BRANCH   3   4
ATOM      4  C   UNL     1     -15.731 -12.972 -12.117  1.00  0.00     0.000 C 
BRANCH   4   5
ATOM      5  C   UNL     1     -17.266 -13.084 -11.999  1.00  0.00     0.000 C 
BRANCH   5   6
ATOM      6  C   UNL     1     -17.757 -13.043 -10.540  1.00  0.00     0.000 C 
BRANCH   6   7
ATOM      7  C   UNL     1     -18.502 -11.734 -10.210  1.00  0.00     0.000 C 
BRANCH   7   8
ATOM      8  C   UNL     1     -18.389 -11.301  -8.735  1.00  0.00     0.000 C 
BRANCH   8   9
ATOM      9  C   UNL     1     -18.206 -12.469  -7.745  1.00  0.00     0.000 C 
BRANCH   9  10
ATOM     10  C   UNL     1     -19.529 -12.896  -7.084  1.00  0.00     0.006 C 
BRANCH  10  11
ATOM     11  C   UNL     1     -20.691 -11.965  -7.456  1.00  0.00     0.053 C 
BRANCH  11  12
ATOM     12  C   UNL     1     -20.704 -10.727  -6.614  1.00  0.00     0.041 C 
ATOM     13  O   UNL     1     -20.887 -10.809  -5.371  1.00  0.00    -0.550 OA
ATOM     14  O   UNL     1     -20.544  -9.480  -7.205  1.00  0.00    -0.550 OA
ENDBRANCH  11  12
ENDBRANCH  10  11
ENDBRANCH   9  10
ENDBRANCH   8   9
ENDBRANCH   7   8
ENDBRANCH   6   7
ENDBRANCH   5   6
ENDBRANCH   4   5
ENDBRANCH   3   4
ENDBRANCH   2   3
ENDBRANCH   1   2
BRANCH   1  15
ATOM     15  C   UNL     1     -12.603  -9.910  -9.596  1.00  0.00     0.000 C 
BRANCH  15  16
ATOM     16  C   UNL     1     -11.431 -10.140 -10.574  1.00  0.00     0.000 C 
BRANCH  16  17
ATOM     17  C   UNL     1     -11.732  -9.632 -11.995  1.00  0.00     0.000 C 
BRANCH  17  18
ATOM     18  C   UNL     1     -12.110  -8.139 -12.009  1.00  0.00    -0.000 C 
BRANCH  18  19
ATOM     19  C   UNL     1     -13.276  -7.829 -11.058  1.00  0.00    -0.000 C 
BRANCH  19  20
ATOM     20  C   UNL     1     -13.453  -6.314 -10.871  1.00  0.00    -0.000 C 
BRANCH  20  21
ATOM     21  C   UNL     1     -14.206  -5.656 -12.040  1.00  0.00    -0.000 C 
BRANCH  21  22
ATOM     22  C   UNL     1     -15.699  -6.019 -12.067  1.00  0.00    -0.000 C 
BRANCH  22  23
ATOM     23  C   UNL     1     -16.535  -4.949 -11.349  1.00  0.00    -0.000 C 
BRANCH  23  24
ATOM     24  C   UNL     1     -17.944  -4.785 -11.947  1.00  0.00    -0.000 C 
BRANCH  24  25
ATOM     25  C   UNL     1     -18.797  -3.674 -11.304  1.00  0.00    -0.003 C 
ATOM     26  C   UNL     1     -20.106  -3.416 -12.049  1.00  0.00     0.004 C 
ENDBRANCH  24  25
ENDBRANCH  23  24
ENDBRANCH  22  23
ENDBRANCH  21  22
ENDBRANCH  20  21
ENDBRANCH  19  20
ENDBRANCH  18  19
ENDBRANCH  17  18
ENDBRANCH  16  17
ENDBRANCH  15  16
ENDBRANCH   1  15
TORSDOF 22
ENDMDL
MODEL 4
REMARK VINA RESULT:     1.164      6.148     10.843
REMARK INTER + INTRA:           1.702
REMARK INTER:                   1.176
REMARK INTRA:                   0.526
REMARK UNBOUND:                -0.959
REMARK SMILES CCCCCCCCCCCCCCCCCCCCCCCC(=O)[O-]
REMARK SMILES IDX 13 1 14 2 15 3 16 4 17 5 18 6 19 7 20 8 21 9 22 10 23 11
REMARK SMILES IDX 24 12 25 13 26 14 12 15 11 16 10 17 9 18 8 19 7 20 6 21 5 22
REMARK SMILES IDX 4 23 3 24 2 25 1 26
REMARK H PARENT
REMARK Flexibility Score: inf
ROOT
ATOM      1  C   UNL     1     -15.478  -4.044 -11.364  1.00  0.00     0.000 C 
ENDROOT
BRANCH   1   2
ATOM      2  C   UNL     1     -17.001  -4.145 -11.158  1.00  0.00     0.000 C 
BRANCH   2   3
ATOM      3  C   UNL     1     -17.691  -5.283 -11.935  1.00  0.00     0.000 C 
BRANCH   3   4
ATOM      4  C   UNL     1     -16.882  -6.589 -12.048  1.00  0.00     0.000 C 
BRANCH   4   5
ATOM      5  C   UNL     1     -17.736  -7.871 -11.944  1.00  0.00     0.000 C 
BRANCH   5   6
ATOM      6  C   UNL     1     -16.886  -9.154 -11.907  1.00  0.00     0.000 C 
BRANCH   6   7
ATOM      7  C   UNL     1     -17.753 -10.430 -11.888  1.00  0.00     0.000 C 
BRANCH   7   8
ATOM      8  C   UNL     1     -19.255 -10.173 -12.123  1.00  0.00     0.000 C 
BRANCH   8   9
ATOM      9  C   UNL     1     -20.189 -11.059 -11.275  1.00  0.00     0.000 C 
BRANCH   9  10
ATOM     10  C   UNL     1     -19.494 -12.338 -10.773  1.00  0.00     0.006 C 
BRANCH  10  11
ATOM     11  C   UNL     1     -18.884 -12.158  -9.377  1.00  0.00     0.053 C 
BRANCH  11  12
ATOM     12  C   UNL     1     -19.919 -12.266  -8.299  1.00  0.00     0.041 C 
ATOM     13  O   UNL     1     -20.891 -13.054  -8.432  1.00  0.00    -0.550 OA
ATOM     14  O   UNL     1     -19.824 -11.476  -7.160  1.00  0.00    -0.550 OA
ENDBRANCH  11  12
ENDBRANCH  10  11
ENDBRANCH   9  10
ENDBRANCH   8   9
ENDBRANCH   7   8
ENDBRANCH   6   7
ENDBRANCH   5   6
ENDBRANCH   4   5
ENDBRANCH   3   4
ENDBRANCH   2   3
ENDBRANCH   1   2
BRANCH   1  15
ATOM     15  C   UNL     1     -14.635  -5.028 -10.531  1.00  0.00     0.000 C 
BRANCH  15  16
ATOM     16  C   UNL     1     -13.544  -5.761 -11.340  1.00  0.00     0.000 C 
BRANCH  16  17
ATOM     17  C   UNL     1     -14.082  -6.996 -12.083  1.00  0.00     0.000 C 
BRANCH  17  18
ATOM     18  C   UNL     1     -13.153  -8.214 -11.931  1.00  0.00    -0.000 C 
BRANCH  18  19
ATOM     19  C   UNL     1     -12.444  -8.235 -10.569  1.00  0.00    -0.000 C 
BRANCH  19  20
ATOM     20  C   UNL     1     -11.360  -9.324 -10.522  1.00  0.00    -0.000 C 
BRANCH  20  21
ATOM     21  C   UNL     1     -11.069  -9.930 -11.905  1.00  0.00    -0.000 C 
BRANCH  21  22
ATOM     22  C   UNL     1     -11.765 -11.283 -12.124  1.00  0.00    -0.000 C 
BRANCH  22  23
ATOM     23  C   UNL     1     -13.251 -11.199 -11.746  1.00  0.00    -0.000 C 
BRANCH  23  24
ATOM     24  C   UNL     1     -13.558 -11.822 -10.371  1.00  0.00    -0.000 C 
BRANCH  24  25
ATOM     25  C   UNL     1     -15.018 -12.272 -10.173  1.00  0.00    -0.003 C 
ATOM     26  C   UNL     1     -15.802 -12.360 -11.483  1.00  0.00     0.004 C 
ENDBRANCH  24  25
ENDBRANCH  23  24
ENDBRANCH  22  23
ENDBRANCH  21  22
ENDBRANCH  20  21
ENDBRANCH  19  20
ENDBRANCH  18  19
ENDBRANCH  17  18
ENDBRANCH  16  17
ENDBRANCH  15  16
ENDBRANCH   1  15
TORSDOF 22
ENDMDL
MODEL 5
REMARK VINA RESULT:     2.354      6.625      9.792
REMARK INTER + INTRA:           4.423
REMARK INTER:                   6.140
REMARK INTRA:                  -1.717
REMARK UNBOUND:                -0.959
REMARK SMILES CCCCCCCCCCCCCCCCCCCCCCCC(=O)[O-]
REMARK SMILES IDX 13 1 14 2 15 3 16 4 17 5 18 6 19 7 20 8 21 9 22 10 23 11
REMARK SMILES IDX 24 12 25 13 26 14 12 15 11 16 10 17 9 18 8 19 7 20 6 21 5 22
REMARK SMILES IDX 4 23 3 24 2 25 1 26
REMARK H PARENT
REMARK Flexibility Score: inf
ROOT
ATOM      1  C   UNL     1     -12.657  -7.057  -9.300  1.00  0.00     0.000 C 
ENDROOT
BRANCH   1   2
ATOM      2  C   UNL     1     -12.544  -8.262  -8.348  1.00  0.00     0.000 C 
BRANCH   2   3
ATOM      3  C   UNL     1     -11.718  -9.446  -8.887  1.00  0.00     0.000 C 
BRANCH   3   4
ATOM      4  C   UNL     1     -12.540 -10.608  -9.478  1.00  0.00     0.000 C 
BRANCH   4   5
ATOM      5  C   UNL     1     -12.751 -10.518 -11.005  1.00  0.00     0.000 C 
BRANCH   5   6
ATOM      6  C   UNL     1     -13.313 -11.817 -11.608  1.00  0.00     0.000 C 
BRANCH   6   7
ATOM      7  C   UNL     1     -13.757 -12.822 -10.524  1.00  0.00     0.000 C 
BRANCH   7   8
ATOM      8  C   UNL     1     -15.281 -13.043 -10.457  1.00  0.00     0.000 C 
BRANCH   8   9
ATOM      9  C   UNL     1     -16.045 -11.950  -9.682  1.00  0.00     0.000 C 
BRANCH   9  10
ATOM     10  C   UNL     1     -17.494 -12.360  -9.361  1.00  0.00     0.006 C 
BRANCH  10  11
ATOM     11  C   UNL     1     -18.427 -11.147  -9.239  1.00  0.00     0.053 C 
BRANCH  11  12
ATOM     12  C   UNL     1     -19.869 -11.551  -9.248  1.00  0.00     0.041 C 
ATOM     13  O   UNL     1     -20.352 -12.151 -10.243  1.00  0.00    -0.550 OA
ATOM     14  O   UNL     1     -20.686 -11.239  -8.168  1.00  0.00    -0.550 OA
ENDBRANCH  11  12
ENDBRANCH  10  11
ENDBRANCH   9  10
ENDBRANCH   8   9
ENDBRANCH   7   8
ENDBRANCH   6   7
ENDBRANCH   5   6
ENDBRANCH   4   5
ENDBRANCH   3   4
ENDBRANCH   2   3
ENDBRANCH   1   2
BRANCH   1  15
ATOM     15  C   UNL     1     -13.368  -7.341 -10.637  1.00  0.00     0.000 C 
BRANCH  15  16
ATOM     16  C   UNL     1     -12.955  -6.392 -11.781  1.00  0.00     0.000 C 
BRANCH  16  17
ATOM     17  C   UNL     1     -14.039  -5.351 -12.114  1.00  0.00     0.000 C 
BRANCH  17  18
ATOM     18  C   UNL     1     -13.503  -3.910 -12.036  1.00  0.00    -0.000 C 
BRANCH  18  19
ATOM     19  C   UNL     1     -14.586  -2.913 -11.596  1.00  0.00    -0.000 C 
BRANCH  19  20
ATOM     20  C   UNL     1     -15.804  -3.640 -11.005  1.00  0.00    -0.000 C 
BRANCH  20  21
ATOM     21  C   UNL     1     -16.957  -3.780 -12.012  1.00  0.00    -0.000 C 
BRANCH  21  22
ATOM     22  C   UNL     1     -18.129  -4.613 -11.467  1.00  0.00    -0.000 C 
BRANCH  22  23
ATOM     23  C   UNL     1     -18.158  -6.005 -12.116  1.00  0.00    -0.000 C 
BRANCH  23  24
ATOM     24  C   UNL     1     -16.792  -6.716 -12.077  1.00  0.00    -0.000 C 
BRANCH  24  25
ATOM     25  C   UNL     1     -16.813  -8.128 -11.462  1.00  0.00    -0.003 C 
ATOM     26  C   UNL     1     -15.823  -9.085 -12.124  1.00  0.00     0.004 C 
ENDBRANCH  24  25
ENDBRANCH  23  24
ENDBRANCH  22  23
ENDBRANCH  21  22
ENDBRANCH  20  21
ENDBRANCH  19  20
ENDBRANCH  18  19
ENDBRANCH  17  18
ENDBRANCH  16  17
ENDBRANCH  15  16
ENDBRANCH   1  15
TORSDOF 22
ENDMDL
