MODEL 1
REMARK VINA RESULT:    -5.885      0.000      0.000
REMARK INTER + INTRA:          -6.647
REMARK INTER:                  -6.229
REMARK INTRA:                  -0.418
REMARK UNBOUND:                -0.418
REMARK SMILES CC1=CC[C@@H]2[C@H]3[C@@H](C(C)C)CC[C@]2(C)[C@@H]13
REMARK SMILES IDX 1 1 2 2 3 3 4 4 5 5 6 6 15 7 13 8 12 9 11 10 7 11 14 12 8 13
REMARK SMILES IDX 9 14 10 15
REMARK H PARENT
REMARK Flexibility Score: inf
ROOT
ATOM      1  C   UNL     1     -49.763 -50.797  14.603  1.00  0.00     0.039 C 
ATOM      2  C   UNL     1     -49.257 -50.830  16.014  1.00  0.00    -0.073 C 
ATOM      3  C   UNL     1     -48.467 -51.842  16.455  1.00  0.00    -0.027 C 
ATOM      4  C   UNL     1     -47.959 -51.809  17.901  1.00  0.00     0.031 C 
ATOM      5  C   UNL     1     -48.516 -50.552  18.645  1.00  0.00     0.003 C 
ATOM      6  C   UNL     1     -50.033 -50.457  18.330  1.00  0.00     0.004 C 
ATOM      7  C   UNL     1     -49.619 -49.738  17.026  1.00  0.00     0.024 C 
ATOM      8  C   UNL     1     -48.360 -49.268  17.790  1.00  0.00    -0.022 C 
ATOM      9  C   UNL     1     -48.715 -48.003  18.631  1.00  0.00     0.008 C 
ATOM     10  C   UNL     1     -49.823 -48.279  19.682  1.00  0.00     0.005 C 
ATOM     11  C   UNL     1     -50.770 -49.447  19.264  1.00  0.00    -0.005 C 
ATOM     12  C   UNL     1     -47.052 -49.051  16.993  1.00  0.00     0.012 C 
ENDROOT
BRANCH  11  13
ATOM     13  C   UNL     1     -51.464 -50.111  20.493  1.00  0.00    -0.014 C 
ATOM     14  C   UNL     1     -50.638 -50.039  21.789  1.00  0.00     0.007 C 
ATOM     15  C   UNL     1     -51.846 -51.570  20.199  1.00  0.00     0.007 C 
ENDBRANCH  11  13
TORSDOF 1
ENDMDL
MODEL 2
REMARK VINA RESULT:    -5.882     11.767     13.830
REMARK INTER + INTRA:          -6.643
REMARK INTER:                  -6.386
REMARK INTRA:                  -0.257
REMARK UNBOUND:                -0.418
REMARK SMILES CC1=CC[C@@H]2[C@H]3[C@@H](C(C)C)CC[C@]2(C)[C@@H]13
REMARK SMILES IDX 1 1 2 2 3 3 4 4 5 5 6 6 15 7 13 8 12 9 11 10 7 11 14 12 8 13
REMARK SMILES IDX 9 14 10 15
REMARK H PARENT
REMARK Flexibility Score: inf
ROOT
ATOM      1  C   UNL     1     -44.908 -48.856  30.725  1.00  0.00     0.039 C 
ATOM      2  C   UNL     1     -43.700 -49.381  30.010  1.00  0.00    -0.073 C 
ATOM      3  C   UNL     1     -43.288 -50.665  30.173  1.00  0.00    -0.027 C 
ATOM      4  C   UNL     1     -42.061 -51.152  29.394  1.00  0.00     0.031 C 
ATOM      5  C   UNL     1     -41.463 -49.991  28.536  1.00  0.00     0.003 C 
ATOM      6  C   UNL     1     -41.384 -48.733  29.443  1.00  0.00     0.004 C 
ATOM      7  C   UNL     1     -42.867 -48.495  29.078  1.00  0.00     0.024 C 
ATOM      8  C   UNL     1     -42.567 -49.234  27.753  1.00  0.00    -0.022 C 
ATOM      9  C   UNL     1     -41.931 -48.231  26.742  1.00  0.00     0.008 C 
ATOM     10  C   UNL     1     -40.595 -47.633  27.257  1.00  0.00     0.005 C 
ATOM     11  C   UNL     1     -40.511 -47.603  28.814  1.00  0.00    -0.005 C 
ATOM     12  C   UNL     1     -43.704 -50.044  27.087  1.00  0.00     0.012 C 
ENDROOT
BRANCH  11  13
ATOM     13  C   UNL     1     -39.037 -47.584  29.325  1.00  0.00    -0.014 C 
ATOM     14  C   UNL     1     -38.399 -46.184  29.332  1.00  0.00     0.007 C 
ATOM     15  C   UNL     1     -38.154 -48.555  28.526  1.00  0.00     0.007 C 
ENDBRANCH  11  13
TORSDOF 1
ENDMDL
MODEL 3
REMARK VINA RESULT:    -5.836     11.578     13.320
REMARK INTER + INTRA:          -6.595
REMARK INTER:                  -6.368
REMARK INTRA:                  -0.227
REMARK UNBOUND:                -0.418
REMARK SMILES CC1=CC[C@@H]2[C@H]3[C@@H](C(C)C)CC[C@]2(C)[C@@H]13
REMARK SMILES IDX 1 1 2 2 3 3 4 4 5 5 6 6 15 7 13 8 12 9 11 10 7 11 14 12 8 13
REMARK SMILES IDX 9 14 10 15
REMARK H PARENT
REMARK Flexibility Score: inf
ROOT
ATOM      1  C   UNL     1     -43.135 -49.263  24.733  1.00  0.00     0.039 C 
ATOM      2  C   UNL     1     -42.779 -48.377  25.889  1.00  0.00    -0.073 C 
ATOM      3  C   UNL     1     -43.186 -47.082  25.935  1.00  0.00    -0.027 C 
ATOM      4  C   UNL     1     -42.814 -46.233  27.155  1.00  0.00     0.031 C 
ATOM      5  C   UNL     1     -41.951 -47.066  28.157  1.00  0.00     0.003 C 
ATOM      6  C   UNL     1     -40.860 -47.802  27.334  1.00  0.00     0.004 C 
ATOM      7  C   UNL     1     -41.931 -48.882  27.059  1.00  0.00     0.024 C 
ATOM      8  C   UNL     1     -42.565 -48.468  28.407  1.00  0.00    -0.022 C 
ATOM      9  C   UNL     1     -41.818 -49.194  29.568  1.00  0.00     0.008 C 
ATOM     10  C   UNL     1     -40.311 -48.826  29.628  1.00  0.00     0.005 C 
ATOM     11  C   UNL     1     -39.741 -48.404  28.239  1.00  0.00    -0.005 C 
ATOM     12  C   UNL     1     -44.098 -48.598  28.571  1.00  0.00     0.012 C 
ENDROOT
BRANCH  11  13
ATOM     13  C   UNL     1     -38.478 -47.497  28.371  1.00  0.00    -0.014 C 
ATOM     14  C   UNL     1     -37.203 -48.261  28.773  1.00  0.00     0.007 C 
ATOM     15  C   UNL     1     -38.721 -46.337  29.349  1.00  0.00     0.007 C 
ENDBRANCH  11  13
TORSDOF 1
ENDMDL
MODEL 4
REMARK VINA RESULT:    -5.795      2.623      4.856
REMARK INTER + INTRA:          -6.551
REMARK INTER:                  -6.260
REMARK INTRA:                  -0.291
REMARK UNBOUND:                -0.418
REMARK SMILES CC1=CC[C@@H]2[C@H]3[C@@H](C(C)C)CC[C@]2(C)[C@@H]13
REMARK SMILES IDX 1 1 2 2 3 3 4 4 5 5 6 6 15 7 13 8 12 9 11 10 7 11 14 12 8 13
REMARK SMILES IDX 9 14 10 15
REMARK H PARENT
REMARK Flexibility Score: inf
ROOT
ATOM      1  C   UNL     1     -49.088 -47.752  19.129  1.00  0.00     0.039 C 
ATOM      2  C   UNL     1     -50.098 -48.634  19.800  1.00  0.00    -0.073 C 
ATOM      3  C   UNL     1     -50.337 -49.895  19.356  1.00  0.00    -0.027 C 
ATOM      4  C   UNL     1     -51.362 -50.758  20.099  1.00  0.00     0.031 C 
ATOM      5  C   UNL     1     -52.000 -49.955  21.278  1.00  0.00     0.003 C 
ATOM      6  C   UNL     1     -52.383 -48.553  20.734  1.00  0.00     0.004 C 
ATOM      7  C   UNL     1     -50.915 -48.152  21.003  1.00  0.00     0.024 C 
ATOM      8  C   UNL     1     -50.921 -49.223  22.118  1.00  0.00    -0.022 C 
ATOM      9  C   UNL     1     -51.551 -48.613  23.408  1.00  0.00     0.008 C 
ATOM     10  C   UNL     1     -53.018 -48.154  23.194  1.00  0.00     0.005 C 
ATOM     11  C   UNL     1     -53.318 -47.773  21.711  1.00  0.00    -0.005 C 
ATOM     12  C   UNL     1     -49.598 -49.956  22.443  1.00  0.00     0.012 C 
ENDROOT
BRANCH  11  13
ATOM     13  C   UNL     1     -54.835 -47.892  21.367  1.00  0.00    -0.014 C 
ATOM     14  C   UNL     1     -55.112 -48.286  19.905  1.00  0.00     0.007 C 
ATOM     15  C   UNL     1     -55.590 -46.599  21.711  1.00  0.00     0.007 C 
ENDBRANCH  11  13
TORSDOF 1
ENDMDL
MODEL 5
REMARK VINA RESULT:    -5.644     11.973     13.678
REMARK INTER + INTRA:          -6.392
REMARK INTER:                  -6.125
REMARK INTRA:                  -0.267
REMARK UNBOUND:                -0.418
REMARK SMILES CC1=CC[C@@H]2[C@H]3[C@@H](C(C)C)CC[C@]2(C)[C@@H]13
REMARK SMILES IDX 1 1 2 2 3 3 4 4 5 5 6 6 15 7 13 8 12 9 11 10 7 11 14 12 8 13
REMARK SMILES IDX 9 14 10 15
REMARK H PARENT
REMARK Flexibility Score: inf
ROOT
ATOM      1  C   UNL     1     -38.239 -45.915  29.516  1.00  0.00     0.039 C 
ATOM      2  C   UNL     1     -38.853 -47.154  28.938  1.00  0.00    -0.073 C 
ATOM      3  C   UNL     1     -38.083 -48.197  28.532  1.00  0.00    -0.027 C 
ATOM      4  C   UNL     1     -38.769 -49.449  27.974  1.00  0.00     0.031 C 
ATOM      5  C   UNL     1     -40.320 -49.254  27.944  1.00  0.00     0.003 C 
ATOM      6  C   UNL     1     -40.603 -47.852  27.340  1.00  0.00     0.004 C 
ATOM      7  C   UNL     1     -40.368 -47.297  28.763  1.00  0.00     0.024 C 
ATOM      8  C   UNL     1     -40.846 -48.673  29.282  1.00  0.00    -0.022 C 
ATOM      9  C   UNL     1     -42.406 -48.693  29.313  1.00  0.00     0.008 C 
ATOM     10  C   UNL     1     -43.031 -48.480  27.908  1.00  0.00     0.005 C 
ATOM     11  C   UNL     1     -42.104 -47.665  26.955  1.00  0.00    -0.005 C 
ATOM     12  C   UNL     1     -40.261 -49.202  30.613  1.00  0.00     0.012 C 
ENDROOT
BRANCH  11  13
ATOM     13  C   UNL     1     -42.411 -47.945  25.452  1.00  0.00    -0.014 C 
ATOM     14  C   UNL     1     -43.184 -46.813  24.753  1.00  0.00     0.007 C 
ATOM     15  C   UNL     1     -43.159 -49.276  25.271  1.00  0.00     0.007 C 
ENDBRANCH  11  13
TORSDOF 1
ENDMDL
MODEL 6
REMARK VINA RESULT:    -5.545     11.026     13.224
REMARK INTER + INTRA:          -6.286
REMARK INTER:                  -5.993
REMARK INTRA:                  -0.293
REMARK UNBOUND:                -0.418
REMARK SMILES CC1=CC[C@@H]2[C@H]3[C@@H](C(C)C)CC[C@]2(C)[C@@H]13
REMARK SMILES IDX 1 1 2 2 3 3 4 4 5 5 6 6 15 7 13 8 12 9 11 10 7 11 14 12 8 13
REMARK SMILES IDX 9 14 10 15
REMARK H PARENT
REMARK Flexibility Score: inf
ROOT
ATOM      1  C   UNL     1     -44.398 -50.346  25.863  1.00  0.00     0.039 C 
ATOM      2  C   UNL     1     -44.083 -49.499  27.058  1.00  0.00    -0.073 C 
ATOM      3  C   UNL     1     -44.756 -48.343  27.299  1.00  0.00    -0.027 C 
ATOM      4  C   UNL     1     -44.408 -47.532  28.552  1.00  0.00     0.031 C 
ATOM      5  C   UNL     1     -43.246 -48.219  29.340  1.00  0.00     0.003 C 
ATOM      6  C   UNL     1     -42.150 -48.609  28.313  1.00  0.00     0.004 C 
ATOM      7  C   UNL     1     -42.983 -49.884  28.052  1.00  0.00     0.024 C 
ATOM      8  C   UNL     1     -43.491 -49.741  29.505  1.00  0.00    -0.022 C 
ATOM      9  C   UNL     1     -42.441 -50.363  30.477  1.00  0.00     0.008 C 
ATOM     10  C   UNL     1     -41.061 -49.658  30.393  1.00  0.00     0.005 C 
ATOM     11  C   UNL     1     -40.806 -49.002  29.001  1.00  0.00    -0.005 C 
ATOM     12  C   UNL     1     -44.917 -50.240  29.840  1.00  0.00     0.012 C 
ENDROOT
BRANCH  11  13
ATOM     13  C   UNL     1     -39.769 -47.839  29.078  1.00  0.00    -0.014 C 
ATOM     14  C   UNL     1     -40.105 -46.645  28.166  1.00  0.00     0.007 C 
ATOM     15  C   UNL     1     -38.346 -48.336  28.783  1.00  0.00     0.007 C 
ENDBRANCH  11  13
TORSDOF 1
ENDMDL
MODEL 7
REMARK VINA RESULT:    -5.539      3.524      6.032
REMARK INTER + INTRA:          -6.280
REMARK INTER:                  -5.988
REMARK INTRA:                  -0.292
REMARK UNBOUND:                -0.418
REMARK SMILES CC1=CC[C@@H]2[C@H]3[C@@H](C(C)C)CC[C@]2(C)[C@@H]13
REMARK SMILES IDX 1 1 2 2 3 3 4 4 5 5 6 6 15 7 13 8 12 9 11 10 7 11 14 12 8 13
REMARK SMILES IDX 9 14 10 15
REMARK H PARENT
REMARK Flexibility Score: inf
ROOT
ATOM      1  C   UNL     1     -50.500 -49.615  24.984  1.00  0.00     0.039 C 
ATOM      2  C   UNL     1     -50.747 -48.773  23.768  1.00  0.00    -0.073 C 
ATOM      3  C   UNL     1     -50.256 -47.510  23.675  1.00  0.00    -0.027 C 
ATOM      4  C   UNL     1     -50.520 -46.706  22.397  1.00  0.00     0.031 C 
ATOM      5  C   UNL     1     -51.390 -47.538  21.400  1.00  0.00     0.003 C 
ATOM      6  C   UNL     1     -52.561 -48.159  22.207  1.00  0.00     0.004 C 
ATOM      7  C   UNL     1     -51.575 -49.287  22.587  1.00  0.00     0.024 C 
ATOM      8  C   UNL     1     -50.857 -48.986  21.251  1.00  0.00    -0.022 C 
ATOM      9  C   UNL     1     -51.598 -49.726  20.095  1.00  0.00     0.008 C 
ATOM     10  C   UNL     1     -53.074 -49.269  19.945  1.00  0.00     0.005 C 
ATOM     11  C   UNL     1     -53.676 -48.738  21.283  1.00  0.00    -0.005 C 
ATOM     12  C   UNL     1     -49.330 -49.220  21.165  1.00  0.00     0.012 C 
ENDROOT
BRANCH  11  13
ATOM     13  C   UNL     1     -54.871 -47.763  21.045  1.00  0.00    -0.014 C 
ATOM     14  C   UNL     1     -54.904 -46.570  22.017  1.00  0.00     0.007 C 
ATOM     15  C   UNL     1     -56.216 -48.506  21.086  1.00  0.00     0.007 C 
ENDBRANCH  11  13
TORSDOF 1
ENDMDL
MODEL 8
REMARK VINA RESULT:    -5.532     10.585     12.836
REMARK INTER + INTRA:          -6.273
REMARK INTER:                  -5.999
REMARK INTRA:                  -0.274
REMARK UNBOUND:                -0.418
REMARK SMILES CC1=CC[C@@H]2[C@H]3[C@@H](C(C)C)CC[C@]2(C)[C@@H]13
REMARK SMILES IDX 1 1 2 2 3 3 4 4 5 5 6 6 15 7 13 8 12 9 11 10 7 11 14 12 8 13
REMARK SMILES IDX 9 14 10 15
REMARK H PARENT
REMARK Flexibility Score: inf
ROOT
ATOM      1  C   UNL     1     -44.021 -46.231  28.141  1.00  0.00     0.039 C 
ATOM      2  C   UNL     1     -44.084 -47.726  28.228  1.00  0.00    -0.073 C 
ATOM      3  C   UNL     1     -44.438 -48.479  27.154  1.00  0.00    -0.027 C 
ATOM      4  C   UNL     1     -44.460 -50.005  27.297  1.00  0.00     0.031 C 
ATOM      5  C   UNL     1     -44.080 -50.422  28.754  1.00  0.00     0.003 C 
ATOM      6  C   UNL     1     -44.888 -49.520  29.724  1.00  0.00     0.004 C 
ATOM      7  C   UNL     1     -43.770 -48.471  29.528  1.00  0.00     0.024 C 
ATOM      8  C   UNL     1     -42.824 -49.664  29.255  1.00  0.00    -0.022 C 
ATOM      9  C   UNL     1     -42.335 -50.250  30.615  1.00  0.00     0.008 C 
ATOM     10  C   UNL     1     -43.504 -50.773  31.492  1.00  0.00     0.005 C 
ATOM     11  C   UNL     1     -44.851 -50.046  31.193  1.00  0.00    -0.005 C 
ATOM     12  C   UNL     1     -41.636 -49.455  28.285  1.00  0.00     0.012 C 
ENDROOT
BRANCH  11  13
ATOM     13  C   UNL     1     -46.089 -50.910  31.587  1.00  0.00    -0.014 C 
ATOM     14  C   UNL     1     -46.699 -50.537  32.950  1.00  0.00     0.007 C 
ATOM     15  C   UNL     1     -45.757 -52.410  31.557  1.00  0.00     0.007 C 
ENDBRANCH  11  13
TORSDOF 1
ENDMDL
MODEL 9
REMARK VINA RESULT:    -5.478      1.781      5.422
REMARK INTER + INTRA:          -6.216
REMARK INTER:                  -5.999
REMARK INTRA:                  -0.217
REMARK UNBOUND:                -0.418
REMARK SMILES CC1=CC[C@@H]2[C@H]3[C@@H](C(C)C)CC[C@]2(C)[C@@H]13
REMARK SMILES IDX 1 1 2 2 3 3 4 4 5 5 6 6 15 7 13 8 12 9 11 10 7 11 14 12 8 13
REMARK SMILES IDX 9 14 10 15
REMARK H PARENT
REMARK Flexibility Score: inf
ROOT
ATOM      1  C   UNL     1     -50.826 -45.875  22.517  1.00  0.00     0.039 C 
ATOM      2  C   UNL     1     -50.725 -47.351  22.279  1.00  0.00    -0.073 C 
ATOM      3  C   UNL     1     -50.399 -48.206  23.283  1.00  0.00    -0.027 C 
ATOM      4  C   UNL     1     -50.335 -49.707  22.986  1.00  0.00     0.031 C 
ATOM      5  C   UNL     1     -50.642 -49.978  21.477  1.00  0.00     0.003 C 
ATOM      6  C   UNL     1     -49.814 -48.964  20.643  1.00  0.00     0.004 C 
ATOM      7  C   UNL     1     -50.965 -47.963  20.895  1.00  0.00     0.024 C 
ATOM      8  C   UNL     1     -51.893 -49.195  21.002  1.00  0.00    -0.022 C 
ATOM      9  C   UNL     1     -52.309 -49.646  19.567  1.00  0.00     0.008 C 
ATOM     10  C   UNL     1     -51.091 -50.052  18.694  1.00  0.00     0.005 C 
ATOM     11  C   UNL     1     -49.776 -49.334  19.128  1.00  0.00    -0.005 C 
ATOM     12  C   UNL     1     -53.126 -49.111  21.933  1.00  0.00     0.012 C 
ENDROOT
BRANCH  11  13
ATOM     13  C   UNL     1     -48.503 -50.129  18.702  1.00  0.00    -0.014 C 
ATOM     14  C   UNL     1     -47.305 -49.235  18.336  1.00  0.00     0.007 C 
ATOM     15  C   UNL     1     -48.806 -51.095  17.546  1.00  0.00     0.007 C 
ENDBRANCH  11  13
TORSDOF 1
ENDMDL
