MODEL 1
REMARK VINA RESULT:    -3.814      0.000      0.000
REMARK INTER + INTRA:          -5.269
REMARK INTER:                  -4.929
REMARK INTRA:                  -0.340
REMARK UNBOUND:                -0.340
REMARK SMILES CCCCCCC(=O)[O-]
REMARK SMILES IDX 5 1 6 2 7 3 8 4 9 5 4 6 3 7 2 8 1 9
REMARK H PARENT
REMARK Flexibility Score: inf
ROOT
ATOM      1  C   UNL     1      11.535 -15.353  14.332  1.00  0.00     0.006 C 
ENDROOT
BRANCH   1   2
ATOM      2  C   UNL     1      12.189 -16.723  14.095  1.00  0.00     0.053 C 
BRANCH   2   3
ATOM      3  C   UNL     1      13.476 -16.869  14.847  1.00  0.00     0.041 C 
ATOM      4  O   UNL     1      13.720 -17.926  15.486  1.00  0.00    -0.550 OA
ATOM      5  O   UNL     1      14.391 -15.824  14.871  1.00  0.00    -0.550 OA
ENDBRANCH   2   3
ENDBRANCH   1   2
BRANCH   1   6
ATOM      6  C   UNL     1      11.081 -15.113  15.784  1.00  0.00     0.000 C 
BRANCH   6   7
ATOM      7  C   UNL     1      11.751 -13.881  16.420  1.00  0.00    -0.000 C 
BRANCH   7   8
ATOM      8  C   UNL     1      12.290 -12.898  15.370  1.00  0.00    -0.003 C 
ATOM      9  C   UNL     1      11.460 -11.617  15.283  1.00  0.00     0.004 C 
ENDBRANCH   7   8
ENDBRANCH   6   7
ENDBRANCH   1   6
TORSDOF 5
ENDMDL
MODEL 2
REMARK VINA RESULT:    -3.764      3.661      4.989
REMARK INTER + INTRA:          -5.204
REMARK INTER:                  -5.002
REMARK INTRA:                  -0.203
REMARK UNBOUND:                -0.340
REMARK SMILES CCCCCCC(=O)[O-]
REMARK SMILES IDX 5 1 6 2 7 3 8 4 9 5 4 6 3 7 2 8 1 9
REMARK H PARENT
REMARK Flexibility Score: inf
ROOT
ATOM      1  C   UNL     1      11.359 -12.676  15.923  1.00  0.00     0.006 C 
ENDROOT
BRANCH   1   2
ATOM      2  C   UNL     1      12.414 -11.894  15.126  1.00  0.00     0.053 C 
BRANCH   2   3
ATOM      3  C   UNL     1      12.181 -10.415  15.187  1.00  0.00     0.041 C 
ATOM      4  O   UNL     1      11.015  -9.963  15.337  1.00  0.00    -0.550 OA
ATOM      5  O   UNL     1      13.246  -9.536  15.042  1.00  0.00    -0.550 OA
ENDBRANCH   2   3
ENDBRANCH   1   2
BRANCH   1   6
ATOM      6  C   UNL     1      11.799 -14.095  16.329  1.00  0.00     0.000 C 
BRANCH   6   7
ATOM      7  C   UNL     1      11.088 -15.193  15.518  1.00  0.00    -0.000 C 
BRANCH   7   8
ATOM      8  C   UNL     1      11.809 -15.508  14.199  1.00  0.00    -0.003 C 
ATOM      9  C   UNL     1      10.848 -15.626  13.016  1.00  0.00     0.004 C 
ENDBRANCH   7   8
ENDBRANCH   6   7
ENDBRANCH   1   6
TORSDOF 5
ENDMDL
MODEL 3
REMARK VINA RESULT:    -3.734      1.842      2.735
REMARK INTER + INTRA:          -5.166
REMARK INTER:                  -4.847
REMARK INTRA:                  -0.320
REMARK UNBOUND:                -0.340
REMARK SMILES CCCCCCC(=O)[O-]
REMARK SMILES IDX 5 1 6 2 7 3 8 4 9 5 4 6 3 7 2 8 1 9
REMARK H PARENT
REMARK Flexibility Score: inf
ROOT
ATOM      1  C   UNL     1      13.461 -15.269  15.795  1.00  0.00     0.006 C 
ENDROOT
BRANCH   1   2
ATOM      2  C   UNL     1      14.024 -16.583  16.358  1.00  0.00     0.053 C 
BRANCH   2   3
ATOM      3  C   UNL     1      14.314 -17.579  15.277  1.00  0.00     0.041 C 
ATOM      4  O   UNL     1      15.498 -17.771  14.895  1.00  0.00    -0.550 OA
ATOM      5  O   UNL     1      13.274 -18.268  14.668  1.00  0.00    -0.550 OA
ENDBRANCH   2   3
ENDBRANCH   1   2
BRANCH   1   6
ATOM      6  C   UNL     1      11.995 -14.994  16.178  1.00  0.00     0.000 C 
BRANCH   6   7
ATOM      7  C   UNL     1      11.000 -15.491  15.114  1.00  0.00    -0.000 C 
BRANCH   7   8
ATOM      8  C   UNL     1      11.458 -15.168  13.684  1.00  0.00    -0.003 C 
ATOM      9  C   UNL     1      10.648 -15.914  12.624  1.00  0.00     0.004 C 
ENDBRANCH   7   8
ENDBRANCH   6   7
ENDBRANCH   1   6
TORSDOF 5
ENDMDL
MODEL 4
REMARK VINA RESULT:    -3.725      2.149      3.920
REMARK INTER + INTRA:          -5.154
REMARK INTER:                  -4.784
REMARK INTRA:                  -0.370
REMARK UNBOUND:                -0.340
REMARK SMILES CCCCCCC(=O)[O-]
REMARK SMILES IDX 5 1 6 2 7 3 8 4 9 5 4 6 3 7 2 8 1 9
REMARK H PARENT
REMARK Flexibility Score: inf
ROOT
ATOM      1  C   UNL     1      11.392 -15.149  14.163  1.00  0.00     0.006 C 
ENDROOT
BRANCH   1   2
ATOM      2  C   UNL     1      11.071 -15.147  15.666  1.00  0.00     0.053 C 
BRANCH   2   3
ATOM      3  C   UNL     1      12.145 -14.477  16.469  1.00  0.00     0.041 C 
ATOM      4  O   UNL     1      12.277 -14.740  17.693  1.00  0.00    -0.550 OA
ATOM      5  O   UNL     1      12.976 -13.537  15.873  1.00  0.00    -0.550 OA
ENDBRANCH   2   3
ENDBRANCH   1   2
BRANCH   1   6
ATOM      6  C   UNL     1      11.666 -16.546  13.578  1.00  0.00     0.000 C 
BRANCH   6   7
ATOM      7  C   UNL     1      13.164 -16.899  13.558  1.00  0.00    -0.000 C 
BRANCH   7   8
ATOM      8  C   UNL     1      13.528 -17.971  14.596  1.00  0.00    -0.003 C 
ATOM      9  C   UNL     1      14.352 -17.411  15.756  1.00  0.00     0.004 C 
ENDBRANCH   7   8
ENDBRANCH   6   7
ENDBRANCH   1   6
TORSDOF 5
ENDMDL
MODEL 5
REMARK VINA RESULT:    -3.712      1.432      2.062
REMARK INTER + INTRA:          -5.137
REMARK INTER:                  -4.787
REMARK INTRA:                  -0.350
REMARK UNBOUND:                -0.340
REMARK SMILES CCCCCCC(=O)[O-]
REMARK SMILES IDX 5 1 6 2 7 3 8 4 9 5 4 6 3 7 2 8 1 9
REMARK H PARENT
REMARK Flexibility Score: inf
ROOT
ATOM      1  C   UNL     1      12.839 -16.385  13.380  1.00  0.00     0.006 C 
ENDROOT
BRANCH   1   2
ATOM      2  C   UNL     1      13.138 -17.553  14.333  1.00  0.00     0.053 C 
BRANCH   2   3
ATOM      3  C   UNL     1      14.359 -17.301  15.164  1.00  0.00     0.041 C 
ATOM      4  O   UNL     1      14.280 -16.608  16.212  1.00  0.00    -0.550 OA
ATOM      5  O   UNL     1      15.591 -17.800  14.761  1.00  0.00    -0.550 OA
ENDBRANCH   2   3
ENDBRANCH   1   2
BRANCH   1   6
ATOM      6  C   UNL     1      11.418 -15.807  13.516  1.00  0.00     0.000 C 
BRANCH   6   7
ATOM      7  C   UNL     1      11.020 -15.547  14.980  1.00  0.00    -0.000 C 
BRANCH   7   8
ATOM      8  C   UNL     1      11.645 -14.261  15.539  1.00  0.00    -0.003 C 
ATOM      9  C   UNL     1      11.837 -14.310  17.055  1.00  0.00     0.004 C 
ENDBRANCH   7   8
ENDBRANCH   6   7
ENDBRANCH   1   6
TORSDOF 5
ENDMDL
MODEL 6
REMARK VINA RESULT:    -3.695      1.609      2.656
REMARK INTER + INTRA:          -5.115
REMARK INTER:                  -4.929
REMARK INTRA:                  -0.186
REMARK UNBOUND:                -0.340
REMARK SMILES CCCCCCC(=O)[O-]
REMARK SMILES IDX 5 1 6 2 7 3 8 4 9 5 4 6 3 7 2 8 1 9
REMARK H PARENT
REMARK Flexibility Score: inf
ROOT
ATOM      1  C   UNL     1      11.621 -13.600  16.262  1.00  0.00     0.006 C 
ENDROOT
BRANCH   1   2
ATOM      2  C   UNL     1      11.376 -15.105  16.071  1.00  0.00     0.053 C 
BRANCH   2   3
ATOM      3  C   UNL     1      11.709 -15.556  14.681  1.00  0.00     0.041 C 
ATOM      4  O   UNL     1      10.935 -15.289  13.725  1.00  0.00    -0.550 OA
ATOM      5  O   UNL     1      12.857 -16.303  14.449  1.00  0.00    -0.550 OA
ENDBRANCH   2   3
ENDBRANCH   1   2
BRANCH   1   6
ATOM      6  C   UNL     1      12.833 -13.054  15.486  1.00  0.00     0.000 C 
BRANCH   6   7
ATOM      7  C   UNL     1      12.685 -11.565  15.124  1.00  0.00    -0.000 C 
BRANCH   7   8
ATOM      8  C   UNL     1      11.226 -11.089  15.182  1.00  0.00    -0.003 C 
ATOM      9  C   UNL     1      11.108  -9.576  15.362  1.00  0.00     0.004 C 
ENDBRANCH   7   8
ENDBRANCH   6   7
ENDBRANCH   1   6
TORSDOF 5
ENDMDL
MODEL 7
REMARK VINA RESULT:    -3.605      2.553      4.518
REMARK INTER + INTRA:          -4.999
REMARK INTER:                  -4.769
REMARK INTRA:                  -0.230
REMARK UNBOUND:                -0.340
REMARK SMILES CCCCCCC(=O)[O-]
REMARK SMILES IDX 5 1 6 2 7 3 8 4 9 5 4 6 3 7 2 8 1 9
REMARK H PARENT
REMARK Flexibility Score: inf
ROOT
ATOM      1  C   UNL     1      13.551 -16.263  16.065  1.00  0.00     0.006 C 
ENDROOT
BRANCH   1   2
ATOM      2  C   UNL     1      12.277 -15.489  15.689  1.00  0.00     0.053 C 
BRANCH   2   3
ATOM      3  C   UNL     1      11.950 -14.425  16.693  1.00  0.00     0.041 C 
ATOM      4  O   UNL     1      12.137 -14.633  17.920  1.00  0.00    -0.550 OA
ATOM      5  O   UNL     1      11.407 -13.217  16.274  1.00  0.00    -0.550 OA
ENDBRANCH   2   3
ENDBRANCH   1   2
BRANCH   1   6
ATOM      6  C   UNL     1      13.732 -17.588  15.302  1.00  0.00     0.000 C 
BRANCH   6   7
ATOM      7  C   UNL     1      15.161 -17.773  14.763  1.00  0.00    -0.000 C 
BRANCH   7   8
ATOM      8  C   UNL     1      15.308 -17.298  13.311  1.00  0.00    -0.003 C 
ATOM      9  C   UNL     1      14.002 -17.398  12.523  1.00  0.00     0.004 C 
ENDBRANCH   7   8
ENDBRANCH   6   7
ENDBRANCH   1   6
TORSDOF 5
ENDMDL
MODEL 8
REMARK VINA RESULT:    -3.591      2.121      4.230
REMARK INTER + INTRA:          -4.981
REMARK INTER:                  -4.670
REMARK INTRA:                  -0.311
REMARK UNBOUND:                -0.340
REMARK SMILES CCCCCCC(=O)[O-]
REMARK SMILES IDX 5 1 6 2 7 3 8 4 9 5 4 6 3 7 2 8 1 9
REMARK H PARENT
REMARK Flexibility Score: inf
ROOT
ATOM      1  C   UNL     1      11.013 -15.138  15.581  1.00  0.00     0.006 C 
ENDROOT
BRANCH   1   2
ATOM      2  C   UNL     1      11.969 -14.267  16.412  1.00  0.00     0.053 C 
BRANCH   2   3
ATOM      3  C   UNL     1      12.348 -13.007  15.695  1.00  0.00     0.041 C 
ATOM      4  O   UNL     1      13.554 -12.771  15.423  1.00  0.00    -0.550 OA
ATOM      5  O   UNL     1      11.372 -12.078  15.359  1.00  0.00    -0.550 OA
ENDBRANCH   2   3
ENDBRANCH   1   2
BRANCH   1   6
ATOM      6  C   UNL     1      11.531 -15.475  14.170  1.00  0.00     0.000 C 
BRANCH   6   7
ATOM      7  C   UNL     1      12.204 -16.857  14.099  1.00  0.00    -0.000 C 
BRANCH   7   8
ATOM      8  C   UNL     1      13.709 -16.793  14.398  1.00  0.00    -0.003 C 
ATOM      9  C   UNL     1      14.137 -17.788  15.477  1.00  0.00     0.004 C 
ENDBRANCH   7   8
ENDBRANCH   6   7
ENDBRANCH   1   6
TORSDOF 5
ENDMDL
MODEL 9
REMARK VINA RESULT:    -3.570      2.322      4.074
REMARK INTER + INTRA:          -4.954
REMARK INTER:                  -4.659
REMARK INTRA:                  -0.295
REMARK UNBOUND:                -0.340
REMARK SMILES CCCCCCC(=O)[O-]
REMARK SMILES IDX 5 1 6 2 7 3 8 4 9 5 4 6 3 7 2 8 1 9
REMARK H PARENT
REMARK Flexibility Score: inf
ROOT
ATOM      1  C   UNL     1      12.539 -14.957  15.289  1.00  0.00     0.006 C 
ENDROOT
BRANCH   1   2
ATOM      2  C   UNL     1      11.167 -15.310  14.694  1.00  0.00     0.053 C 
BRANCH   2   3
ATOM      3  C   UNL     1      11.270 -15.741  13.263  1.00  0.00     0.041 C 
ATOM      4  O   UNL     1      10.270 -15.655  12.502  1.00  0.00    -0.550 OA
ATOM      5  O   UNL     1      12.459 -16.272  12.779  1.00  0.00    -0.550 OA
ENDBRANCH   2   3
ENDBRANCH   1   2
BRANCH   1   6
ATOM      6  C   UNL     1      12.985 -15.880  16.439  1.00  0.00     0.000 C 
BRANCH   6   7
ATOM      7  C   UNL     1      14.405 -16.436  16.236  1.00  0.00    -0.000 C 
BRANCH   7   8
ATOM      8  C   UNL     1      14.419 -17.721  15.395  1.00  0.00    -0.003 C 
ATOM      9  C   UNL     1      15.539 -17.733  14.355  1.00  0.00     0.004 C 
ENDBRANCH   7   8
ENDBRANCH   6   7
ENDBRANCH   1   6
TORSDOF 5
ENDMDL
