MODEL 1
REMARK VINA RESULT:    -7.225      0.000      0.000
REMARK INTER + INTRA:          -9.508
REMARK INTER:                  -9.125
REMARK INTRA:                  -0.383
REMARK UNBOUND:                -0.383
REMARK SMILES COc1cc(-c2[o+]c3cc(O)cc(O)c3cc2O)cc(O)c1O
REMARK SMILES IDX 6 1 7 2 8 3 9 4 10 5 12 6 13 7 15 8 16 9 17 10 5 11 3 12
REMARK SMILES IDX 4 13 22 14 20 15 19 16 2 17 1 18 23 19 21 21 18 23 11 25
REMARK SMILES IDX 14 27
REMARK H PARENT 23 20 21 22 18 24 11 26 14 28
REMARK Flexibility Score: inf
ROOT
ATOM      1  C   UNL     1     -19.355  12.040 -35.030  1.00  0.00     0.402 A 
ATOM      2  O   UNL     1     -18.053  11.767 -35.003  1.00  0.00    -0.202 OA
ATOM      3  C   UNL     1     -17.230  12.228 -34.066  1.00  0.00     0.368 A 
ATOM      4  C   UNL     1     -15.875  11.889 -34.123  1.00  0.00     0.162 A 
ATOM      5  C   UNL     1     -14.988  12.364 -33.153  1.00  0.00     0.128 A 
ATOM      6  C   UNL     1     -15.457  13.181 -32.122  1.00  0.00     0.093 A 
ATOM      7  C   UNL     1     -16.810  13.535 -32.042  1.00  0.00     0.136 A 
ATOM      8  C   UNL     1     -17.715  13.054 -33.023  1.00  0.00     0.125 A 
ATOM      9  C   UNL     1     -19.089  13.347 -33.016  1.00  0.00     0.078 A 
ATOM     10  C   UNL     1     -19.921  12.832 -34.015  1.00  0.00     0.223 A 
ENDROOT
BRANCH   1  11
ATOM     11  C   UNL     1     -20.166  11.474 -36.133  1.00  0.00     0.091 A 
ATOM     12  C   UNL     1     -20.876  11.452 -38.472  1.00  0.00     0.165 A 
ATOM     13  C   UNL     1     -20.113  12.012 -37.429  1.00  0.00     0.069 A 
ATOM     14  C   UNL     1     -21.687  10.332 -38.208  1.00  0.00     0.200 A 
ATOM     15  C   UNL     1     -21.724   9.779 -36.917  1.00  0.00     0.162 A 
ATOM     16  C   UNL     1     -20.961  10.345 -35.892  1.00  0.00     0.068 A 
BRANCH  12  17
ATOM     17  O   UNL     1     -20.850  11.975 -39.774  1.00  0.00    -0.493 OA
ATOM     18  C   UNL     1     -19.971  11.536 -40.806  1.00  0.00     0.278 C 
ENDBRANCH  12  17
BRANCH  14  19
ATOM     19  O   UNL     1     -22.457   9.758 -39.220  1.00  0.00    -0.502 OA
ATOM     20  H   UNL     1     -23.407   9.439 -39.065  1.00  0.00     0.293 HD
ENDBRANCH  14  19
BRANCH  15  21
ATOM     21  O   UNL     1     -22.513   8.664 -36.632  1.00  0.00    -0.504 OA
ATOM     22  H   UNL     1     -22.689   8.357 -35.684  1.00  0.00     0.293 HD
ENDBRANCH  15  21
ENDBRANCH   1  11
BRANCH  10  23
ATOM     23  O   UNL     1     -21.292  13.081 -33.980  1.00  0.00    -0.500 OA
ATOM     24  H   UNL     1     -21.944  12.423 -33.570  1.00  0.00     0.294 HD
ENDBRANCH  10  23
BRANCH   5  25
ATOM     25  O   UNL     1     -13.637  12.029 -33.204  1.00  0.00    -0.507 OA
ATOM     26  H   UNL     1     -12.928  12.622 -32.790  1.00  0.00     0.293 HD
ENDBRANCH   5  25
BRANCH   7  27
ATOM     27  O   UNL     1     -17.198  14.358 -30.981  1.00  0.00    -0.507 OA
ATOM     28  H   UNL     1     -16.564  14.739 -30.293  1.00  0.00     0.293 HD
ENDBRANCH   7  27
TORSDOF 7
ENDMDL
MODEL 2
REMARK VINA RESULT:    -7.021      1.494      7.383
REMARK INTER + INTRA:          -9.251
REMARK INTER:                  -9.026
REMARK INTRA:                  -0.225
REMARK UNBOUND:                -0.383
REMARK SMILES COc1cc(-c2[o+]c3cc(O)cc(O)c3cc2O)cc(O)c1O
REMARK SMILES IDX 6 1 7 2 8 3 9 4 10 5 12 6 13 7 15 8 16 9 17 10 5 11 3 12
REMARK SMILES IDX 4 13 22 14 20 15 19 16 2 17 1 18 23 19 21 21 18 23 11 25
REMARK SMILES IDX 14 27
REMARK H PARENT 23 20 21 22 18 24 11 26 14 28
REMARK Flexibility Score: inf
ROOT
ATOM      1  C   UNL     1     -18.265  12.666 -35.378  1.00  0.00     0.402 A 
ATOM      2  O   UNL     1     -19.068  11.607 -35.326  1.00  0.00    -0.202 OA
ATOM      3  C   UNL     1     -19.867  11.247 -36.325  1.00  0.00     0.368 A 
ATOM      4  C   UNL     1     -20.679  10.119 -36.175  1.00  0.00     0.162 A 
ATOM      5  C   UNL     1     -21.531   9.720 -37.209  1.00  0.00     0.128 A 
ATOM      6  C   UNL     1     -21.572  10.453 -38.397  1.00  0.00     0.093 A 
ATOM      7  C   UNL     1     -20.770  11.588 -38.573  1.00  0.00     0.136 A 
ATOM      8  C   UNL     1     -19.901  11.995 -37.527  1.00  0.00     0.125 A 
ATOM      9  C   UNL     1     -19.051  13.110 -37.619  1.00  0.00     0.078 A 
ATOM     10  C   UNL     1     -18.219  13.448 -36.548  1.00  0.00     0.223 A 
ENDROOT
BRANCH   1  11
ATOM     11  C   UNL     1     -17.429  12.971 -34.194  1.00  0.00     0.091 A 
ATOM     12  C   UNL     1     -16.701  14.491 -32.423  1.00  0.00     0.165 A 
ATOM     13  C   UNL     1     -17.489  14.222 -33.559  1.00  0.00     0.069 A 
ATOM     14  C   UNL     1     -15.858  13.484 -31.915  1.00  0.00     0.200 A 
ATOM     15  C   UNL     1     -15.813  12.225 -32.536  1.00  0.00     0.162 A 
ATOM     16  C   UNL     1     -16.600  11.972 -33.663  1.00  0.00     0.068 A 
BRANCH  12  17
ATOM     17  O   UNL     1     -16.735  15.735 -31.774  1.00  0.00    -0.493 OA
ATOM     18  C   UNL     1     -15.896  16.840 -32.100  1.00  0.00     0.278 C 
ENDBRANCH  12  17
BRANCH  14  19
ATOM     19  O   UNL     1     -15.063  13.722 -30.793  1.00  0.00    -0.502 OA
ATOM     20  H   UNL     1     -14.095  13.426 -30.741  1.00  0.00     0.293 HD
ENDBRANCH  14  19
BRANCH  15  21
ATOM     21  O   UNL     1     -14.991  11.209 -32.047  1.00  0.00    -0.504 OA
ATOM     22  H   UNL     1     -14.764  11.126 -31.064  1.00  0.00     0.293 HD
ENDBRANCH  15  21
ENDBRANCH   1  11
BRANCH  10  23
ATOM     23  O   UNL     1     -17.340  14.525 -36.657  1.00  0.00    -0.500 OA
ATOM     24  H   UNL     1     -17.605  15.460 -36.374  1.00  0.00     0.294 HD
ENDBRANCH  10  23
BRANCH   5  25
ATOM     25  O   UNL     1     -22.341   8.597 -37.066  1.00  0.00    -0.507 OA
ATOM     26  H   UNL     1     -23.250   8.539 -37.509  1.00  0.00     0.293 HD
ENDBRANCH   5  25
BRANCH   7  27
ATOM     27  O   UNL     1     -20.872  12.266 -39.790  1.00  0.00    -0.507 OA
ATOM     28  H   UNL     1     -20.710  11.845 -40.694  1.00  0.00     0.293 HD
ENDBRANCH   7  27
TORSDOF 7
ENDMDL
MODEL 3
REMARK VINA RESULT:    -6.767      1.498      7.156
REMARK INTER + INTRA:          -8.930
REMARK INTER:                  -8.612
REMARK INTRA:                  -0.318
REMARK UNBOUND:                -0.383
REMARK SMILES COc1cc(-c2[o+]c3cc(O)cc(O)c3cc2O)cc(O)c1O
REMARK SMILES IDX 6 1 7 2 8 3 9 4 10 5 12 6 13 7 15 8 16 9 17 10 5 11 3 12
REMARK SMILES IDX 4 13 22 14 20 15 19 16 2 17 1 18 23 19 21 21 18 23 11 25
REMARK SMILES IDX 14 27
REMARK H PARENT 23 20 21 22 18 24 11 26 14 28
REMARK Flexibility Score: inf
ROOT
ATOM      1  C   UNL     1     -19.026  12.542 -34.645  1.00  0.00     0.402 A 
ATOM      2  O   UNL     1     -18.717  12.341 -35.924  1.00  0.00    -0.202 OA
ATOM      3  C   UNL     1     -19.615  12.013 -36.848  1.00  0.00     0.368 A 
ATOM      4  C   UNL     1     -19.194  11.819 -38.166  1.00  0.00     0.162 A 
ATOM      5  C   UNL     1     -20.116  11.470 -39.157  1.00  0.00     0.128 A 
ATOM      6  C   UNL     1     -21.464  11.314 -38.828  1.00  0.00     0.093 A 
ATOM      7  C   UNL     1     -21.912  11.502 -37.514  1.00  0.00     0.136 A 
ATOM      8  C   UNL     1     -20.979  11.858 -36.505  1.00  0.00     0.125 A 
ATOM      9  C   UNL     1     -21.339  12.080 -35.165  1.00  0.00     0.078 A 
ATOM     10  C   UNL     1     -20.364  12.434 -34.227  1.00  0.00     0.223 A 
ENDROOT
BRANCH   1  11
ATOM     11  C   UNL     1     -17.934  12.894 -33.708  1.00  0.00     0.091 A 
ATOM     12  C   UNL     1     -16.813  14.487 -32.231  1.00  0.00     0.165 A 
ATOM     13  C   UNL     1     -17.846  14.173 -33.135  1.00  0.00     0.069 A 
ATOM     14  C   UNL     1     -15.870  13.498 -31.892  1.00  0.00     0.200 A 
ATOM     15  C   UNL     1     -15.969  12.211 -32.446  1.00  0.00     0.162 A 
ATOM     16  C   UNL     1     -17.000  11.914 -33.342  1.00  0.00     0.068 A 
BRANCH  12  17
ATOM     17  O   UNL     1     -16.695  15.760 -31.651  1.00  0.00    -0.493 OA
ATOM     18  C   UNL     1     -15.936  16.833 -32.200  1.00  0.00     0.278 C 
ENDBRANCH  12  17
BRANCH  14  19
ATOM     19  O   UNL     1     -14.833  13.781 -31.001  1.00  0.00    -0.502 OA
ATOM     20  H   UNL     1     -14.305  13.052 -30.534  1.00  0.00     0.293 HD
ENDBRANCH  14  19
BRANCH  15  21
ATOM     21  O   UNL     1     -15.052  11.212 -32.119  1.00  0.00    -0.504 OA
ATOM     22  H   UNL     1     -14.782  11.021 -31.162  1.00  0.00     0.293 HD
ENDBRANCH  15  21
ENDBRANCH   1  11
BRANCH  10  23
ATOM     23  O   UNL     1     -20.728  12.702 -32.908  1.00  0.00    -0.500 OA
ATOM     24  H   UNL     1     -20.038  12.797 -32.173  1.00  0.00     0.294 HD
ENDBRANCH  10  23
BRANCH   5  25
ATOM     25  O   UNL     1     -19.703  11.276 -40.473  1.00  0.00    -0.507 OA
ATOM     26  H   UNL     1     -20.190  11.707 -41.250  1.00  0.00     0.293 HD
ENDBRANCH   5  25
BRANCH   7  27
ATOM     27  O   UNL     1     -23.276  11.324 -37.267  1.00  0.00    -0.507 OA
ATOM     28  H   UNL     1     -23.713  11.448 -36.365  1.00  0.00     0.293 HD
ENDBRANCH   7  27
TORSDOF 7
ENDMDL
MODEL 4
REMARK VINA RESULT:    -6.736      5.741      8.375
REMARK INTER + INTRA:          -8.891
REMARK INTER:                  -8.462
REMARK INTRA:                  -0.429
REMARK UNBOUND:                -0.383
REMARK SMILES COc1cc(-c2[o+]c3cc(O)cc(O)c3cc2O)cc(O)c1O
REMARK SMILES IDX 6 1 7 2 8 3 9 4 10 5 12 6 13 7 15 8 16 9 17 10 5 11 3 12
REMARK SMILES IDX 4 13 22 14 20 15 19 16 2 17 1 18 23 19 21 21 18 23 11 25
REMARK SMILES IDX 14 27
REMARK H PARENT 23 20 21 22 18 24 11 26 14 28
REMARK Flexibility Score: inf
ROOT
ATOM      1  C   UNL     1     -23.542  15.282 -38.826  1.00  0.00     0.402 A 
ATOM      2  O   UNL     1     -23.635  16.169 -39.813  1.00  0.00    -0.202 OA
ATOM      3  C   UNL     1     -24.059  17.416 -39.636  1.00  0.00     0.368 A 
ATOM      4  C   UNL     1     -24.126  18.275 -40.736  1.00  0.00     0.162 A 
ATOM      5  C   UNL     1     -24.571  19.591 -40.578  1.00  0.00     0.128 A 
ATOM      6  C   UNL     1     -24.952  20.049 -39.315  1.00  0.00     0.093 A 
ATOM      7  C   UNL     1     -24.896  19.208 -38.196  1.00  0.00     0.136 A 
ATOM      8  C   UNL     1     -24.442  17.872 -38.351  1.00  0.00     0.125 A 
ATOM      9  C   UNL     1     -24.339  16.963 -37.285  1.00  0.00     0.078 A 
ATOM     10  C   UNL     1     -23.878  15.663 -37.514  1.00  0.00     0.223 A 
ENDROOT
BRANCH   1  11
ATOM     11  C   UNL     1     -23.065  13.918 -39.152  1.00  0.00     0.091 A 
ATOM     12  C   UNL     1     -21.289  12.241 -39.256  1.00  0.00     0.165 A 
ATOM     13  C   UNL     1     -21.724  13.547 -38.959  1.00  0.00     0.069 A 
ATOM     14  C   UNL     1     -22.217  11.298 -39.738  1.00  0.00     0.200 A 
ATOM     15  C   UNL     1     -23.563  11.661 -39.909  1.00  0.00     0.162 A 
ATOM     16  C   UNL     1     -23.981  12.960 -39.610  1.00  0.00     0.068 A 
BRANCH  12  17
ATOM     17  O   UNL     1     -19.953  11.847 -39.083  1.00  0.00    -0.493 OA
ATOM     18  C   UNL     1     -19.187  12.080 -37.905  1.00  0.00     0.278 C 
ENDBRANCH  12  17
BRANCH  14  19
ATOM     19  O   UNL     1     -21.814   9.997 -40.044  1.00  0.00    -0.502 OA
ATOM     20  H   UNL     1     -22.224   9.468 -40.805  1.00  0.00     0.293 HD
ENDBRANCH  14  19
BRANCH  15  21
ATOM     21  O   UNL     1     -24.503  10.742 -40.377  1.00  0.00    -0.504 OA
ATOM     22  H   UNL     1     -25.286  11.020 -40.957  1.00  0.00     0.293 HD
ENDBRANCH  15  21
ENDBRANCH   1  11
BRANCH  10  23
ATOM     23  O   UNL     1     -23.729  14.776 -36.449  1.00  0.00    -0.500 OA
ATOM     24  H   UNL     1     -23.872  15.066 -35.489  1.00  0.00     0.294 HD
ENDBRANCH  10  23
BRANCH   5  25
ATOM     25  O   UNL     1     -24.639  20.452 -41.670  1.00  0.00    -0.507 OA
ATOM     26  H   UNL     1     -24.009  20.361 -42.458  1.00  0.00     0.293 HD
ENDBRANCH   5  25
BRANCH   7  27
ATOM     27  O   UNL     1     -25.297  19.742 -36.969  1.00  0.00    -0.507 OA
ATOM     28  H   UNL     1     -26.251  19.752 -36.636  1.00  0.00     0.293 HD
ENDBRANCH   7  27
TORSDOF 7
ENDMDL
MODEL 5
REMARK VINA RESULT:    -6.727      1.928      3.325
REMARK INTER + INTRA:          -8.879
REMARK INTER:                  -8.763
REMARK INTRA:                  -0.116
REMARK UNBOUND:                -0.383
REMARK SMILES COc1cc(-c2[o+]c3cc(O)cc(O)c3cc2O)cc(O)c1O
REMARK SMILES IDX 6 1 7 2 8 3 9 4 10 5 12 6 13 7 15 8 16 9 17 10 5 11 3 12
REMARK SMILES IDX 4 13 22 14 20 15 19 16 2 17 1 18 23 19 21 21 18 23 11 25
REMARK SMILES IDX 14 27
REMARK H PARENT 23 20 21 22 18 24 11 26 14 28
REMARK Flexibility Score: inf
ROOT
ATOM      1  C   UNL     1     -19.664  11.644 -36.918  1.00  0.00     0.402 A 
ATOM      2  O   UNL     1     -19.817  12.333 -35.790  1.00  0.00    -0.202 OA
ATOM      3  C   UNL     1     -18.845  12.497 -34.898  1.00  0.00     0.368 A 
ATOM      4  C   UNL     1     -19.102  13.236 -33.740  1.00  0.00     0.162 A 
ATOM      5  C   UNL     1     -18.099  13.422 -32.784  1.00  0.00     0.128 A 
ATOM      6  C   UNL     1     -16.835  12.865 -32.986  1.00  0.00     0.093 A 
ATOM      7  C   UNL     1     -16.551  12.120 -34.138  1.00  0.00     0.136 A 
ATOM      8  C   UNL     1     -17.566  11.931 -35.112  1.00  0.00     0.125 A 
ATOM      9  C   UNL     1     -17.368  11.211 -36.303  1.00  0.00     0.078 A 
ATOM     10  C   UNL     1     -18.415  11.071 -37.219  1.00  0.00     0.223 A 
ENDROOT
BRANCH   1  11
ATOM     11  C   UNL     1     -20.826  11.523 -37.828  1.00  0.00     0.091 A 
ATOM     12  C   UNL     1     -22.641  12.525 -39.124  1.00  0.00     0.165 A 
ATOM     13  C   UNL     1     -21.550  12.653 -38.243  1.00  0.00     0.069 A 
ATOM     14  C   UNL     1     -22.996  11.248 -39.601  1.00  0.00     0.200 A 
ATOM     15  C   UNL     1     -22.258  10.120 -39.205  1.00  0.00     0.162 A 
ATOM     16  C   UNL     1     -21.178  10.262 -38.330  1.00  0.00     0.068 A 
BRANCH  12  17
ATOM     17  O   UNL     1     -23.388  13.635 -39.547  1.00  0.00    -0.493 OA
ATOM     18  C   UNL     1     -24.426  14.249 -38.789  1.00  0.00     0.278 C 
ENDBRANCH  12  17
BRANCH  14  19
ATOM     19  O   UNL     1     -24.074  11.089 -40.472  1.00  0.00    -0.502 OA
ATOM     20  H   UNL     1     -24.943  11.597 -40.357  1.00  0.00     0.293 HD
ENDBRANCH  14  19
BRANCH  15  21
ATOM     21  O   UNL     1     -22.585   8.846 -39.670  1.00  0.00    -0.504 OA
ATOM     22  H   UNL     1     -22.251   8.005 -39.216  1.00  0.00     0.293 HD
ENDBRANCH  15  21
ENDBRANCH   1  11
BRANCH  10  23
ATOM     23  O   UNL     1     -18.205  10.399 -38.423  1.00  0.00    -0.500 OA
ATOM     24  H   UNL     1     -18.356  10.848 -39.318  1.00  0.00     0.294 HD
ENDBRANCH  10  23
BRANCH   5  25
ATOM     25  O   UNL     1     -18.349  14.157 -31.628  1.00  0.00    -0.507 OA
ATOM     26  H   UNL     1     -18.169  15.153 -31.584  1.00  0.00     0.293 HD
ENDBRANCH   5  25
BRANCH   7  27
ATOM     27  O   UNL     1     -15.262  11.594 -34.263  1.00  0.00    -0.507 OA
ATOM     28  H   UNL     1     -14.548  11.660 -33.553  1.00  0.00     0.293 HD
ENDBRANCH   7  27
TORSDOF 7
ENDMDL
MODEL 6
REMARK VINA RESULT:    -6.726      2.188      3.207
REMARK INTER + INTRA:          -8.878
REMARK INTER:                  -8.423
REMARK INTRA:                  -0.454
REMARK UNBOUND:                -0.383
REMARK SMILES COc1cc(-c2[o+]c3cc(O)cc(O)c3cc2O)cc(O)c1O
REMARK SMILES IDX 6 1 7 2 8 3 9 4 10 5 12 6 13 7 15 8 16 9 17 10 5 11 3 12
REMARK SMILES IDX 4 13 22 14 20 15 19 16 2 17 1 18 23 19 21 21 18 23 11 25
REMARK SMILES IDX 14 27
REMARK H PARENT 23 20 21 22 18 24 11 26 14 28
REMARK Flexibility Score: inf
ROOT
ATOM      1  C   UNL     1     -18.367  12.570 -35.194  1.00  0.00     0.402 A 
ATOM      2  O   UNL     1     -17.829  12.507 -33.979  1.00  0.00    -0.202 OA
ATOM      3  C   UNL     1     -16.826  13.285 -33.584  1.00  0.00     0.368 A 
ATOM      4  C   UNL     1     -16.325  13.143 -32.287  1.00  0.00     0.162 A 
ATOM      5  C   UNL     1     -15.268  13.946 -31.848  1.00  0.00     0.128 A 
ATOM      6  C   UNL     1     -14.711  14.894 -32.708  1.00  0.00     0.093 A 
ATOM      7  C   UNL     1     -15.195  15.056 -34.013  1.00  0.00     0.136 A 
ATOM      8  C   UNL     1     -16.268  14.244 -34.463  1.00  0.00     0.125 A 
ATOM      9  C   UNL     1     -16.827  14.346 -35.749  1.00  0.00     0.078 A 
ATOM     10  C   UNL     1     -17.888  13.515 -36.119  1.00  0.00     0.223 A 
ENDROOT
BRANCH   1  11
ATOM     11  C   UNL     1     -19.475  11.641 -35.518  1.00  0.00     0.091 A 
ATOM     12  C   UNL     1     -21.856  11.090 -35.578  1.00  0.00     0.165 A 
ATOM     13  C   UNL     1     -20.812  11.976 -35.247  1.00  0.00     0.069 A 
ATOM     14  C   UNL     1     -21.550   9.865 -36.201  1.00  0.00     0.200 A 
ATOM     15  C   UNL     1     -20.215   9.540 -36.494  1.00  0.00     0.162 A 
ATOM     16  C   UNL     1     -19.189  10.428 -36.160  1.00  0.00     0.068 A 
BRANCH  12  17
ATOM     17  O   UNL     1     -23.200  11.394 -35.309  1.00  0.00    -0.493 OA
ATOM     18  C   UNL     1     -23.703  11.775 -34.033  1.00  0.00     0.278 C 
ENDBRANCH  12  17
BRANCH  14  19
ATOM     19  O   UNL     1     -22.563   8.967 -36.538  1.00  0.00    -0.502 OA
ATOM     20  H   UNL     1     -23.530   9.114 -36.272  1.00  0.00     0.293 HD
ENDBRANCH  14  19
BRANCH  15  21
ATOM     21  O   UNL     1     -19.887   8.336 -37.119  1.00  0.00    -0.504 OA
ATOM     22  H   UNL     1     -19.676   8.282 -38.108  1.00  0.00     0.293 HD
ENDBRANCH  15  21
ENDBRANCH   1  11
BRANCH  10  23
ATOM     23  O   UNL     1     -18.474  13.649 -37.377  1.00  0.00    -0.500 OA
ATOM     24  H   UNL     1     -18.623  14.556 -37.802  1.00  0.00     0.294 HD
ENDBRANCH  10  23
BRANCH   5  25
ATOM     25  O   UNL     1     -14.764  13.810 -30.556  1.00  0.00    -0.507 OA
ATOM     26  H   UNL     1     -14.329  12.951 -30.245  1.00  0.00     0.293 HD
ENDBRANCH   5  25
BRANCH   7  27
ATOM     27  O   UNL     1     -14.580  16.024 -34.812  1.00  0.00    -0.507 OA
ATOM     28  H   UNL     1     -14.864  16.250 -35.755  1.00  0.00     0.293 HD
ENDBRANCH   7  27
TORSDOF 7
ENDMDL
MODEL 7
REMARK VINA RESULT:    -6.699      7.724     10.508
REMARK INTER + INTRA:          -8.844
REMARK INTER:                  -8.431
REMARK INTRA:                  -0.413
REMARK UNBOUND:                -0.383
REMARK SMILES COc1cc(-c2[o+]c3cc(O)cc(O)c3cc2O)cc(O)c1O
REMARK SMILES IDX 6 1 7 2 8 3 9 4 10 5 12 6 13 7 15 8 16 9 17 10 5 11 3 12
REMARK SMILES IDX 4 13 22 14 20 15 19 16 2 17 1 18 23 19 21 21 18 23 11 25
REMARK SMILES IDX 14 27
REMARK H PARENT 23 20 21 22 18 24 11 26 14 28
REMARK Flexibility Score: inf
ROOT
ATOM      1  C   UNL     1     -24.530  17.919 -39.101  1.00  0.00     0.402 A 
ATOM      2  O   UNL     1     -24.498  16.612 -39.351  1.00  0.00    -0.202 OA
ATOM      3  C   UNL     1     -25.310  15.737 -38.766  1.00  0.00     0.368 A 
ATOM      4  C   UNL     1     -25.198  14.383 -39.092  1.00  0.00     0.162 A 
ATOM      5  C   UNL     1     -26.037  13.441 -38.489  1.00  0.00     0.128 A 
ATOM      6  C   UNL     1     -26.991  13.855 -37.557  1.00  0.00     0.093 A 
ATOM      7  C   UNL     1     -27.122  15.206 -37.213  1.00  0.00     0.136 A 
ATOM      8  C   UNL     1     -26.274  16.167 -37.823  1.00  0.00     0.125 A 
ATOM      9  C   UNL     1     -26.344  17.543 -37.550  1.00  0.00     0.078 A 
ATOM     10  C   UNL     1     -25.477  18.430 -38.195  1.00  0.00     0.223 A 
ENDROOT
BRANCH   1  11
ATOM     11  C   UNL     1     -23.566  18.792 -39.809  1.00  0.00     0.091 A 
ATOM     12  C   UNL     1     -21.317  19.709 -40.090  1.00  0.00     0.165 A 
ATOM     13  C   UNL     1     -22.227  18.889 -39.395  1.00  0.00     0.069 A 
ATOM     14  C   UNL     1     -21.757  20.425 -41.220  1.00  0.00     0.200 A 
ATOM     15  C   UNL     1     -23.091  20.310 -41.649  1.00  0.00     0.162 A 
ATOM     16  C   UNL     1     -23.982  19.493 -40.950  1.00  0.00     0.068 A 
BRANCH  12  17
ATOM     17  O   UNL     1     -19.976  19.833 -39.693  1.00  0.00    -0.493 OA
ATOM     18  C   UNL     1     -19.271  18.870 -38.915  1.00  0.00     0.278 C 
ENDBRANCH  12  17
BRANCH  14  19
ATOM     19  O   UNL     1     -20.879  21.248 -41.927  1.00  0.00    -0.502 OA
ATOM     20  H   UNL     1     -20.392  20.933 -42.757  1.00  0.00     0.293 HD
ENDBRANCH  14  19
BRANCH  15  21
ATOM     21  O   UNL     1     -23.549  21.003 -42.770  1.00  0.00    -0.504 OA
ATOM     22  H   UNL     1     -23.970  20.530 -43.560  1.00  0.00     0.293 HD
ENDBRANCH  15  21
ENDBRANCH   1  11
BRANCH  10  23
ATOM     23  O   UNL     1     -25.579  19.801 -37.962  1.00  0.00    -0.500 OA
ATOM     24  H   UNL     1     -24.760  20.379 -37.812  1.00  0.00     0.294 HD
ENDBRANCH  10  23
BRANCH   5  25
ATOM     25  O   UNL     1     -25.932  12.090 -38.810  1.00  0.00    -0.507 OA
ATOM     26  H   UNL     1     -26.087  11.367 -38.119  1.00  0.00     0.293 HD
ENDBRANCH   5  25
BRANCH   7  27
ATOM     27  O   UNL     1     -28.099  15.538 -36.269  1.00  0.00    -0.507 OA
ATOM     28  H   UNL     1     -28.633  16.395 -36.279  1.00  0.00     0.293 HD
ENDBRANCH   7  27
TORSDOF 7
ENDMDL
MODEL 8
REMARK VINA RESULT:    -6.680      1.604      2.746
REMARK INTER + INTRA:          -8.820
REMARK INTER:                  -8.451
REMARK INTRA:                  -0.369
REMARK UNBOUND:                -0.383
REMARK SMILES COc1cc(-c2[o+]c3cc(O)cc(O)c3cc2O)cc(O)c1O
REMARK SMILES IDX 6 1 7 2 8 3 9 4 10 5 12 6 13 7 15 8 16 9 17 10 5 11 3 12
REMARK SMILES IDX 4 13 22 14 20 15 19 16 2 17 1 18 23 19 21 21 18 23 11 25
REMARK SMILES IDX 14 27
REMARK H PARENT 23 20 21 22 18 24 11 26 14 28
REMARK Flexibility Score: inf
ROOT
ATOM      1  C   UNL     1     -18.859  12.093 -35.444  1.00  0.00     0.402 A 
ATOM      2  O   UNL     1     -18.795  12.671 -34.248  1.00  0.00    -0.202 OA
ATOM      3  C   UNL     1     -17.675  12.753 -33.537  1.00  0.00     0.368 A 
ATOM      4  C   UNL     1     -17.707  13.377 -32.286  1.00  0.00     0.162 A 
ATOM      5  C   UNL     1     -16.544  13.475 -31.516  1.00  0.00     0.128 A 
ATOM      6  C   UNL     1     -15.345  12.946 -31.999  1.00  0.00     0.093 A 
ATOM      7  C   UNL     1     -15.286  12.316 -33.248  1.00  0.00     0.136 A 
ATOM      8  C   UNL     1     -16.463  12.216 -34.034  1.00  0.00     0.125 A 
ATOM      9  C   UNL     1     -16.495  11.614 -35.303  1.00  0.00     0.078 A 
ATOM     10  C   UNL     1     -17.693  11.557 -36.022  1.00  0.00     0.223 A 
ENDROOT
BRANCH   1  11
ATOM     11  C   UNL     1     -20.169  12.054 -36.134  1.00  0.00     0.091 A 
ATOM     12  C   UNL     1     -21.673  12.797 -37.913  1.00  0.00     0.165 A 
ATOM     13  C   UNL     1     -20.428  12.858 -37.257  1.00  0.00     0.069 A 
ATOM     14  C   UNL     1     -22.657  11.907 -37.443  1.00  0.00     0.200 A 
ATOM     15  C   UNL     1     -22.391  11.086 -36.335  1.00  0.00     0.162 A 
ATOM     16  C   UNL     1     -21.152  11.157 -35.693  1.00  0.00     0.068 A 
BRANCH  12  17
ATOM     17  O   UNL     1     -21.962  13.596 -39.030  1.00  0.00    -0.493 OA
ATOM     18  C   UNL     1     -22.339  14.968 -38.968  1.00  0.00     0.278 C 
ENDBRANCH  12  17
BRANCH  14  19
ATOM     19  O   UNL     1     -23.901  11.827 -38.071  1.00  0.00    -0.502 OA
ATOM     20  H   UNL     1     -24.138  12.392 -38.878  1.00  0.00     0.293 HD
ENDBRANCH  14  19
BRANCH  15  21
ATOM     21  O   UNL     1     -23.348  10.190 -35.855  1.00  0.00    -0.504 OA
ATOM     22  H   UNL     1     -23.507   9.289 -36.289  1.00  0.00     0.293 HD
ENDBRANCH  15  21
ENDBRANCH   1  11
BRANCH  10  23
ATOM     23  O   UNL     1     -17.716  11.004 -37.302  1.00  0.00    -0.500 OA
ATOM     24  H   UNL     1     -17.681  11.582 -38.133  1.00  0.00     0.294 HD
ENDBRANCH  10  23
BRANCH   5  25
ATOM     25  O   UNL     1     -16.569  14.096 -30.270  1.00  0.00    -0.507 OA
ATOM     26  H   UNL     1     -15.722  14.247 -29.736  1.00  0.00     0.293 HD
ENDBRANCH   5  25
BRANCH   7  27
ATOM     27  O   UNL     1     -14.048  11.811 -33.656  1.00  0.00    -0.507 OA
ATOM     28  H   UNL     1     -13.172  12.306 -33.566  1.00  0.00     0.293 HD
ENDBRANCH   7  27
TORSDOF 7
ENDMDL
MODEL 9
REMARK VINA RESULT:    -6.614      1.894      7.629
REMARK INTER + INTRA:          -8.737
REMARK INTER:                  -8.517
REMARK INTRA:                  -0.220
REMARK UNBOUND:                -0.383
REMARK SMILES COc1cc(-c2[o+]c3cc(O)cc(O)c3cc2O)cc(O)c1O
REMARK SMILES IDX 6 1 7 2 8 3 9 4 10 5 12 6 13 7 15 8 16 9 17 10 5 11 3 12
REMARK SMILES IDX 4 13 22 14 20 15 19 16 2 17 1 18 23 19 21 21 18 23 11 25
REMARK SMILES IDX 14 27
REMARK H PARENT 23 20 21 22 18 24 11 26 14 28
REMARK Flexibility Score: inf
ROOT
ATOM      1  C   UNL     1     -19.950  11.165 -36.313  1.00  0.00     0.402 A 
ATOM      2  O   UNL     1     -20.735  12.071 -36.892  1.00  0.00    -0.202 OA
ATOM      3  C   UNL     1     -21.570  11.783 -37.885  1.00  0.00     0.368 A 
ATOM      4  C   UNL     1     -22.353  12.804 -38.432  1.00  0.00     0.162 A 
ATOM      5  C   UNL     1     -23.237  12.530 -39.480  1.00  0.00     0.128 A 
ATOM      6  C   UNL     1     -23.339  11.231 -39.982  1.00  0.00     0.093 A 
ATOM      7  C   UNL     1     -22.565  10.191 -39.452  1.00  0.00     0.136 A 
ATOM      8  C   UNL     1     -21.667  10.463 -38.387  1.00  0.00     0.125 A 
ATOM      9  C   UNL     1     -20.863   9.481 -37.784  1.00  0.00     0.078 A 
ATOM     10  C   UNL     1     -20.005   9.825 -36.735  1.00  0.00     0.223 A 
ENDROOT
BRANCH   1  11
ATOM     11  C   UNL     1     -19.053  11.611 -35.222  1.00  0.00     0.091 A 
ATOM     12  C   UNL     1     -18.697  12.620 -33.023  1.00  0.00     0.165 A 
ATOM     13  C   UNL     1     -19.561  12.218 -34.061  1.00  0.00     0.069 A 
ATOM     14  C   UNL     1     -17.313  12.394 -33.151  1.00  0.00     0.200 A 
ATOM     15  C   UNL     1     -16.807  11.766 -34.302  1.00  0.00     0.162 A 
ATOM     16  C   UNL     1     -17.675  11.373 -35.323  1.00  0.00     0.068 A 
BRANCH  12  17
ATOM     17  O   UNL     1     -19.175  13.238 -31.857  1.00  0.00    -0.493 OA
ATOM     18  C   UNL     1     -19.713  14.556 -31.802  1.00  0.00     0.278 C 
ENDBRANCH  12  17
BRANCH  14  19
ATOM     19  O   UNL     1     -16.433  12.784 -32.141  1.00  0.00    -0.502 OA
ATOM     20  H   UNL     1     -16.507  12.435 -31.193  1.00  0.00     0.293 HD
ENDBRANCH  14  19
BRANCH  15  21
ATOM     21  O   UNL     1     -15.441  11.524 -34.449  1.00  0.00    -0.504 OA
ATOM     22  H   UNL     1     -15.074  10.944 -35.193  1.00  0.00     0.293 HD
ENDBRANCH  15  21
ENDBRANCH   1  11
BRANCH  10  23
ATOM     23  O   UNL     1     -19.244   8.842 -36.104  1.00  0.00    -0.500 OA
ATOM     24  H   UNL     1     -19.644   8.220 -35.412  1.00  0.00     0.294 HD
ENDBRANCH  10  23
BRANCH   5  25
ATOM     25  O   UNL     1     -24.020  13.542 -40.029  1.00  0.00    -0.507 OA
ATOM     26  H   UNL     1     -24.865  13.336 -40.549  1.00  0.00     0.293 HD
ENDBRANCH   5  25
BRANCH   7  27
ATOM     27  O   UNL     1     -22.724   8.920 -40.012  1.00  0.00    -0.507 OA
ATOM     28  H   UNL     1     -23.596   8.561 -40.373  1.00  0.00     0.293 HD
ENDBRANCH   7  27
TORSDOF 7
ENDMDL
