MODEL 1
REMARK VINA RESULT:    -2.022      0.000      0.000
REMARK INTER + INTRA:          -6.825
REMARK INTER:                  -5.331
REMARK INTRA:                  -1.494
REMARK UNBOUND:                -1.494
REMARK SMILES CCCCCCCCCCCCCCCCCCCCCCCCCCCCCC(=O)[O-]
REMARK SMILES IDX 16 1 17 2 18 3 19 4 20 5 21 6 22 7 23 8 24 9 25 10 26 11
REMARK SMILES IDX 27 12 28 13 29 14 30 15 31 16 32 17 15 18 14 19 13 20 12 21
REMARK SMILES IDX 11 22 10 23 9 24 8 25 7 26 6 27 5 28 4 29 3 30 2 31 1 32
REMARK H PARENT
REMARK Flexibility Score: inf
ROOT
ATOM      1  C   UNL     1       4.787   2.999   8.136  1.00  0.00     0.000 C 
ENDROOT
BRANCH   1   2
ATOM      2  C   UNL     1       5.800   2.864   9.292  1.00  0.00     0.000 C 
BRANCH   2   3
ATOM      3  C   UNL     1       6.938   3.905   9.303  1.00  0.00     0.000 C 
BRANCH   3   4
ATOM      4  C   UNL     1       8.352   3.344   9.548  1.00  0.00     0.000 C 
BRANCH   4   5
ATOM      5  C   UNL     1       9.453   4.419   9.701  1.00  0.00     0.000 C 
BRANCH   5   6
ATOM      6  C   UNL     1       8.887   5.849   9.785  1.00  0.00     0.000 C 
BRANCH   6   7
ATOM      7  C   UNL     1       8.582   6.455   8.398  1.00  0.00     0.000 C 
BRANCH   7   8
ATOM      8  C   UNL     1       9.287   7.799   8.153  1.00  0.00     0.000 C 
BRANCH   8   9
ATOM      9  C   UNL     1       9.901   8.400   9.427  1.00  0.00     0.000 C 
BRANCH   9  10
ATOM     10  C   UNL     1       9.125   9.624   9.951  1.00  0.00     0.000 C 
BRANCH  10  11
ATOM     11  C   UNL     1       7.711   9.779   9.344  1.00  0.00     0.000 C 
BRANCH  11  12
ATOM     12  C   UNL     1       6.979  11.047   9.823  1.00  0.00     0.000 C 
BRANCH  12  13
ATOM     13  C   UNL     1       5.537  11.139   9.283  1.00  0.00     0.006 C 
BRANCH  13  14
ATOM     14  C   UNL     1       5.477  11.805   7.902  1.00  0.00     0.053 C 
BRANCH  14  15
ATOM     15  C   UNL     1       4.123  12.385   7.617  1.00  0.00     0.041 C 
ATOM     16  O   UNL     1       3.775  12.649   6.437  1.00  0.00    -0.550 OA
ATOM     17  O   UNL     1       3.233  12.607   8.660  1.00  0.00    -0.550 OA
ENDBRANCH  14  15
ENDBRANCH  13  14
ENDBRANCH  12  13
ENDBRANCH  11  12
ENDBRANCH  10  11
ENDBRANCH   9  10
ENDBRANCH   8   9
ENDBRANCH   7   8
ENDBRANCH   6   7
ENDBRANCH   5   6
ENDBRANCH   4   5
ENDBRANCH   3   4
ENDBRANCH   2   3
ENDBRANCH   1   2
BRANCH   1  18
ATOM     18  C   UNL     1       3.902   1.763   7.898  1.00  0.00     0.000 C 
BRANCH  18  19
ATOM     19  C   UNL     1       3.152   1.308   9.156  1.00  0.00     0.000 C 
BRANCH  19  20
ATOM     20  C   UNL     1       3.195  -0.224   9.291  1.00  0.00     0.000 C 
BRANCH  20  21
ATOM     21  C   UNL     1       4.601  -0.754   9.615  1.00  0.00     0.000 C 
BRANCH  21  22
ATOM     22  C   UNL     1       4.590  -2.207  10.125  1.00  0.00     0.000 C 
BRANCH  22  23
ATOM     23  C   UNL     1       5.528  -3.141   9.332  1.00  0.00     0.000 C 
BRANCH  23  24
ATOM     24  C   UNL     1       5.031  -4.594   9.197  1.00  0.00    -0.000 C 
BRANCH  24  25
ATOM     25  C   UNL     1       6.017  -5.592   8.558  1.00  0.00    -0.000 C 
BRANCH  25  26
ATOM     26  C   UNL     1       7.454  -5.075   8.357  1.00  0.00    -0.000 C 
BRANCH  26  27
ATOM     27  C   UNL     1       8.167  -5.737   7.165  1.00  0.00    -0.000 C 
BRANCH  27  28
ATOM     28  C   UNL     1       7.195  -6.125   6.034  1.00  0.00    -0.000 C 
BRANCH  28  29
ATOM     29  C   UNL     1       7.251  -5.147   4.846  1.00  0.00    -0.000 C 
BRANCH  29  30
ATOM     30  C   UNL     1       6.154  -5.415   3.800  1.00  0.00    -0.000 C 
BRANCH  30  31
ATOM     31  C   UNL     1       4.898  -6.124   4.341  1.00  0.00    -0.003 C 
ATOM     32  C   UNL     1       3.890  -5.162   4.971  1.00  0.00     0.004 C 
ENDBRANCH  30  31
ENDBRANCH  29  30
ENDBRANCH  28  29
ENDBRANCH  27  28
ENDBRANCH  26  27
ENDBRANCH  25  26
ENDBRANCH  24  25
ENDBRANCH  23  24
ENDBRANCH  22  23
ENDBRANCH  21  22
ENDBRANCH  20  21
ENDBRANCH  19  20
ENDBRANCH  18  19
ENDBRANCH   1  18
TORSDOF 28
ENDMDL
MODEL 2
REMARK VINA RESULT:    -1.345      5.430     13.697
REMARK INTER + INTRA:          -5.039
REMARK INTER:                  -4.657
REMARK INTRA:                  -0.382
REMARK UNBOUND:                -1.494
REMARK SMILES CCCCCCCCCCCCCCCCCCCCCCCCCCCCCC(=O)[O-]
REMARK SMILES IDX 16 1 17 2 18 3 19 4 20 5 21 6 22 7 23 8 24 9 25 10 26 11
REMARK SMILES IDX 27 12 28 13 29 14 30 15 31 16 32 17 15 18 14 19 13 20 12 21
REMARK SMILES IDX 11 22 10 23 9 24 8 25 7 26 6 27 5 28 4 29 3 30 2 31 1 32
REMARK H PARENT
REMARK Flexibility Score: inf
ROOT
ATOM      1  C   UNL     1       5.260   1.339   7.410  1.00  0.00     0.000 C 
ENDROOT
BRANCH   1   2
ATOM      2  C   UNL     1       6.443   1.803   8.286  1.00  0.00     0.000 C 
BRANCH   2   3
ATOM      3  C   UNL     1       6.356   1.417   9.777  1.00  0.00     0.000 C 
BRANCH   3   4
ATOM      4  C   UNL     1       5.396   0.259  10.111  1.00  0.00     0.000 C 
BRANCH   4   5
ATOM      5  C   UNL     1       5.578  -1.000   9.231  1.00  0.00     0.000 C 
BRANCH   5   6
ATOM      6  C   UNL     1       5.099  -2.289   9.924  1.00  0.00     0.000 C 
BRANCH   6   7
ATOM      7  C   UNL     1       5.915  -3.531   9.508  1.00  0.00     0.000 C 
BRANCH   7   8
ATOM      8  C   UNL     1       5.281  -4.857   9.961  1.00  0.00     0.000 C 
BRANCH   8   9
ATOM      9  C   UNL     1       5.999  -6.093   9.395  1.00  0.00     0.000 C 
BRANCH   9  10
ATOM     10  C   UNL     1       6.763  -5.801   8.090  1.00  0.00     0.000 C 
BRANCH  10  11
ATOM     11  C   UNL     1       5.941  -6.064   6.806  1.00  0.00     0.000 C 
BRANCH  11  12
ATOM     12  C   UNL     1       5.162  -4.828   6.318  1.00  0.00     0.000 C 
BRANCH  12  13
ATOM     13  C   UNL     1       4.413  -5.084   4.995  1.00  0.00     0.006 C 
BRANCH  13  14
ATOM     14  C   UNL     1       5.122  -6.124   4.117  1.00  0.00     0.053 C 
BRANCH  14  15
ATOM     15  C   UNL     1       6.200  -5.508   3.277  1.00  0.00     0.041 C 
ATOM     16  O   UNL     1       6.041  -5.362   2.037  1.00  0.00    -0.550 OA
ATOM     17  O   UNL     1       7.376  -5.068   3.874  1.00  0.00    -0.550 OA
ENDBRANCH  14  15
ENDBRANCH  13  14
ENDBRANCH  12  13
ENDBRANCH  11  12
ENDBRANCH  10  11
ENDBRANCH   9  10
ENDBRANCH   8   9
ENDBRANCH   7   8
ENDBRANCH   6   7
ENDBRANCH   5   6
ENDBRANCH   4   5
ENDBRANCH   3   4
ENDBRANCH   2   3
ENDBRANCH   1   2
BRANCH   1  18
ATOM     18  C   UNL     1       3.972   2.166   7.564  1.00  0.00     0.000 C 
BRANCH  18  19
ATOM     19  C   UNL     1       3.169   1.801   8.819  1.00  0.00     0.000 C 
BRANCH  19  20
ATOM     20  C   UNL     1       2.508   3.052   9.425  1.00  0.00     0.000 C 
BRANCH  20  21
ATOM     21  C   UNL     1       1.623   3.804   8.418  1.00  0.00     0.000 C 
BRANCH  21  22
ATOM     22  C   UNL     1       0.437   4.525   9.087  1.00  0.00     0.000 C 
BRANCH  22  23
ATOM     23  C   UNL     1       0.870   5.587  10.118  1.00  0.00     0.000 C 
BRANCH  23  24
ATOM     24  C   UNL     1       2.069   6.457   9.688  1.00  0.00    -0.000 C 
BRANCH  24  25
ATOM     25  C   UNL     1       2.022   7.936  10.116  1.00  0.00    -0.000 C 
BRANCH  25  26
ATOM     26  C   UNL     1       1.329   8.897   9.131  1.00  0.00    -0.000 C 
BRANCH  26  27
ATOM     27  C   UNL     1       1.298  10.350   9.633  1.00  0.00    -0.000 C 
BRANCH  27  28
ATOM     28  C   UNL     1       2.490  11.180   9.120  1.00  0.00    -0.000 C 
BRANCH  28  29
ATOM     29  C   UNL     1       2.633  12.525   9.855  1.00  0.00    -0.000 C 
BRANCH  29  30
ATOM     30  C   UNL     1       3.525  13.527   9.099  1.00  0.00    -0.000 C 
BRANCH  30  31
ATOM     31  C   UNL     1       4.273  12.945   7.885  1.00  0.00    -0.003 C 
ATOM     32  C   UNL     1       5.765  13.285   7.880  1.00  0.00     0.004 C 
ENDBRANCH  30  31
ENDBRANCH  29  30
ENDBRANCH  28  29
ENDBRANCH  27  28
ENDBRANCH  26  27
ENDBRANCH  25  26
ENDBRANCH  24  25
ENDBRANCH  23  24
ENDBRANCH  22  23
ENDBRANCH  21  22
ENDBRANCH  20  21
ENDBRANCH  19  20
ENDBRANCH  18  19
ENDBRANCH   1  18
TORSDOF 28
ENDMDL
MODEL 3
REMARK VINA RESULT:    -1.266      4.804     12.827
REMARK INTER + INTRA:          -4.833
REMARK INTER:                  -3.468
REMARK INTRA:                  -1.365
REMARK UNBOUND:                -1.494
REMARK SMILES CCCCCCCCCCCCCCCCCCCCCCCCCCCCCC(=O)[O-]
REMARK SMILES IDX 16 1 17 2 18 3 19 4 20 5 21 6 22 7 23 8 24 9 25 10 26 11
REMARK SMILES IDX 27 12 28 13 29 14 30 15 31 16 32 17 15 18 14 19 13 20 12 21
REMARK SMILES IDX 11 22 10 23 9 24 8 25 7 26 6 27 5 28 4 29 3 30 2 31 1 32
REMARK H PARENT
REMARK Flexibility Score: inf
ROOT
ATOM      1  C   UNL     1       4.388   2.372   7.423  1.00  0.00     0.000 C 
ENDROOT
BRANCH   1   2
ATOM      2  C   UNL     1       3.972   0.889   7.523  1.00  0.00     0.000 C 
BRANCH   2   3
ATOM      3  C   UNL     1       4.987  -0.038   8.225  1.00  0.00     0.000 C 
BRANCH   3   4
ATOM      4  C   UNL     1       4.382  -1.085   9.180  1.00  0.00     0.000 C 
BRANCH   4   5
ATOM      5  C   UNL     1       5.421  -1.986   9.887  1.00  0.00     0.000 C 
BRANCH   5   6
ATOM      6  C   UNL     1       4.909  -3.419  10.125  1.00  0.00     0.000 C 
BRANCH   6   7
ATOM      7  C   UNL     1       5.927  -4.497   9.696  1.00  0.00     0.000 C 
BRANCH   7   8
ATOM      8  C   UNL     1       7.295  -3.918   9.299  1.00  0.00     0.000 C 
BRANCH   8   9
ATOM      9  C   UNL     1       8.425  -4.961   9.337  1.00  0.00     0.000 C 
BRANCH   9  10
ATOM     10  C   UNL     1       9.823  -4.341   9.156  1.00  0.00     0.000 C 
BRANCH  10  11
ATOM     11  C   UNL     1      10.826  -5.254   8.412  1.00  0.00     0.000 C 
BRANCH  11  12
ATOM     12  C   UNL     1      10.170  -6.111   7.313  1.00  0.00     0.000 C 
BRANCH  12  13
ATOM     13  C   UNL     1       9.475  -5.259   6.232  1.00  0.00     0.006 C 
BRANCH  13  14
ATOM     14  C   UNL     1       8.804  -6.122   5.155  1.00  0.00     0.053 C 
BRANCH  14  15
ATOM     15  C   UNL     1       7.597  -5.452   4.569  1.00  0.00     0.041 C 
ATOM     16  O   UNL     1       7.472  -5.334   3.322  1.00  0.00    -0.550 OA
ATOM     17  O   UNL     1       6.594  -4.979   5.406  1.00  0.00    -0.550 OA
ENDBRANCH  14  15
ENDBRANCH  13  14
ENDBRANCH  12  13
ENDBRANCH  11  12
ENDBRANCH  10  11
ENDBRANCH   9  10
ENDBRANCH   8   9
ENDBRANCH   7   8
ENDBRANCH   6   7
ENDBRANCH   5   6
ENDBRANCH   4   5
ENDBRANCH   3   4
ENDBRANCH   2   3
ENDBRANCH   1   2
BRANCH   1  18
ATOM     18  C   UNL     1       3.296   3.382   7.817  1.00  0.00     0.000 C 
BRANCH  18  19
ATOM     19  C   UNL     1       2.926   3.318   9.305  1.00  0.00     0.000 C 
BRANCH  19  20
ATOM     20  C   UNL     1       3.254   4.649  10.004  1.00  0.00     0.000 C 
BRANCH  20  21
ATOM     21  C   UNL     1       4.765   4.911  10.106  1.00  0.00     0.000 C 
BRANCH  21  22
ATOM     22  C   UNL     1       5.598   3.616  10.097  1.00  0.00     0.000 C 
BRANCH  22  23
ATOM     23  C   UNL     1       7.120   3.866  10.123  1.00  0.00     0.000 C 
BRANCH  23  24
ATOM     24  C   UNL     1       7.533   5.351  10.073  1.00  0.00    -0.000 C 
BRANCH  24  25
ATOM     25  C   UNL     1       8.781   5.680   9.232  1.00  0.00    -0.000 C 
BRANCH  25  26
ATOM     26  C   UNL     1       8.986   7.169   8.894  1.00  0.00    -0.000 C 
BRANCH  26  27
ATOM     27  C   UNL     1       8.830   8.089  10.117  1.00  0.00    -0.000 C 
BRANCH  27  28
ATOM     28  C   UNL     1       8.664   9.570   9.728  1.00  0.00    -0.000 C 
BRANCH  28  29
ATOM     29  C   UNL     1       8.071   9.747   8.318  1.00  0.00    -0.000 C 
BRANCH  29  30
ATOM     30  C   UNL     1       6.854  10.689   8.296  1.00  0.00    -0.000 C 
BRANCH  30  31
ATOM     31  C   UNL     1       6.596  11.449   9.610  1.00  0.00    -0.003 C 
ATOM     32  C   UNL     1       5.375  12.368   9.542  1.00  0.00     0.004 C 
ENDBRANCH  30  31
ENDBRANCH  29  30
ENDBRANCH  28  29
ENDBRANCH  27  28
ENDBRANCH  26  27
ENDBRANCH  25  26
ENDBRANCH  24  25
ENDBRANCH  23  24
ENDBRANCH  22  23
ENDBRANCH  21  22
ENDBRANCH  20  21
ENDBRANCH  19  20
ENDBRANCH  18  19
ENDBRANCH   1  18
TORSDOF 28
ENDMDL
MODEL 4
REMARK VINA RESULT:    -1.167      4.947     13.688
REMARK INTER + INTRA:          -4.570
REMARK INTER:                  -3.644
REMARK INTRA:                  -0.925
REMARK UNBOUND:                -1.494
REMARK SMILES CCCCCCCCCCCCCCCCCCCCCCCCCCCCCC(=O)[O-]
REMARK SMILES IDX 16 1 17 2 18 3 19 4 20 5 21 6 22 7 23 8 24 9 25 10 26 11
REMARK SMILES IDX 27 12 28 13 29 14 30 15 31 16 32 17 15 18 14 19 13 20 12 21
REMARK SMILES IDX 11 22 10 23 9 24 8 25 7 26 6 27 5 28 4 29 3 30 2 31 1 32
REMARK H PARENT
REMARK Flexibility Score: inf
ROOT
ATOM      1  C   UNL     1       1.934   6.502   9.937  1.00  0.00     0.000 C 
ENDROOT
BRANCH   1   2
ATOM      2  C   UNL     1       1.243   5.472   9.019  1.00  0.00     0.000 C 
BRANCH   2   3
ATOM      3  C   UNL     1       1.065   4.062   9.620  1.00  0.00     0.000 C 
BRANCH   3   4
ATOM      4  C   UNL     1       2.366   3.276   9.868  1.00  0.00     0.000 C 
BRANCH   4   5
ATOM      5  C   UNL     1       2.370   1.840   9.292  1.00  0.00     0.000 C 
BRANCH   5   6
ATOM      6  C   UNL     1       3.218   0.862  10.125  1.00  0.00     0.000 C 
BRANCH   6   7
ATOM      7  C   UNL     1       4.512   0.428   9.403  1.00  0.00     0.000 C 
BRANCH   7   8
ATOM      8  C   UNL     1       5.253  -0.715  10.117  1.00  0.00     0.000 C 
BRANCH   8   9
ATOM      9  C   UNL     1       5.144  -2.059   9.379  1.00  0.00     0.000 C 
BRANCH   9  10
ATOM     10  C   UNL     1       5.941  -3.188  10.061  1.00  0.00     0.000 C 
BRANCH  10  11
ATOM     11  C   UNL     1       6.493  -4.248   9.081  1.00  0.00     0.000 C 
BRANCH  11  12
ATOM     12  C   UNL     1       7.140  -5.454   9.789  1.00  0.00     0.000 C 
BRANCH  12  13
ATOM     13  C   UNL     1       8.661  -5.286   9.977  1.00  0.00     0.006 C 
BRANCH  13  14
ATOM     14  C   UNL     1       9.315  -4.556   8.796  1.00  0.00     0.053 C 
BRANCH  14  15
ATOM     15  C   UNL     1      10.402  -3.625   9.243  1.00  0.00     0.041 C 
ATOM     16  O   UNL     1      11.363  -4.048   9.936  1.00  0.00    -0.550 OA
ATOM     17  O   UNL     1      10.364  -2.287   8.868  1.00  0.00    -0.550 OA
ENDBRANCH  14  15
ENDBRANCH  13  14
ENDBRANCH  12  13
ENDBRANCH  11  12
ENDBRANCH  10  11
ENDBRANCH   9  10
ENDBRANCH   8   9
ENDBRANCH   7   8
ENDBRANCH   6   7
ENDBRANCH   5   6
ENDBRANCH   4   5
ENDBRANCH   3   4
ENDBRANCH   2   3
ENDBRANCH   1   2
BRANCH   1  18
ATOM     18  C   UNL     1       2.456   7.762   9.224  1.00  0.00     0.000 C 
BRANCH  18  19
ATOM     19  C   UNL     1       1.734   9.043   9.662  1.00  0.00     0.000 C 
BRANCH  19  20
ATOM     20  C   UNL     1       1.446   9.946   8.449  1.00  0.00     0.000 C 
BRANCH  20  21
ATOM     21  C   UNL     1       2.204  11.282   8.508  1.00  0.00     0.000 C 
BRANCH  21  22
ATOM     22  C   UNL     1       3.625  11.190   7.922  1.00  0.00     0.000 C 
BRANCH  22  23
ATOM     23  C   UNL     1       3.962  12.339   6.949  1.00  0.00     0.000 C 
BRANCH  23  24
ATOM     24  C   UNL     1       4.932  13.398   7.510  1.00  0.00    -0.000 C 
BRANCH  24  25
ATOM     25  C   UNL     1       4.817  13.692   9.019  1.00  0.00    -0.000 C 
BRANCH  25  26
ATOM     26  C   UNL     1       5.278  12.560   9.957  1.00  0.00    -0.000 C 
BRANCH  26  27
ATOM     27  C   UNL     1       6.747  12.161   9.738  1.00  0.00    -0.000 C 
BRANCH  27  28
ATOM     28  C   UNL     1       6.981  10.647   9.901  1.00  0.00    -0.000 C 
BRANCH  28  29
ATOM     29  C   UNL     1       7.587  10.004   8.640  1.00  0.00    -0.000 C 
BRANCH  29  30
ATOM     30  C   UNL     1       8.603   8.895   8.965  1.00  0.00    -0.000 C 
BRANCH  30  31
ATOM     31  C   UNL     1       9.217   8.194   7.738  1.00  0.00    -0.003 C 
ATOM     32  C   UNL     1      10.190   7.074   8.111  1.00  0.00     0.004 C 
ENDBRANCH  30  31
ENDBRANCH  29  30
ENDBRANCH  28  29
ENDBRANCH  27  28
ENDBRANCH  26  27
ENDBRANCH  25  26
ENDBRANCH  24  25
ENDBRANCH  23  24
ENDBRANCH  22  23
ENDBRANCH  21  22
ENDBRANCH  20  21
ENDBRANCH  19  20
ENDBRANCH  18  19
ENDBRANCH   1  18
TORSDOF 28
ENDMDL
