MODEL 1
REMARK VINA RESULT:    -3.878      0.000      0.000
REMARK INTER + INTRA:          -4.949
REMARK INTER:                  -4.785
REMARK INTRA:                  -0.164
REMARK UNBOUND:                -0.164
REMARK SMILES CCCCCC(=O)[O-]
REMARK SMILES IDX 4 1 5 2 6 3 7 4 8 5 3 6 2 7 1 8
REMARK H PARENT
REMARK Flexibility Score: inf
ROOT
ATOM      1  C   UNL     1      10.798 -15.077 -21.981  1.00  0.00     0.006 C 
ENDROOT
BRANCH   1   2
ATOM      2  C   UNL     1       9.841 -14.753 -20.827  1.00  0.00     0.053 C 
BRANCH   2   3
ATOM      3  C   UNL     1      10.611 -14.414 -19.590  1.00  0.00     0.041 C 
ATOM      4  O   UNL     1      10.746 -13.215 -19.235  1.00  0.00    -0.550 OA
ATOM      5  O   UNL     1      11.139 -15.430 -18.800  1.00  0.00    -0.550 OA
ENDBRANCH   2   3
ENDBRANCH   1   2
BRANCH   1   6
ATOM      6  C   UNL     1      10.943 -13.914 -22.974  1.00  0.00     0.000 C 
BRANCH   6   7
ATOM      7  C   UNL     1       9.749 -12.949 -22.933  1.00  0.00    -0.003 C 
ATOM      8  C   UNL     1      10.068 -11.649 -23.666  1.00  0.00     0.004 C 
ENDBRANCH   6   7
ENDBRANCH   1   6
TORSDOF 4
ENDMDL
MODEL 2
REMARK VINA RESULT:    -3.822      0.217      1.165
REMARK INTER + INTRA:          -4.880
REMARK INTER:                  -4.761
REMARK INTRA:                  -0.119
REMARK UNBOUND:                -0.164
REMARK SMILES CCCCCC(=O)[O-]
REMARK SMILES IDX 4 1 5 2 6 3 7 4 8 5 3 6 2 7 1 8
REMARK H PARENT
REMARK Flexibility Score: inf
ROOT
ATOM      1  C   UNL     1      10.791 -15.216 -21.860  1.00  0.00     0.006 C 
ENDROOT
BRANCH   1   2
ATOM      2  C   UNL     1       9.849 -14.866 -20.701  1.00  0.00     0.053 C 
BRANCH   2   3
ATOM      3  C   UNL     1      10.634 -14.534 -19.471  1.00  0.00     0.041 C 
ATOM      4  O   UNL     1      11.163 -15.450 -18.790  1.00  0.00    -0.550 OA
ATOM      5  O   UNL     1      10.825 -13.206 -19.107  1.00  0.00    -0.550 OA
ENDBRANCH   2   3
ENDBRANCH   1   2
BRANCH   1   6
ATOM      6  C   UNL     1      10.875 -14.099 -22.912  1.00  0.00     0.000 C 
BRANCH   6   7
ATOM      7  C   UNL     1       9.961 -12.909 -22.584  1.00  0.00    -0.003 C 
ATOM      8  C   UNL     1      10.002 -11.864 -23.695  1.00  0.00     0.004 C 
ENDBRANCH   6   7
ENDBRANCH   1   6
TORSDOF 4
ENDMDL
MODEL 3
REMARK VINA RESULT:    -3.797      1.175      2.001
REMARK INTER + INTRA:          -4.849
REMARK INTER:                  -4.717
REMARK INTRA:                  -0.132
REMARK UNBOUND:                -0.164
REMARK SMILES CCCCCC(=O)[O-]
REMARK SMILES IDX 4 1 5 2 6 3 7 4 8 5 3 6 2 7 1 8
REMARK H PARENT
REMARK Flexibility Score: inf
ROOT
ATOM      1  C   UNL     1      10.000 -13.643 -21.813  1.00  0.00     0.006 C 
ENDROOT
BRANCH   1   2
ATOM      2  C   UNL     1       9.821 -14.737 -20.754  1.00  0.00     0.053 C 
BRANCH   2   3
ATOM      3  C   UNL     1      10.626 -14.419 -19.533  1.00  0.00     0.041 C 
ATOM      4  O   UNL     1      10.784 -13.224 -19.171  1.00  0.00    -0.550 OA
ATOM      5  O   UNL     1      11.162 -15.447 -18.767  1.00  0.00    -0.550 OA
ENDBRANCH   2   3
ENDBRANCH   1   2
BRANCH   1   6
ATOM      6  C   UNL     1      10.818 -14.118 -23.024  1.00  0.00     0.000 C 
BRANCH   6   7
ATOM      7  C   UNL     1      10.789 -15.645 -23.193  1.00  0.00    -0.003 C 
ATOM      8  C   UNL     1      10.836 -16.034 -24.668  1.00  0.00     0.004 C 
ENDBRANCH   6   7
ENDBRANCH   1   6
TORSDOF 4
ENDMDL
MODEL 4
REMARK VINA RESULT:    -3.754      1.477      2.878
REMARK INTER + INTRA:          -4.796
REMARK INTER:                  -4.664
REMARK INTRA:                  -0.132
REMARK UNBOUND:                -0.164
REMARK SMILES CCCCCC(=O)[O-]
REMARK SMILES IDX 4 1 5 2 6 3 7 4 8 5 3 6 2 7 1 8
REMARK H PARENT
REMARK Flexibility Score: inf
ROOT
ATOM      1  C   UNL     1      10.828 -14.497 -22.015  1.00  0.00     0.006 C 
ENDROOT
BRANCH   1   2
ATOM      2  C   UNL     1       9.929 -14.771 -20.803  1.00  0.00     0.053 C 
BRANCH   2   3
ATOM      3  C   UNL     1      10.644 -14.431 -19.534  1.00  0.00     0.041 C 
ATOM      4  O   UNL     1      10.733 -13.234 -19.157  1.00  0.00    -0.550 OA
ATOM      5  O   UNL     1      11.171 -15.444 -18.741  1.00  0.00    -0.550 OA
ENDBRANCH   2   3
ENDBRANCH   1   2
BRANCH   1   6
ATOM      6  C   UNL     1      10.892 -15.686 -22.986  1.00  0.00     0.000 C 
BRANCH   6   7
ATOM      7  C   UNL     1      10.774 -17.040 -22.270  1.00  0.00    -0.003 C 
ATOM      8  C   UNL     1      11.581 -18.115 -22.993  1.00  0.00     0.004 C 
ENDBRANCH   6   7
ENDBRANCH   1   6
TORSDOF 4
ENDMDL
MODEL 5
REMARK VINA RESULT:    -3.500      2.057      3.836
REMARK INTER + INTRA:          -4.482
REMARK INTER:                  -4.284
REMARK INTRA:                  -0.198
REMARK UNBOUND:                -0.164
REMARK SMILES CCCCCC(=O)[O-]
REMARK SMILES IDX 4 1 5 2 6 3 7 4 8 5 3 6 2 7 1 8
REMARK H PARENT
REMARK Flexibility Score: inf
ROOT
ATOM      1  C   UNL     1      11.264 -14.509 -22.625  1.00  0.00     0.006 C 
ENDROOT
BRANCH   1   2
ATOM      2  C   UNL     1      10.314 -13.636 -23.455  1.00  0.00     0.053 C 
BRANCH   2   3
ATOM      3  C   UNL     1      10.109 -12.311 -22.791  1.00  0.00     0.041 C 
ATOM      4  O   UNL     1      10.093 -12.226 -21.535  1.00  0.00    -0.550 OA
ATOM      5  O   UNL     1       9.984 -11.160 -23.561  1.00  0.00    -0.550 OA
ENDBRANCH   2   3
ENDBRANCH   1   2
BRANCH   1   6
ATOM      6  C   UNL     1      10.586 -15.780 -22.091  1.00  0.00     0.000 C 
BRANCH   6   7
ATOM      7  C   UNL     1       9.910 -15.562 -20.729  1.00  0.00    -0.003 C 
ATOM      8  C   UNL     1      10.919 -15.093 -19.685  1.00  0.00     0.004 C 
ENDBRANCH   6   7
ENDBRANCH   1   6
TORSDOF 4
ENDMDL
MODEL 6
REMARK VINA RESULT:    -3.409      1.406      1.789
REMARK INTER + INTRA:          -4.370
REMARK INTER:                  -4.320
REMARK INTRA:                  -0.050
REMARK UNBOUND:                -0.164
REMARK SMILES CCCCCC(=O)[O-]
REMARK SMILES IDX 4 1 5 2 6 3 7 4 8 5 3 6 2 7 1 8
REMARK H PARENT
REMARK Flexibility Score: inf
ROOT
ATOM      1  C   UNL     1       9.747 -13.379 -22.404  1.00  0.00     0.006 C 
ENDROOT
BRANCH   1   2
ATOM      2  C   UNL     1      10.121 -13.131 -20.937  1.00  0.00     0.053 C 
BRANCH   2   3
ATOM      3  C   UNL     1      10.172 -14.424 -20.185  1.00  0.00     0.041 C 
ATOM      4  O   UNL     1      10.883 -14.529 -19.152  1.00  0.00    -0.550 OA
ATOM      5  O   UNL     1       9.394 -15.499 -20.599  1.00  0.00    -0.550 OA
ENDBRANCH   2   3
ENDBRANCH   1   2
BRANCH   1   6
ATOM      6  C   UNL     1      10.303 -12.302 -23.347  1.00  0.00     0.000 C 
BRANCH   6   7
ATOM      7  C   UNL     1       9.196 -11.456 -23.995  1.00  0.00    -0.003 C 
ATOM      8  C   UNL     1       9.764 -10.549 -25.083  1.00  0.00     0.004 C 
ENDBRANCH   6   7
ENDBRANCH   1   6
TORSDOF 4
ENDMDL
MODEL 7
REMARK VINA RESULT:    -3.295     15.552     16.114
REMARK INTER + INTRA:          -4.230
REMARK INTER:                  -4.135
REMARK INTRA:                  -0.095
REMARK UNBOUND:                -0.164
REMARK SMILES CCCCCC(=O)[O-]
REMARK SMILES IDX 4 1 5 2 6 3 7 4 8 5 3 6 2 7 1 8
REMARK H PARENT
REMARK Flexibility Score: inf
ROOT
ATOM      1  C   UNL     1      23.460  -6.405 -28.843  1.00  0.00     0.006 C 
ENDROOT
BRANCH   1   2
ATOM      2  C   UNL     1      23.177  -5.763 -27.479  1.00  0.00     0.053 C 
BRANCH   2   3
ATOM      3  C   UNL     1      23.337  -6.771 -26.385  1.00  0.00     0.041 C 
ATOM      4  O   UNL     1      23.035  -7.977 -26.584  1.00  0.00    -0.550 OA
ATOM      5  O   UNL     1      23.868  -6.388 -25.159  1.00  0.00    -0.550 OA
ENDBRANCH   2   3
ENDBRANCH   1   2
BRANCH   1   6
ATOM      6  C   UNL     1      22.855  -5.607 -30.009  1.00  0.00     0.000 C 
BRANCH   6   7
ATOM      7  C   UNL     1      21.592  -6.266 -30.583  1.00  0.00    -0.003 C 
ATOM      8  C   UNL     1      21.819  -7.753 -30.845  1.00  0.00     0.004 C 
ENDBRANCH   6   7
ENDBRANCH   1   6
TORSDOF 4
ENDMDL
MODEL 8
REMARK VINA RESULT:    -3.235      2.620      3.665
REMARK INTER + INTRA:          -4.155
REMARK INTER:                  -3.902
REMARK INTRA:                  -0.253
REMARK UNBOUND:                -0.164
REMARK SMILES CCCCCC(=O)[O-]
REMARK SMILES IDX 4 1 5 2 6 3 7 4 8 5 3 6 2 7 1 8
REMARK H PARENT
REMARK Flexibility Score: inf
ROOT
ATOM      1  C   UNL     1      10.995 -14.786 -22.245  1.00  0.00     0.006 C 
ENDROOT
BRANCH   1   2
ATOM      2  C   UNL     1      10.213 -15.620 -23.267  1.00  0.00     0.053 C 
BRANCH   2   3
ATOM      3  C   UNL     1       9.055 -16.302 -22.608  1.00  0.00     0.041 C 
ATOM      4  O   UNL     1       7.876 -15.990 -22.917  1.00  0.00    -0.550 OA
ATOM      5  O   UNL     1       9.280 -17.318 -21.687  1.00  0.00    -0.550 OA
ENDBRANCH   2   3
ENDBRANCH   1   2
BRANCH   1   6
ATOM      6  C   UNL     1      10.137 -13.691 -21.593  1.00  0.00     0.000 C 
BRANCH   6   7
ATOM      7  C   UNL     1      10.161 -13.757 -20.058  1.00  0.00    -0.003 C 
ATOM      8  C   UNL     1      10.868 -15.020 -19.574  1.00  0.00     0.004 C 
ENDBRANCH   6   7
ENDBRANCH   1   6
TORSDOF 4
ENDMDL
MODEL 9
REMARK VINA RESULT:    -3.228      2.339      3.872
REMARK INTER + INTRA:          -4.146
REMARK INTER:                  -4.006
REMARK INTRA:                  -0.140
REMARK UNBOUND:                -0.164
REMARK SMILES CCCCCC(=O)[O-]
REMARK SMILES IDX 4 1 5 2 6 3 7 4 8 5 3 6 2 7 1 8
REMARK H PARENT
REMARK Flexibility Score: inf
ROOT
ATOM      1  C   UNL     1      10.191 -14.308 -24.143  1.00  0.00     0.006 C 
ENDROOT
BRANCH   1   2
ATOM      2  C   UNL     1      10.965 -13.560 -23.050  1.00  0.00     0.053 C 
BRANCH   2   3
ATOM      3  C   UNL     1      10.100 -12.515 -22.419  1.00  0.00     0.041 C 
ATOM      4  O   UNL     1      10.026 -12.426 -21.166  1.00  0.00    -0.550 OA
ATOM      5  O   UNL     1       9.414 -11.607 -23.216  1.00  0.00    -0.550 OA
ENDBRANCH   2   3
ENDBRANCH   1   2
BRANCH   1   6
ATOM      6  C   UNL     1       9.858 -15.755 -23.748  1.00  0.00     0.000 C 
BRANCH   6   7
ATOM      7  C   UNL     1      10.747 -16.275 -22.608  1.00  0.00    -0.003 C 
ATOM      8  C   UNL     1       9.999 -17.291 -21.749  1.00  0.00     0.004 C 
ENDBRANCH   6   7
ENDBRANCH   1   6
TORSDOF 4
ENDMDL
